
     RDKit          3D

 45 47  0  0  0  0  0  0  0  0999 V2000
   -5.9983   -1.9572    1.4827 C   0  0  0  0  0  0  0  0  0  0  0  0
   -4.7240   -1.5216    2.1847 C   0  0  0  0  0  0  0  0  0  0  0  0
   -4.3323   -0.2169    1.7667 O   0  0  0  0  0  0  0  0  0  0  0  0
   -3.5444   -0.0711    0.6579 C   0  0  0  0  0  0  0  0  0  0  0  0
   -3.1242   -1.1067   -0.1797 C   0  0  0  0  0  0  0  0  0  0  0  0
   -2.3409   -0.8343   -1.3088 C   0  0  0  0  0  0  0  0  0  0  0  0
   -1.9744    0.4784   -1.6202 C   0  0  0  0  0  0  0  0  0  0  0  0
   -1.1747    0.7495   -2.8140 C   0  0  0  0  0  0  0  0  0  0  0  0
    0.1568    0.9002   -2.8369 C   0  0  0  0  0  0  0  0  0  0  0  0
    1.0287    1.2022   -4.3063 S   0  0  0  0  0  0  0  0  0  0  0  0
    2.5951    1.2156   -3.5026 C   0  0  0  0  0  0  0  0  0  0  0  0
    4.0328    1.5103   -4.2964 S   0  0  0  0  0  0  0  0  0  0  0  0
    2.3964    0.9891   -2.1577 N   0  0  0  0  0  0  0  0  0  0  0  0
    3.4654    0.8657   -1.2472 N   0  0  0  0  0  0  0  0  0  0  0  0
    3.9265   -0.4223   -1.0288 C   0  0  0  0  0  0  0  0  0  0  0  0
    3.5910   -1.3891   -1.7051 O   0  0  0  0  0  0  0  0  0  0  0  0
    4.8459   -0.5963    0.1241 C   0  0  0  0  0  0  0  0  0  0  0  0
    4.8848   -1.8373    0.7589 C   0  0  0  0  0  0  0  0  0  0  0  0
    5.7458   -1.9914    1.8285 C   0  0  0  0  0  0  0  0  0  0  0  0
    6.5546   -1.0112    2.2833 N   0  0  0  0  0  0  0  0  0  0  0  0
    6.5122    0.1728    1.6369 C   0  0  0  0  0  0  0  0  0  0  0  0
    5.6824    0.4313    0.5604 C   0  0  0  0  0  0  0  0  0  0  0  0
    1.1031    0.8372   -1.6835 C   0  0  0  0  0  0  0  0  0  0  0  0
    0.7956    0.7198   -0.5051 O   0  0  0  0  0  0  0  0  0  0  0  0
   -2.3913    1.5207   -0.7923 C   0  0  0  0  0  0  0  0  0  0  0  0
   -3.1509    1.2405    0.3464 C   0  0  0  0  0  0  0  0  0  0  0  0
   -3.5564    2.3123    1.1051 O   0  0  0  0  0  0  0  0  0  0  0  0
   -2.7244    2.4369    2.2584 C   0  0  0  0  0  0  0  0  0  0  0  0
   -6.3404   -2.9228    1.8660 H   0  0  0  0  0  0  0  0  0  0  0  0
   -6.7916   -1.2175    1.6339 H   0  0  0  0  0  0  0  0  0  0  0  0
   -5.8507   -2.0465    0.4025 H   0  0  0  0  0  0  0  0  0  0  0  0
   -3.9174   -2.2549    2.0844 H   0  0  0  0  0  0  0  0  0  0  0  0
   -4.9307   -1.4521    3.2587 H   0  0  0  0  0  0  0  0  0  0  0  0
   -3.3954   -2.1403    0.0035 H   0  0  0  0  0  0  0  0  0  0  0  0
   -2.0280   -1.6597   -1.9454 H   0  0  0  0  0  0  0  0  0  0  0  0
   -1.7541    0.8107   -3.7330 H   0  0  0  0  0  0  0  0  0  0  0  0
    3.4108    1.4951   -0.4523 H   0  0  0  0  0  0  0  0  0  0  0  0
    4.2592   -2.6610    0.4307 H   0  0  0  0  0  0  0  0  0  0  0  0
    5.8137   -2.9344    2.3634 H   0  0  0  0  0  0  0  0  0  0  0  0
    7.1937    0.9289    2.0160 H   0  0  0  0  0  0  0  0  0  0  0  0
    5.7244    1.3961    0.0705 H   0  0  0  0  0  0  0  0  0  0  0  0
   -2.1310    2.5516   -1.0165 H   0  0  0  0  0  0  0  0  0  0  0  0
   -2.7731    1.5502    2.8995 H   0  0  0  0  0  0  0  0  0  0  0  0
   -3.0845    3.2926    2.8376 H   0  0  0  0  0  0  0  0  0  0  0  0
   -1.6858    2.6368    1.9703 H   0  0  0  0  0  0  0  0  0  0  0  0
  1  2  1  0
  2  3  1  0
  3  4  1  0
  4  5  2  0
  5  6  1  0
  6  7  2  0
  7  8  1  0
  8  9  2  3
  9 10  1  0
 10 11  1  0
 11 12  2  0
 11 13  1  0
 13 14  1  0
 14 15  1  0
 15 16  2  0
 15 17  1  0
 17 18  2  0
 18 19  1  0
 19 20  2  0
 20 21  1  0
 21 22  2  0
 13 23  1  0
 23 24  2  0
  7 25  1  0
 25 26  2  0
 26 27  1  0
 27 28  1  0
 26  4  1  0
 23  9  1  0
 22 17  1  0
  1 29  1  0
  1 30  1  0
  1 31  1  0
  2 32  1  0
  2 33  1  0
  5 34  1  0
  6 35  1  0
  8 36  1  0
 14 37  1  0
 18 38  1  0
 19 39  1  0
 21 40  1  0
 22 41  1  0
 25 42  1  0
 28 43  1  0
 28 44  1  0
 28 45  1  0
M  END
$$$$
