
     RDKit          3D

 47 51  0  0  0  0  0  0  0  0999 V2000
   -1.0756   -0.1885   -4.6783 C   0  0  0  0  0  0  0  0  0  0  0  0
   -1.4348    0.1861   -3.2747 C   0  0  0  0  0  0  0  0  0  0  0  0
   -2.6939    0.1823   -2.9150 N   0  0  0  0  0  0  0  0  0  0  0  0
   -2.9810    0.5261   -1.6232 C   0  0  0  0  0  0  0  0  0  0  0  0
   -4.5760    0.5267   -1.0084 S   0  0  0  0  0  0  0  0  0  0  0  0
   -4.0467    1.0216    0.5398 C   0  0  0  0  0  0  0  0  0  0  0  0
   -2.6774    1.2036    0.6117 C   0  0  0  0  0  0  0  0  0  0  0  0
   -2.0936    0.8993   -0.6358 C   0  0  0  0  0  0  0  0  0  0  0  0
   -0.6370    0.8918   -1.1036 C   0  0  0  0  0  0  0  0  0  0  0  0
    0.4598    1.1671   -0.4453 N   0  0  0  0  0  0  0  0  0  0  0  0
    1.4968    0.9876   -1.3229 N   0  0  0  0  0  0  0  0  0  0  0  0
    0.9994    0.5942   -2.4801 C   0  0  0  0  0  0  0  0  0  0  0  0
    1.9866    0.1963   -3.8430 S   0  0  0  0  0  0  0  0  0  0  0  0
    3.5583   -0.2034   -3.0177 C   0  0  0  0  0  0  0  0  0  0  0  0
    3.4160   -1.4885   -2.2196 C   0  0  0  0  0  0  0  0  0  0  0  0
    3.4230   -2.5963   -2.7525 O   0  0  0  0  0  0  0  0  0  0  0  0
    3.2666   -1.3092   -0.8643 N   0  0  0  0  0  0  0  0  0  0  0  0
    2.9767   -2.4299   -0.0010 C   0  0  0  0  0  0  0  0  0  0  0  0
    3.3605   -2.0623    1.3807 C   0  0  0  0  0  0  0  0  0  0  0  0
    4.4925   -2.2826    2.1375 C   0  0  0  0  0  0  0  0  0  0  0  0
    4.2642   -1.6584    3.3884 C   0  0  0  0  0  0  0  0  0  0  0  0
    3.0100   -1.0998    3.3141 C   0  0  0  0  0  0  0  0  0  0  0  0
    2.4521   -1.3407    2.0993 O   0  0  0  0  0  0  0  0  0  0  0  0
   -0.3750    0.5267   -2.4076 N   0  0  0  0  0  0  0  0  0  0  0  0
   -1.9881    1.6218    1.8728 C   0  0  0  0  0  0  0  0  0  0  0  0
   -2.9822    2.1911    2.8987 C   0  0  0  0  0  0  0  0  0  0  0  0
   -4.2468    1.3264    3.0049 C   0  0  0  0  0  0  0  0  0  0  0  0
   -5.0032    1.2515    1.6686 C   0  0  0  0  0  0  0  0  0  0  0  0
   -0.4640   -1.0934   -4.6881 H   0  0  0  0  0  0  0  0  0  0  0  0
   -1.9861   -0.4033   -5.2462 H   0  0  0  0  0  0  0  0  0  0  0  0
   -0.5656    0.6385   -5.1778 H   0  0  0  0  0  0  0  0  0  0  0  0
    3.8902    0.6246   -2.3827 H   0  0  0  0  0  0  0  0  0  0  0  0
    4.3320   -0.3581   -3.7757 H   0  0  0  0  0  0  0  0  0  0  0  0
    2.9232   -0.4037   -0.5455 H   0  0  0  0  0  0  0  0  0  0  0  0
    1.9053   -2.6437   -0.0713 H   0  0  0  0  0  0  0  0  0  0  0  0
    3.5253   -3.3160   -0.3377 H   0  0  0  0  0  0  0  0  0  0  0  0
    5.3743   -2.8223    1.8195 H   0  0  0  0  0  0  0  0  0  0  0  0
    4.9330   -1.6173    4.2372 H   0  0  0  0  0  0  0  0  0  0  0  0
    2.4014   -0.5280    4.0014 H   0  0  0  0  0  0  0  0  0  0  0  0
   -1.2182    2.3714    1.6605 H   0  0  0  0  0  0  0  0  0  0  0  0
   -1.4836    0.7477    2.3034 H   0  0  0  0  0  0  0  0  0  0  0  0
   -3.2669    3.2110    2.6074 H   0  0  0  0  0  0  0  0  0  0  0  0
   -2.4953    2.2610    3.8779 H   0  0  0  0  0  0  0  0  0  0  0  0
   -3.9594    0.3154    3.3205 H   0  0  0  0  0  0  0  0  0  0  0  0
   -4.9117    1.7261    3.7789 H   0  0  0  0  0  0  0  0  0  0  0  0
   -5.5338    2.1957    1.4986 H   0  0  0  0  0  0  0  0  0  0  0  0
   -5.7513    0.4535    1.7205 H   0  0  0  0  0  0  0  0  0  0  0  0
  1  2  1  0
  2  3  2  0
  3  4  1  0
  4  5  1  0
  5  6  1  0
  6  7  2  0
  7  8  1  0
  8  9  1  0
  9 10  2  0
 10 11  1  0
 11 12  2  0
 12 13  1  0
 13 14  1  0
 14 15  1  0
 15 16  2  0
 15 17  1  0
 17 18  1  0
 18 19  1  0
 19 20  2  0
 20 21  1  0
 21 22  2  0
 22 23  1  0
 12 24  1  0
  7 25  1  0
 25 26  1  0
 26 27  1  0
 27 28  1  0
 24  2  1  0
  8  4  2  0
 24  9  1  0
 28  6  1  0
 23 19  1  0
  1 29  1  0
  1 30  1  0
  1 31  1  0
 14 32  1  0
 14 33  1  0
 17 34  1  0
 18 35  1  0
 18 36  1  0
 20 37  1  0
 21 38  1  0
 22 39  1  0
 25 40  1  0
 25 41  1  0
 26 42  1  0
 26 43  1  0
 27 44  1  0
 27 45  1  0
 28 46  1  0
 28 47  1  0
M  END
$$$$
