
     RDKit          3D

 52 51  0  0  0  0  0  0  0  0999 V2000
   -6.1414    1.1230   -2.9458 C   0  0  0  0  0  0  0  0  0  0  0  0
   -5.8204    1.4354   -1.8309 C   0  0  0  0  0  0  0  0  0  0  0  0
   -5.4391    1.8322   -0.4719 C   0  0  0  0  0  0  0  0  0  0  0  0
   -4.6262    0.7293    0.2654 N   0  0  0  0  0  4  0  0  0  0  0  0
   -4.4515    1.2327    1.6978 C   0  0  0  0  0  0  0  0  0  0  0  0
   -5.4360   -0.5614    0.2848 C   0  0  0  0  0  0  0  0  0  0  0  0
   -3.2637    0.5700   -0.4377 C   0  0  0  0  0  0  0  0  0  0  0  0
   -2.4874   -0.7279   -0.1742 C   0  0  0  0  0  0  0  0  0  0  0  0
   -1.9213   -0.9019    1.2340 C   0  0  0  0  0  0  0  0  0  0  0  0
   -0.9223   -2.0603    1.3560 C   0  0  0  0  0  0  0  0  0  0  0  0
    0.3633   -1.9382    0.5314 C   0  0  0  0  0  0  0  0  0  0  0  0
    1.1659   -0.6710    0.8318 C   0  0  0  0  0  0  0  0  0  0  0  0
    2.4988   -0.6668    0.0776 C   0  0  0  0  0  0  0  0  0  0  0  0
    3.2995    0.6027    0.3765 C   0  0  0  0  0  0  0  0  0  0  0  0
    4.5891    0.7194   -0.4428 C   0  0  0  0  0  0  0  0  0  0  0  0
    5.6368   -0.3364   -0.0797 C   0  0  0  0  0  0  0  0  0  0  0  0
    6.9278   -0.2121   -0.8935 C   0  0  0  0  0  0  0  0  0  0  0  0
    7.7163    1.0541   -0.5965 C   0  0  0  0  0  0  0  0  0  0  0  0
   -6.4324    0.8574   -3.9386 H   0  0  0  0  0  0  0  0  0  0  0  0
   -4.8163    2.7340   -0.4809 H   0  0  0  0  0  0  0  0  0  0  0  0
   -6.3349    2.0298    0.1283 H   0  0  0  0  0  0  0  0  0  0  0  0
   -5.4412    1.4485    2.1133 H   0  0  0  0  0  0  0  0  0  0  0  0
   -3.9753    0.4638    2.3026 H   0  0  0  0  0  0  0  0  0  0  0  0
   -3.8428    2.1413    1.6779 H   0  0  0  0  0  0  0  0  0  0  0  0
   -6.4478   -0.3319    0.6333 H   0  0  0  0  0  0  0  0  0  0  0  0
   -4.9633   -1.2631    0.9770 H   0  0  0  0  0  0  0  0  0  0  0  0
   -5.4597   -0.9850   -0.7228 H   0  0  0  0  0  0  0  0  0  0  0  0
   -2.6603    1.4485   -0.1798 H   0  0  0  0  0  0  0  0  0  0  0  0
   -3.4525    0.6107   -1.5155 H   0  0  0  0  0  0  0  0  0  0  0  0
   -3.0881   -1.6037   -0.4437 H   0  0  0  0  0  0  0  0  0  0  0  0
   -1.6531   -0.7188   -0.8854 H   0  0  0  0  0  0  0  0  0  0  0  0
   -2.7384   -1.1290    1.9246 H   0  0  0  0  0  0  0  0  0  0  0  0
   -1.4610    0.0303    1.5782 H   0  0  0  0  0  0  0  0  0  0  0  0
   -0.6480   -2.1632    2.4137 H   0  0  0  0  0  0  0  0  0  0  0  0
   -1.4255   -2.9948    1.0779 H   0  0  0  0  0  0  0  0  0  0  0  0
    0.9854   -2.8163    0.7471 H   0  0  0  0  0  0  0  0  0  0  0  0
    0.1323   -1.9865   -0.5386 H   0  0  0  0  0  0  0  0  0  0  0  0
    1.3540   -0.6007    1.9098 H   0  0  0  0  0  0  0  0  0  0  0  0
    0.5892    0.2145    0.5416 H   0  0  0  0  0  0  0  0  0  0  0  0
    2.3100   -0.7378   -1.0003 H   0  0  0  0  0  0  0  0  0  0  0  0
    3.0755   -1.5522    0.3668 H   0  0  0  0  0  0  0  0  0  0  0  0
    2.6757    1.4777    0.1546 H   0  0  0  0  0  0  0  0  0  0  0  0
    3.5374    0.6485    1.4462 H   0  0  0  0  0  0  0  0  0  0  0  0
    5.0020    1.7194   -0.2684 H   0  0  0  0  0  0  0  0  0  0  0  0
    4.3527    0.6559   -1.5118 H   0  0  0  0  0  0  0  0  0  0  0  0
    5.2274   -1.3367   -0.2594 H   0  0  0  0  0  0  0  0  0  0  0  0
    5.8694   -0.2757    0.9903 H   0  0  0  0  0  0  0  0  0  0  0  0
    6.7003   -0.2584   -1.9648 H   0  0  0  0  0  0  0  0  0  0  0  0
    7.5636   -1.0765   -0.6672 H   0  0  0  0  0  0  0  0  0  0  0  0
    8.6729    1.0335   -1.1287 H   0  0  0  0  0  0  0  0  0  0  0  0
    7.1778    1.9489   -0.9213 H   0  0  0  0  0  0  0  0  0  0  0  0
    7.9265    1.1447    0.4738 H   0  0  0  0  0  0  0  0  0  0  0  0
  1  2  3  0
  2  3  1  0
  3  4  1  0
  4  5  1  0
  4  6  1  0
  4  7  1  0
  7  8  1  0
  8  9  1  0
  9 10  1  0
 10 11  1  0
 11 12  1  0
 12 13  1  0
 13 14  1  0
 14 15  1  0
 15 16  1  0
 16 17  1  0
 17 18  1  0
  1 19  1  0
  3 20  1  0
  3 21  1  0
  5 22  1  0
  5 23  1  0
  5 24  1  0
  6 25  1  0
  6 26  1  0
  6 27  1  0
  7 28  1  0
  7 29  1  0
  8 30  1  0
  8 31  1  0
  9 32  1  0
  9 33  1  0
 10 34  1  0
 10 35  1  0
 11 36  1  0
 11 37  1  0
 12 38  1  0
 12 39  1  0
 13 40  1  0
 13 41  1  0
 14 42  1  0
 14 43  1  0
 15 44  1  0
 15 45  1  0
 16 46  1  0
 16 47  1  0
 17 48  1  0
 17 49  1  0
 18 50  1  0
 18 51  1  0
 18 52  1  0
M  CHG  1   4   1
M  END
$$$$
