
     RDKit          3D

 38 38  0  0  0  0  0  0  0  0999 V2000
    3.4089   -0.9346    2.4809 C   0  0  0  0  0  0  0  0  0  0  0  0
    4.4534   -0.0678    2.8940 O   0  0  0  0  0  0  0  0  0  0  0  0
    4.1636    1.3220    2.7318 C   0  0  0  0  0  0  0  0  0  0  0  0
    4.1006    1.7726    1.2685 C   0  0  0  0  0  0  0  0  0  0  0  0
    2.7975    1.5434    0.6576 N   0  0  0  0  0  0  0  0  0  0  0  0
    2.6539    1.5884   -0.7149 C   0  0  0  0  0  0  0  0  0  0  0  0
    3.5905    1.7199   -1.4926 O   0  0  0  0  0  0  0  0  0  0  0  0
    1.2438    1.5181   -1.1990 C   0  0  0  0  0  0  0  0  0  0  0  0
    0.8720    2.4736   -2.1814 C   0  0  0  0  0  0  0  0  0  0  0  0
    0.5386    3.2681   -2.9601 N   0  0  0  0  0  0  0  0  0  0  0  0
    0.4683    0.5220   -0.7218 C   0  0  0  0  0  0  0  0  0  0  0  0
   -0.9318    0.1658   -0.9862 C   0  0  0  0  0  0  0  0  0  0  0  0
   -1.7946    1.0798   -1.8225 C   0  0  0  0  0  0  0  0  0  0  0  0
   -1.4053   -0.9751   -0.4384 C   0  0  0  0  0  0  0  0  0  0  0  0
   -2.7657   -1.4982   -0.5965 C   0  0  0  0  0  0  0  0  0  0  0  0
   -3.1318   -2.1800   -1.7623 C   0  0  0  0  0  0  0  0  0  0  0  0
   -4.4283   -2.6772   -1.9059 C   0  0  0  0  0  0  0  0  0  0  0  0
   -5.3619   -2.4966   -0.8860 C   0  0  0  0  0  0  0  0  0  0  0  0
   -5.0012   -1.8191    0.2783 C   0  0  0  0  0  0  0  0  0  0  0  0
   -3.7052   -1.3209    0.4243 C   0  0  0  0  0  0  0  0  0  0  0  0
    3.6403   -1.9415    2.8395 H   0  0  0  0  0  0  0  0  0  0  0  0
    2.4492   -0.6270    2.9072 H   0  0  0  0  0  0  0  0  0  0  0  0
    3.3495   -0.9735    1.3903 H   0  0  0  0  0  0  0  0  0  0  0  0
    3.2487    1.5774    3.2792 H   0  0  0  0  0  0  0  0  0  0  0  0
    4.9895    1.8536    3.2166 H   0  0  0  0  0  0  0  0  0  0  0  0
    4.2759    2.8524    1.2090 H   0  0  0  0  0  0  0  0  0  0  0  0
    4.8664    1.2637    0.6731 H   0  0  0  0  0  0  0  0  0  0  0  0
    1.9752    1.6901    1.2301 H   0  0  0  0  0  0  0  0  0  0  0  0
    0.9538   -0.1698   -0.0284 H   0  0  0  0  0  0  0  0  0  0  0  0
   -1.7779    2.0992   -1.4229 H   0  0  0  0  0  0  0  0  0  0  0  0
   -2.8478    0.7844   -1.8404 H   0  0  0  0  0  0  0  0  0  0  0  0
   -1.4526    1.0865   -2.8624 H   0  0  0  0  0  0  0  0  0  0  0  0
   -0.7749   -1.6162    0.1752 H   0  0  0  0  0  0  0  0  0  0  0  0
   -2.4121   -2.3258   -2.5644 H   0  0  0  0  0  0  0  0  0  0  0  0
   -4.7097   -3.2050   -2.8136 H   0  0  0  0  0  0  0  0  0  0  0  0
   -6.3715   -2.8834   -0.9993 H   0  0  0  0  0  0  0  0  0  0  0  0
   -5.7303   -1.6776    1.0720 H   0  0  0  0  0  0  0  0  0  0  0  0
   -3.4369   -0.7917    1.3352 H   0  0  0  0  0  0  0  0  0  0  0  0
  1  2  1  0
  2  3  1  0
  3  4  1  0
  4  5  1  0
  5  6  1  0
  6  7  2  0
  6  8  1  0
  8  9  1  0
  9 10  3  0
  8 11  2  3
 11 12  1  0
 12 13  1  0
 12 14  2  3
 14 15  1  0
 15 16  2  0
 16 17  1  0
 17 18  2  0
 18 19  1  0
 19 20  2  0
 20 15  1  0
  1 21  1  0
  1 22  1  0
  1 23  1  0
  3 24  1  0
  3 25  1  0
  4 26  1  0
  4 27  1  0
  5 28  1  0
 11 29  1  0
 13 30  1  0
 13 31  1  0
 13 32  1  0
 14 33  1  0
 16 34  1  0
 17 35  1  0
 18 36  1  0
 19 37  1  0
 20 38  1  0
M  END
$$$$
