
     RDKit          3D

 51 55  0  0  0  0  0  0  0  0999 V2000
    4.1450   -1.2913   -1.8607 F   0  0  0  0  0  0  0  0  0  0  0  0
    4.8488   -1.2781   -0.7194 C   0  0  0  0  0  0  0  0  0  0  0  0
    6.1010   -1.8844   -0.6956 C   0  0  0  0  0  0  0  0  0  0  0  0
    6.8523   -1.8661    0.4788 C   0  0  0  0  0  0  0  0  0  0  0  0
    6.3456   -1.2400    1.6186 C   0  0  0  0  0  0  0  0  0  0  0  0
    5.0862   -0.6346    1.5885 C   0  0  0  0  0  0  0  0  0  0  0  0
    4.3217   -0.6514    0.4150 C   0  0  0  0  0  0  0  0  0  0  0  0
    2.9706    0.0188    0.3583 C   0  0  0  0  0  0  0  0  0  0  0  0
    3.0807    1.4579   -0.1654 C   0  0  0  0  0  0  0  0  0  0  0  0
    1.8497    2.2296   -0.3554 N   0  0  0  0  0  0  0  0  0  0  0  0
    1.0159    2.4163    0.8418 C   0  0  0  0  0  0  0  0  0  0  0  0
   -0.0935    1.3684    1.0775 C   0  0  0  0  0  0  0  0  0  0  0  0
   -0.9060    1.1761   -0.1384 N   0  0  0  0  0  0  0  0  0  0  0  0
   -2.1239    0.5130    0.0000 C   0  0  0  0  0  0  0  0  0  0  0  0
   -2.3039   -0.2923    1.0169 N   0  0  0  0  0  0  0  0  0  0  0  0
   -3.5135   -1.0010    1.1621 C   0  0  0  0  0  0  0  0  0  0  0  0
   -3.6498   -1.8624    2.2526 C   0  0  0  0  0  0  0  0  0  0  0  0
   -4.8244   -2.5962    2.4402 C   0  0  0  0  0  0  0  0  0  0  0  0
   -5.8780   -2.4752    1.5333 C   0  0  0  0  0  0  0  0  0  0  0  0
   -5.7643   -1.6207    0.4357 C   0  0  0  0  0  0  0  0  0  0  0  0
   -4.5835   -0.8928    0.2615 C   0  0  0  0  0  0  0  0  0  0  0  0
   -4.3891   -0.0033   -0.8077 N   0  0  0  0  0  0  0  0  0  0  0  0
   -5.2424    0.3422   -1.8297 C   0  0  0  0  0  0  0  0  0  0  0  0
   -4.6220    1.3005   -2.6033 C   0  0  0  0  0  0  0  0  0  0  0  0
   -3.3468    1.5342   -2.0381 C   0  0  0  0  0  0  0  0  0  0  0  0
   -3.2116    0.6952   -0.9461 C   0  0  0  0  0  0  0  0  0  0  0  0
   -0.0695    0.8118   -1.2979 C   0  0  0  0  0  0  0  0  0  0  0  0
    1.0438    1.8542   -1.5278 C   0  0  0  0  0  0  0  0  0  0  0  0
    6.4832   -2.3621   -1.5924 H   0  0  0  0  0  0  0  0  0  0  0  0
    7.8324   -2.3353    0.5054 H   0  0  0  0  0  0  0  0  0  0  0  0
    6.9345   -1.2205    2.5335 H   0  0  0  0  0  0  0  0  0  0  0  0
    4.7098   -0.1471    2.4853 H   0  0  0  0  0  0  0  0  0  0  0  0
    2.5322    0.0075    1.3621 H   0  0  0  0  0  0  0  0  0  0  0  0
    2.3125   -0.5826   -0.2763 H   0  0  0  0  0  0  0  0  0  0  0  0
    3.6384    1.4615   -1.1119 H   0  0  0  0  0  0  0  0  0  0  0  0
    3.7204    2.0263    0.5244 H   0  0  0  0  0  0  0  0  0  0  0  0
    0.5266    3.3936    0.7340 H   0  0  0  0  0  0  0  0  0  0  0  0
    1.6399    2.5023    1.7395 H   0  0  0  0  0  0  0  0  0  0  0  0
   -0.7301    1.7290    1.8953 H   0  0  0  0  0  0  0  0  0  0  0  0
    0.3365    0.4116    1.3926 H   0  0  0  0  0  0  0  0  0  0  0  0
   -2.8301   -1.9600    2.9595 H   0  0  0  0  0  0  0  0  0  0  0  0
   -4.9143   -3.2619    3.2949 H   0  0  0  0  0  0  0  0  0  0  0  0
   -6.7899   -3.0482    1.6837 H   0  0  0  0  0  0  0  0  0  0  0  0
   -6.5973   -1.5419   -0.2552 H   0  0  0  0  0  0  0  0  0  0  0  0
   -6.2252   -0.0965   -1.9257 H   0  0  0  0  0  0  0  0  0  0  0  0
   -5.0483    1.7859   -3.4726 H   0  0  0  0  0  0  0  0  0  0  0  0
   -2.6057    2.2422   -2.3849 H   0  0  0  0  0  0  0  0  0  0  0  0
   -0.6693    0.7493   -2.2118 H   0  0  0  0  0  0  0  0  0  0  0  0
    0.3580   -0.1836   -1.1377 H   0  0  0  0  0  0  0  0  0  0  0  0
    1.6857    1.5272   -2.3548 H   0  0  0  0  0  0  0  0  0  0  0  0
    0.5612    2.7748   -1.8831 H   0  0  0  0  0  0  0  0  0  0  0  0
  1  2  1  0
  2  3  2  0
  3  4  1  0
  4  5  2  0
  5  6  1  0
  6  7  2  0
  7  8  1  0
  8  9  1  0
  9 10  1  0
 10 11  1  0
 11 12  1  0
 12 13  1  0
 13 14  1  0
 14 15  2  0
 15 16  1  0
 16 17  2  0
 17 18  1  0
 18 19  2  0
 19 20  1  0
 20 21  2  0
 21 22  1  0
 22 23  1  0
 23 24  2  0
 24 25  1  0
 25 26  2  0
 13 27  1  0
 27 28  1  0
  7  2  1  0
 28 10  1  0
 26 14  1  0
 21 16  1  0
 26 22  1  0
  3 29  1  0
  4 30  1  0
  5 31  1  0
  6 32  1  0
  8 33  1  0
  8 34  1  0
  9 35  1  0
  9 36  1  0
 11 37  1  0
 11 38  1  0
 12 39  1  0
 12 40  1  0
 17 41  1  0
 18 42  1  0
 19 43  1  0
 20 44  1  0
 23 45  1  0
 24 46  1  0
 25 47  1  0
 27 48  1  0
 27 49  1  0
 28 50  1  0
 28 51  1  0
M  END
$$$$
