
     RDKit          3D

 73 75  0  0  0  0  0  0  0  0999 V2000
   -3.8420    0.2916   -2.5507 C   0  0  0  0  0  0  0  0  0  0  0  0
   -2.3454    0.0233   -2.6495 C   0  0  0  0  0  0  0  0  0  0  0  0
   -1.6328   -0.4786   -1.3839 C   0  0  0  0  0  0  0  0  0  0  0  0
   -1.9509    0.4986    0.1352 S   0  0  0  0  0  0  0  0  0  0  0  0
   -0.7147    1.7173   -0.0750 C   0  0  0  0  0  0  0  0  0  0  0  0
   -0.9412    2.6096   -0.9800 N   0  0  0  0  0  0  0  0  0  0  0  0
    0.0092    3.6141   -1.1817 C   0  0  0  0  0  0  0  0  0  0  0  0
   -0.2405    4.5935   -2.1453 C   0  0  0  0  0  0  0  0  0  0  0  0
    0.6875    5.6143   -2.3860 C   0  0  0  0  0  0  0  0  0  0  0  0
    0.5182    6.6111   -3.3150 O   0  0  0  0  0  0  0  0  0  0  0  0
   -0.6694    6.5927   -4.0950 C   0  0  0  0  0  0  0  0  0  0  0  0
    1.8900    5.6534   -1.6489 C   0  0  0  0  0  0  0  0  0  0  0  0
    2.7476    6.6829   -1.9456 O   0  0  0  0  0  0  0  0  0  0  0  0
    4.0174    6.6878   -1.3081 C   0  0  0  0  0  0  0  0  0  0  0  0
    2.1367    4.6765   -0.6819 C   0  0  0  0  0  0  0  0  0  0  0  0
    1.1934    3.6670   -0.4591 C   0  0  0  0  0  0  0  0  0  0  0  0
    1.4273    2.6176    0.5473 C   0  0  0  0  0  0  0  0  0  0  0  0
    2.4904    2.6068    1.1640 O   0  0  0  0  0  0  0  0  0  0  0  0
    0.4151    1.6750    0.7228 N   0  0  0  0  0  0  0  0  0  0  0  0
    0.6892    0.6190    1.7085 C   0  0  0  0  0  0  0  0  0  0  0  0
    1.5166   -0.5203    1.0965 C   0  0  0  0  0  0  0  0  0  0  0  0
    1.7272   -1.6515    2.0703 C   0  0  0  0  0  0  0  0  0  0  0  0
    0.9877   -2.8318    1.9560 C   0  0  0  0  0  0  0  0  0  0  0  0
    1.1734   -3.8731    2.8687 C   0  0  0  0  0  0  0  0  0  0  0  0
    2.0988   -3.7481    3.9106 C   0  0  0  0  0  0  0  0  0  0  0  0
    2.3456   -4.7189    4.8502 O   0  0  0  0  0  0  0  0  0  0  0  0
    1.5784   -5.9121    4.7801 C   0  0  0  0  0  0  0  0  0  0  0  0
    2.8504   -2.5623    4.0331 C   0  0  0  0  0  0  0  0  0  0  0  0
    3.7373   -2.5147    5.0808 O   0  0  0  0  0  0  0  0  0  0  0  0
    4.5210   -1.3386    5.2273 C   0  0  0  0  0  0  0  0  0  0  0  0
    2.6599   -1.5254    3.1114 C   0  0  0  0  0  0  0  0  0  0  0  0
   -1.9291   -1.9570   -1.1080 C   0  0  0  0  0  0  0  0  0  0  0  0
   -1.1163   -2.8341   -1.3976 O   0  0  0  0  0  0  0  0  0  0  0  0
   -3.1554   -2.2296   -0.5436 N   0  0  0  0  0  0  0  0  0  0  0  0
   -3.6855   -3.5768   -0.4367 C   0  0  0  0  0  0  0  0  0  0  0  0
   -4.6952   -3.8825   -1.5523 C   0  0  0  0  0  0  0  0  0  0  0  0
   -4.1611   -3.6969   -2.8654 O   0  0  0  0  0  0  0  0  0  0  0  0
   -3.3206   -4.7647   -3.2815 C   0  0  0  0  0  0  0  0  0  0  0  0
   -4.4041   -0.6174   -2.3223 H   0  0  0  0  0  0  0  0  0  0  0  0
   -4.0751    1.0492   -1.7974 H   0  0  0  0  0  0  0  0  0  0  0  0
   -4.2112    0.6647   -3.5128 H   0  0  0  0  0  0  0  0  0  0  0  0
   -1.8587    0.9476   -2.9856 H   0  0  0  0  0  0  0  0  0  0  0  0
   -2.1870   -0.7061   -3.4546 H   0  0  0  0  0  0  0  0  0  0  0  0
   -0.5528   -0.4352   -1.5744 H   0  0  0  0  0  0  0  0  0  0  0  0
   -1.1737    4.5300   -2.6945 H   0  0  0  0  0  0  0  0  0  0  0  0
   -0.6330    7.4454   -4.7793 H   0  0  0  0  0  0  0  0  0  0  0  0
   -1.5577    6.7099   -3.4658 H   0  0  0  0  0  0  0  0  0  0  0  0
   -0.7297    5.6825   -4.7004 H   0  0  0  0  0  0  0  0  0  0  0  0
    3.9142    6.8383   -0.2296 H   0  0  0  0  0  0  0  0  0  0  0  0
    4.5889    7.5295   -1.7090 H   0  0  0  0  0  0  0  0  0  0  0  0
    4.5761    5.7727   -1.5280 H   0  0  0  0  0  0  0  0  0  0  0  0
    3.0451    4.6773   -0.0883 H   0  0  0  0  0  0  0  0  0  0  0  0
    1.2349    1.0604    2.5527 H   0  0  0  0  0  0  0  0  0  0  0  0
   -0.2430    0.2341    2.1341 H   0  0  0  0  0  0  0  0  0  0  0  0
    1.0289   -0.9004    0.1910 H   0  0  0  0  0  0  0  0  0  0  0  0
    2.4945   -0.1486    0.7642 H   0  0  0  0  0  0  0  0  0  0  0  0
    0.2638   -2.9572    1.1517 H   0  0  0  0  0  0  0  0  0  0  0  0
    0.5800   -4.7708    2.7355 H   0  0  0  0  0  0  0  0  0  0  0  0
    1.8917   -6.5599    5.6050 H   0  0  0  0  0  0  0  0  0  0  0  0
    0.5105   -5.7050    4.9111 H   0  0  0  0  0  0  0  0  0  0  0  0
    1.7675   -6.4489    3.8441 H   0  0  0  0  0  0  0  0  0  0  0  0
    3.8889   -0.4616    5.4011 H   0  0  0  0  0  0  0  0  0  0  0  0
    5.1542   -1.4672    6.1091 H   0  0  0  0  0  0  0  0  0  0  0  0
    5.1776   -1.1903    4.3634 H   0  0  0  0  0  0  0  0  0  0  0  0
    3.2310   -0.6042    3.1786 H   0  0  0  0  0  0  0  0  0  0  0  0
   -3.7620   -1.4493   -0.3198 H   0  0  0  0  0  0  0  0  0  0  0  0
   -4.1825   -3.6495    0.5371 H   0  0  0  0  0  0  0  0  0  0  0  0
   -2.8605   -4.2959   -0.4507 H   0  0  0  0  0  0  0  0  0  0  0  0
   -5.0957   -4.8975   -1.4463 H   0  0  0  0  0  0  0  0  0  0  0  0
   -5.5408   -3.1899   -1.4647 H   0  0  0  0  0  0  0  0  0  0  0  0
   -2.4595   -4.8784   -2.6196 H   0  0  0  0  0  0  0  0  0  0  0  0
   -2.9521   -4.5431   -4.2882 H   0  0  0  0  0  0  0  0  0  0  0  0
   -3.8867   -5.7005   -3.3192 H   0  0  0  0  0  0  0  0  0  0  0  0
  1  2  1  0
  2  3  1  0
  3  4  1  0
  4  5  1  0
  5  6  2  0
  6  7  1  0
  7  8  2  0
  8  9  1  0
  9 10  1  0
 10 11  1  0
  9 12  2  0
 12 13  1  0
 13 14  1  0
 12 15  1  0
 15 16  2  0
 16 17  1  0
 17 18  2  0
 17 19  1  0
 19 20  1  0
 20 21  1  0
 21 22  1  0
 22 23  2  0
 23 24  1  0
 24 25  2  0
 25 26  1  0
 26 27  1  0
 25 28  1  0
 28 29  1  0
 29 30  1  0
 28 31  2  0
  3 32  1  0
 32 33  2  0
 32 34  1  0
 34 35  1  0
 35 36  1  0
 36 37  1  0
 37 38  1  0
 19  5  1  0
 31 22  1  0
 16  7  1  0
  1 39  1  0
  1 40  1  0
  1 41  1  0
  2 42  1  0
  2 43  1  0
  3 44  1  0
  8 45  1  0
 11 46  1  0
 11 47  1  0
 11 48  1  0
 14 49  1  0
 14 50  1  0
 14 51  1  0
 15 52  1  0
 20 53  1  0
 20 54  1  0
 21 55  1  0
 21 56  1  0
 23 57  1  0
 24 58  1  0
 27 59  1  0
 27 60  1  0
 27 61  1  0
 30 62  1  0
 30 63  1  0
 30 64  1  0
 31 65  1  0
 34 66  1  0
 35 67  1  0
 35 68  1  0
 36 69  1  0
 36 70  1  0
 38 71  1  0
 38 72  1  0
 38 73  1  0
M  END
$$$$
