
     RDKit          3D

 46 49  0  0  0  0  0  0  0  0999 V2000
    2.1708   -0.0455    1.2777 O   0  0  0  0  0  0  0  0  0  0  0  0
    2.2090   -1.1167    0.6842 C   0  0  0  0  0  0  0  0  0  0  0  0
    1.0119   -2.0433    0.5208 C   0  0  0  0  0  0  0  0  0  0  0  0
   -0.2613   -1.3380    0.7610 N   0  0  0  0  0  4  0  0  0  0  0  0
   -1.2193   -0.9964   -0.1923 C   0  0  0  0  0  0  0  0  0  0  0  0
   -2.2390   -0.2817    0.4275 C   0  0  0  0  0  0  0  0  0  0  0  0
   -3.5113    0.3271   -0.2704 C   0  0  0  0  0  0  0  0  0  0  0  0
   -4.4290    1.0893    0.4537 C   0  0  0  0  0  0  0  0  0  0  0  0
   -5.5559    1.6255   -0.1813 C   0  0  0  0  0  0  0  0  0  0  0  0
   -5.7742    1.4068   -1.5435 C   0  0  0  0  0  0  0  0  0  0  0  0
   -7.1842    2.0981   -2.2565 Cl  0  0  0  0  0  0  0  0  0  0  0  0
   -4.8555    0.6483   -2.2725 C   0  0  0  0  0  0  0  0  0  0  0  0
   -5.0462    0.3300   -3.9593 Cl  0  0  0  0  0  0  0  0  0  0  0  0
   -3.7265    0.1114   -1.6376 C   0  0  0  0  0  0  0  0  0  0  0  0
   -1.8440   -0.2500    1.7528 N   0  0  0  0  0  0  0  0  0  0  0  0
   -0.6615   -0.8362    1.9256 C   0  0  0  0  0  0  0  0  0  0  0  0
   -0.1843   -0.7875    3.3279 C   0  0  0  0  0  0  0  0  0  0  0  0
   -1.4584   -0.3618    4.0832 C   0  0  0  0  0  0  0  0  0  0  0  0
   -2.3654    0.2878    3.0026 C   0  0  0  0  0  0  0  0  0  0  0  0
    3.3048   -1.6680    0.1000 O   0  0  0  0  0  0  0  0  0  0  0  0
    4.4703   -0.8302    0.0456 C   0  0  0  0  0  0  0  0  0  0  0  0
    4.4288   -0.0250   -1.2258 C   0  0  0  0  0  0  0  0  0  0  0  0
    4.7093   -0.6317   -2.4586 C   0  0  0  0  0  0  0  0  0  0  0  0
    4.6472    0.1075   -3.6407 C   0  0  0  0  0  0  0  0  0  0  0  0
    4.2993    1.4563   -3.6029 C   0  0  0  0  0  0  0  0  0  0  0  0
    4.0116    2.0676   -2.3841 C   0  0  0  0  0  0  0  0  0  0  0  0
    4.0730    1.3306   -1.2004 C   0  0  0  0  0  0  0  0  0  0  0  0
    0.9965   -2.4427   -0.4984 H   0  0  0  0  0  0  0  0  0  0  0  0
    1.0905   -2.8651    1.2386 H   0  0  0  0  0  0  0  0  0  0  0  0
   -1.0431   -1.2963   -1.2117 H   0  0  0  0  0  0  0  0  0  0  0  0
   -4.2997    1.3006    1.5079 H   0  0  0  0  0  0  0  0  0  0  0  0
   -6.2641    2.2204    0.3939 H   0  0  0  0  0  0  0  0  0  0  0  0
   -3.0346   -0.4746   -2.2363 H   0  0  0  0  0  0  0  0  0  0  0  0
    0.5949   -0.0252    3.3754 H   0  0  0  0  0  0  0  0  0  0  0  0
    0.1847   -1.7728    3.6143 H   0  0  0  0  0  0  0  0  0  0  0  0
   -1.9577   -1.2558    4.4754 H   0  0  0  0  0  0  0  0  0  0  0  0
   -1.2542    0.3062    4.9242 H   0  0  0  0  0  0  0  0  0  0  0  0
   -3.4103    0.0041    3.1463 H   0  0  0  0  0  0  0  0  0  0  0  0
   -2.2519    1.3758    2.9924 H   0  0  0  0  0  0  0  0  0  0  0  0
    5.3496   -1.4844    0.0413 H   0  0  0  0  0  0  0  0  0  0  0  0
    4.5622   -0.1963    0.9359 H   0  0  0  0  0  0  0  0  0  0  0  0
    4.9863   -1.6830   -2.5059 H   0  0  0  0  0  0  0  0  0  0  0  0
    4.8781   -0.3657   -4.5924 H   0  0  0  0  0  0  0  0  0  0  0  0
    4.2602    2.0336   -4.5237 H   0  0  0  0  0  0  0  0  0  0  0  0
    3.7471    3.1220   -2.3563 H   0  0  0  0  0  0  0  0  0  0  0  0
    3.8454    1.8248   -0.2576 H   0  0  0  0  0  0  0  0  0  0  0  0
  1  2  2  0
  2  3  1  0
  3  4  1  0
  4  5  1  0
  5  6  2  0
  6  7  1  0
  7  8  2  0
  8  9  1  0
  9 10  2  0
 10 11  1  0
 10 12  1  0
 12 13  1  0
 12 14  2  0
  6 15  1  0
 15 16  1  0
 16 17  1  0
 17 18  1  0
 18 19  1  0
  2 20  1  0
 20 21  1  0
 21 22  1  0
 22 23  2  0
 23 24  1  0
 24 25  2  0
 25 26  1  0
 26 27  2  0
 16  4  2  0
 27 22  1  0
 14  7  1  0
 19 15  1  0
  3 28  1  0
  3 29  1  0
  5 30  1  0
  8 31  1  0
  9 32  1  0
 14 33  1  0
 17 34  1  0
 17 35  1  0
 18 36  1  0
 18 37  1  0
 19 38  1  0
 19 39  1  0
 21 40  1  0
 21 41  1  0
 23 42  1  0
 24 43  1  0
 25 44  1  0
 26 45  1  0
 27 46  1  0
M  CHG  1   4   1
M  END
$$$$
