
     RDKit          3D

 53 55  0  0  0  0  0  0  0  0999 V2000
    9.1133   -0.3848    3.0417 C   0  0  0  0  0  0  0  0  0  0  0  0
    8.4416    0.7708    2.5547 O   0  0  0  0  0  0  0  0  0  0  0  0
    7.1048    0.6463    2.2940 C   0  0  0  0  0  0  0  0  0  0  0  0
    6.4773    1.8328    1.8969 C   0  0  0  0  0  0  0  0  0  0  0  0
    5.1142    1.8541    1.5960 C   0  0  0  0  0  0  0  0  0  0  0  0
    4.3795    0.6715    1.6837 C   0  0  0  0  0  0  0  0  0  0  0  0
    2.6452    0.6675    1.3094 S   0  0  0  0  0  6  0  0  0  0  0  0
    2.2166    2.0337    1.1038 O   0  0  0  0  0  0  0  0  0  0  0  0
    1.9919   -0.1910    2.2725 O   0  0  0  0  0  0  0  0  0  0  0  0
    2.6001   -0.1061   -0.1755 N   0  0  0  0  0  0  0  0  0  0  0  0
    3.2493    0.5239   -1.3263 C   0  0  0  0  0  0  0  0  0  0  0  0
    2.7650   -0.3606   -2.4522 C   0  0  0  0  0  0  0  0  0  0  0  0
    1.4182   -0.6994   -2.1056 O   0  0  0  0  0  0  0  0  0  0  0  0
    1.2947   -0.5955   -0.6622 C   0  0  0  0  0  0  0  0  0  0  0  0
    0.0760    0.3083   -0.3752 C   0  0  0  0  0  0  0  0  0  0  0  0
   -1.1240   -0.1744   -1.0420 N   0  0  0  0  0  0  0  0  0  0  0  0
   -2.3862    0.1920   -0.6420 C   0  0  0  0  0  0  0  0  0  0  0  0
   -2.6771    0.8010    0.3771 O   0  0  0  0  0  0  0  0  0  0  0  0
   -3.4977   -0.2360   -1.6265 C   0  0  0  0  0  0  0  0  0  0  0  0
   -3.2060   -0.6881   -2.7241 O   0  0  0  0  0  0  0  0  0  0  0  0
   -4.7672   -0.0418   -1.1363 N   0  0  0  0  0  0  0  0  0  0  0  0
   -5.9309   -0.1986   -1.9770 C   0  0  0  0  0  0  0  0  0  0  0  0
   -7.2002   -0.3768   -1.1796 C   0  0  0  0  0  0  0  0  0  0  0  0
   -7.1921   -1.1915   -0.0296 C   0  0  0  0  0  0  0  0  0  0  0  0
   -8.3550   -1.4066    0.7136 C   0  0  0  0  0  0  0  0  0  0  0  0
   -9.5540   -0.8266    0.3131 C   0  0  0  0  0  0  0  0  0  0  0  0
   -9.5906   -0.0385   -0.8357 C   0  0  0  0  0  0  0  0  0  0  0  0
   -8.4263    0.1793   -1.5825 C   0  0  0  0  0  0  0  0  0  0  0  0
   -8.5771    1.1400   -3.0116 Cl  0  0  0  0  0  0  0  0  0  0  0  0
    4.9908   -0.5189    2.0873 C   0  0  0  0  0  0  0  0  0  0  0  0
    6.3561   -0.5295    2.3893 C   0  0  0  0  0  0  0  0  0  0  0  0
    8.6838   -0.7199    3.9922 H   0  0  0  0  0  0  0  0  0  0  0  0
    9.1050   -1.1890    2.2982 H   0  0  0  0  0  0  0  0  0  0  0  0
   10.1571   -0.1122    3.2251 H   0  0  0  0  0  0  0  0  0  0  0  0
    7.0587    2.7504    1.8293 H   0  0  0  0  0  0  0  0  0  0  0  0
    4.6432    2.7886    1.3007 H   0  0  0  0  0  0  0  0  0  0  0  0
    4.3393    0.5206   -1.2568 H   0  0  0  0  0  0  0  0  0  0  0  0
    2.8850    1.5478   -1.4626 H   0  0  0  0  0  0  0  0  0  0  0  0
    2.7904    0.1354   -3.4260 H   0  0  0  0  0  0  0  0  0  0  0  0
    3.3430   -1.2897   -2.5107 H   0  0  0  0  0  0  0  0  0  0  0  0
    1.1189   -1.6076   -0.2821 H   0  0  0  0  0  0  0  0  0  0  0  0
    0.2489    1.3190   -0.7629 H   0  0  0  0  0  0  0  0  0  0  0  0
   -0.1288    0.3858    0.6967 H   0  0  0  0  0  0  0  0  0  0  0  0
   -1.0379   -0.5272   -1.9943 H   0  0  0  0  0  0  0  0  0  0  0  0
   -4.8316    0.5120   -0.2858 H   0  0  0  0  0  0  0  0  0  0  0  0
   -5.7911   -1.0618   -2.6373 H   0  0  0  0  0  0  0  0  0  0  0  0
   -5.9595    0.6999   -2.6006 H   0  0  0  0  0  0  0  0  0  0  0  0
   -6.2705   -1.6731    0.2953 H   0  0  0  0  0  0  0  0  0  0  0  0
   -8.3229   -2.0334    1.6017 H   0  0  0  0  0  0  0  0  0  0  0  0
  -10.4605   -0.9949    0.8878 H   0  0  0  0  0  0  0  0  0  0  0  0
  -10.5352    0.3987   -1.1509 H   0  0  0  0  0  0  0  0  0  0  0  0
    4.4114   -1.4365    2.1694 H   0  0  0  0  0  0  0  0  0  0  0  0
    6.8033   -1.4694    2.6967 H   0  0  0  0  0  0  0  0  0  0  0  0
  1  2  1  0
  2  3  1  0
  3  4  2  0
  4  5  1  0
  5  6  2  0
  6  7  1  0
  7  8  2  0
  7  9  2  0
  7 10  1  0
 10 11  1  0
 11 12  1  0
 12 13  1  0
 13 14  1  0
 14 15  1  0
 15 16  1  0
 16 17  1  0
 17 18  2  0
 17 19  1  0
 19 20  2  0
 19 21  1  0
 21 22  1  0
 22 23  1  0
 23 24  2  0
 24 25  1  0
 25 26  2  0
 26 27  1  0
 27 28  2  0
 28 29  1  0
  6 30  1  0
 30 31  2  0
 31  3  1  0
 14 10  1  0
 28 23  1  0
  1 32  1  0
  1 33  1  0
  1 34  1  0
  4 35  1  0
  5 36  1  0
 11 37  1  0
 11 38  1  0
 12 39  1  0
 12 40  1  0
 14 41  1  0
 15 42  1  0
 15 43  1  0
 16 44  1  0
 21 45  1  0
 22 46  1  0
 22 47  1  0
 24 48  1  0
 25 49  1  0
 26 50  1  0
 27 51  1  0
 30 52  1  0
 31 53  1  0
M  END
$$$$
