
     RDKit          3D

 54 58  0  0  0  0  0  0  0  0999 V2000
    3.5051    1.8678   -1.8100 F   0  0  0  0  0  0  0  0  0  0  0  0
    4.7372    2.0172   -1.2484 C   0  0  0  0  0  0  0  0  0  0  0  0
    4.5360    2.6809   -0.0755 F   0  0  0  0  0  0  0  0  0  0  0  0
    5.4019    2.8926   -2.0554 F   0  0  0  0  0  0  0  0  0  0  0  0
    5.4590    0.7006   -1.0542 C   0  0  0  0  0  0  0  0  0  0  0  0
    6.7577    0.5518   -1.5793 C   0  0  0  0  0  0  0  0  0  0  0  0
    7.4669   -0.6386   -1.4220 C   0  0  0  0  0  0  0  0  0  0  0  0
    6.8920   -1.7014   -0.7354 C   0  0  0  0  0  0  0  0  0  0  0  0
    5.6094   -1.5747   -0.2043 C   0  0  0  0  0  0  0  0  0  0  0  0
    4.8797   -0.3805   -0.3498 C   0  0  0  0  0  0  0  0  0  0  0  0
    3.4834   -0.3183    0.2405 C   0  0  0  0  0  0  0  0  0  0  0  0
    2.4376   -0.9647   -0.6885 C   0  0  0  0  0  0  0  0  0  0  0  0
    1.0405   -0.8580   -0.2616 N   0  0  0  0  0  0  0  0  0  0  0  0
    0.7387   -1.4804    1.0322 C   0  0  0  0  0  0  0  0  0  0  0  0
   -0.7619   -1.3772    1.3976 C   0  0  0  0  0  0  0  0  0  0  0  0
   -1.2911    0.0025    1.3069 N   0  0  0  0  0  0  0  0  0  0  0  0
   -2.6196    0.1772    0.9088 C   0  0  0  0  0  0  0  0  0  0  0  0
   -2.8827    1.0336   -0.0479 N   0  0  0  0  0  0  0  0  0  0  0  0
   -4.1966    1.2148   -0.5178 C   0  0  0  0  0  0  0  0  0  0  0  0
   -4.4109    2.1288   -1.5514 C   0  0  0  0  0  0  0  0  0  0  0  0
   -5.6938    2.3389   -2.0642 C   0  0  0  0  0  0  0  0  0  0  0  0
   -6.7791    1.6321   -1.5453 C   0  0  0  0  0  0  0  0  0  0  0  0
   -6.5880    0.7138   -0.5123 C   0  0  0  0  0  0  0  0  0  0  0  0
   -5.2982    0.5143   -0.0102 C   0  0  0  0  0  0  0  0  0  0  0  0
   -5.0175   -0.3788    1.0360 N   0  0  0  0  0  0  0  0  0  0  0  0
   -5.8755   -1.1807    1.7511 C   0  0  0  0  0  0  0  0  0  0  0  0
   -5.1492   -1.8240    2.7285 C   0  0  0  0  0  0  0  0  0  0  0  0
   -3.8042   -1.4094    2.5903 C   0  0  0  0  0  0  0  0  0  0  0  0
   -3.7339   -0.5446    1.5117 C   0  0  0  0  0  0  0  0  0  0  0  0
   -0.2876    0.9909    0.8676 C   0  0  0  0  0  0  0  0  0  0  0  0
    0.4712    0.5005   -0.3843 C   0  0  0  0  0  0  0  0  0  0  0  0
    7.2278    1.3724   -2.1209 H   0  0  0  0  0  0  0  0  0  0  0  0
    8.4676   -0.7354   -1.8361 H   0  0  0  0  0  0  0  0  0  0  0  0
    7.4419   -2.6312   -0.6126 H   0  0  0  0  0  0  0  0  0  0  0  0
    5.1775   -2.4203    0.3288 H   0  0  0  0  0  0  0  0  0  0  0  0
    3.5005   -0.8346    1.2088 H   0  0  0  0  0  0  0  0  0  0  0  0
    3.2157    0.7169    0.4732 H   0  0  0  0  0  0  0  0  0  0  0  0
    2.6771   -2.0298   -0.8079 H   0  0  0  0  0  0  0  0  0  0  0  0
    2.5274   -0.5447   -1.6991 H   0  0  0  0  0  0  0  0  0  0  0  0
    1.0141   -2.5415    1.0059 H   0  0  0  0  0  0  0  0  0  0  0  0
    1.3245   -1.0174    1.8357 H   0  0  0  0  0  0  0  0  0  0  0  0
   -1.3258   -2.0370    0.7258 H   0  0  0  0  0  0  0  0  0  0  0  0
   -0.8893   -1.7454    2.4203 H   0  0  0  0  0  0  0  0  0  0  0  0
   -3.5667    2.6783   -1.9592 H   0  0  0  0  0  0  0  0  0  0  0  0
   -5.8431    3.0538   -2.8692 H   0  0  0  0  0  0  0  0  0  0  0  0
   -7.7756    1.7988   -1.9471 H   0  0  0  0  0  0  0  0  0  0  0  0
   -7.4473    0.1781   -0.1234 H   0  0  0  0  0  0  0  0  0  0  0  0
   -6.9322   -1.2233    1.5314 H   0  0  0  0  0  0  0  0  0  0  0  0
   -5.5483   -2.5067    3.4676 H   0  0  0  0  0  0  0  0  0  0  0  0
   -2.9796   -1.7097    3.2206 H   0  0  0  0  0  0  0  0  0  0  0  0
   -0.7351    1.9737    0.6783 H   0  0  0  0  0  0  0  0  0  0  0  0
    0.4228    1.1507    1.6890 H   0  0  0  0  0  0  0  0  0  0  0  0
    1.2396    1.2431   -0.6278 H   0  0  0  0  0  0  0  0  0  0  0  0
   -0.2199    0.4843   -1.2357 H   0  0  0  0  0  0  0  0  0  0  0  0
  1  2  1  0
  2  3  1  0
  2  4  1  0
  2  5  1  0
  5  6  2  0
  6  7  1  0
  7  8  2  0
  8  9  1  0
  9 10  2  0
 10 11  1  0
 11 12  1  0
 12 13  1  0
 13 14  1  0
 14 15  1  0
 15 16  1  0
 16 17  1  0
 17 18  2  0
 18 19  1  0
 19 20  2  0
 20 21  1  0
 21 22  2  0
 22 23  1  0
 23 24  2  0
 24 25  1  0
 25 26  1  0
 26 27  2  0
 27 28  1  0
 28 29  2  0
 16 30  1  0
 30 31  1  0
 10  5  1  0
 31 13  1  0
 29 17  1  0
 24 19  1  0
 29 25  1  0
  6 32  1  0
  7 33  1  0
  8 34  1  0
  9 35  1  0
 11 36  1  0
 11 37  1  0
 12 38  1  0
 12 39  1  0
 14 40  1  0
 14 41  1  0
 15 42  1  0
 15 43  1  0
 20 44  1  0
 21 45  1  0
 22 46  1  0
 23 47  1  0
 26 48  1  0
 27 49  1  0
 28 50  1  0
 30 51  1  0
 30 52  1  0
 31 53  1  0
 31 54  1  0
M  END
$$$$
