
     RDKit          3D

 52 56  0  0  0  0  0  0  0  0999 V2000
    2.1310   -3.0981   -1.4123 C   0  0  0  0  0  0  0  0  0  0  0  0
    2.9305   -1.9292   -0.8681 C   0  0  0  0  0  0  0  0  0  0  0  0
    2.5508   -0.6826   -0.9228 N   0  0  0  0  0  0  0  0  0  0  0  0
    1.2885   -0.3910   -1.3699 N   0  0  0  0  0  0  0  0  0  0  0  0
    0.1584   -0.7377   -0.6260 C   0  0  0  0  0  0  0  0  0  0  0  0
    0.1294   -1.5842    0.2622 O   0  0  0  0  0  0  0  0  0  0  0  0
   -1.0279    0.0170   -1.0267 C   0  0  0  0  0  0  0  0  0  0  0  0
   -1.0078    0.9035   -2.0684 N   0  0  0  0  0  0  0  0  0  0  0  0
   -2.2107    1.4339   -2.1834 N   0  0  0  0  0  0  0  0  0  0  0  0
   -3.0466    0.8623   -1.2644 N   0  0  0  0  0  0  0  0  0  0  0  0
   -4.4353    1.1503   -1.2712 C   0  0  0  0  0  0  0  0  0  0  0  0
   -5.2950    0.4439   -0.5373 N   0  0  0  0  0  0  0  0  0  0  0  0
   -6.5369    1.0012   -0.8361 O   0  0  0  0  0  0  0  0  0  0  0  0
   -6.4207    2.0195   -1.7752 N   0  0  0  0  0  0  0  0  0  0  0  0
   -5.1183    2.1128   -2.0400 C   0  0  0  0  0  0  0  0  0  0  0  0
   -4.5814    2.9946   -2.9060 N   0  0  0  0  0  0  0  0  0  0  0  0
   -2.2940    0.0106   -0.4553 C   0  0  0  0  0  0  0  0  0  0  0  0
   -2.7767   -0.6824    0.7700 C   0  0  0  0  0  0  0  0  0  0  0  0
   -2.2345    0.1933    2.2856 S   0  0  0  0  0  0  0  0  0  0  0  0
   -3.1717    1.7002    2.1375 C   0  0  0  0  0  0  0  0  0  0  0  0
   -4.5325    1.7288    2.4525 C   0  0  0  0  0  0  0  0  0  0  0  0
   -5.2639    2.9081    2.2985 C   0  0  0  0  0  0  0  0  0  0  0  0
   -4.6354    4.0645    1.8393 C   0  0  0  0  0  0  0  0  0  0  0  0
   -3.2734    4.0468    1.5440 C   0  0  0  0  0  0  0  0  0  0  0  0
   -2.5411    2.8687    1.6990 C   0  0  0  0  0  0  0  0  0  0  0  0
    4.2663   -2.2332   -0.2622 C   0  0  0  0  0  0  0  0  0  0  0  0
    4.5368   -3.4982    0.3050 C   0  0  0  0  0  0  0  0  0  0  0  0
    5.7862   -3.7735    0.8733 C   0  0  0  0  0  0  0  0  0  0  0  0
    6.7308   -2.7708    0.8629 C   0  0  0  0  0  0  0  0  0  0  0  0
    6.4691   -1.5350    0.3204 C   0  0  0  0  0  0  0  0  0  0  0  0
    5.2491   -1.2317   -0.2457 C   0  0  0  0  0  0  0  0  0  0  0  0
    7.5324   -0.6923    0.4155 O   0  0  0  0  0  0  0  0  0  0  0  0
    8.4885   -1.5348    1.0916 C   0  0  0  0  0  0  0  0  0  0  0  0
    7.9896   -2.8603    1.3682 O   0  0  0  0  0  0  0  0  0  0  0  0
    1.4672   -2.7814   -2.2208 H   0  0  0  0  0  0  0  0  0  0  0  0
    1.5408   -3.5509   -0.6117 H   0  0  0  0  0  0  0  0  0  0  0  0
    2.7992   -3.8559   -1.8328 H   0  0  0  0  0  0  0  0  0  0  0  0
    1.2181    0.5173   -1.8254 H   0  0  0  0  0  0  0  0  0  0  0  0
   -5.1960    3.4751   -3.5548 H   0  0  0  0  0  0  0  0  0  0  0  0
   -3.6266    2.8778   -3.2422 H   0  0  0  0  0  0  0  0  0  0  0  0
   -3.8542   -0.8330    0.8121 H   0  0  0  0  0  0  0  0  0  0  0  0
   -2.3505   -1.6905    0.8107 H   0  0  0  0  0  0  0  0  0  0  0  0
   -5.0371    0.8342    2.8091 H   0  0  0  0  0  0  0  0  0  0  0  0
   -6.3251    2.9229    2.5339 H   0  0  0  0  0  0  0  0  0  0  0  0
   -5.2070    4.9812    1.7171 H   0  0  0  0  0  0  0  0  0  0  0  0
   -2.7807    4.9510    1.1954 H   0  0  0  0  0  0  0  0  0  0  0  0
   -1.4780    2.8695    1.4690 H   0  0  0  0  0  0  0  0  0  0  0  0
    3.7756   -4.2738    0.3299 H   0  0  0  0  0  0  0  0  0  0  0  0
    6.0032   -4.7399    1.3147 H   0  0  0  0  0  0  0  0  0  0  0  0
    5.0673   -0.2476   -0.6639 H   0  0  0  0  0  0  0  0  0  0  0  0
    9.3839   -1.6212    0.4656 H   0  0  0  0  0  0  0  0  0  0  0  0
    8.7665   -1.0597    2.0395 H   0  0  0  0  0  0  0  0  0  0  0  0
  1  2  1  0
  2  3  2  3
  3  4  1  0
  4  5  1  0
  5  6  2  0
  5  7  1  0
  7  8  1  0
  8  9  2  0
  9 10  1  0
 10 11  1  0
 11 12  2  0
 12 13  1  0
 13 14  1  0
 14 15  2  0
 15 16  1  0
 10 17  1  0
 17 18  1  0
 18 19  1  0
 19 20  1  0
 20 21  2  0
 21 22  1  0
 22 23  2  0
 23 24  1  0
 24 25  2  0
  2 26  1  0
 26 27  2  0
 27 28  1  0
 28 29  2  0
 29 30  1  0
 30 31  2  0
 30 32  1  0
 32 33  1  0
 33 34  1  0
 17  7  2  0
 25 20  1  0
 31 26  1  0
 15 11  1  0
 34 29  1  0
  1 35  1  0
  1 36  1  0
  1 37  1  0
  4 38  1  0
 16 39  1  0
 16 40  1  0
 18 41  1  0
 18 42  1  0
 21 43  1  0
 22 44  1  0
 23 45  1  0
 24 46  1  0
 25 47  1  0
 27 48  1  0
 28 49  1  0
 31 50  1  0
 33 51  1  0
 33 52  1  0
M  END
$$$$
