
     RDKit          3D

 37 38  0  0  0  0  0  0  0  0999 V2000
   -4.8403    0.8192   -2.4905 C   0  0  0  0  0  0  0  0  0  0  0  0
   -4.6818    0.6543   -1.0890 O   0  0  0  0  0  0  0  0  0  0  0  0
   -3.4225    0.3848   -0.6140 C   0  0  0  0  0  0  0  0  0  0  0  0
   -2.2906    0.2277   -1.4220 C   0  0  0  0  0  0  0  0  0  0  0  0
   -1.0456   -0.0505   -0.8502 C   0  0  0  0  0  0  0  0  0  0  0  0
   -0.9276   -0.1826    0.5362 C   0  0  0  0  0  0  0  0  0  0  0  0
    0.3762   -0.4770    1.1894 C   0  0  0  0  0  0  0  0  0  0  0  0
    0.6101   -0.0453    2.3120 O   0  0  0  0  0  0  0  0  0  0  0  0
    1.2545   -1.2607    0.4753 N   0  0  0  0  0  0  0  0  0  0  0  0
    2.5754   -1.5716    0.9709 C   0  0  0  0  0  0  0  0  0  0  0  0
    3.6166   -0.7859    0.2153 C   0  0  0  0  0  0  0  0  0  0  0  0
    4.3837   -1.3868   -0.7907 C   0  0  0  0  0  0  0  0  0  0  0  0
    5.3309   -0.6407   -1.4970 C   0  0  0  0  0  0  0  0  0  0  0  0
    5.5181    0.7149   -1.2106 C   0  0  0  0  0  0  0  0  0  0  0  0
    6.7043    1.5726   -2.1287 Cl  0  0  0  0  0  0  0  0  0  0  0  0
    4.7532    1.3267   -0.2126 C   0  0  0  0  0  0  0  0  0  0  0  0
    4.9231    2.9978    0.1909 Cl  0  0  0  0  0  0  0  0  0  0  0  0
    3.8071    0.5775    0.4945 C   0  0  0  0  0  0  0  0  0  0  0  0
   -2.0520   -0.0070    1.3527 C   0  0  0  0  0  0  0  0  0  0  0  0
   -3.3004    0.2728    0.7869 C   0  0  0  0  0  0  0  0  0  0  0  0
   -4.4557    0.4463    1.5087 O   0  0  0  0  0  0  0  0  0  0  0  0
   -4.3502    0.4635    2.9257 C   0  0  0  0  0  0  0  0  0  0  0  0
   -4.5903   -0.1019   -3.0270 H   0  0  0  0  0  0  0  0  0  0  0  0
   -4.2502    1.6650   -2.8585 H   0  0  0  0  0  0  0  0  0  0  0  0
   -5.8943    1.0405   -2.6844 H   0  0  0  0  0  0  0  0  0  0  0  0
   -2.3431    0.3250   -2.5014 H   0  0  0  0  0  0  0  0  0  0  0  0
   -0.1782   -0.1303   -1.4991 H   0  0  0  0  0  0  0  0  0  0  0  0
    0.9863   -1.6443   -0.4189 H   0  0  0  0  0  0  0  0  0  0  0  0
    2.6564   -1.3666    2.0441 H   0  0  0  0  0  0  0  0  0  0  0  0
    2.7283   -2.6477    0.8338 H   0  0  0  0  0  0  0  0  0  0  0  0
    4.2526   -2.4401   -1.0314 H   0  0  0  0  0  0  0  0  0  0  0  0
    5.9217   -1.1232   -2.2724 H   0  0  0  0  0  0  0  0  0  0  0  0
    3.2061    1.0546    1.2688 H   0  0  0  0  0  0  0  0  0  0  0  0
   -1.9247   -0.1006    2.4270 H   0  0  0  0  0  0  0  0  0  0  0  0
   -3.6805    1.2609    3.2647 H   0  0  0  0  0  0  0  0  0  0  0  0
   -4.0318   -0.5118    3.3079 H   0  0  0  0  0  0  0  0  0  0  0  0
   -5.3449    0.6702    3.3323 H   0  0  0  0  0  0  0  0  0  0  0  0
  1  2  1  0
  2  3  1  0
  3  4  2  0
  4  5  1  0
  5  6  2  0
  6  7  1  0
  7  8  2  0
  7  9  1  0
  9 10  1  0
 10 11  1  0
 11 12  2  0
 12 13  1  0
 13 14  2  0
 14 15  1  0
 14 16  1  0
 16 17  1  0
 16 18  2  0
  6 19  1  0
 19 20  2  0
 20 21  1  0
 21 22  1  0
 20  3  1  0
 18 11  1  0
  1 23  1  0
  1 24  1  0
  1 25  1  0
  4 26  1  0
  5 27  1  0
  9 28  1  0
 10 29  1  0
 10 30  1  0
 12 31  1  0
 13 32  1  0
 18 33  1  0
 19 34  1  0
 22 35  1  0
 22 36  1  0
 22 37  1  0
M  END
$$$$
