
     RDKit          3D

 38 40  0  0  0  0  0  0  0  0999 V2000
   -1.0581    0.7694    1.9544 C   0  0  0  0  0  0  0  0  0  0  0  0
   -1.6882    1.0294    0.6156 C   0  0  0  0  0  0  0  0  0  0  0  0
   -1.5521    2.3186    0.0667 C   0  0  0  0  0  0  0  0  0  0  0  0
   -2.1362    2.6417   -1.1545 C   0  0  0  0  0  0  0  0  0  0  0  0
   -1.9888    3.8774   -1.6493 F   0  0  0  0  0  0  0  0  0  0  0  0
   -2.8759    1.7066   -1.8617 C   0  0  0  0  0  0  0  0  0  0  0  0
   -3.0221    0.4216   -1.3433 C   0  0  0  0  0  0  0  0  0  0  0  0
   -2.4185    0.0725   -0.1177 C   0  0  0  0  0  0  0  0  0  0  0  0
   -2.6652   -1.6209    0.4192 S   0  0  0  0  0  6  0  0  0  0  0  0
   -2.1260   -1.8141    1.7454 O   0  0  0  0  0  0  0  0  0  0  0  0
   -4.0453   -1.9537    0.1279 O   0  0  0  0  0  0  0  0  0  0  0  0
   -1.7415   -2.5076   -0.6839 N   0  0  0  0  0  0  0  0  0  0  0  0
   -0.3838   -2.1597   -0.9265 C   0  0  0  0  0  0  0  0  0  0  0  0
   -0.0065   -1.8268   -2.2289 C   0  0  0  0  0  0  0  0  0  0  0  0
    1.3106   -1.4563   -2.5043 C   0  0  0  0  0  0  0  0  0  0  0  0
    2.2478   -1.4195   -1.4719 C   0  0  0  0  0  0  0  0  0  0  0  0
    3.5392   -1.0603   -1.7482 O   0  0  0  0  0  0  0  0  0  0  0  0
    1.8813   -1.7538   -0.1603 C   0  0  0  0  0  0  0  0  0  0  0  0
    3.0433   -1.7148    1.1943 S   0  0  0  0  0  0  0  0  0  0  0  0
    3.1880   -0.0002    1.4919 C   0  0  0  0  0  0  0  0  0  0  0  0
    2.3054    0.9471    1.0315 N   0  0  0  0  0  0  0  0  0  0  0  0
    2.7959    2.0672    1.5055 C   0  0  0  0  0  0  0  0  0  0  0  0
    3.9112    1.8007    2.2320 N   0  0  0  0  0  0  0  0  0  0  0  0
    4.1762    0.4876    2.2525 N   0  0  0  0  0  0  0  0  0  0  0  0
    0.5601   -2.1428    0.0993 C   0  0  0  0  0  0  0  0  0  0  0  0
   -0.3204   -0.0329    1.8932 H   0  0  0  0  0  0  0  0  0  0  0  0
   -0.5286    1.6542    2.3256 H   0  0  0  0  0  0  0  0  0  0  0  0
   -1.8254    0.5280    2.6962 H   0  0  0  0  0  0  0  0  0  0  0  0
   -0.9896    3.0892    0.5878 H   0  0  0  0  0  0  0  0  0  0  0  0
   -3.3352    1.9845   -2.8049 H   0  0  0  0  0  0  0  0  0  0  0  0
   -3.6125   -0.3067   -1.8961 H   0  0  0  0  0  0  0  0  0  0  0  0
   -2.3010   -2.8560   -1.4597 H   0  0  0  0  0  0  0  0  0  0  0  0
   -0.7307   -1.8426   -3.0385 H   0  0  0  0  0  0  0  0  0  0  0  0
    1.5868   -1.1997   -3.5225 H   0  0  0  0  0  0  0  0  0  0  0  0
    3.6107   -0.7993   -2.6796 H   0  0  0  0  0  0  0  0  0  0  0  0
    2.4005    3.0622    1.3625 H   0  0  0  0  0  0  0  0  0  0  0  0
    4.5217    2.4384    2.7302 H   0  0  0  0  0  0  0  0  0  0  0  0
    0.2729   -2.4285    1.1087 H   0  0  0  0  0  0  0  0  0  0  0  0
  1  2  1  0
  2  3  2  0
  3  4  1  0
  4  5  1  0
  4  6  2  0
  6  7  1  0
  7  8  2  0
  8  9  1  0
  9 10  2  0
  9 11  2  0
  9 12  1  0
 12 13  1  0
 13 14  2  0
 14 15  1  0
 15 16  2  0
 16 17  1  0
 16 18  1  0
 18 19  1  0
 19 20  1  0
 20 21  1  0
 21 22  2  0
 22 23  1  0
 23 24  1  0
 18 25  2  0
  8  2  1  0
 25 13  1  0
 24 20  2  0
  1 26  1  0
  1 27  1  0
  1 28  1  0
  3 29  1  0
  6 30  1  0
  7 31  1  0
 12 32  1  0
 14 33  1  0
 15 34  1  0
 17 35  1  0
 22 36  1  0
 23 37  1  0
 25 38  1  0
M  END
$$$$
