
     RDKit          3D

 41 44  0  0  0  0  0  0  0  0999 V2000
    0.3994   -2.6235    0.0543 O   0  0  0  0  0  0  0  0  0  0  0  0
    0.0469   -1.6635    0.7352 C   0  0  0  0  0  0  0  0  0  0  0  0
   -1.3797   -1.5907    1.2954 C   0  0  0  0  0  0  0  0  0  0  0  0
   -2.0967   -0.3894    0.8406 N   0  0  0  0  0  0  0  0  0  0  0  0
   -1.9552    0.7688    1.5978 C   0  0  0  0  0  0  0  0  0  0  0  0
   -1.1454    0.8518    2.5256 O   0  0  0  0  0  0  0  0  0  0  0  0
   -2.8484    1.9353    1.2504 C   0  0  0  0  0  0  0  0  0  0  0  0
   -2.2006    2.8506    0.2339 C   0  0  0  0  0  0  0  0  0  0  0  0
   -1.4138    2.0137   -1.1760 S   0  0  0  0  0  0  0  0  0  0  0  0
   -2.5259    0.6277   -1.4049 C   0  0  0  0  0  0  0  0  0  0  0  0
   -3.1405    0.5371   -2.6642 C   0  0  0  0  0  0  0  0  0  0  0  0
   -3.9308   -0.5615   -2.9960 C   0  0  0  0  0  0  0  0  0  0  0  0
   -4.1014   -1.5896   -2.0778 C   0  0  0  0  0  0  0  0  0  0  0  0
   -3.4856   -1.5192   -0.8257 C   0  0  0  0  0  0  0  0  0  0  0  0
   -2.6967   -0.4139   -0.4628 C   0  0  0  0  0  0  0  0  0  0  0  0
    0.8447   -0.6082    1.1431 N   0  0  0  0  0  0  0  0  0  0  0  0
    2.1849   -0.3499    0.7981 C   0  0  0  0  0  0  0  0  0  0  0  0
    2.7736    0.8020    1.3679 C   0  0  0  0  0  0  0  0  0  0  0  0
    4.0987    1.1536    1.0879 C   0  0  0  0  0  0  0  0  0  0  0  0
    4.8069    0.3377    0.2363 C   0  0  0  0  0  0  0  0  0  0  0  0
    4.2414   -0.7829   -0.3236 C   0  0  0  0  0  0  0  0  0  0  0  0
    2.9361   -1.1535   -0.0646 C   0  0  0  0  0  0  0  0  0  0  0  0
    5.1088   -1.4479   -1.1350 O   0  0  0  0  0  0  0  0  0  0  0  0
    6.2806   -0.6158   -1.0214 C   0  0  0  0  0  0  0  0  0  0  0  0
    6.0974    0.5193   -0.1499 O   0  0  0  0  0  0  0  0  0  0  0  0
   -1.9128   -2.5053    1.0240 H   0  0  0  0  0  0  0  0  0  0  0  0
   -1.3130   -1.5880    2.3905 H   0  0  0  0  0  0  0  0  0  0  0  0
   -3.8263    1.5785    0.9069 H   0  0  0  0  0  0  0  0  0  0  0  0
   -3.0563    2.4920    2.1724 H   0  0  0  0  0  0  0  0  0  0  0  0
   -2.9457    3.5541   -0.1524 H   0  0  0  0  0  0  0  0  0  0  0  0
   -1.4206    3.4473    0.7195 H   0  0  0  0  0  0  0  0  0  0  0  0
   -2.9902    1.3172   -3.4084 H   0  0  0  0  0  0  0  0  0  0  0  0
   -4.3982   -0.6199   -3.9759 H   0  0  0  0  0  0  0  0  0  0  0  0
   -4.7133   -2.4514   -2.3341 H   0  0  0  0  0  0  0  0  0  0  0  0
   -3.6720   -2.3323   -0.1295 H   0  0  0  0  0  0  0  0  0  0  0  0
    0.4041    0.0642    1.7718 H   0  0  0  0  0  0  0  0  0  0  0  0
    2.1985    1.4379    2.0380 H   0  0  0  0  0  0  0  0  0  0  0  0
    4.5515    2.0363    1.5238 H   0  0  0  0  0  0  0  0  0  0  0  0
    2.5387   -2.0435   -0.5357 H   0  0  0  0  0  0  0  0  0  0  0  0
    6.5502   -0.2513   -2.0194 H   0  0  0  0  0  0  0  0  0  0  0  0
    7.1066   -1.2241   -0.6350 H   0  0  0  0  0  0  0  0  0  0  0  0
  1  2  2  0
  2  3  1  0
  3  4  1  0
  4  5  1  0
  5  6  2  0
  5  7  1  0
  7  8  1  0
  8  9  1  0
  9 10  1  0
 10 11  2  0
 11 12  1  0
 12 13  2  0
 13 14  1  0
 14 15  2  0
  2 16  1  0
 16 17  1  0
 17 18  2  0
 18 19  1  0
 19 20  2  0
 20 21  1  0
 21 22  2  0
 21 23  1  0
 23 24  1  0
 24 25  1  0
 15  4  1  0
 22 17  1  0
 15 10  1  0
 25 20  1  0
  3 26  1  0
  3 27  1  0
  7 28  1  0
  7 29  1  0
  8 30  1  0
  8 31  1  0
 11 32  1  0
 12 33  1  0
 13 34  1  0
 14 35  1  0
 16 36  1  0
 18 37  1  0
 19 38  1  0
 22 39  1  0
 24 40  1  0
 24 41  1  0
M  END
$$$$
