
     RDKit          3D

 54 58  0  0  0  0  0  0  0  0999 V2000
    2.9248   -1.5211    1.3447 O   0  0  0  0  0  0  0  0  0  0  0  0
    2.7049   -0.3128    1.2804 C   0  0  0  0  0  0  0  0  0  0  0  0
    1.6581    0.2765    0.3519 C   0  0  0  0  0  0  0  0  0  0  0  0
    0.0046   -0.2104    0.9212 S   0  0  0  0  0  0  0  0  0  0  0  0
   -0.9426    0.3836   -0.4350 C   0  0  0  0  0  0  0  0  0  0  0  0
   -0.6068    1.5527   -0.8897 N   0  0  0  0  0  0  0  0  0  0  0  0
   -1.3877    2.0207   -1.9509 C   0  0  0  0  0  0  0  0  0  0  0  0
   -2.4475    1.3181   -2.4350 C   0  0  0  0  0  0  0  0  0  0  0  0
   -3.2233    2.1179   -3.7057 S   0  0  0  0  0  0  0  0  0  0  0  0
   -2.1148    3.4457   -3.6280 C   0  0  0  0  0  0  0  0  0  0  0  0
   -2.1100    4.5958   -4.4411 C   0  0  0  0  0  0  0  0  0  0  0  0
   -1.1285    5.5677   -4.2302 C   0  0  0  0  0  0  0  0  0  0  0  0
   -0.1734    5.4066   -3.2347 C   0  0  0  0  0  0  0  0  0  0  0  0
   -0.1819    4.2652   -2.4277 C   0  0  0  0  0  0  0  0  0  0  0  0
   -1.1614    3.2601   -2.6177 C   0  0  0  0  0  0  0  0  0  0  0  0
   -2.8397    0.0438   -1.9117 C   0  0  0  0  0  0  0  0  0  0  0  0
   -3.8270   -0.5831   -2.2924 O   0  0  0  0  0  0  0  0  0  0  0  0
   -1.9849   -0.4205   -0.9014 N   0  0  0  0  0  0  0  0  0  0  0  0
   -2.3039   -1.7483   -0.3578 C   0  0  0  0  0  0  0  0  0  0  0  0
   -3.3098   -1.6721    0.7970 C   0  0  0  0  0  0  0  0  0  0  0  0
   -3.6179   -3.0424    1.3466 C   0  0  0  0  0  0  0  0  0  0  0  0
   -2.7697   -3.6342    2.2930 C   0  0  0  0  0  0  0  0  0  0  0  0
   -3.0388   -4.9161    2.7769 C   0  0  0  0  0  0  0  0  0  0  0  0
   -4.1546   -5.6170    2.3190 C   0  0  0  0  0  0  0  0  0  0  0  0
   -5.0018   -5.0373    1.3760 C   0  0  0  0  0  0  0  0  0  0  0  0
   -4.7343   -3.7564    0.8891 C   0  0  0  0  0  0  0  0  0  0  0  0
    3.3742    0.6160    2.0506 N   0  0  0  0  0  0  0  0  0  0  0  0
    4.4855    0.2315    2.8915 C   0  0  0  0  0  0  0  0  0  0  0  0
    5.7365    0.3600    2.1054 C   0  0  0  0  0  0  0  0  0  0  0  0
    6.5068   -0.5445    1.4032 C   0  0  0  0  0  0  0  0  0  0  0  0
    7.5838    0.1908    0.8542 C   0  0  0  0  0  0  0  0  0  0  0  0
    7.3998    1.4947    1.2515 C   0  0  0  0  0  0  0  0  0  0  0  0
    6.2766    1.6105    2.0072 O   0  0  0  0  0  0  0  0  0  0  0  0
    1.7407    1.3679    0.3273 H   0  0  0  0  0  0  0  0  0  0  0  0
    1.8466   -0.1059   -0.6568 H   0  0  0  0  0  0  0  0  0  0  0  0
   -2.8554    4.7267   -5.2211 H   0  0  0  0  0  0  0  0  0  0  0  0
   -1.1144    6.4593   -4.8532 H   0  0  0  0  0  0  0  0  0  0  0  0
    0.5865    6.1699   -3.0808 H   0  0  0  0  0  0  0  0  0  0  0  0
    0.5677    4.1452   -1.6489 H   0  0  0  0  0  0  0  0  0  0  0  0
   -1.3867   -2.2591   -0.0467 H   0  0  0  0  0  0  0  0  0  0  0  0
   -2.7173   -2.3711   -1.1619 H   0  0  0  0  0  0  0  0  0  0  0  0
   -4.2383   -1.1925    0.4603 H   0  0  0  0  0  0  0  0  0  0  0  0
   -2.9311   -1.0341    1.6052 H   0  0  0  0  0  0  0  0  0  0  0  0
   -1.8917   -3.1023    2.6570 H   0  0  0  0  0  0  0  0  0  0  0  0
   -2.3749   -5.3687    3.5092 H   0  0  0  0  0  0  0  0  0  0  0  0
   -4.3631   -6.6161    2.6951 H   0  0  0  0  0  0  0  0  0  0  0  0
   -5.8693   -5.5847    1.0165 H   0  0  0  0  0  0  0  0  0  0  0  0
   -5.4017   -3.3204    0.1476 H   0  0  0  0  0  0  0  0  0  0  0  0
    3.3091    1.5975    1.8152 H   0  0  0  0  0  0  0  0  0  0  0  0
    4.3532   -0.7923    3.2576 H   0  0  0  0  0  0  0  0  0  0  0  0
    4.4980    0.9085    3.7511 H   0  0  0  0  0  0  0  0  0  0  0  0
    6.3046   -1.6017    1.3000 H   0  0  0  0  0  0  0  0  0  0  0  0
    8.3931   -0.1792    0.2411 H   0  0  0  0  0  0  0  0  0  0  0  0
    7.9489    2.4114    1.0859 H   0  0  0  0  0  0  0  0  0  0  0  0
  1  2  2  0
  2  3  1  0
  3  4  1  0
  4  5  1  0
  5  6  2  0
  6  7  1  0
  7  8  2  0
  8  9  1  0
  9 10  1  0
 10 11  2  0
 11 12  1  0
 12 13  2  0
 13 14  1  0
 14 15  2  0
  8 16  1  0
 16 17  2  0
 16 18  1  0
 18 19  1  0
 19 20  1  0
 20 21  1  0
 21 22  2  0
 22 23  1  0
 23 24  2  0
 24 25  1  0
 25 26  2  0
  2 27  1  0
 27 28  1  0
 28 29  1  0
 29 30  2  0
 30 31  1  0
 31 32  2  0
 32 33  1  0
 18  5  1  0
 26 21  1  0
 33 29  1  0
 15  7  1  0
 15 10  1  0
  3 34  1  0
  3 35  1  0
 11 36  1  0
 12 37  1  0
 13 38  1  0
 14 39  1  0
 19 40  1  0
 19 41  1  0
 20 42  1  0
 20 43  1  0
 22 44  1  0
 23 45  1  0
 24 46  1  0
 25 47  1  0
 26 48  1  0
 27 49  1  0
 28 50  1  0
 28 51  1  0
 30 52  1  0
 31 53  1  0
 32 54  1  0
M  END
$$$$
