
     RDKit          3D

 61 66  0  0  0  0  0  0  0  0999 V2000
   -4.1836   -1.9315    0.4497 C   0  0  0  0  0  0  0  0  0  0  0  0
   -2.7166   -1.8665    0.8919 C   0  0  0  0  0  0  0  0  0  0  0  0
   -2.2709   -3.2213    1.4557 C   0  0  0  0  0  0  0  0  0  0  0  0
   -1.8272   -1.3860   -0.2530 C   0  0  0  0  0  0  0  0  0  0  0  0
   -1.6296   -2.2323   -1.3642 C   0  0  0  0  0  0  0  0  0  0  0  0
   -0.9047   -1.8172   -2.4847 C   0  0  0  0  0  0  0  0  0  0  0  0
   -0.3674   -0.5367   -2.5327 C   0  0  0  0  0  0  0  0  0  0  0  0
   -0.5490    0.3299   -1.4577 C   0  0  0  0  0  0  0  0  0  0  0  0
   -1.2621   -0.0931   -0.3208 C   0  0  0  0  0  0  0  0  0  0  0  0
   -1.3800    0.8334    0.7445 N   0  0  0  0  0  0  0  0  0  0  0  0
   -0.7981    0.7503    1.9955 C   0  0  0  0  0  0  0  0  0  0  0  0
    0.2601   -0.5236    2.5136 S   0  0  0  0  0  0  0  0  0  0  0  0
    1.7744    0.4448    2.8275 C   0  0  0  0  0  0  0  0  0  0  0  0
    2.2998    1.0792    1.5606 C   0  0  0  0  0  0  0  0  0  0  0  0
    2.1629    2.4171    1.4746 C   0  0  0  0  0  0  0  0  0  0  0  0
    2.4608    3.2112    0.2861 C   0  0  0  0  0  0  0  0  0  0  0  0
    2.3586    4.4306    0.2882 O   0  0  0  0  0  0  0  0  0  0  0  0
    2.7910    2.4938   -0.8360 O   0  0  0  0  0  0  0  0  0  0  0  0
    3.0481    1.1074   -0.7740 C   0  0  0  0  0  0  0  0  0  0  0  0
    3.5119    0.5906   -1.9798 C   0  0  0  0  0  0  0  0  0  0  0  0
    3.8522   -0.7453   -2.0558 C   0  0  0  0  0  0  0  0  0  0  0  0
    3.7497   -1.5665   -0.9323 C   0  0  0  0  0  0  0  0  0  0  0  0
    4.1513   -2.9054   -1.0809 C   0  0  0  0  0  0  0  0  0  0  0  0
    4.1248   -3.7888   -0.0128 C   0  0  0  0  0  0  0  0  0  0  0  0
    3.6880   -3.3377    1.2188 C   0  0  0  0  0  0  0  0  0  0  0  0
    3.2795   -2.0055    1.3761 C   0  0  0  0  0  0  0  0  0  0  0  0
    3.2759   -1.0543    0.3196 C   0  0  0  0  0  0  0  0  0  0  0  0
    2.8824    0.3375    0.3961 C   0  0  0  0  0  0  0  0  0  0  0  0
   -0.9865    1.8626    2.6650 N   0  0  0  0  0  0  0  0  0  0  0  0
   -1.6483    2.7317    1.8410 N   0  0  0  0  0  0  0  0  0  0  0  0
   -1.8781    2.1341    0.6820 C   0  0  0  0  0  0  0  0  0  0  0  0
   -2.5306    2.7742   -0.4593 C   0  0  0  0  0  0  0  0  0  0  0  0
   -2.2184    4.0982   -0.7861 C   0  0  0  0  0  0  0  0  0  0  0  0
   -2.8163    4.7035   -1.8871 C   0  0  0  0  0  0  0  0  0  0  0  0
   -3.7266    3.9661   -2.6257 C   0  0  0  0  0  0  0  0  0  0  0  0
   -4.0763    2.6955   -2.3335 N   0  0  0  0  0  0  0  0  0  0  0  0
   -3.4787    2.1343   -1.2548 C   0  0  0  0  0  0  0  0  0  0  0  0
   -4.8227   -2.2653    1.2736 H   0  0  0  0  0  0  0  0  0  0  0  0
   -4.3208   -2.6223   -0.3854 H   0  0  0  0  0  0  0  0  0  0  0  0
   -4.5400   -0.9490    0.1265 H   0  0  0  0  0  0  0  0  0  0  0  0
   -2.6731   -1.1566    1.7230 H   0  0  0  0  0  0  0  0  0  0  0  0
   -2.8452   -3.4657    2.3567 H   0  0  0  0  0  0  0  0  0  0  0  0
   -1.2117   -3.2107    1.7295 H   0  0  0  0  0  0  0  0  0  0  0  0
   -2.4218   -4.0367    0.7413 H   0  0  0  0  0  0  0  0  0  0  0  0
   -2.0600   -3.2323   -1.3805 H   0  0  0  0  0  0  0  0  0  0  0  0
   -0.7732   -2.4950   -3.3263 H   0  0  0  0  0  0  0  0  0  0  0  0
    0.1946   -0.2142   -3.4061 H   0  0  0  0  0  0  0  0  0  0  0  0
   -0.1034    1.3221   -1.5125 H   0  0  0  0  0  0  0  0  0  0  0  0
    1.5120    1.2064    3.5738 H   0  0  0  0  0  0  0  0  0  0  0  0
    2.5364   -0.1470    3.3379 H   0  0  0  0  0  0  0  0  0  0  0  0
    1.7313    3.0048    2.2824 H   0  0  0  0  0  0  0  0  0  0  0  0
    3.6225    1.2334   -2.8492 H   0  0  0  0  0  0  0  0  0  0  0  0
    4.2335   -1.1319   -3.0019 H   0  0  0  0  0  0  0  0  0  0  0  0
    4.5106   -3.2724   -2.0428 H   0  0  0  0  0  0  0  0  0  0  0  0
    4.4493   -4.8173   -0.1426 H   0  0  0  0  0  0  0  0  0  0  0  0
    3.6732   -4.0082    2.0729 H   0  0  0  0  0  0  0  0  0  0  0  0
    2.9739   -1.7511    2.3793 H   0  0  0  0  0  0  0  0  0  0  0  0
   -1.5000    4.6604   -0.1907 H   0  0  0  0  0  0  0  0  0  0  0  0
   -2.5776    5.7253   -2.1606 H   0  0  0  0  0  0  0  0  0  0  0  0
   -4.2049    4.3914   -3.5006 H   0  0  0  0  0  0  0  0  0  0  0  0
   -3.8054    1.1178   -1.0529 H   0  0  0  0  0  0  0  0  0  0  0  0
  1  2  1  0
  2  3  1  0
  2  4  1  0
  4  5  2  0
  5  6  1  0
  6  7  2  0
  7  8  1  0
  8  9  2  0
  9 10  1  0
 10 11  1  0
 11 12  1  0
 12 13  1  0
 13 14  1  0
 14 15  2  0
 15 16  1  0
 16 17  2  0
 16 18  1  0
 18 19  1  0
 19 20  2  0
 20 21  1  0
 21 22  2  0
 22 23  1  0
 23 24  2  0
 24 25  1  0
 25 26  2  0
 26 27  1  0
 27 28  2  0
 11 29  2  0
 29 30  1  0
 30 31  2  0
 31 32  1  0
 32 33  2  0
 33 34  1  0
 34 35  2  0
 35 36  1  0
 36 37  2  0
  9  4  1  0
 31 10  1  0
 37 32  1  0
 28 14  1  0
 28 19  1  0
 27 22  1  0
  1 38  1  0
  1 39  1  0
  1 40  1  0
  2 41  1  0
  3 42  1  0
  3 43  1  0
  3 44  1  0
  5 45  1  0
  6 46  1  0
  7 47  1  0
  8 48  1  0
 13 49  1  0
 13 50  1  0
 15 51  1  0
 20 52  1  0
 21 53  1  0
 23 54  1  0
 24 55  1  0
 25 56  1  0
 26 57  1  0
 33 58  1  0
 34 59  1  0
 35 60  1  0
 37 61  1  0
M  END
$$$$
