
     RDKit          3D

 58 61  0  0  0  0  0  0  0  0999 V2000
   -3.9360    6.3645    0.9767 C   0  0  0  0  0  0  0  0  0  0  0  0
   -2.9947    5.3016    0.9007 O   0  0  0  0  0  0  0  0  0  0  0  0
   -3.4820    4.0302    1.0357 C   0  0  0  0  0  0  0  0  0  0  0  0
   -4.8091    3.6826    1.2481 C   0  0  0  0  0  0  0  0  0  0  0  0
   -5.1840    2.3395    1.3685 C   0  0  0  0  0  0  0  0  0  0  0  0
   -4.1989    1.3377    1.2740 C   0  0  0  0  0  0  0  0  0  0  0  0
   -4.4403   -0.3589    1.3923 S   0  0  0  0  0  0  0  0  0  0  0  0
   -2.7805   -0.6980    1.1627 C   0  0  0  0  0  0  0  0  0  0  0  0
   -2.3459   -2.1013    1.1919 C   0  0  0  0  0  0  0  0  0  0  0  0
   -1.7995   -2.6103    2.3815 C   0  0  0  0  0  0  0  0  0  0  0  0
   -1.3678   -3.9332    2.4543 C   0  0  0  0  0  0  0  0  0  0  0  0
   -1.4754   -4.7575    1.3383 C   0  0  0  0  0  0  0  0  0  0  0  0
   -2.0119   -4.2627    0.1459 C   0  0  0  0  0  0  0  0  0  0  0  0
   -2.4511   -2.9361    0.0599 C   0  0  0  0  0  0  0  0  0  0  0  0
   -2.9664   -2.3646   -1.0769 O   0  0  0  0  0  0  0  0  0  0  0  0
   -3.2457   -3.2237   -2.1733 C   0  0  0  0  0  0  0  0  0  0  0  0
   -2.0374    0.4604    1.0044 C   0  0  0  0  0  0  0  0  0  0  0  0
   -0.5920    0.4219    0.8127 C   0  0  0  0  0  0  0  0  0  0  0  0
   -0.0470   -0.0674   -0.3789 C   0  0  0  0  0  0  0  0  0  0  0  0
    1.3399   -0.1023   -0.5620 C   0  0  0  0  0  0  0  0  0  0  0  0
    2.1913    0.3564    0.4439 C   0  0  0  0  0  0  0  0  0  0  0  0
    3.5578    0.3778    0.3946 O   0  0  0  0  0  0  0  0  0  0  0  0
    4.1745   -0.1250   -0.7951 C   0  0  0  0  0  0  0  0  0  0  0  0
    5.7002   -0.0109   -0.6251 C   0  0  0  0  0  0  0  0  0  0  0  0
    6.5509   -0.4730   -1.7347 N   0  0  0  0  0  0  0  0  0  0  0  0
    6.3540    0.3046   -2.9544 C   0  0  0  0  0  0  0  0  0  0  0  0
    6.4097   -1.9027   -1.9929 C   0  0  0  0  0  0  0  0  0  0  0  0
    1.6440    0.8511    1.6309 C   0  0  0  0  0  0  0  0  0  0  0  0
    0.2601    0.8864    1.8180 C   0  0  0  0  0  0  0  0  0  0  0  0
   -2.8555    1.6517    1.0649 C   0  0  0  0  0  0  0  0  0  0  0  0
   -2.5126    3.0242    0.9435 C   0  0  0  0  0  0  0  0  0  0  0  0
   -3.3904    7.3041    0.8466 H   0  0  0  0  0  0  0  0  0  0  0  0
   -4.6759    6.2952    0.1725 H   0  0  0  0  0  0  0  0  0  0  0  0
   -4.4197    6.3939    1.9587 H   0  0  0  0  0  0  0  0  0  0  0  0
   -5.5906    4.4314    1.3254 H   0  0  0  0  0  0  0  0  0  0  0  0
   -6.2249    2.0742    1.5323 H   0  0  0  0  0  0  0  0  0  0  0  0
   -1.7087   -1.9707    3.2568 H   0  0  0  0  0  0  0  0  0  0  0  0
   -0.9462   -4.3173    3.3795 H   0  0  0  0  0  0  0  0  0  0  0  0
   -1.1360   -5.7890    1.3926 H   0  0  0  0  0  0  0  0  0  0  0  0
   -2.0647   -4.9382   -0.7012 H   0  0  0  0  0  0  0  0  0  0  0  0
   -3.9383   -4.0225   -1.8877 H   0  0  0  0  0  0  0  0  0  0  0  0
   -3.7310   -2.6257   -2.9508 H   0  0  0  0  0  0  0  0  0  0  0  0
   -2.3222   -3.6314   -2.5968 H   0  0  0  0  0  0  0  0  0  0  0  0
   -0.7003   -0.4265   -1.1717 H   0  0  0  0  0  0  0  0  0  0  0  0
    1.7168   -0.4934   -1.5006 H   0  0  0  0  0  0  0  0  0  0  0  0
    3.8939   -1.1747   -0.9361 H   0  0  0  0  0  0  0  0  0  0  0  0
    3.8506    0.4727   -1.6544 H   0  0  0  0  0  0  0  0  0  0  0  0
    5.9902   -0.5477    0.2885 H   0  0  0  0  0  0  0  0  0  0  0  0
    5.9488    1.0358   -0.4024 H   0  0  0  0  0  0  0  0  0  0  0  0
    5.3635    0.1517   -3.3962 H   0  0  0  0  0  0  0  0  0  0  0  0
    7.1040    0.0306   -3.7050 H   0  0  0  0  0  0  0  0  0  0  0  0
    6.4851    1.3745   -2.7582 H   0  0  0  0  0  0  0  0  0  0  0  0
    7.1614   -2.2340   -2.7182 H   0  0  0  0  0  0  0  0  0  0  0  0
    6.5819   -2.4812   -1.0786 H   0  0  0  0  0  0  0  0  0  0  0  0
    5.4221   -2.1640   -2.3879 H   0  0  0  0  0  0  0  0  0  0  0  0
    2.3016    1.2118    2.4179 H   0  0  0  0  0  0  0  0  0  0  0  0
   -0.1439    1.2735    2.7501 H   0  0  0  0  0  0  0  0  0  0  0  0
   -1.4754    3.3038    0.7715 H   0  0  0  0  0  0  0  0  0  0  0  0
  1  2  1  0
  2  3  1  0
  3  4  2  0
  4  5  1  0
  5  6  2  0
  6  7  1  0
  7  8  1  0
  8  9  1  0
  9 10  2  0
 10 11  1  0
 11 12  2  0
 12 13  1  0
 13 14  2  0
 14 15  1  0
 15 16  1  0
  8 17  2  0
 17 18  1  0
 18 19  2  0
 19 20  1  0
 20 21  2  0
 21 22  1  0
 22 23  1  0
 23 24  1  0
 24 25  1  0
 25 26  1  0
 25 27  1  0
 21 28  1  0
 28 29  2  0
 17 30  1  0
 30 31  2  0
 31  3  1  0
 30  6  1  0
 14  9  1  0
 29 18  1  0
  1 32  1  0
  1 33  1  0
  1 34  1  0
  4 35  1  0
  5 36  1  0
 10 37  1  0
 11 38  1  0
 12 39  1  0
 13 40  1  0
 16 41  1  0
 16 42  1  0
 16 43  1  0
 19 44  1  0
 20 45  1  0
 23 46  1  0
 23 47  1  0
 24 48  1  0
 24 49  1  0
 26 50  1  0
 26 51  1  0
 26 52  1  0
 27 53  1  0
 27 54  1  0
 27 55  1  0
 28 56  1  0
 29 57  1  0
 31 58  1  0
M  END
$$$$
