
     RDKit          3D

 52 55  0  0  0  0  0  0  0  0999 V2000
    7.5510   -1.3387    3.6450 C   0  0  0  0  0  0  0  0  0  0  0  0
    7.2191   -0.2137    2.8393 O   0  0  0  0  0  0  0  0  0  0  0  0
    5.9161   -0.0986    2.4434 C   0  0  0  0  0  0  0  0  0  0  0  0
    4.8859   -0.9897    2.7342 C   0  0  0  0  0  0  0  0  0  0  0  0
    3.5888   -0.7408    2.2663 C   0  0  0  0  0  0  0  0  0  0  0  0
    3.3055    0.3951    1.4981 C   0  0  0  0  0  0  0  0  0  0  0  0
    1.9725    0.5767    1.0855 N   0  0  0  0  0  0  0  0  0  0  0  0
    1.4584    1.5555    0.2561 C   0  0  0  0  0  0  0  0  0  0  0  0
    2.1092    2.4295   -0.3116 O   0  0  0  0  0  0  0  0  0  0  0  0
   -0.0600    1.5502    0.1373 C   0  0  0  0  0  0  0  0  0  0  0  0
   -0.7854   -0.1090    0.3050 S   0  0  0  0  0  0  0  0  0  0  0  0
   -2.4451    0.3061   -0.1247 C   0  0  0  0  0  0  0  0  0  0  0  0
   -2.9514    1.3143    0.5196 N   0  0  0  0  0  0  0  0  0  0  0  0
   -4.2681    1.5782    0.2899 C   0  0  0  0  0  0  0  0  0  0  0  0
   -5.0723    0.8538   -0.4864 C   0  0  0  0  0  0  0  0  0  0  0  0
   -4.5258   -0.3101   -1.2140 C   0  0  0  0  0  0  0  0  0  0  0  0
   -5.2517   -1.0038   -1.9240 O   0  0  0  0  0  0  0  0  0  0  0  0
   -3.1519   -0.5043   -1.0208 N   0  0  0  0  0  0  0  0  0  0  0  0
   -2.5129   -1.4945   -1.8352 C   0  0  0  0  0  0  0  0  0  0  0  0
   -2.9470   -2.8258   -1.7602 C   0  0  0  0  0  0  0  0  0  0  0  0
   -2.3397   -3.8110   -2.5362 C   0  0  0  0  0  0  0  0  0  0  0  0
   -1.3035   -3.4735   -3.4005 C   0  0  0  0  0  0  0  0  0  0  0  0
   -0.8821   -2.1455   -3.5108 C   0  0  0  0  0  0  0  0  0  0  0  0
   -1.4908   -1.1439   -2.7470 C   0  0  0  0  0  0  0  0  0  0  0  0
   -1.1977    0.1938   -2.8492 O   0  0  0  0  0  0  0  0  0  0  0  0
   -0.2449    0.5833   -3.8325 C   0  0  0  0  0  0  0  0  0  0  0  0
   -6.7042    1.3823   -0.5608 S   0  0  0  0  0  0  0  0  0  0  0  0
   -6.4478    2.5559    0.8172 C   0  0  0  0  0  0  0  0  0  0  0  0
   -4.9332    2.7418    0.9611 C   0  0  0  0  0  0  0  0  0  0  0  0
    4.3395    1.2820    1.2084 C   0  0  0  0  0  0  0  0  0  0  0  0
    5.6343    1.0337    1.6792 C   0  0  0  0  0  0  0  0  0  0  0  0
    8.6136   -1.2680    3.8966 H   0  0  0  0  0  0  0  0  0  0  0  0
    6.9861   -1.3360    4.5838 H   0  0  0  0  0  0  0  0  0  0  0  0
    7.4007   -2.2735    3.0959 H   0  0  0  0  0  0  0  0  0  0  0  0
    5.0540   -1.8878    3.3195 H   0  0  0  0  0  0  0  0  0  0  0  0
    2.8054   -1.4526    2.5115 H   0  0  0  0  0  0  0  0  0  0  0  0
    1.3044   -0.1267    1.3845 H   0  0  0  0  0  0  0  0  0  0  0  0
   -0.3234    1.9610   -0.8401 H   0  0  0  0  0  0  0  0  0  0  0  0
   -0.4555    2.2049    0.9184 H   0  0  0  0  0  0  0  0  0  0  0  0
   -3.7625   -3.1063   -1.0942 H   0  0  0  0  0  0  0  0  0  0  0  0
   -2.6807   -4.8408   -2.4698 H   0  0  0  0  0  0  0  0  0  0  0  0
   -0.8317   -4.2432   -4.0066 H   0  0  0  0  0  0  0  0  0  0  0  0
   -0.0835   -1.9262   -4.2137 H   0  0  0  0  0  0  0  0  0  0  0  0
    0.7457    0.1751   -3.6030 H   0  0  0  0  0  0  0  0  0  0  0  0
   -0.1689    1.6743   -3.8077 H   0  0  0  0  0  0  0  0  0  0  0  0
   -0.5723    0.2957   -4.8373 H   0  0  0  0  0  0  0  0  0  0  0  0
   -6.9565    3.5039    0.6216 H   0  0  0  0  0  0  0  0  0  0  0  0
   -6.8688    2.1174    1.7283 H   0  0  0  0  0  0  0  0  0  0  0  0
   -4.6127    3.6752    0.4840 H   0  0  0  0  0  0  0  0  0  0  0  0
   -4.6629    2.8020    2.0209 H   0  0  0  0  0  0  0  0  0  0  0  0
    4.1754    2.1848    0.6286 H   0  0  0  0  0  0  0  0  0  0  0  0
    6.4293    1.7373    1.4474 H   0  0  0  0  0  0  0  0  0  0  0  0
  1  2  1  0
  2  3  1  0
  3  4  2  0
  4  5  1  0
  5  6  2  0
  6  7  1  0
  7  8  1  0
  8  9  2  0
  8 10  1  0
 10 11  1  0
 11 12  1  0
 12 13  2  0
 13 14  1  0
 14 15  2  0
 15 16  1  0
 16 17  2  0
 16 18  1  0
 18 19  1  0
 19 20  2  0
 20 21  1  0
 21 22  2  0
 22 23  1  0
 23 24  2  0
 24 25  1  0
 25 26  1  0
 15 27  1  0
 27 28  1  0
 28 29  1  0
  6 30  1  0
 30 31  2  0
 31  3  1  0
 18 12  1  0
 24 19  1  0
 29 14  1  0
  1 32  1  0
  1 33  1  0
  1 34  1  0
  4 35  1  0
  5 36  1  0
  7 37  1  0
 10 38  1  0
 10 39  1  0
 20 40  1  0
 21 41  1  0
 22 42  1  0
 23 43  1  0
 26 44  1  0
 26 45  1  0
 26 46  1  0
 28 47  1  0
 28 48  1  0
 29 49  1  0
 29 50  1  0
 30 51  1  0
 31 52  1  0
M  END
$$$$
