
     RDKit          3D

 56 58  0  0  0  0  0  0  0  0999 V2000
    8.0695   -2.6503    0.8190 C   0  0  0  0  0  0  0  0  0  0  0  0
    7.6061   -1.4537    0.2068 O   0  0  0  0  0  0  0  0  0  0  0  0
    6.3784   -0.9946    0.5971 C   0  0  0  0  0  0  0  0  0  0  0  0
    5.9616    0.1742   -0.0430 C   0  0  0  0  0  0  0  0  0  0  0  0
    4.7269    0.7523    0.2601 C   0  0  0  0  0  0  0  0  0  0  0  0
    3.8896    0.1708    1.2197 C   0  0  0  0  0  0  0  0  0  0  0  0
    2.5473    0.7796    1.5283 C   0  0  0  0  0  0  0  0  0  0  0  0
    1.5399    0.2808    0.6301 N   0  0  0  0  0  0  0  0  0  0  0  0
    1.1712    0.9519   -0.5105 C   0  0  0  0  0  0  0  0  0  0  0  0
    1.5143    2.0805   -0.8346 O   0  0  0  0  0  0  0  0  0  0  0  0
    0.2256    0.1390   -1.4233 C   0  0  0  0  0  0  0  0  0  0  0  0
   -0.2236   -0.9288   -1.0334 O   0  0  0  0  0  0  0  0  0  0  0  0
   -0.0205    0.7458   -2.6311 N   0  0  0  0  0  0  0  0  0  0  0  0
   -1.1032    0.3282   -3.5124 C   0  0  0  0  0  0  0  0  0  0  0  0
   -2.4217    1.1002   -3.2667 C   0  0  0  0  0  0  0  0  0  0  0  0
   -2.1791    2.5163   -3.4378 O   0  0  0  0  0  0  0  0  0  0  0  0
   -2.3050    3.1287   -2.1506 C   0  0  0  0  0  0  0  0  0  0  0  0
   -3.2714    2.2482   -1.3945 C   0  0  0  0  0  0  0  0  0  0  0  0
   -2.9237    0.9110   -1.8901 N   0  0  0  0  0  0  0  0  0  0  0  0
   -4.0944   -0.2984   -1.7562 S   0  0  0  0  0  6  0  0  0  0  0  0
   -3.5605   -1.5132   -2.3317 O   0  0  0  0  0  0  0  0  0  0  0  0
   -5.3463    0.2516   -2.2341 O   0  0  0  0  0  0  0  0  0  0  0  0
   -4.2133   -0.5207   -0.0012 C   0  0  0  0  0  0  0  0  0  0  0  0
   -3.2303   -1.2596    0.6597 C   0  0  0  0  0  0  0  0  0  0  0  0
   -3.3206   -1.4457    2.0397 C   0  0  0  0  0  0  0  0  0  0  0  0
   -4.3996   -0.9136    2.7590 C   0  0  0  0  0  0  0  0  0  0  0  0
   -4.4778   -1.0923    4.2471 C   0  0  0  0  0  0  0  0  0  0  0  0
   -5.3794   -0.1740    2.0817 C   0  0  0  0  0  0  0  0  0  0  0  0
   -5.2949    0.0159    0.7012 C   0  0  0  0  0  0  0  0  0  0  0  0
    4.3061   -1.0076    1.8529 C   0  0  0  0  0  0  0  0  0  0  0  0
    5.5443   -1.5847    1.5464 C   0  0  0  0  0  0  0  0  0  0  0  0
    8.1922   -2.5191    1.8992 H   0  0  0  0  0  0  0  0  0  0  0  0
    7.4052   -3.4916    0.5951 H   0  0  0  0  0  0  0  0  0  0  0  0
    9.0528   -2.8819    0.3984 H   0  0  0  0  0  0  0  0  0  0  0  0
    6.6030    0.6375   -0.7889 H   0  0  0  0  0  0  0  0  0  0  0  0
    4.4201    1.6575   -0.2613 H   0  0  0  0  0  0  0  0  0  0  0  0
    2.2375    0.5226    2.5473 H   0  0  0  0  0  0  0  0  0  0  0  0
    2.6024    1.8728    1.4712 H   0  0  0  0  0  0  0  0  0  0  0  0
    1.2462   -0.6896    0.6923 H   0  0  0  0  0  0  0  0  0  0  0  0
    0.3562    1.6834   -2.7441 H   0  0  0  0  0  0  0  0  0  0  0  0
   -0.7516    0.5321   -4.5293 H   0  0  0  0  0  0  0  0  0  0  0  0
   -1.2558   -0.7497   -3.4041 H   0  0  0  0  0  0  0  0  0  0  0  0
   -3.1653    0.8170   -4.0195 H   0  0  0  0  0  0  0  0  0  0  0  0
   -1.3184    3.1468   -1.6756 H   0  0  0  0  0  0  0  0  0  0  0  0
   -2.6612    4.1568   -2.2575 H   0  0  0  0  0  0  0  0  0  0  0  0
   -4.2984    2.5147   -1.6643 H   0  0  0  0  0  0  0  0  0  0  0  0
   -3.1402    2.3374   -0.3137 H   0  0  0  0  0  0  0  0  0  0  0  0
   -2.3969   -1.6899    0.1075 H   0  0  0  0  0  0  0  0  0  0  0  0
   -2.5467   -2.0162    2.5492 H   0  0  0  0  0  0  0  0  0  0  0  0
   -5.5187   -1.0897    4.5875 H   0  0  0  0  0  0  0  0  0  0  0  0
   -3.9394   -0.2827    4.7494 H   0  0  0  0  0  0  0  0  0  0  0  0
   -4.0404   -2.0501    4.5482 H   0  0  0  0  0  0  0  0  0  0  0  0
   -6.2198    0.2512    2.6269 H   0  0  0  0  0  0  0  0  0  0  0  0
   -6.0718    0.5770    0.1871 H   0  0  0  0  0  0  0  0  0  0  0  0
    3.6688   -1.4886    2.5918 H   0  0  0  0  0  0  0  0  0  0  0  0
    5.8243   -2.4953    2.0651 H   0  0  0  0  0  0  0  0  0  0  0  0
  1  2  1  0
  2  3  1  0
  3  4  2  0
  4  5  1  0
  5  6  2  0
  6  7  1  0
  7  8  1  0
  8  9  1  0
  9 10  2  0
  9 11  1  0
 11 12  2  0
 11 13  1  0
 13 14  1  0
 14 15  1  0
 15 16  1  0
 16 17  1  0
 17 18  1  0
 18 19  1  0
 19 20  1  0
 20 21  2  0
 20 22  2  0
 20 23  1  0
 23 24  2  0
 24 25  1  0
 25 26  2  0
 26 27  1  0
 26 28  1  0
 28 29  2  0
  6 30  1  0
 30 31  2  0
 31  3  1  0
 19 15  1  0
 29 23  1  0
  1 32  1  0
  1 33  1  0
  1 34  1  0
  4 35  1  0
  5 36  1  0
  7 37  1  0
  7 38  1  0
  8 39  1  0
 13 40  1  0
 14 41  1  0
 14 42  1  0
 15 43  1  0
 17 44  1  0
 17 45  1  0
 18 46  1  0
 18 47  1  0
 24 48  1  0
 25 49  1  0
 27 50  1  0
 27 51  1  0
 27 52  1  0
 28 53  1  0
 29 54  1  0
 30 55  1  0
 31 56  1  0
M  END
$$$$
