
     RDKit          3D

 57 59  0  0  0  0  0  0  0  0999 V2000
    8.6036   -2.4142   -2.8780 C   0  0  0  0  0  0  0  0  0  0  0  0
    7.5393   -3.1573   -2.2978 O   0  0  0  0  0  0  0  0  0  0  0  0
    7.0410   -2.6992   -1.1096 C   0  0  0  0  0  0  0  0  0  0  0  0
    7.4890   -1.5804   -0.4074 C   0  0  0  0  0  0  0  0  0  0  0  0
    6.8854   -1.2197    0.8033 C   0  0  0  0  0  0  0  0  0  0  0  0
    5.8314   -1.9773    1.3309 C   0  0  0  0  0  0  0  0  0  0  0  0
    5.1612   -1.5752    2.6184 C   0  0  0  0  0  0  0  0  0  0  0  0
    4.0678   -0.6738    2.3680 N   0  0  0  0  0  0  0  0  0  0  0  0
    2.7777   -1.1153    2.1966 C   0  0  0  0  0  0  0  0  0  0  0  0
    2.3673   -2.2531    2.3752 O   0  0  0  0  0  0  0  0  0  0  0  0
    1.8129   -0.0113    1.7070 C   0  0  0  0  0  0  0  0  0  0  0  0
    2.2417    1.1032    1.4444 O   0  0  0  0  0  0  0  0  0  0  0  0
    0.5079   -0.4276    1.5934 N   0  0  0  0  0  0  0  0  0  0  0  0
   -0.4981    0.3783    0.9200 C   0  0  0  0  0  0  0  0  0  0  0  0
   -1.9297   -0.1473    1.1816 C   0  0  0  0  0  0  0  0  0  0  0  0
   -1.9717   -1.5560    0.8577 O   0  0  0  0  0  0  0  0  0  0  0  0
   -2.3494   -1.6272   -0.5202 C   0  0  0  0  0  0  0  0  0  0  0  0
   -3.3285   -0.4884   -0.7109 C   0  0  0  0  0  0  0  0  0  0  0  0
   -3.0000    0.4539    0.3691 N   0  0  0  0  0  0  0  0  0  0  0  0
   -2.9138    2.0901    0.0318 S   0  0  0  0  0  6  0  0  0  0  0  0
   -2.6875    2.7896    1.2767 O   0  0  0  0  0  0  0  0  0  0  0  0
   -2.0212    2.2485   -1.0961 O   0  0  0  0  0  0  0  0  0  0  0  0
   -4.5665    2.4580   -0.4972 C   0  0  0  0  0  0  0  0  0  0  0  0
   -4.8228    2.7829   -1.8292 C   0  0  0  0  0  0  0  0  0  0  0  0
   -6.1322    3.0686   -2.2204 C   0  0  0  0  0  0  0  0  0  0  0  0
   -7.1797    3.0397   -1.2928 C   0  0  0  0  0  0  0  0  0  0  0  0
   -8.4081    3.3385   -1.8142 O   0  0  0  0  0  0  0  0  0  0  0  0
   -9.5022    3.3735   -0.9062 C   0  0  0  0  0  0  0  0  0  0  0  0
   -6.9090    2.7222    0.0406 C   0  0  0  0  0  0  0  0  0  0  0  0
   -5.6010    2.4333    0.4421 C   0  0  0  0  0  0  0  0  0  0  0  0
    5.3800   -3.0932    0.6159 C   0  0  0  0  0  0  0  0  0  0  0  0
    5.9847   -3.4507   -0.5912 C   0  0  0  0  0  0  0  0  0  0  0  0
    9.4853   -2.4132   -2.2283 H   0  0  0  0  0  0  0  0  0  0  0  0
    8.8821   -2.9061   -3.8151 H   0  0  0  0  0  0  0  0  0  0  0  0
    8.2874   -1.3938   -3.1186 H   0  0  0  0  0  0  0  0  0  0  0  0
    8.3029   -0.9642   -0.7739 H   0  0  0  0  0  0  0  0  0  0  0  0
    7.2454   -0.3390    1.3309 H   0  0  0  0  0  0  0  0  0  0  0  0
    4.8066   -2.4610    3.1574 H   0  0  0  0  0  0  0  0  0  0  0  0
    5.8730   -1.0594    3.2722 H   0  0  0  0  0  0  0  0  0  0  0  0
    4.2599    0.2696    2.0434 H   0  0  0  0  0  0  0  0  0  0  0  0
    0.3501   -1.4311    1.6820 H   0  0  0  0  0  0  0  0  0  0  0  0
   -0.2532    0.3391   -0.1474 H   0  0  0  0  0  0  0  0  0  0  0  0
   -0.3842    1.4158    1.2490 H   0  0  0  0  0  0  0  0  0  0  0  0
   -2.1739   -0.0572    2.2452 H   0  0  0  0  0  0  0  0  0  0  0  0
   -2.7889   -2.6041   -0.7397 H   0  0  0  0  0  0  0  0  0  0  0  0
   -1.4549   -1.5000   -1.1395 H   0  0  0  0  0  0  0  0  0  0  0  0
   -4.3564   -0.8352   -0.5600 H   0  0  0  0  0  0  0  0  0  0  0  0
   -3.2509   -0.0668   -1.7160 H   0  0  0  0  0  0  0  0  0  0  0  0
   -4.0217    2.8212   -2.5635 H   0  0  0  0  0  0  0  0  0  0  0  0
   -6.3413    3.3231   -3.2575 H   0  0  0  0  0  0  0  0  0  0  0  0
   -9.6757    2.3887   -0.4603 H   0  0  0  0  0  0  0  0  0  0  0  0
  -10.3982    3.6450   -1.4728 H   0  0  0  0  0  0  0  0  0  0  0  0
   -9.3517    4.1366   -0.1353 H   0  0  0  0  0  0  0  0  0  0  0  0
   -7.6910    2.6938    0.7921 H   0  0  0  0  0  0  0  0  0  0  0  0
   -5.3944    2.1931    1.4830 H   0  0  0  0  0  0  0  0  0  0  0  0
    4.5495   -3.6878    0.9927 H   0  0  0  0  0  0  0  0  0  0  0  0
    5.6251   -4.3205   -1.1351 H   0  0  0  0  0  0  0  0  0  0  0  0
  1  2  1  0
  2  3  1  0
  3  4  2  0
  4  5  1  0
  5  6  2  0
  6  7  1  0
  7  8  1  0
  8  9  1  0
  9 10  2  0
  9 11  1  0
 11 12  2  0
 11 13  1  0
 13 14  1  0
 14 15  1  0
 15 16  1  0
 16 17  1  0
 17 18  1  0
 18 19  1  0
 19 20  1  0
 20 21  2  0
 20 22  2  0
 20 23  1  0
 23 24  2  0
 24 25  1  0
 25 26  2  0
 26 27  1  0
 27 28  1  0
 26 29  1  0
 29 30  2  0
  6 31  1  0
 31 32  2  0
 32  3  1  0
 19 15  1  0
 30 23  1  0
  1 33  1  0
  1 34  1  0
  1 35  1  0
  4 36  1  0
  5 37  1  0
  7 38  1  0
  7 39  1  0
  8 40  1  0
 13 41  1  0
 14 42  1  0
 14 43  1  0
 15 44  1  0
 17 45  1  0
 17 46  1  0
 18 47  1  0
 18 48  1  0
 24 49  1  0
 25 50  1  0
 28 51  1  0
 28 52  1  0
 28 53  1  0
 29 54  1  0
 30 55  1  0
 31 56  1  0
 32 57  1  0
M  END
$$$$
