
     RDKit          3D

 48 51  0  0  0  0  0  0  0  0999 V2000
    2.7399   -2.4500    1.7750 C   0  0  0  0  0  0  0  0  0  0  0  0
    2.5749   -1.0059    1.4187 C   0  0  0  0  0  0  0  0  0  0  0  0
    1.4521   -0.3470    1.0826 C   0  0  0  0  0  0  0  0  0  0  0  0
    0.1204   -0.6529    1.0017 N   0  0  0  0  0  0  0  0  0  0  0  0
   -0.5569   -1.7822    1.4051 C   0  0  0  0  0  0  0  0  0  0  0  0
   -0.0486   -2.7623    1.9450 O   0  0  0  0  0  0  0  0  0  0  0  0
   -2.0677   -1.6891    1.2408 C   0  0  0  0  0  0  0  0  0  0  0  0
   -2.5286   -1.1198   -0.4302 S   0  0  0  0  0  0  0  0  0  0  0  0
   -4.3212   -1.0761   -0.2724 C   0  0  0  0  0  0  0  0  0  0  0  0
   -4.7911   -1.1628    0.9881 N   0  0  0  0  0  0  0  0  0  0  0  0
   -6.1190   -1.1197    1.1237 C   0  0  0  0  0  0  0  0  0  0  0  0
   -7.0091   -1.0040    0.1332 N   0  0  0  0  0  0  0  0  0  0  0  0
   -6.5259   -0.9129   -1.1106 C   0  0  0  0  0  0  0  0  0  0  0  0
   -7.4313   -0.7857   -2.1595 C   0  0  0  0  0  0  0  0  0  0  0  0
   -7.0152   -0.6882   -3.4890 C   0  0  0  0  0  0  0  0  0  0  0  0
   -5.6601   -0.7056   -3.7882 C   0  0  0  0  0  0  0  0  0  0  0  0
   -4.7325   -0.8277   -2.7550 C   0  0  0  0  0  0  0  0  0  0  0  0
   -5.1536   -0.9380   -1.4001 C   0  0  0  0  0  0  0  0  0  0  0  0
    1.8935    1.0418    0.7238 C   0  0  0  0  0  0  0  0  0  0  0  0
    1.1061    1.8839    0.3135 O   0  0  0  0  0  0  0  0  0  0  0  0
    3.2774    1.0824    0.8960 N   0  0  0  0  0  0  0  0  0  0  0  0
    4.1682    1.9883    0.2657 C   0  0  0  0  0  0  0  0  0  0  0  0
    5.4961    1.6272   -0.0128 C   0  0  0  0  0  0  0  0  0  0  0  0
    6.3737    2.5215   -0.6316 C   0  0  0  0  0  0  0  0  0  0  0  0
    5.9370    3.7948   -0.9842 C   0  0  0  0  0  0  0  0  0  0  0  0
    4.6222    4.1693   -0.7232 C   0  0  0  0  0  0  0  0  0  0  0  0
    3.7449    3.2718   -0.1057 C   0  0  0  0  0  0  0  0  0  0  0  0
    3.7192   -0.1789    1.3910 N   0  0  0  0  0  0  0  0  0  0  0  0
    4.4940   -0.0653    2.6438 C   0  0  0  0  0  0  0  0  0  0  0  0
    2.4463   -2.6244    2.8175 H   0  0  0  0  0  0  0  0  0  0  0  0
    2.1683   -3.0952    1.1000 H   0  0  0  0  0  0  0  0  0  0  0  0
    3.7902   -2.7646    1.6762 H   0  0  0  0  0  0  0  0  0  0  0  0
   -0.4484    0.1060    0.6258 H   0  0  0  0  0  0  0  0  0  0  0  0
   -2.4405   -1.0059    2.0109 H   0  0  0  0  0  0  0  0  0  0  0  0
   -2.4924   -2.6864    1.4018 H   0  0  0  0  0  0  0  0  0  0  0  0
   -6.5137   -1.1853    2.1316 H   0  0  0  0  0  0  0  0  0  0  0  0
   -8.4957   -0.7706   -1.9340 H   0  0  0  0  0  0  0  0  0  0  0  0
   -7.7503   -0.6053   -4.2838 H   0  0  0  0  0  0  0  0  0  0  0  0
   -5.3236   -0.6224   -4.8199 H   0  0  0  0  0  0  0  0  0  0  0  0
   -3.6753   -0.8376   -3.0127 H   0  0  0  0  0  0  0  0  0  0  0  0
    5.8592    0.6287    0.2171 H   0  0  0  0  0  0  0  0  0  0  0  0
    7.3946    2.2163   -0.8473 H   0  0  0  0  0  0  0  0  0  0  0  0
    6.6163    4.4906   -1.4682 H   0  0  0  0  0  0  0  0  0  0  0  0
    4.2732    5.1620   -0.9969 H   0  0  0  0  0  0  0  0  0  0  0  0
    2.7298    3.6069    0.0915 H   0  0  0  0  0  0  0  0  0  0  0  0
    5.3564    0.5992    2.5321 H   0  0  0  0  0  0  0  0  0  0  0  0
    4.8778   -1.0438    2.9431 H   0  0  0  0  0  0  0  0  0  0  0  0
    3.8694    0.3250    3.4546 H   0  0  0  0  0  0  0  0  0  0  0  0
  1  2  1  0
  2  3  2  0
  3  4  1  0
  4  5  1  0
  5  6  2  0
  5  7  1  0
  7  8  1  0
  8  9  1  0
  9 10  2  0
 10 11  1  0
 11 12  2  0
 12 13  1  0
 13 14  2  0
 14 15  1  0
 15 16  2  0
 16 17  1  0
 17 18  2  0
  3 19  1  0
 19 20  2  0
 19 21  1  0
 21 22  1  0
 22 23  2  0
 23 24  1  0
 24 25  2  0
 25 26  1  0
 26 27  2  0
 21 28  1  0
 28 29  1  0
 28  2  1  0
 18  9  1  0
 27 22  1  0
 18 13  1  0
  1 30  1  0
  1 31  1  0
  1 32  1  0
  4 33  1  0
  7 34  1  0
  7 35  1  0
 11 36  1  0
 14 37  1  0
 15 38  1  0
 16 39  1  0
 17 40  1  0
 23 41  1  0
 24 42  1  0
 25 43  1  0
 26 44  1  0
 27 45  1  0
 29 46  1  0
 29 47  1  0
 29 48  1  0
M  END
$$$$
