
     RDKit          3D

 37 39  0  0  0  0  0  0  0  0999 V2000
    6.9829   -1.1591    0.6190 C   0  0  0  0  0  0  0  0  0  0  0  0
    5.7326   -0.2959    0.5646 C   0  0  0  0  0  0  0  0  0  0  0  0
    4.4762   -1.1130    0.8626 C   0  0  0  0  0  0  0  0  0  0  0  0
    3.2479   -0.2673    0.7974 C   0  0  0  0  0  0  0  0  0  0  0  0
    2.7959    0.4774    1.7852 N   0  0  0  0  0  0  0  0  0  0  0  0
    1.6307    1.1341    1.4427 N   0  0  0  0  0  0  0  0  0  0  0  0
    1.2504    0.8638    0.2139 C   0  0  0  0  0  0  0  0  0  0  0  0
    0.1143    1.4006   -0.3320 N   0  0  0  0  0  0  0  0  0  0  0  0
   -0.4044    1.1634   -1.5843 C   0  0  0  0  0  0  0  0  0  0  0  0
    0.0761    0.4586   -2.4662 O   0  0  0  0  0  0  0  0  0  0  0  0
   -1.7045    1.9378   -1.8317 C   0  0  0  0  0  0  0  0  0  0  0  0
   -2.4245    2.2799   -0.6529 O   0  0  0  0  0  0  0  0  0  0  0  0
   -3.2031    1.3136   -0.0726 C   0  0  0  0  0  0  0  0  0  0  0  0
   -3.9583    1.7681    1.0283 C   0  0  0  0  0  0  0  0  0  0  0  0
   -4.7903    0.9014    1.7426 C   0  0  0  0  0  0  0  0  0  0  0  0
   -4.8426   -0.4116    1.3330 C   0  0  0  0  0  0  0  0  0  0  0  0
   -4.1093   -0.8588    0.2601 C   0  0  0  0  0  0  0  0  0  0  0  0
   -3.2793   -0.0253   -0.4641 C   0  0  0  0  0  0  0  0  0  0  0  0
   -4.3046   -2.1828    0.0150 O   0  0  0  0  0  0  0  0  0  0  0  0
   -5.2338   -2.5196    1.0658 C   0  0  0  0  0  0  0  0  0  0  0  0
   -5.5884   -1.3963    1.8987 O   0  0  0  0  0  0  0  0  0  0  0  0
    2.2840   -0.2009   -0.6221 S   0  0  0  0  0  0  0  0  0  0  0  0
    6.9316   -1.9693   -0.1149 H   0  0  0  0  0  0  0  0  0  0  0  0
    7.8691   -0.5573    0.3973 H   0  0  0  0  0  0  0  0  0  0  0  0
    7.1122   -1.6023    1.6116 H   0  0  0  0  0  0  0  0  0  0  0  0
    5.8285    0.5222    1.2893 H   0  0  0  0  0  0  0  0  0  0  0  0
    5.6577    0.1676   -0.4264 H   0  0  0  0  0  0  0  0  0  0  0  0
    4.3997   -1.9564    0.1657 H   0  0  0  0  0  0  0  0  0  0  0  0
    4.5499   -1.5448    1.8684 H   0  0  0  0  0  0  0  0  0  0  0  0
   -0.4174    1.9833    0.3051 H   0  0  0  0  0  0  0  0  0  0  0  0
   -1.4156    2.8799   -2.3114 H   0  0  0  0  0  0  0  0  0  0  0  0
   -2.3382    1.4013   -2.5473 H   0  0  0  0  0  0  0  0  0  0  0  0
   -3.8957    2.8129    1.3277 H   0  0  0  0  0  0  0  0  0  0  0  0
   -5.3730    1.2514    2.5865 H   0  0  0  0  0  0  0  0  0  0  0  0
   -2.7250   -0.4398   -1.2962 H   0  0  0  0  0  0  0  0  0  0  0  0
   -6.1472   -2.9215    0.6119 H   0  0  0  0  0  0  0  0  0  0  0  0
   -4.7841   -3.2953    1.6960 H   0  0  0  0  0  0  0  0  0  0  0  0
  1  2  1  0
  2  3  1  0
  3  4  1  0
  4  5  2  0
  5  6  1  0
  6  7  2  0
  7  8  1  0
  8  9  1  0
  9 10  2  0
  9 11  1  0
 11 12  1  0
 12 13  1  0
 13 14  2  0
 14 15  1  0
 15 16  2  0
 16 17  1  0
 17 18  2  0
 17 19  1  0
 19 20  1  0
 20 21  1  0
  7 22  1  0
 22  4  1  0
 18 13  1  0
 21 16  1  0
  1 23  1  0
  1 24  1  0
  1 25  1  0
  2 26  1  0
  2 27  1  0
  3 28  1  0
  3 29  1  0
  8 30  1  0
 11 31  1  0
 11 32  1  0
 14 33  1  0
 15 34  1  0
 18 35  1  0
 20 36  1  0
 20 37  1  0
M  END
$$$$
