
     RDKit          3D

 35 36  0  0  0  0  0  0  0  0999 V2000
   -5.6571   -0.1678   -1.6145 C   0  0  0  0  0  0  0  0  0  0  0  0
   -5.0045    1.1347   -1.2320 C   0  0  0  0  0  0  0  0  0  0  0  0
   -5.5252    2.2131   -1.5091 O   0  0  0  0  0  0  0  0  0  0  0  0
   -3.7065    1.1047   -0.4943 C   0  0  0  0  0  0  0  0  0  0  0  0
   -3.1504   -0.0851   -0.0081 C   0  0  0  0  0  0  0  0  0  0  0  0
   -1.9315   -0.0614    0.6790 C   0  0  0  0  0  0  0  0  0  0  0  0
   -1.2724    1.1491    0.8908 C   0  0  0  0  0  0  0  0  0  0  0  0
   -0.0069    1.1673    1.5485 N   0  0  0  0  0  0  0  0  0  0  0  0
    1.3568    0.7862    0.5971 S   0  0  0  0  0  6  0  0  0  0  0  0
    0.9566    0.6493   -0.7864 O   0  0  0  0  0  0  0  0  0  0  0  0
    2.3589    1.7472    1.0120 O   0  0  0  0  0  0  0  0  0  0  0  0
    1.7816   -0.8234    1.2736 C   0  0  0  0  0  0  0  0  0  0  0  0
    3.0378   -1.3276    0.6099 C   0  0  0  0  0  0  0  0  0  0  0  0
    2.9680   -2.0561   -0.5876 C   0  0  0  0  0  0  0  0  0  0  0  0
    4.1327   -2.5190   -1.2042 C   0  0  0  0  0  0  0  0  0  0  0  0
    5.3733   -2.2547   -0.6294 C   0  0  0  0  0  0  0  0  0  0  0  0
    6.8073   -2.8270   -1.3883 Cl  0  0  0  0  0  0  0  0  0  0  0  0
    5.4596   -1.5276    0.5553 C   0  0  0  0  0  0  0  0  0  0  0  0
    4.2957   -1.0638    1.1729 C   0  0  0  0  0  0  0  0  0  0  0  0
   -1.8118    2.3367    0.3993 C   0  0  0  0  0  0  0  0  0  0  0  0
   -3.0301    2.3148   -0.2847 C   0  0  0  0  0  0  0  0  0  0  0  0
   -4.9603   -0.7935   -2.1783 H   0  0  0  0  0  0  0  0  0  0  0  0
   -6.0127   -0.6869   -0.7209 H   0  0  0  0  0  0  0  0  0  0  0  0
   -6.5170    0.0377   -2.2598 H   0  0  0  0  0  0  0  0  0  0  0  0
   -3.6437   -1.0425   -0.1480 H   0  0  0  0  0  0  0  0  0  0  0  0
   -1.5119   -0.9909    1.0513 H   0  0  0  0  0  0  0  0  0  0  0  0
    0.1981    2.0359    2.0494 H   0  0  0  0  0  0  0  0  0  0  0  0
    1.9243   -0.7133    2.3531 H   0  0  0  0  0  0  0  0  0  0  0  0
    0.9463   -1.5058    1.0918 H   0  0  0  0  0  0  0  0  0  0  0  0
    2.0072   -2.2586   -1.0584 H   0  0  0  0  0  0  0  0  0  0  0  0
    4.0651   -3.0777   -2.1341 H   0  0  0  0  0  0  0  0  0  0  0  0
    6.4281   -1.3129    0.9995 H   0  0  0  0  0  0  0  0  0  0  0  0
    4.3822   -0.4852    2.0912 H   0  0  0  0  0  0  0  0  0  0  0  0
   -1.2929    3.2826    0.5284 H   0  0  0  0  0  0  0  0  0  0  0  0
   -3.4446    3.2476   -0.6648 H   0  0  0  0  0  0  0  0  0  0  0  0
  1  2  1  0
  2  3  2  0
  2  4  1  0
  4  5  2  0
  5  6  1  0
  6  7  2  0
  7  8  1  0
  8  9  1  0
  9 10  2  0
  9 11  2  0
  9 12  1  0
 12 13  1  0
 13 14  2  0
 14 15  1  0
 15 16  2  0
 16 17  1  0
 16 18  1  0
 18 19  2  0
  7 20  1  0
 20 21  2  0
 21  4  1  0
 19 13  1  0
  1 22  1  0
  1 23  1  0
  1 24  1  0
  5 25  1  0
  6 26  1  0
  8 27  1  0
 12 28  1  0
 12 29  1  0
 14 30  1  0
 15 31  1  0
 18 32  1  0
 19 33  1  0
 20 34  1  0
 21 35  1  0
M  END
$$$$
