
     RDKit          3D

 53 56  0  0  0  0  0  0  0  0999 V2000
   -7.6072    2.0771   -2.8851 C   0  0  0  0  0  0  0  0  0  0  0  0
   -6.4940    1.6595   -1.9729 C   0  0  0  0  0  0  0  0  0  0  0  0
   -6.3683    0.3294   -1.5619 C   0  0  0  0  0  0  0  0  0  0  0  0
   -5.3057   -0.0687   -0.7419 C   0  0  0  0  0  0  0  0  0  0  0  0
   -4.3505    0.8617   -0.3193 C   0  0  0  0  0  0  0  0  0  0  0  0
   -3.2427    0.4951    0.5059 N   0  0  0  0  0  0  0  0  0  0  0  0
   -2.1552    1.3101    0.5398 N   0  0  0  0  0  0  0  0  0  0  0  0
   -1.2128    0.6040    1.1679 C   0  0  0  0  0  0  0  0  0  0  0  0
    0.1732    1.0014    1.3792 C   0  0  0  0  0  0  0  0  0  0  0  0
    0.6541    2.0589    0.9790 O   0  0  0  0  0  0  0  0  0  0  0  0
    0.9009    0.0506    2.1210 N   0  0  0  0  0  0  0  0  0  0  0  0
    2.3205    0.2783    2.3275 C   0  0  0  0  0  0  0  0  0  0  0  0
    3.1356   -0.2300    1.1368 C   0  0  0  0  0  0  0  0  0  0  0  0
    2.6645   -0.4648    0.0263 O   0  0  0  0  0  0  0  0  0  0  0  0
    4.4856   -0.3710    1.4134 N   0  0  0  0  0  0  0  0  0  0  0  0
    5.4304   -0.7570    0.3805 C   0  0  0  0  0  0  0  0  0  0  0  0
    5.9109    0.4466   -0.4349 C   0  0  0  0  0  0  0  0  0  0  0  0
    6.8805    0.0430   -1.5052 C   0  0  0  0  0  0  0  0  0  0  0  0
    6.6208   -0.1942   -2.8404 C   0  0  0  0  0  0  0  0  0  0  0  0
    7.7950   -0.5597   -3.5608 C   0  0  0  0  0  0  0  0  0  0  0  0
    8.9062   -0.6014   -2.7516 C   0  0  0  0  0  0  0  0  0  0  0  0
    8.5396   -0.1782   -1.1366 S   0  0  0  0  0  0  0  0  0  0  0  0
    0.3863   -1.1481    2.6316 N   0  0  0  0  0  0  0  0  0  0  0  0
   -0.8572   -1.4827    2.4257 C   0  0  0  0  0  0  0  0  0  0  0  0
   -1.3517   -2.7794    2.9992 C   0  0  0  0  0  0  0  0  0  0  0  0
   -1.7148   -0.5991    1.6750 C   0  0  0  0  0  0  0  0  0  0  0  0
   -3.0576   -0.6168    1.3363 C   0  0  0  0  0  0  0  0  0  0  0  0
   -4.1398   -1.5364    1.7698 C   0  0  0  0  0  0  0  0  0  0  0  0
   -4.4559    2.1893   -0.7667 C   0  0  0  0  0  0  0  0  0  0  0  0
   -5.5209    2.5843   -1.5813 C   0  0  0  0  0  0  0  0  0  0  0  0
   -8.4535    1.3871   -2.8171 H   0  0  0  0  0  0  0  0  0  0  0  0
   -7.9749    3.0729   -2.6177 H   0  0  0  0  0  0  0  0  0  0  0  0
   -7.2526    2.0928   -3.9190 H   0  0  0  0  0  0  0  0  0  0  0  0
   -7.0898   -0.4164   -1.8932 H   0  0  0  0  0  0  0  0  0  0  0  0
   -5.2302   -1.1245   -0.5051 H   0  0  0  0  0  0  0  0  0  0  0  0
    2.6319   -0.2408    3.2406 H   0  0  0  0  0  0  0  0  0  0  0  0
    2.5166    1.3489    2.4463 H   0  0  0  0  0  0  0  0  0  0  0  0
    4.8471   -0.0734    2.3103 H   0  0  0  0  0  0  0  0  0  0  0  0
    6.2676   -1.2489    0.8877 H   0  0  0  0  0  0  0  0  0  0  0  0
    4.9575   -1.4991   -0.2758 H   0  0  0  0  0  0  0  0  0  0  0  0
    5.0519    0.9505   -0.8969 H   0  0  0  0  0  0  0  0  0  0  0  0
    6.3701    1.1880    0.2319 H   0  0  0  0  0  0  0  0  0  0  0  0
    5.6333   -0.1099   -3.2792 H   0  0  0  0  0  0  0  0  0  0  0  0
    7.8173   -0.7888   -4.6193 H   0  0  0  0  0  0  0  0  0  0  0  0
    9.9179   -0.8536   -3.0317 H   0  0  0  0  0  0  0  0  0  0  0  0
   -0.5101   -3.3904    3.3360 H   0  0  0  0  0  0  0  0  0  0  0  0
   -1.9104   -3.3410    2.2466 H   0  0  0  0  0  0  0  0  0  0  0  0
   -1.9930   -2.5717    3.8588 H   0  0  0  0  0  0  0  0  0  0  0  0
   -5.1149   -1.0378    1.7999 H   0  0  0  0  0  0  0  0  0  0  0  0
   -3.9643   -1.8915    2.7923 H   0  0  0  0  0  0  0  0  0  0  0  0
   -4.1955   -2.4091    1.1133 H   0  0  0  0  0  0  0  0  0  0  0  0
   -3.7150    2.9351   -0.4825 H   0  0  0  0  0  0  0  0  0  0  0  0
   -5.5769    3.6195   -1.9147 H   0  0  0  0  0  0  0  0  0  0  0  0
  1  2  1  0
  2  3  2  0
  3  4  1  0
  4  5  2  0
  5  6  1  0
  6  7  1  0
  7  8  2  0
  8  9  1  0
  9 10  2  0
  9 11  1  0
 11 12  1  0
 12 13  1  0
 13 14  2  0
 13 15  1  0
 15 16  1  0
 16 17  1  0
 17 18  1  0
 18 19  2  0
 19 20  1  0
 20 21  2  0
 21 22  1  0
 11 23  1  0
 23 24  2  0
 24 25  1  0
 24 26  1  0
 26 27  2  0
 27 28  1  0
  5 29  1  0
 29 30  2  0
 30  2  1  0
 27  6  1  0
 26  8  1  0
 22 18  1  0
  1 31  1  0
  1 32  1  0
  1 33  1  0
  3 34  1  0
  4 35  1  0
 12 36  1  0
 12 37  1  0
 15 38  1  0
 16 39  1  0
 16 40  1  0
 17 41  1  0
 17 42  1  0
 19 43  1  0
 20 44  1  0
 21 45  1  0
 25 46  1  0
 25 47  1  0
 25 48  1  0
 28 49  1  0
 28 50  1  0
 28 51  1  0
 29 52  1  0
 30 53  1  0
M  END
$$$$
