
     RDKit          3D

 64 69  0  0  0  0  0  0  0  0999 V2000
    6.5413    4.2971   -0.7032 F   0  0  0  0  0  0  0  0  0  0  0  0
    5.9784    3.0585   -0.8384 C   0  0  0  0  0  0  0  0  0  0  0  0
    4.6524    3.2260   -0.5682 F   0  0  0  0  0  0  0  0  0  0  0  0
    6.0560    2.7650   -2.1648 F   0  0  0  0  0  0  0  0  0  0  0  0
    6.6288    2.0019    0.0282 C   0  0  0  0  0  0  0  0  0  0  0  0
    7.7710    2.3460    0.7792 C   0  0  0  0  0  0  0  0  0  0  0  0
    8.4181    1.4045    1.5805 C   0  0  0  0  0  0  0  0  0  0  0  0
    7.9382    0.1000    1.6419 C   0  0  0  0  0  0  0  0  0  0  0  0
    6.8128   -0.2622    0.9044 C   0  0  0  0  0  0  0  0  0  0  0  0
    6.1425    0.6753    0.0954 C   0  0  0  0  0  0  0  0  0  0  0  0
    4.9050    0.2051   -0.6474 C   0  0  0  0  0  0  0  0  0  0  0  0
    3.6589    0.1836    0.2579 C   0  0  0  0  0  0  0  0  0  0  0  0
    2.5685   -0.6411   -0.2836 N   0  0  0  0  0  0  0  0  0  0  0  0
    1.4810   -0.8464    0.6976 C   0  0  0  0  0  0  0  0  0  0  0  0
    0.1322   -0.1636    0.3716 C   0  0  0  0  0  0  0  0  0  0  0  0
   -0.3550   -0.4983   -0.9753 N   0  0  0  0  0  0  0  0  0  0  0  0
   -1.6228   -1.0502   -1.1645 C   0  0  0  0  0  0  0  0  0  0  0  0
   -1.7498   -2.0233   -2.0346 N   0  0  0  0  0  0  0  0  0  0  0  0
   -2.9919   -2.6481   -2.2453 C   0  0  0  0  0  0  0  0  0  0  0  0
   -3.0607   -3.6856   -3.1784 C   0  0  0  0  0  0  0  0  0  0  0  0
   -4.2670   -4.3431   -3.4239 C   0  0  0  0  0  0  0  0  0  0  0  0
   -5.4192   -3.9669   -2.7337 C   0  0  0  0  0  0  0  0  0  0  0  0
   -5.3733   -2.9349   -1.7963 C   0  0  0  0  0  0  0  0  0  0  0  0
   -4.1584   -2.2907   -1.5567 C   0  0  0  0  0  0  0  0  0  0  0  0
   -4.0211   -1.2417   -0.6341 N   0  0  0  0  0  0  0  0  0  0  0  0
   -4.9665   -0.6817    0.1925 C   0  0  0  0  0  0  0  0  0  0  0  0
   -4.3873    0.3737    0.8655 C   0  0  0  0  0  0  0  0  0  0  0  0
   -5.1016    1.2051    1.8172 C   0  0  0  0  0  0  0  0  0  0  0  0
   -5.9015    0.6245    2.8098 C   0  0  0  0  0  0  0  0  0  0  0  0
   -6.5885    1.4271    3.7238 C   0  0  0  0  0  0  0  0  0  0  0  0
   -6.4841    2.8161    3.6487 C   0  0  0  0  0  0  0  0  0  0  0  0
   -5.6835    3.4036    2.6684 C   0  0  0  0  0  0  0  0  0  0  0  0
   -4.9887    2.6001    1.7592 C   0  0  0  0  0  0  0  0  0  0  0  0
   -3.0425    0.4523    0.4160 C   0  0  0  0  0  0  0  0  0  0  0  0
   -2.8149   -0.6025   -0.4528 C   0  0  0  0  0  0  0  0  0  0  0  0
    0.7081   -0.8197   -1.9469 C   0  0  0  0  0  0  0  0  0  0  0  0
    2.0435   -0.1472   -1.5710 C   0  0  0  0  0  0  0  0  0  0  0  0
    8.1662    3.3632    0.7432 H   0  0  0  0  0  0  0  0  0  0  0  0
    9.2917    1.6901    2.1585 H   0  0  0  0  0  0  0  0  0  0  0  0
    8.4382   -0.6387    2.2650 H   0  0  0  0  0  0  0  0  0  0  0  0
    6.4502   -1.2890    0.9651 H   0  0  0  0  0  0  0  0  0  0  0  0
    5.1016   -0.8057   -1.0346 H   0  0  0  0  0  0  0  0  0  0  0  0
    4.7234    0.8256   -1.5340 H   0  0  0  0  0  0  0  0  0  0  0  0
    3.3164    1.2101    0.4517 H   0  0  0  0  0  0  0  0  0  0  0  0
    3.9504   -0.2384    1.2294 H   0  0  0  0  0  0  0  0  0  0  0  0
    1.3095   -1.9292    0.7522 H   0  0  0  0  0  0  0  0  0  0  0  0
    1.7892   -0.5412    1.7066 H   0  0  0  0  0  0  0  0  0  0  0  0
    0.2448    0.9251    0.4402 H   0  0  0  0  0  0  0  0  0  0  0  0
   -0.5809   -0.4703    1.1423 H   0  0  0  0  0  0  0  0  0  0  0  0
   -2.1598   -3.9771   -3.7143 H   0  0  0  0  0  0  0  0  0  0  0  0
   -4.3053   -5.1477   -4.1538 H   0  0  0  0  0  0  0  0  0  0  0  0
   -6.3621   -4.4704   -2.9283 H   0  0  0  0  0  0  0  0  0  0  0  0
   -6.2871   -2.6597   -1.2842 H   0  0  0  0  0  0  0  0  0  0  0  0
   -5.9780   -1.0561    0.2275 H   0  0  0  0  0  0  0  0  0  0  0  0
   -5.9879   -0.4579    2.8852 H   0  0  0  0  0  0  0  0  0  0  0  0
   -7.2024    0.9663    4.4927 H   0  0  0  0  0  0  0  0  0  0  0  0
   -7.0276    3.4387    4.3533 H   0  0  0  0  0  0  0  0  0  0  0  0
   -5.5991    4.4868    2.6088 H   0  0  0  0  0  0  0  0  0  0  0  0
   -4.3705    3.0675    0.9958 H   0  0  0  0  0  0  0  0  0  0  0  0
   -2.3124    1.1859    0.7261 H   0  0  0  0  0  0  0  0  0  0  0  0
    0.4050   -0.4764   -2.9394 H   0  0  0  0  0  0  0  0  0  0  0  0
    0.8579   -1.9050   -1.9968 H   0  0  0  0  0  0  0  0  0  0  0  0
    1.8988    0.9429   -1.5326 H   0  0  0  0  0  0  0  0  0  0  0  0
    2.7717   -0.3574   -2.3644 H   0  0  0  0  0  0  0  0  0  0  0  0
  1  2  1  0
  2  3  1  0
  2  4  1  0
  2  5  1  0
  5  6  2  0
  6  7  1  0
  7  8  2  0
  8  9  1  0
  9 10  2  0
 10 11  1  0
 11 12  1  0
 12 13  1  0
 13 14  1  0
 14 15  1  0
 15 16  1  0
 16 17  1  0
 17 18  2  0
 18 19  1  0
 19 20  2  0
 20 21  1  0
 21 22  2  0
 22 23  1  0
 23 24  2  0
 24 25  1  0
 25 26  1  0
 26 27  2  0
 27 28  1  0
 28 29  2  0
 29 30  1  0
 30 31  2  0
 31 32  1  0
 32 33  2  0
 27 34  1  0
 34 35  2  0
 16 36  1  0
 36 37  1  0
 10  5  1  0
 37 13  1  0
 35 17  1  0
 24 19  1  0
 35 25  1  0
 33 28  1  0
  6 38  1  0
  7 39  1  0
  8 40  1  0
  9 41  1  0
 11 42  1  0
 11 43  1  0
 12 44  1  0
 12 45  1  0
 14 46  1  0
 14 47  1  0
 15 48  1  0
 15 49  1  0
 20 50  1  0
 21 51  1  0
 22 52  1  0
 23 53  1  0
 26 54  1  0
 29 55  1  0
 30 56  1  0
 31 57  1  0
 32 58  1  0
 33 59  1  0
 34 60  1  0
 36 61  1  0
 36 62  1  0
 37 63  1  0
 37 64  1  0
M  END
$$$$
