
     RDKit          3D

 55 60  0  0  0  0  0  0  0  0999 V2000
    3.8583    0.2732    2.9349 O   0  0  0  0  0  0  0  0  0  0  0  0
    3.7186    0.6731    1.7799 C   0  0  0  0  0  0  0  0  0  0  0  0
    4.8831    0.9652    0.9600 C   0  0  0  0  0  0  0  0  0  0  0  0
    5.1360    0.7208   -0.4230 C   0  0  0  0  0  0  0  0  0  0  0  0
    6.4151    1.1610   -0.6725 C   0  0  0  0  0  0  0  0  0  0  0  0
    6.9822    1.6359    0.4651 O   0  0  0  0  0  0  0  0  0  0  0  0
    6.0604    1.4937    1.4521 C   0  0  0  0  0  0  0  0  0  0  0  0
    2.4523    0.8204    1.2083 N   0  0  0  0  0  0  0  0  0  0  0  0
    1.3183    0.3332    1.9800 C   0  0  0  0  0  0  0  0  0  0  0  0
   -0.0132    0.4818    1.2379 C   0  0  0  0  0  0  0  0  0  0  0  0
    0.1256    0.1501   -0.2703 C   0  0  0  0  0  0  0  0  0  0  0  0
    1.2181    1.0883   -0.8918 C   0  0  0  0  0  0  0  0  0  0  0  0
    2.1247    1.7532    0.1427 C   0  0  0  0  0  0  0  0  0  0  0  0
    0.5849   -1.2277   -0.3064 O   0  0  0  0  0  0  0  0  0  0  0  0
    0.5692   -1.8372   -1.5291 C   0  0  0  0  0  0  0  0  0  0  0  0
    1.3403   -2.9922   -1.6497 C   0  0  0  0  0  0  0  0  0  0  0  0
    1.4048   -3.6631   -2.8734 C   0  0  0  0  0  0  0  0  0  0  0  0
    0.6930   -3.1787   -3.9712 C   0  0  0  0  0  0  0  0  0  0  0  0
    0.7809   -4.0064   -5.4753 Cl  0  0  0  0  0  0  0  0  0  0  0  0
   -0.0919   -2.0342   -3.8558 C   0  0  0  0  0  0  0  0  0  0  0  0
   -0.1567   -1.3731   -2.6254 C   0  0  0  0  0  0  0  0  0  0  0  0
   -1.0125   -0.1838   -2.4590 C   0  0  0  0  0  0  0  0  0  0  0  0
   -1.5245    0.3387   -3.4431 O   0  0  0  0  0  0  0  0  0  0  0  0
   -1.2313    0.2701   -1.0201 C   0  0  0  0  0  0  0  0  0  0  0  0
   -2.3904   -0.5398   -0.4495 C   0  0  0  0  0  0  0  0  0  0  0  0
   -3.1366    0.5556    0.2294 C   0  0  0  0  0  0  0  0  0  0  0  0
   -4.2464    0.2859    1.1723 C   0  0  0  0  0  0  0  0  0  0  0  0
   -4.8251    1.3601    1.8637 C   0  0  0  0  0  0  0  0  0  0  0  0
   -5.8696    1.1387    2.7664 C   0  0  0  0  0  0  0  0  0  0  0  0
   -6.3383   -0.1557    2.9762 C   0  0  0  0  0  0  0  0  0  0  0  0
   -7.6202   -0.4323    4.0888 Cl  0  0  0  0  0  0  0  0  0  0  0  0
   -5.7741   -1.2299    2.2888 C   0  0  0  0  0  0  0  0  0  0  0  0
   -4.7268   -1.0115    1.3863 C   0  0  0  0  0  0  0  0  0  0  0  0
   -2.7372    1.7498   -0.0682 N   0  0  0  0  0  0  0  0  0  0  0  0
   -1.6867    1.6277   -1.0059 O   0  0  0  0  0  0  0  0  0  0  0  0
    4.4706    0.2673   -1.1440 H   0  0  0  0  0  0  0  0  0  0  0  0
    7.0417    1.1898   -1.5534 H   0  0  0  0  0  0  0  0  0  0  0  0
    6.3765    1.8095    2.4375 H   0  0  0  0  0  0  0  0  0  0  0  0
    1.5069   -0.7193    2.2240 H   0  0  0  0  0  0  0  0  0  0  0  0
    1.2761    0.8815    2.9288 H   0  0  0  0  0  0  0  0  0  0  0  0
   -0.3787    1.5090    1.3644 H   0  0  0  0  0  0  0  0  0  0  0  0
   -0.7353   -0.1787    1.7316 H   0  0  0  0  0  0  0  0  0  0  0  0
    1.8570    0.5200   -1.5776 H   0  0  0  0  0  0  0  0  0  0  0  0
    0.7639    1.8905   -1.4842 H   0  0  0  0  0  0  0  0  0  0  0  0
    3.0070    2.1773   -0.3389 H   0  0  0  0  0  0  0  0  0  0  0  0
    1.6111    2.6054    0.6067 H   0  0  0  0  0  0  0  0  0  0  0  0
    1.9043   -3.3648   -0.7972 H   0  0  0  0  0  0  0  0  0  0  0  0
    2.0155   -4.5586   -2.9648 H   0  0  0  0  0  0  0  0  0  0  0  0
   -0.6533   -1.6629   -4.7107 H   0  0  0  0  0  0  0  0  0  0  0  0
   -3.0347   -0.9724   -1.2226 H   0  0  0  0  0  0  0  0  0  0  0  0
   -2.0772   -1.3267    0.2411 H   0  0  0  0  0  0  0  0  0  0  0  0
   -4.4688    2.3768    1.7049 H   0  0  0  0  0  0  0  0  0  0  0  0
   -6.3087    1.9788    3.2985 H   0  0  0  0  0  0  0  0  0  0  0  0
   -6.1451   -2.2391    2.4509 H   0  0  0  0  0  0  0  0  0  0  0  0
   -4.3133   -1.8679    0.8620 H   0  0  0  0  0  0  0  0  0  0  0  0
  1  2  2  0
  2  3  1  0
  3  4  1  0
  4  5  2  0
  5  6  1  0
  6  7  1  0
  2  8  1  0
  8  9  1  0
  9 10  1  0
 10 11  1  0
 11 12  1  0
 12 13  1  0
 11 14  1  0
 14 15  1  0
 15 16  2  0
 16 17  1  0
 17 18  2  0
 18 19  1  0
 18 20  1  0
 20 21  2  0
 21 22  1  0
 22 23  2  0
 22 24  1  0
 24 25  1  0
 25 26  1  0
 26 27  1  0
 27 28  2  0
 28 29  1  0
 29 30  2  0
 30 31  1  0
 30 32  1  0
 32 33  2  0
 26 34  2  0
 34 35  1  0
  7  3  2  0
 13  8  1  0
 21 15  1  0
 35 24  1  0
 24 11  1  0
 33 27  1  0
  4 36  1  0
  5 37  1  0
  7 38  1  0
  9 39  1  0
  9 40  1  0
 10 41  1  0
 10 42  1  0
 12 43  1  0
 12 44  1  0
 13 45  1  0
 13 46  1  0
 16 47  1  0
 17 48  1  0
 20 49  1  0
 25 50  1  0
 25 51  1  0
 28 52  1  0
 29 53  1  0
 32 54  1  0
 33 55  1  0
M  END
$$$$
