
     RDKit          3D

 52 51  0  0  0  0  0  0  0  0999 V2000
   -7.9941    1.7098    0.3153 C   0  0  0  0  0  0  0  0  0  0  0  0
   -6.8516    1.5494   -0.0202 C   0  0  0  0  0  0  0  0  0  0  0  0
   -5.4620    1.3598   -0.4491 C   0  0  0  0  0  0  0  0  0  0  0  0
   -4.6124    0.6496    0.6216 N   0  0  0  0  0  4  0  0  0  0  0  0
   -5.1502   -0.7515    0.8925 C   0  0  0  0  0  0  0  0  0  0  0  0
   -4.6603    1.4503    1.9307 C   0  0  0  0  0  0  0  0  0  0  0  0
   -3.1307    0.5974    0.1847 C   0  0  0  0  0  0  0  0  0  0  0  0
   -2.8803   -0.2396   -1.0724 C   0  0  0  0  0  0  0  0  0  0  0  0
   -1.4142   -0.2008   -1.5234 C   0  0  0  0  0  0  0  0  0  0  0  0
   -0.4546   -0.8704   -0.5370 C   0  0  0  0  0  0  0  0  0  0  0  0
    0.9723   -0.9081   -1.0916 C   0  0  0  0  0  0  0  0  0  0  0  0
    1.9335   -1.5697   -0.1018 C   0  0  0  0  0  0  0  0  0  0  0  0
    3.3549   -1.7319   -0.6491 C   0  0  0  0  0  0  0  0  0  0  0  0
    4.0728   -0.4330   -1.0299 C   0  0  0  0  0  0  0  0  0  0  0  0
    4.1980    0.6061    0.0886 C   0  0  0  0  0  0  0  0  0  0  0  0
    4.9114    0.1285    1.3578 C   0  0  0  0  0  0  0  0  0  0  0  0
    6.3357   -0.3950    1.1584 C   0  0  0  0  0  0  0  0  0  0  0  0
    7.2882    0.6411    0.5824 C   0  0  0  0  0  0  0  0  0  0  0  0
   -9.0126    1.8584    0.6002 H   0  0  0  0  0  0  0  0  0  0  0  0
   -5.4374    0.7455   -1.3535 H   0  0  0  0  0  0  0  0  0  0  0  0
   -4.9806    2.3215   -0.6576 H   0  0  0  0  0  0  0  0  0  0  0  0
   -4.4405   -1.2723    1.5421 H   0  0  0  0  0  0  0  0  0  0  0  0
   -6.1201   -0.6727    1.3918 H   0  0  0  0  0  0  0  0  0  0  0  0
   -5.2628   -1.2782   -0.0587 H   0  0  0  0  0  0  0  0  0  0  0  0
   -5.6795    1.4432    2.3258 H   0  0  0  0  0  0  0  0  0  0  0  0
   -3.9886    0.9719    2.6504 H   0  0  0  0  0  0  0  0  0  0  0  0
   -4.3314    2.4727    1.7221 H   0  0  0  0  0  0  0  0  0  0  0  0
   -2.5750    0.1860    1.0344 H   0  0  0  0  0  0  0  0  0  0  0  0
   -2.8098    1.6345    0.0300 H   0  0  0  0  0  0  0  0  0  0  0  0
   -3.1693   -1.2831   -0.9077 H   0  0  0  0  0  0  0  0  0  0  0  0
   -3.4828    0.1339   -1.9060 H   0  0  0  0  0  0  0  0  0  0  0  0
   -1.1085    0.8392   -1.6909 H   0  0  0  0  0  0  0  0  0  0  0  0
   -1.3426   -0.7104   -2.4925 H   0  0  0  0  0  0  0  0  0  0  0  0
   -0.4529   -0.3272    0.4145 H   0  0  0  0  0  0  0  0  0  0  0  0
   -0.7949   -1.8920   -0.3290 H   0  0  0  0  0  0  0  0  0  0  0  0
    1.2989    0.1156   -1.3062 H   0  0  0  0  0  0  0  0  0  0  0  0
    0.9839   -1.4598   -2.0392 H   0  0  0  0  0  0  0  0  0  0  0  0
    1.5534   -2.5672    0.1525 H   0  0  0  0  0  0  0  0  0  0  0  0
    1.9523   -1.0010    0.8348 H   0  0  0  0  0  0  0  0  0  0  0  0
    3.3196   -2.3769   -1.5362 H   0  0  0  0  0  0  0  0  0  0  0  0
    3.9534   -2.2745    0.0920 H   0  0  0  0  0  0  0  0  0  0  0  0
    5.0722   -0.6868   -1.4032 H   0  0  0  0  0  0  0  0  0  0  0  0
    3.5554    0.0317   -1.8778 H   0  0  0  0  0  0  0  0  0  0  0  0
    4.7197    1.4839   -0.3113 H   0  0  0  0  0  0  0  0  0  0  0  0
    3.1989    0.9627    0.3664 H   0  0  0  0  0  0  0  0  0  0  0  0
    4.9390    0.9632    2.0697 H   0  0  0  0  0  0  0  0  0  0  0  0
    4.3152   -0.6558    1.8386 H   0  0  0  0  0  0  0  0  0  0  0  0
    6.7223   -0.7183    2.1326 H   0  0  0  0  0  0  0  0  0  0  0  0
    6.3313   -1.2838    0.5184 H   0  0  0  0  0  0  0  0  0  0  0  0
    8.3068    0.2408    0.5555 H   0  0  0  0  0  0  0  0  0  0  0  0
    7.0131    0.9142   -0.4405 H   0  0  0  0  0  0  0  0  0  0  0  0
    7.2975    1.5492    1.1934 H   0  0  0  0  0  0  0  0  0  0  0  0
  1  2  3  0
  2  3  1  0
  3  4  1  0
  4  5  1  0
  4  6  1  0
  4  7  1  0
  7  8  1  0
  8  9  1  0
  9 10  1  0
 10 11  1  0
 11 12  1  0
 12 13  1  0
 13 14  1  0
 14 15  1  0
 15 16  1  0
 16 17  1  0
 17 18  1  0
  1 19  1  0
  3 20  1  0
  3 21  1  0
  5 22  1  0
  5 23  1  0
  5 24  1  0
  6 25  1  0
  6 26  1  0
  6 27  1  0
  7 28  1  0
  7 29  1  0
  8 30  1  0
  8 31  1  0
  9 32  1  0
  9 33  1  0
 10 34  1  0
 10 35  1  0
 11 36  1  0
 11 37  1  0
 12 38  1  0
 12 39  1  0
 13 40  1  0
 13 41  1  0
 14 42  1  0
 14 43  1  0
 15 44  1  0
 15 45  1  0
 16 46  1  0
 16 47  1  0
 17 48  1  0
 17 49  1  0
 18 50  1  0
 18 51  1  0
 18 52  1  0
M  CHG  1   4   1
M  END
$$$$
