
     RDKit          3D

 42 41  0  0  0  0  0  0  0  0999 V2000
   -4.0122   -3.2346    2.6754 C   0  0  0  0  0  0  0  0  0  0  0  0
   -3.0914   -2.0756    2.3965 C   0  0  0  0  0  0  0  0  0  0  0  0
   -3.0148   -1.0645    3.5071 C   0  0  0  0  0  0  0  0  0  0  0  0
   -2.4239   -1.9941    1.2289 C   0  0  0  0  0  0  0  0  0  0  0  0
   -1.4428   -0.9332    0.8007 C   0  0  0  0  0  0  0  0  0  0  0  0
   -2.0789    0.0459   -0.1969 C   0  0  0  0  0  0  0  0  0  0  0  0
   -1.2062    1.1679   -0.7494 C   0  0  0  0  0  0  0  0  0  0  0  0
   -1.9578    2.0774   -1.6902 C   0  0  0  0  0  0  0  0  0  0  0  0
    0.0987    1.3225   -0.4432 C   0  0  0  0  0  0  0  0  0  0  0  0
    1.0371    2.4093   -0.9057 C   0  0  0  0  0  0  0  0  0  0  0  0
    1.9645    1.9557   -2.0457 C   0  0  0  0  0  0  0  0  0  0  0  0
    3.0442    0.9149   -1.7651 C   0  0  0  0  0  0  0  0  0  0  0  0
    3.5954    0.2921   -3.0238 C   0  0  0  0  0  0  0  0  0  0  0  0
    3.4761    0.5961   -0.5270 C   0  0  0  0  0  0  0  0  0  0  0  0
    4.4862   -0.4334   -0.1375 C   0  0  0  0  0  0  0  0  0  0  0  0
    3.9660   -1.1330    0.9849 O   0  0  0  0  0  0  0  0  0  0  0  0
   -5.0343   -2.8772    2.8377 H   0  0  0  0  0  0  0  0  0  0  0  0
   -3.6839   -3.7711    3.5718 H   0  0  0  0  0  0  0  0  0  0  0  0
   -4.0386   -3.9534    1.8495 H   0  0  0  0  0  0  0  0  0  0  0  0
   -2.4602   -0.1633    3.2360 H   0  0  0  0  0  0  0  0  0  0  0  0
   -4.0223   -0.7417    3.7915 H   0  0  0  0  0  0  0  0  0  0  0  0
   -2.5341   -1.5064    4.3859 H   0  0  0  0  0  0  0  0  0  0  0  0
   -2.5723   -2.7814    0.4895 H   0  0  0  0  0  0  0  0  0  0  0  0
   -0.5896   -1.4421    0.3342 H   0  0  0  0  0  0  0  0  0  0  0  0
   -1.0408   -0.3928    1.6635 H   0  0  0  0  0  0  0  0  0  0  0  0
   -2.4631   -0.5294   -1.0505 H   0  0  0  0  0  0  0  0  0  0  0  0
   -2.9500    0.5103    0.2856 H   0  0  0  0  0  0  0  0  0  0  0  0
   -2.4742    1.4852   -2.4537 H   0  0  0  0  0  0  0  0  0  0  0  0
   -2.7060    2.6544   -1.1371 H   0  0  0  0  0  0  0  0  0  0  0  0
   -1.3161    2.7808   -2.2251 H   0  0  0  0  0  0  0  0  0  0  0  0
    0.5750    0.6082    0.2261 H   0  0  0  0  0  0  0  0  0  0  0  0
    1.6188    2.7669   -0.0480 H   0  0  0  0  0  0  0  0  0  0  0  0
    0.4759    3.2872   -1.2427 H   0  0  0  0  0  0  0  0  0  0  0  0
    1.3287    1.5794   -2.8593 H   0  0  0  0  0  0  0  0  0  0  0  0
    2.4710    2.8462   -2.4414 H   0  0  0  0  0  0  0  0  0  0  0  0
    3.8723    1.0742   -3.7393 H   0  0  0  0  0  0  0  0  0  0  0  0
    4.4923   -0.3083   -2.8565 H   0  0  0  0  0  0  0  0  0  0  0  0
    2.8392   -0.3487   -3.4888 H   0  0  0  0  0  0  0  0  0  0  0  0
    3.0603    1.1171    0.3320 H   0  0  0  0  0  0  0  0  0  0  0  0
    5.4215    0.0500    0.1590 H   0  0  0  0  0  0  0  0  0  0  0  0
    4.6856   -1.1638   -0.9239 H   0  0  0  0  0  0  0  0  0  0  0  0
    4.6047   -1.8342    1.1951 H   0  0  0  0  0  0  0  0  0  0  0  0
  1  2  1  0
  2  3  1  0
  2  4  2  3
  4  5  1  0
  5  6  1  0
  6  7  1  0
  7  8  1  0
  7  9  2  3
  9 10  1  0
 10 11  1  0
 11 12  1  0
 12 13  1  0
 12 14  2  3
 14 15  1  0
 15 16  1  0
  1 17  1  0
  1 18  1  0
  1 19  1  0
  3 20  1  0
  3 21  1  0
  3 22  1  0
  4 23  1  0
  5 24  1  0
  5 25  1  0
  6 26  1  0
  6 27  1  0
  8 28  1  0
  8 29  1  0
  8 30  1  0
  9 31  1  0
 10 32  1  0
 10 33  1  0
 11 34  1  0
 11 35  1  0
 13 36  1  0
 13 37  1  0
 13 38  1  0
 14 39  1  0
 15 40  1  0
 15 41  1  0
 16 42  1  0
M  END
$$$$
