
     RDKit          3D

 50 53  0  0  0  0  0  0  0  0999 V2000
   -4.6086   -4.3797   -0.6354 C   0  0  0  0  0  0  0  0  0  0  0  0
   -3.8799   -3.2027   -0.0121 C   0  0  0  0  0  0  0  0  0  0  0  0
   -3.5463   -2.2891   -1.0557 O   0  0  0  0  0  0  0  0  0  0  0  0
   -2.8904   -1.1448   -0.6972 C   0  0  0  0  0  0  0  0  0  0  0  0
   -2.4938   -0.7942    0.5930 C   0  0  0  0  0  0  0  0  0  0  0  0
   -1.8229    0.4131    0.8201 C   0  0  0  0  0  0  0  0  0  0  0  0
   -1.5462    1.2809   -0.2419 C   0  0  0  0  0  0  0  0  0  0  0  0
   -0.8041    2.5132   -0.0088 C   0  0  0  0  0  0  0  0  0  0  0  0
    0.5488    2.7226    0.2521 C   0  0  0  0  0  0  0  0  0  0  0  0
    1.6692    1.7800    0.3708 C   0  0  0  0  0  0  0  0  0  0  0  0
    2.7223    2.1251    0.9029 O   0  0  0  0  0  0  0  0  0  0  0  0
    1.4507    0.5148   -0.1764 N   0  0  0  0  0  0  0  0  0  0  0  0
    2.3903   -0.4817   -0.2987 N   0  0  0  0  0  0  0  0  0  0  0  0
    3.2702   -0.6175    0.6431 C   0  0  0  0  0  0  0  0  0  0  0  0
    4.3381   -1.6361    0.5622 C   0  0  0  0  0  0  0  0  0  0  0  0
    4.4335   -2.4947   -0.5388 C   0  0  0  0  0  0  0  0  0  0  0  0
    5.4500   -3.4513   -0.5907 C   0  0  0  0  0  0  0  0  0  0  0  0
    6.3604   -3.5385    0.4591 C   0  0  0  0  0  0  0  0  0  0  0  0
    7.3677   -4.4569    0.4499 O   0  0  0  0  0  0  0  0  0  0  0  0
    6.2726   -2.6873    1.5563 C   0  0  0  0  0  0  0  0  0  0  0  0
    5.2582   -1.7299    1.6110 C   0  0  0  0  0  0  0  0  0  0  0  0
    0.7603    4.0658    0.4335 N   0  0  0  0  0  0  0  0  0  0  0  0
   -0.3856    4.7013    0.2834 N   0  0  0  0  0  0  0  0  0  0  0  0
   -1.3721    3.7937    0.0491 N   0  0  0  0  0  0  0  0  0  0  0  0
   -2.7269    4.1977   -0.0699 C   0  0  0  0  0  0  0  0  0  0  0  0
   -3.7076    3.3063   -0.2153 N   0  0  0  0  0  0  0  0  0  0  0  0
   -4.8656    4.0793   -0.2715 O   0  0  0  0  0  0  0  0  0  0  0  0
   -4.5741    5.4339   -0.1538 N   0  0  0  0  0  0  0  0  0  0  0  0
   -3.2490    5.5049   -0.0356 C   0  0  0  0  0  0  0  0  0  0  0  0
   -2.5583    6.6539    0.0901 N   0  0  0  0  0  0  0  0  0  0  0  0
   -1.9407    0.9270   -1.5360 C   0  0  0  0  0  0  0  0  0  0  0  0
   -2.6102   -0.2786   -1.7567 C   0  0  0  0  0  0  0  0  0  0  0  0
   -3.9786   -4.8701   -1.3850 H   0  0  0  0  0  0  0  0  0  0  0  0
   -4.8876   -5.1132    0.1262 H   0  0  0  0  0  0  0  0  0  0  0  0
   -5.5142   -4.0431   -1.1510 H   0  0  0  0  0  0  0  0  0  0  0  0
   -4.5385   -2.7209    0.7197 H   0  0  0  0  0  0  0  0  0  0  0  0
   -2.9703   -3.5654    0.4805 H   0  0  0  0  0  0  0  0  0  0  0  0
   -2.6890   -1.4366    1.4455 H   0  0  0  0  0  0  0  0  0  0  0  0
   -1.5208    0.6632    1.8353 H   0  0  0  0  0  0  0  0  0  0  0  0
    0.6846    0.4052   -0.8316 H   0  0  0  0  0  0  0  0  0  0  0  0
    3.2570   -0.0130    1.5658 H   0  0  0  0  0  0  0  0  0  0  0  0
    3.7209   -2.4221   -1.3570 H   0  0  0  0  0  0  0  0  0  0  0  0
    5.5138   -4.1114   -1.4499 H   0  0  0  0  0  0  0  0  0  0  0  0
    7.3181   -4.9658   -0.3760 H   0  0  0  0  0  0  0  0  0  0  0  0
    6.9942   -2.7682    2.3647 H   0  0  0  0  0  0  0  0  0  0  0  0
    5.1990   -1.0647    2.4684 H   0  0  0  0  0  0  0  0  0  0  0  0
   -3.0587    7.5091    0.3091 H   0  0  0  0  0  0  0  0  0  0  0  0
   -1.5796    6.6536    0.3756 H   0  0  0  0  0  0  0  0  0  0  0  0
   -1.7396    1.5796   -2.3828 H   0  0  0  0  0  0  0  0  0  0  0  0
   -2.9206   -0.5463   -2.7644 H   0  0  0  0  0  0  0  0  0  0  0  0
  1  2  1  0
  2  3  1  0
  3  4  1  0
  4  5  2  0
  5  6  1  0
  6  7  2  0
  7  8  1  0
  8  9  2  0
  9 10  1  0
 10 11  2  0
 10 12  1  0
 12 13  1  0
 13 14  2  3
 14 15  1  0
 15 16  2  0
 16 17  1  0
 17 18  2  0
 18 19  1  0
 18 20  1  0
 20 21  2  0
  9 22  1  0
 22 23  2  0
 23 24  1  0
 24 25  1  0
 25 26  2  0
 26 27  1  0
 27 28  1  0
 28 29  2  0
 29 30  1  0
  7 31  1  0
 31 32  2  0
 32  4  1  0
 24  8  1  0
 29 25  1  0
 21 15  1  0
  1 33  1  0
  1 34  1  0
  1 35  1  0
  2 36  1  0
  2 37  1  0
  5 38  1  0
  6 39  1  0
 12 40  1  0
 14 41  1  0
 16 42  1  0
 17 43  1  0
 19 44  1  0
 20 45  1  0
 21 46  1  0
 30 47  1  0
 30 48  1  0
 31 49  1  0
 32 50  1  0
M  END
$$$$
