
     RDKit          3D

 34 36  0  0  0  0  0  0  0  0999 V2000
    3.5383   -0.0523   -1.5410 C   0  0  0  0  0  0  0  0  0  0  0  0
    4.0005   -0.1980   -0.1784 N   0  0  0  0  0  0  0  0  0  0  0  0
    5.2092   -0.7591    0.0342 N   0  0  0  0  0  0  0  0  0  0  0  0
    5.3819   -0.6377    1.3525 C   0  0  0  0  0  0  0  0  0  0  0  0
    4.2795   -0.0347    1.9806 C   0  0  0  0  0  0  0  0  0  0  0  0
    4.1406    0.2596    3.6435 Cl  0  0  0  0  0  0  0  0  0  0  0  0
    3.3684    0.2098    0.9726 C   0  0  0  0  0  0  0  0  0  0  0  0
    2.0622    0.8186    1.0653 C   0  0  0  0  0  0  0  0  0  0  0  0
    1.8970    1.8723    1.6644 O   0  0  0  0  0  0  0  0  0  0  0  0
    1.0874    0.0730    0.4311 N   0  0  0  0  0  0  0  0  0  0  0  0
   -0.2635    0.3642    0.2963 C   0  0  0  0  0  0  0  0  0  0  0  0
   -0.9290    1.8180    0.9047 S   0  0  0  0  0  0  0  0  0  0  0  0
   -2.4497    1.3673    0.3994 C   0  0  0  0  0  0  0  0  0  0  0  0
   -2.4965    0.1572   -0.2370 C   0  0  0  0  0  0  0  0  0  0  0  0
   -1.2091   -0.4523   -0.3393 C   0  0  0  0  0  0  0  0  0  0  0  0
   -0.8250   -1.7159   -0.9676 C   0  0  0  0  0  0  0  0  0  0  0  0
   -1.7863   -2.3883   -1.6613 N   0  0  0  0  0  0  0  0  0  0  0  0
    0.3204   -2.1611   -0.9177 O   0  0  0  0  0  0  0  0  0  0  0  0
   -3.8957   -0.1581   -0.6337 C   0  0  0  0  0  0  0  0  0  0  0  0
   -4.7272    0.8879    0.1713 C   0  0  0  0  0  0  0  0  0  0  0  0
   -3.7571    2.0507    0.5275 C   0  0  0  0  0  0  0  0  0  0  0  0
    2.9557   -0.9396   -1.7988 H   0  0  0  0  0  0  0  0  0  0  0  0
    4.4039    0.0367   -2.2033 H   0  0  0  0  0  0  0  0  0  0  0  0
    2.9298    0.8511   -1.6236 H   0  0  0  0  0  0  0  0  0  0  0  0
    6.3000   -0.9965    1.7991 H   0  0  0  0  0  0  0  0  0  0  0  0
    1.3478   -0.8452    0.0730 H   0  0  0  0  0  0  0  0  0  0  0  0
   -1.4921   -3.2137   -2.1657 H   0  0  0  0  0  0  0  0  0  0  0  0
   -2.6794   -1.9853   -1.8913 H   0  0  0  0  0  0  0  0  0  0  0  0
   -4.0319   -0.0055   -1.7095 H   0  0  0  0  0  0  0  0  0  0  0  0
   -4.1945   -1.1757   -0.3671 H   0  0  0  0  0  0  0  0  0  0  0  0
   -5.6075    1.2328   -0.3799 H   0  0  0  0  0  0  0  0  0  0  0  0
   -5.0823    0.4217    1.1000 H   0  0  0  0  0  0  0  0  0  0  0  0
   -3.8450    2.8625   -0.2017 H   0  0  0  0  0  0  0  0  0  0  0  0
   -3.9507    2.4356    1.5324 H   0  0  0  0  0  0  0  0  0  0  0  0
  1  2  1  0
  2  3  1  0
  3  4  2  0
  4  5  1  0
  5  6  1  0
  5  7  2  0
  7  8  1  0
  8  9  2  0
  8 10  1  0
 10 11  1  0
 11 12  1  0
 12 13  1  0
 13 14  2  0
 14 15  1  0
 15 16  1  0
 16 17  1  0
 16 18  2  0
 14 19  1  0
 19 20  1  0
 20 21  1  0
  7  2  1  0
 15 11  2  0
 21 13  1  0
  1 22  1  0
  1 23  1  0
  1 24  1  0
  4 25  1  0
 10 26  1  0
 17 27  1  0
 17 28  1  0
 19 29  1  0
 19 30  1  0
 20 31  1  0
 20 32  1  0
 21 33  1  0
 21 34  1  0
M  END
$$$$
