
     RDKit          3D

 36 37  0  0  0  0  0  0  0  0999 V2000
   -0.0520   -1.4317   -2.3362 O   0  0  0  0  0  0  0  0  0  0  0  0
   -0.4916   -0.7139   -1.4465 C   0  0  0  0  0  0  0  0  0  0  0  0
   -1.9199   -0.3103   -1.4649 C   0  0  0  0  0  0  0  0  0  0  0  0
   -2.6281    0.0243   -0.3746 C   0  0  0  0  0  0  0  0  0  0  0  0
   -4.0604    0.3736   -0.4203 C   0  0  0  0  0  0  0  0  0  0  0  0
   -4.5292    1.2672   -1.3992 C   0  0  0  0  0  0  0  0  0  0  0  0
   -5.8762    1.6369   -1.4494 C   0  0  0  0  0  0  0  0  0  0  0  0
   -6.7751    1.1297   -0.5156 C   0  0  0  0  0  0  0  0  0  0  0  0
   -6.3275    0.2532    0.4719 C   0  0  0  0  0  0  0  0  0  0  0  0
   -4.9793   -0.1192    0.5252 C   0  0  0  0  0  0  0  0  0  0  0  0
   -4.5091   -1.2159    1.7805 Cl  0  0  0  0  0  0  0  0  0  0  0  0
    0.2655   -0.1753   -0.4373 N   0  0  0  0  0  0  0  0  0  0  0  0
    1.7063   -0.3570   -0.4187 C   0  0  0  0  0  0  0  0  0  0  0  0
    2.2948   -0.0645    0.9607 C   0  0  0  0  0  0  0  0  0  0  0  0
    3.7907   -0.2465    0.9861 C   0  0  0  0  0  0  0  0  0  0  0  0
    4.3476   -1.4897    1.3151 C   0  0  0  0  0  0  0  0  0  0  0  0
    5.7323   -1.6644    1.3190 C   0  0  0  0  0  0  0  0  0  0  0  0
    6.5717   -0.6022    0.9879 C   0  0  0  0  0  0  0  0  0  0  0  0
    6.0276    0.6361    0.6529 C   0  0  0  0  0  0  0  0  0  0  0  0
    4.6431    0.8140    0.6501 C   0  0  0  0  0  0  0  0  0  0  0  0
   -2.3774   -0.3836   -2.4468 H   0  0  0  0  0  0  0  0  0  0  0  0
   -2.1798    0.0082    0.6151 H   0  0  0  0  0  0  0  0  0  0  0  0
   -3.8480    1.6928   -2.1337 H   0  0  0  0  0  0  0  0  0  0  0  0
   -6.2215    2.3235   -2.2192 H   0  0  0  0  0  0  0  0  0  0  0  0
   -7.8233    1.4157   -0.5553 H   0  0  0  0  0  0  0  0  0  0  0  0
   -7.0345   -0.1386    1.1994 H   0  0  0  0  0  0  0  0  0  0  0  0
   -0.1184    0.6055    0.0759 H   0  0  0  0  0  0  0  0  0  0  0  0
    1.9401   -1.3800   -0.7353 H   0  0  0  0  0  0  0  0  0  0  0  0
    2.1262    0.3193   -1.1727 H   0  0  0  0  0  0  0  0  0  0  0  0
    2.0464    0.9601    1.2680 H   0  0  0  0  0  0  0  0  0  0  0  0
    1.8304   -0.7135    1.7148 H   0  0  0  0  0  0  0  0  0  0  0  0
    3.7060   -2.3309    1.5690 H   0  0  0  0  0  0  0  0  0  0  0  0
    6.1557   -2.6315    1.5766 H   0  0  0  0  0  0  0  0  0  0  0  0
    7.6496   -0.7403    0.9888 H   0  0  0  0  0  0  0  0  0  0  0  0
    6.6823    1.4636    0.3910 H   0  0  0  0  0  0  0  0  0  0  0  0
    4.2350    1.7853    0.3807 H   0  0  0  0  0  0  0  0  0  0  0  0
  1  2  2  0
  2  3  1  0
  3  4  2  3
  4  5  1  0
  5  6  2  0
  6  7  1  0
  7  8  2  0
  8  9  1  0
  9 10  2  0
 10 11  1  0
  2 12  1  0
 12 13  1  0
 13 14  1  0
 14 15  1  0
 15 16  2  0
 16 17  1  0
 17 18  2  0
 18 19  1  0
 19 20  2  0
 10  5  1  0
 20 15  1  0
  3 21  1  0
  4 22  1  0
  6 23  1  0
  7 24  1  0
  8 25  1  0
  9 26  1  0
 12 27  1  0
 13 28  1  0
 13 29  1  0
 14 30  1  0
 14 31  1  0
 16 32  1  0
 17 33  1  0
 18 34  1  0
 19 35  1  0
 20 36  1  0
M  END
$$$$
