
     RDKit          3D

 54 57  0  0  0  0  0  0  0  0999 V2000
    5.6239    1.2501    4.0780 C   0  0  0  0  0  0  0  0  0  0  0  0
    4.5747    0.4081    3.3700 C   0  0  0  0  0  0  0  0  0  0  0  0
    3.8632    1.1754    2.2662 C   0  0  0  0  0  0  0  0  0  0  0  0
    4.0535    2.3786    2.0914 O   0  0  0  0  0  0  0  0  0  0  0  0
    2.9870    0.4505    1.4716 N   0  0  0  0  0  0  0  0  0  0  0  0
    2.6908   -0.9796    1.6307 C   0  0  0  0  0  0  0  0  0  0  0  0
    1.3209   -1.3814    1.0535 C   0  0  0  0  0  0  0  0  0  0  0  0
    1.1145   -0.9315   -0.3447 N   0  0  0  0  0  0  0  0  0  0  0  0
    1.0417   -1.9838   -1.2930 C   0  0  0  0  0  0  0  0  0  0  0  0
    2.0873   -2.8973   -1.4847 C   0  0  0  0  0  0  0  0  0  0  0  0
    1.9722   -3.9100   -2.4382 C   0  0  0  0  0  0  0  0  0  0  0  0
    0.8126   -4.0141   -3.2048 C   0  0  0  0  0  0  0  0  0  0  0  0
    0.6856   -5.2710   -4.3755 Cl  0  0  0  0  0  0  0  0  0  0  0  0
   -0.2407   -3.1171   -3.0336 C   0  0  0  0  0  0  0  0  0  0  0  0
   -0.1303   -2.1025   -2.0831 C   0  0  0  0  0  0  0  0  0  0  0  0
   -1.1386   -1.1520   -1.8165 N   0  0  0  0  0  0  0  0  0  0  0  0
   -2.3530   -0.9908   -2.4443 C   0  0  0  0  0  0  0  0  0  0  0  0
   -2.7611   -1.6255   -3.4099 O   0  0  0  0  0  0  0  0  0  0  0  0
   -3.2141    0.0949   -1.8897 C   0  0  0  0  0  0  0  0  0  0  0  0
   -4.1081    0.7436   -2.7543 C   0  0  0  0  0  0  0  0  0  0  0  0
   -4.9275    1.7713   -2.2813 C   0  0  0  0  0  0  0  0  0  0  0  0
   -4.8597    2.1497   -0.9430 C   0  0  0  0  0  0  0  0  0  0  0  0
   -4.0018    1.4761   -0.0672 C   0  0  0  0  0  0  0  0  0  0  0  0
   -3.1731    0.4571   -0.5367 C   0  0  0  0  0  0  0  0  0  0  0  0
   -3.9174    1.7649    1.2718 O   0  0  0  0  0  0  0  0  0  0  0  0
   -5.0264    2.5622    1.7050 C   0  0  0  0  0  0  0  0  0  0  0  0
   -5.2875    3.6960    0.7273 C   0  0  0  0  0  0  0  0  0  0  0  0
   -5.6745    3.1804   -0.5513 O   0  0  0  0  0  0  0  0  0  0  0  0
    2.0087    0.1615   -0.8036 C   0  0  0  0  0  0  0  0  0  0  0  0
    2.3303    1.1286    0.3469 C   0  0  0  0  0  0  0  0  0  0  0  0
    6.1222    0.6628    4.8554 H   0  0  0  0  0  0  0  0  0  0  0  0
    6.3850    1.6027    3.3742 H   0  0  0  0  0  0  0  0  0  0  0  0
    5.1711    2.1278    4.5511 H   0  0  0  0  0  0  0  0  0  0  0  0
    3.8306    0.0821    4.1043 H   0  0  0  0  0  0  0  0  0  0  0  0
    5.0608   -0.4725    2.9370 H   0  0  0  0  0  0  0  0  0  0  0  0
    2.7297   -1.2553    2.6882 H   0  0  0  0  0  0  0  0  0  0  0  0
    3.4922   -1.5234    1.1179 H   0  0  0  0  0  0  0  0  0  0  0  0
    1.1693   -2.4622    1.1680 H   0  0  0  0  0  0  0  0  0  0  0  0
    0.5397   -0.8997    1.6554 H   0  0  0  0  0  0  0  0  0  0  0  0
    3.0014   -2.8247   -0.9044 H   0  0  0  0  0  0  0  0  0  0  0  0
    2.7892   -4.6122   -2.5815 H   0  0  0  0  0  0  0  0  0  0  0  0
   -1.1313   -3.2272   -3.6426 H   0  0  0  0  0  0  0  0  0  0  0  0
   -0.8562   -0.5010   -1.0891 H   0  0  0  0  0  0  0  0  0  0  0  0
   -4.1634    0.4522   -3.8018 H   0  0  0  0  0  0  0  0  0  0  0  0
   -5.6099    2.2787   -2.9577 H   0  0  0  0  0  0  0  0  0  0  0  0
   -2.5349   -0.0634    0.1708 H   0  0  0  0  0  0  0  0  0  0  0  0
   -5.9035    1.9115    1.8095 H   0  0  0  0  0  0  0  0  0  0  0  0
   -4.7795    2.9632    2.6931 H   0  0  0  0  0  0  0  0  0  0  0  0
   -4.3987    4.3252    0.5951 H   0  0  0  0  0  0  0  0  0  0  0  0
   -6.1031    4.3290    1.0904 H   0  0  0  0  0  0  0  0  0  0  0  0
    2.9522   -0.2408   -1.1953 H   0  0  0  0  0  0  0  0  0  0  0  0
    1.5163    0.7132   -1.6130 H   0  0  0  0  0  0  0  0  0  0  0  0
    1.4068    1.5712    0.7394 H   0  0  0  0  0  0  0  0  0  0  0  0
    2.9611    1.9444   -0.0217 H   0  0  0  0  0  0  0  0  0  0  0  0
  1  2  1  0
  2  3  1  0
  3  4  2  0
  3  5  1  0
  5  6  1  0
  6  7  1  0
  7  8  1  0
  8  9  1  0
  9 10  2  0
 10 11  1  0
 11 12  2  0
 12 13  1  0
 12 14  1  0
 14 15  2  0
 15 16  1  0
 16 17  1  0
 17 18  2  0
 17 19  1  0
 19 20  2  0
 20 21  1  0
 21 22  2  0
 22 23  1  0
 23 24  2  0
 23 25  1  0
 25 26  1  0
 26 27  1  0
 27 28  1  0
  8 29  1  0
 29 30  1  0
 30  5  1  0
 15  9  1  0
 24 19  1  0
 28 22  1  0
  1 31  1  0
  1 32  1  0
  1 33  1  0
  2 34  1  0
  2 35  1  0
  6 36  1  0
  6 37  1  0
  7 38  1  0
  7 39  1  0
 10 40  1  0
 11 41  1  0
 14 42  1  0
 16 43  1  0
 20 44  1  0
 21 45  1  0
 24 46  1  0
 26 47  1  0
 26 48  1  0
 27 49  1  0
 27 50  1  0
 29 51  1  0
 29 52  1  0
 30 53  1  0
 30 54  1  0
M  END
$$$$
