
     RDKit          3D

 30 31  0  0  0  0  0  0  0  0999 V2000
    4.4416   -1.0634   -1.8834 C   0  0  0  0  0  0  0  0  0  0  0  0
    3.1640   -0.7168   -2.4024 O   0  0  0  0  0  0  0  0  0  0  0  0
    2.0857   -0.9479   -1.5934 C   0  0  0  0  0  0  0  0  0  0  0  0
    0.8533   -0.5975   -2.1495 C   0  0  0  0  0  0  0  0  0  0  0  0
   -0.3319   -0.7802   -1.4318 C   0  0  0  0  0  0  0  0  0  0  0  0
   -0.2978   -1.3166   -0.1389 C   0  0  0  0  0  0  0  0  0  0  0  0
   -1.5451   -1.5349    0.6176 C   0  0  0  0  0  0  0  0  0  0  0  0
   -1.9899   -2.8874    0.7703 C   0  0  0  0  0  0  0  0  0  0  0  0
   -2.3733   -3.9741    0.9106 N   0  0  0  0  0  0  0  0  0  0  0  0
   -2.2998   -0.5492    1.1496 C   0  0  0  0  0  0  0  0  0  0  0  0
   -2.0519    0.9003    1.1691 C   0  0  0  0  0  0  0  0  0  0  0  0
   -3.1142    1.7837    1.3434 C   0  0  0  0  0  0  0  0  0  0  0  0
   -2.8545    3.1523    1.3812 C   0  0  0  0  0  0  0  0  0  0  0  0
   -1.5464    3.5999    1.2514 C   0  0  0  0  0  0  0  0  0  0  0  0
   -0.5491    2.6545    1.0941 C   0  0  0  0  0  0  0  0  0  0  0  0
   -0.7756    1.3234    1.0594 N   0  0  0  0  0  0  0  0  0  0  0  0
    0.9394   -1.6693    0.4162 C   0  0  0  0  0  0  0  0  0  0  0  0
    2.1246   -1.4848   -0.3065 C   0  0  0  0  0  0  0  0  0  0  0  0
    5.1886   -0.8227   -2.6460 H   0  0  0  0  0  0  0  0  0  0  0  0
    4.5075   -2.1375   -1.6805 H   0  0  0  0  0  0  0  0  0  0  0  0
    4.6773   -0.4761   -0.9898 H   0  0  0  0  0  0  0  0  0  0  0  0
    0.8155   -0.1753   -3.1505 H   0  0  0  0  0  0  0  0  0  0  0  0
   -1.2760   -0.4932   -1.8878 H   0  0  0  0  0  0  0  0  0  0  0  0
   -3.2254   -0.8302    1.6516 H   0  0  0  0  0  0  0  0  0  0  0  0
   -4.1338    1.4260    1.4423 H   0  0  0  0  0  0  0  0  0  0  0  0
   -3.6672    3.8615    1.5100 H   0  0  0  0  0  0  0  0  0  0  0  0
   -1.3090    4.6574    1.2738 H   0  0  0  0  0  0  0  0  0  0  0  0
    0.4917    2.9474    0.9888 H   0  0  0  0  0  0  0  0  0  0  0  0
    0.9939   -2.0815    1.4216 H   0  0  0  0  0  0  0  0  0  0  0  0
    3.0579   -1.7680    0.1680 H   0  0  0  0  0  0  0  0  0  0  0  0
  1  2  1  0
  2  3  1  0
  3  4  2  0
  4  5  1  0
  5  6  2  0
  6  7  1  0
  7  8  1  0
  8  9  3  0
  7 10  2  3
 10 11  1  0
 11 12  2  0
 12 13  1  0
 13 14  2  0
 14 15  1  0
 15 16  2  0
  6 17  1  0
 17 18  2  0
 18  3  1  0
 16 11  1  0
  1 19  1  0
  1 20  1  0
  1 21  1  0
  4 22  1  0
  5 23  1  0
 10 24  1  0
 12 25  1  0
 13 26  1  0
 14 27  1  0
 15 28  1  0
 17 29  1  0
 18 30  1  0
M  END
$$$$
