
     RDKit          3D

 46 48  0  0  0  0  0  0  0  0999 V2000
    1.5096    2.4561    0.2893 O   0  0  0  0  0  0  0  0  0  0  0  0
    1.3430    1.3569    0.8160 C   0  0  0  0  0  0  0  0  0  0  0  0
    0.0058    0.6266    0.9294 C   0  0  0  0  0  0  0  0  0  0  0  0
   -1.0365    1.3821    0.3318 O   0  0  0  0  0  0  0  0  0  0  0  0
   -2.2924    0.8446    0.3591 C   0  0  0  0  0  0  0  0  0  0  0  0
   -2.6537   -0.3778    0.9218 C   0  0  0  0  0  0  0  0  0  0  0  0
   -3.9875   -0.8061    0.8766 C   0  0  0  0  0  0  0  0  0  0  0  0
   -4.9852   -0.0265    0.2697 C   0  0  0  0  0  0  0  0  0  0  0  0
   -6.3839   -0.4829    0.2235 C   0  0  0  0  0  0  0  0  0  0  0  0
   -7.0818   -0.5553   -0.9937 C   0  0  0  0  0  0  0  0  0  0  0  0
   -8.4094   -0.9898   -1.0390 C   0  0  0  0  0  0  0  0  0  0  0  0
   -9.0628   -1.3583    0.1341 C   0  0  0  0  0  0  0  0  0  0  0  0
   -8.3900   -1.2932    1.3515 C   0  0  0  0  0  0  0  0  0  0  0  0
   -7.0620   -0.8597    1.3949 C   0  0  0  0  0  0  0  0  0  0  0  0
   -4.6045    1.2007   -0.2918 C   0  0  0  0  0  0  0  0  0  0  0  0
   -3.2742    1.6297   -0.2460 C   0  0  0  0  0  0  0  0  0  0  0  0
    2.3978    0.6550    1.3862 N   0  0  0  0  0  0  0  0  0  0  0  0
    3.6992    1.1381    1.0802 N   0  0  0  0  0  0  0  0  0  0  0  0
    4.5569    0.2105    0.5016 C   0  0  0  0  0  0  0  0  0  0  0  0
    4.2583   -0.9785    0.4376 O   0  0  0  0  0  0  0  0  0  0  0  0
    5.7215    0.7996    0.0718 N   0  0  0  0  0  0  0  0  0  0  0  0
    6.8062    0.1886   -0.5900 C   0  0  0  0  0  0  0  0  0  0  0  0
    6.8218   -1.1424   -1.0124 C   0  0  0  0  0  0  0  0  0  0  0  0
    7.9475   -1.6551   -1.6672 C   0  0  0  0  0  0  0  0  0  0  0  0
    9.0497   -0.8378   -1.8992 C   0  0  0  0  0  0  0  0  0  0  0  0
   10.1211   -1.3389   -2.5268 F   0  0  0  0  0  0  0  0  0  0  0  0
    9.0545    0.4870   -1.4917 C   0  0  0  0  0  0  0  0  0  0  0  0
    7.9326    0.9870   -0.8423 C   0  0  0  0  0  0  0  0  0  0  0  0
    7.9312    2.2701   -0.4458 F   0  0  0  0  0  0  0  0  0  0  0  0
    0.1144   -0.3374    0.4179 H   0  0  0  0  0  0  0  0  0  0  0  0
   -0.1971    0.4789    1.9970 H   0  0  0  0  0  0  0  0  0  0  0  0
   -1.9309   -1.0282    1.4016 H   0  0  0  0  0  0  0  0  0  0  0  0
   -4.2434   -1.7703    1.3124 H   0  0  0  0  0  0  0  0  0  0  0  0
   -6.5870   -0.2821   -1.9237 H   0  0  0  0  0  0  0  0  0  0  0  0
   -8.9304   -1.0413   -1.9915 H   0  0  0  0  0  0  0  0  0  0  0  0
  -10.0955   -1.6951    0.0996 H   0  0  0  0  0  0  0  0  0  0  0  0
   -8.8982   -1.5760    2.2697 H   0  0  0  0  0  0  0  0  0  0  0  0
   -6.5594   -0.8044    2.3584 H   0  0  0  0  0  0  0  0  0  0  0  0
   -5.3466    1.8428   -0.7619 H   0  0  0  0  0  0  0  0  0  0  0  0
   -3.0033    2.5871   -0.6854 H   0  0  0  0  0  0  0  0  0  0  0  0
    2.3455   -0.3634    1.4474 H   0  0  0  0  0  0  0  0  0  0  0  0
    3.6796    2.0662    0.6553 H   0  0  0  0  0  0  0  0  0  0  0  0
    5.8613    1.7683    0.3339 H   0  0  0  0  0  0  0  0  0  0  0  0
    5.9766   -1.8048   -0.8519 H   0  0  0  0  0  0  0  0  0  0  0  0
    7.9671   -2.6896   -1.9981 H   0  0  0  0  0  0  0  0  0  0  0  0
    9.9147    1.1188   -1.6764 H   0  0  0  0  0  0  0  0  0  0  0  0
  1  2  2  0
  2  3  1  0
  3  4  1  0
  4  5  1  0
  5  6  2  0
  6  7  1  0
  7  8  2  0
  8  9  1  0
  9 10  2  0
 10 11  1  0
 11 12  2  0
 12 13  1  0
 13 14  2  0
  8 15  1  0
 15 16  2  0
  2 17  1  0
 17 18  1  0
 18 19  1  0
 19 20  2  0
 19 21  1  0
 21 22  1  0
 22 23  2  0
 23 24  1  0
 24 25  2  0
 25 26  1  0
 25 27  1  0
 27 28  2  0
 28 29  1  0
 16  5  1  0
 28 22  1  0
 14  9  1  0
  3 30  1  0
  3 31  1  0
  6 32  1  0
  7 33  1  0
 10 34  1  0
 11 35  1  0
 12 36  1  0
 13 37  1  0
 14 38  1  0
 15 39  1  0
 16 40  1  0
 17 41  1  0
 18 42  1  0
 21 43  1  0
 23 44  1  0
 24 45  1  0
 27 46  1  0
M  END
$$$$
