
     RDKit          3D

 30 31  0  0  0  0  0  0  0  0999 V2000
    4.4411   -1.0998   -1.6877 C   0  0  0  0  0  0  0  0  0  0  0  0
    3.2161   -0.5358   -2.1390 O   0  0  0  0  0  0  0  0  0  0  0  0
    2.0938   -0.8354   -1.4183 C   0  0  0  0  0  0  0  0  0  0  0  0
    0.9104   -0.3015   -1.9321 C   0  0  0  0  0  0  0  0  0  0  0  0
   -0.3122   -0.5291   -1.2946 C   0  0  0  0  0  0  0  0  0  0  0  0
   -0.3676   -1.2905   -0.1202 C   0  0  0  0  0  0  0  0  0  0  0  0
   -1.6539   -1.5390    0.5635 C   0  0  0  0  0  0  0  0  0  0  0  0
   -2.0858   -2.8965    0.7096 C   0  0  0  0  0  0  0  0  0  0  0  0
   -2.4312   -3.9957    0.8496 N   0  0  0  0  0  0  0  0  0  0  0  0
   -2.4442   -0.5583    1.0470 C   0  0  0  0  0  0  0  0  0  0  0  0
   -2.2088    0.8873    1.0313 C   0  0  0  0  0  0  0  0  0  0  0  0
   -1.0362    1.4687    1.5029 C   0  0  0  0  0  0  0  0  0  0  0  0
   -0.9194    2.8563    1.4758 C   0  0  0  0  0  0  0  0  0  0  0  0
   -1.9765    3.6191    0.9963 C   0  0  0  0  0  0  0  0  0  0  0  0
   -3.1149    2.9589    0.5672 C   0  0  0  0  0  0  0  0  0  0  0  0
   -3.2560    1.6149    0.5818 N   0  0  0  0  0  0  0  0  0  0  0  0
    0.8222   -1.8305    0.3887 C   0  0  0  0  0  0  0  0  0  0  0  0
    2.0451   -1.6026   -0.2549 C   0  0  0  0  0  0  0  0  0  0  0  0
    4.7032   -0.7267   -0.6922 H   0  0  0  0  0  0  0  0  0  0  0  0
    4.4021   -2.1940   -1.7029 H   0  0  0  0  0  0  0  0  0  0  0  0
    5.2287   -0.7851   -2.3790 H   0  0  0  0  0  0  0  0  0  0  0  0
    0.9390    0.2951   -2.8410 H   0  0  0  0  0  0  0  0  0  0  0  0
   -1.2173   -0.1040   -1.7255 H   0  0  0  0  0  0  0  0  0  0  0  0
   -3.4075   -0.8138    1.4881 H   0  0  0  0  0  0  0  0  0  0  0  0
   -0.2217    0.8655    1.8889 H   0  0  0  0  0  0  0  0  0  0  0  0
   -0.0110    3.3361    1.8292 H   0  0  0  0  0  0  0  0  0  0  0  0
   -1.9175    4.7012    0.9623 H   0  0  0  0  0  0  0  0  0  0  0  0
   -3.9721    3.5094    0.1897 H   0  0  0  0  0  0  0  0  0  0  0  0
    0.8140   -2.4340    1.2949 H   0  0  0  0  0  0  0  0  0  0  0  0
    2.9382   -2.0404    0.1788 H   0  0  0  0  0  0  0  0  0  0  0  0
  1  2  1  0
  2  3  1  0
  3  4  2  0
  4  5  1  0
  5  6  2  0
  6  7  1  0
  7  8  1  0
  8  9  3  0
  7 10  2  3
 10 11  1  0
 11 12  2  0
 12 13  1  0
 13 14  2  0
 14 15  1  0
 15 16  2  0
  6 17  1  0
 17 18  2  0
 18  3  1  0
 16 11  1  0
  1 19  1  0
  1 20  1  0
  1 21  1  0
  4 22  1  0
  5 23  1  0
 10 24  1  0
 12 25  1  0
 13 26  1  0
 14 27  1  0
 15 28  1  0
 17 29  1  0
 18 30  1  0
M  END
$$$$
