
     RDKit          3D

 51 55  0  0  0  0  0  0  0  0999 V2000
    6.1545   -1.6941   -0.8403 F   0  0  0  0  0  0  0  0  0  0  0  0
    6.2291   -0.5358   -0.1694 C   0  0  0  0  0  0  0  0  0  0  0  0
    7.3757    0.2421   -0.3005 C   0  0  0  0  0  0  0  0  0  0  0  0
    7.4681    1.4543    0.3804 C   0  0  0  0  0  0  0  0  0  0  0  0
    6.4115    1.8801    1.1860 C   0  0  0  0  0  0  0  0  0  0  0  0
    5.2625    1.0947    1.3136 C   0  0  0  0  0  0  0  0  0  0  0  0
    5.1627   -0.1291    0.6379 C   0  0  0  0  0  0  0  0  0  0  0  0
    3.9201   -0.9769    0.7526 C   0  0  0  0  0  0  0  0  0  0  0  0
    2.9501   -0.7215   -0.4142 C   0  0  0  0  0  0  0  0  0  0  0  0
    1.7379   -1.5603   -0.3665 N   0  0  0  0  0  0  0  0  0  0  0  0
    0.9291   -1.4052   -1.5993 C   0  0  0  0  0  0  0  0  0  0  0  0
   -0.2896   -0.4700   -1.4634 C   0  0  0  0  0  0  0  0  0  0  0  0
   -1.2104   -0.9484   -0.4175 N   0  0  0  0  0  0  0  0  0  0  0  0
   -2.4523   -0.3384   -0.2739 C   0  0  0  0  0  0  0  0  0  0  0  0
   -2.6326    0.8287   -0.8439 N   0  0  0  0  0  0  0  0  0  0  0  0
   -3.8501    1.5212   -0.7056 C   0  0  0  0  0  0  0  0  0  0  0  0
   -3.9774    2.7678   -1.3216 C   0  0  0  0  0  0  0  0  0  0  0  0
   -5.1596    3.5039   -1.2063 C   0  0  0  0  0  0  0  0  0  0  0  0
   -6.2304    2.9970   -0.4694 C   0  0  0  0  0  0  0  0  0  0  0  0
   -6.1254    1.7531    0.1541 C   0  0  0  0  0  0  0  0  0  0  0  0
   -4.9357    1.0287    0.0299 C   0  0  0  0  0  0  0  0  0  0  0  0
   -4.7498   -0.2360    0.6107 N   0  0  0  0  0  0  0  0  0  0  0  0
   -5.6253   -0.9892    1.3568 C   0  0  0  0  0  0  0  0  0  0  0  0
   -5.0234   -2.1955    1.6384 C   0  0  0  0  0  0  0  0  0  0  0  0
   -3.7344   -2.1645    1.0575 C   0  0  0  0  0  0  0  0  0  0  0  0
   -3.5652   -0.9262    0.4612 C   0  0  0  0  0  0  0  0  0  0  0  0
   -0.5696   -1.6742    0.6887 C   0  0  0  0  0  0  0  0  0  0  0  0
    0.9188   -1.2851    0.8356 C   0  0  0  0  0  0  0  0  0  0  0  0
    8.1870   -0.1022   -0.9337 H   0  0  0  0  0  0  0  0  0  0  0  0
    8.3606    2.0670    0.2829 H   0  0  0  0  0  0  0  0  0  0  0  0
    6.4818    2.8272    1.7161 H   0  0  0  0  0  0  0  0  0  0  0  0
    4.4475    1.4445    1.9438 H   0  0  0  0  0  0  0  0  0  0  0  0
    4.2050   -2.0365    0.7837 H   0  0  0  0  0  0  0  0  0  0  0  0
    3.4387   -0.7651    1.7149 H   0  0  0  0  0  0  0  0  0  0  0  0
    2.6783    0.3422   -0.4518 H   0  0  0  0  0  0  0  0  0  0  0  0
    3.4882   -0.9381   -1.3467 H   0  0  0  0  0  0  0  0  0  0  0  0
    0.5641   -2.4057   -1.8669 H   0  0  0  0  0  0  0  0  0  0  0  0
    1.5459   -1.0824   -2.4470 H   0  0  0  0  0  0  0  0  0  0  0  0
   -0.8137   -0.4407   -2.4262 H   0  0  0  0  0  0  0  0  0  0  0  0
    0.0480    0.5477   -1.2312 H   0  0  0  0  0  0  0  0  0  0  0  0
   -3.1442    3.1657   -1.8947 H   0  0  0  0  0  0  0  0  0  0  0  0
   -5.2424    4.4726   -1.6924 H   0  0  0  0  0  0  0  0  0  0  0  0
   -7.1489    3.5725   -0.3829 H   0  0  0  0  0  0  0  0  0  0  0  0
   -6.9725    1.3783    0.7185 H   0  0  0  0  0  0  0  0  0  0  0  0
   -6.6105   -0.6294    1.6147 H   0  0  0  0  0  0  0  0  0  0  0  0
   -5.4703   -3.0125    2.1902 H   0  0  0  0  0  0  0  0  0  0  0  0
   -3.0114   -2.9681    1.0734 H   0  0  0  0  0  0  0  0  0  0  0  0
   -1.0630   -1.4508    1.6413 H   0  0  0  0  0  0  0  0  0  0  0  0
   -0.6556   -2.7521    0.5089 H   0  0  0  0  0  0  0  0  0  0  0  0
    1.3380   -1.8387    1.6835 H   0  0  0  0  0  0  0  0  0  0  0  0
    0.9603   -0.2167    1.0891 H   0  0  0  0  0  0  0  0  0  0  0  0
  1  2  1  0
  2  3  2  0
  3  4  1  0
  4  5  2  0
  5  6  1  0
  6  7  2  0
  7  8  1  0
  8  9  1  0
  9 10  1  0
 10 11  1  0
 11 12  1  0
 12 13  1  0
 13 14  1  0
 14 15  2  0
 15 16  1  0
 16 17  2  0
 17 18  1  0
 18 19  2  0
 19 20  1  0
 20 21  2  0
 21 22  1  0
 22 23  1  0
 23 24  2  0
 24 25  1  0
 25 26  2  0
 13 27  1  0
 27 28  1  0
  7  2  1  0
 28 10  1  0
 26 14  1  0
 21 16  1  0
 26 22  1  0
  3 29  1  0
  4 30  1  0
  5 31  1  0
  6 32  1  0
  8 33  1  0
  8 34  1  0
  9 35  1  0
  9 36  1  0
 11 37  1  0
 11 38  1  0
 12 39  1  0
 12 40  1  0
 17 41  1  0
 18 42  1  0
 19 43  1  0
 20 44  1  0
 23 45  1  0
 24 46  1  0
 25 47  1  0
 27 48  1  0
 27 49  1  0
 28 50  1  0
 28 51  1  0
M  END
$$$$
