
     RDKit          3D

 30 32  0  0  0  0  0  0  0  0999 V2000
   -1.7515    0.5467    2.5556 O   0  0  0  0  0  0  0  0  0  0  0  0
   -2.6765    0.6515    1.7677 C   0  0  0  0  0  0  0  0  0  0  0  0
   -4.0236    0.9778    2.2479 C   0  0  0  0  0  0  0  0  0  0  0  0
   -4.8372    0.9935    1.1984 C   0  0  0  0  0  0  0  0  0  0  0  0
   -4.0392    0.6861    0.0065 C   0  0  0  0  0  0  0  0  0  0  0  0
   -4.5650    0.6497   -1.0934 O   0  0  0  0  0  0  0  0  0  0  0  0
   -2.7421    0.4960    0.4074 N   0  0  0  0  0  0  0  0  0  0  0  0
   -1.6430    0.1761   -0.4501 C   0  0  0  0  0  0  0  0  0  0  0  0
   -1.8320   -0.1030   -1.8121 C   0  0  0  0  0  0  0  0  0  0  0  0
   -0.7585   -0.4200   -2.6497 C   0  0  0  0  0  0  0  0  0  0  0  0
    0.5363   -0.4632   -2.1433 C   0  0  0  0  0  0  0  0  0  0  0  0
    0.7810   -0.1881   -0.7934 C   0  0  0  0  0  0  0  0  0  0  0  0
    2.1506   -0.2263   -0.2485 C   0  0  0  0  0  0  0  0  0  0  0  0
    3.1982    0.4762   -0.8682 C   0  0  0  0  0  0  0  0  0  0  0  0
    4.4970    0.4399   -0.3526 C   0  0  0  0  0  0  0  0  0  0  0  0
    4.7714   -0.3010    0.7937 C   0  0  0  0  0  0  0  0  0  0  0  0
    3.7488   -1.0039    1.4249 C   0  0  0  0  0  0  0  0  0  0  0  0
    2.4506   -0.9661    0.9081 C   0  0  0  0  0  0  0  0  0  0  0  0
   -0.3205    0.1286    0.0311 C   0  0  0  0  0  0  0  0  0  0  0  0
   -4.2564    1.1568    3.2828 H   0  0  0  0  0  0  0  0  0  0  0  0
   -5.8940    1.1918    1.1690 H   0  0  0  0  0  0  0  0  0  0  0  0
   -2.8165   -0.0975   -2.2704 H   0  0  0  0  0  0  0  0  0  0  0  0
   -0.9389   -0.6387   -3.6995 H   0  0  0  0  0  0  0  0  0  0  0  0
    1.3559   -0.7255   -2.8092 H   0  0  0  0  0  0  0  0  0  0  0  0
    3.0052    1.0730   -1.7574 H   0  0  0  0  0  0  0  0  0  0  0  0
    5.2915    0.9939   -0.8455 H   0  0  0  0  0  0  0  0  0  0  0  0
    5.7805   -0.3290    1.1962 H   0  0  0  0  0  0  0  0  0  0  0  0
    3.9580   -1.5834    2.3203 H   0  0  0  0  0  0  0  0  0  0  0  0
    1.6694   -1.5297    1.4149 H   0  0  0  0  0  0  0  0  0  0  0  0
   -0.0995    0.3637    1.0689 H   0  0  0  0  0  0  0  0  0  0  0  0
  1  2  2  0
  2  3  1  0
  3  4  2  0
  4  5  1  0
  5  6  2  0
  5  7  1  0
  7  8  1  0
  8  9  2  0
  9 10  1  0
 10 11  2  0
 11 12  1  0
 12 13  1  0
 13 14  2  0
 14 15  1  0
 15 16  2  0
 16 17  1  0
 17 18  2  0
 12 19  2  0
  7  2  1  0
 19  8  1  0
 18 13  1  0
  3 20  1  0
  4 21  1  0
  9 22  1  0
 10 23  1  0
 11 24  1  0
 14 25  1  0
 15 26  1  0
 16 27  1  0
 17 28  1  0
 18 29  1  0
 19 30  1  0
M  END
$$$$
