
     RDKit          3D

 45 44  0  0  0  0  0  0  0  0999 V2000
    5.7720   -4.2645   -0.6862 C   0  0  0  0  0  0  0  0  0  0  0  0
    6.1570   -2.8212   -0.4002 C   0  0  0  0  0  0  0  0  0  0  0  0
    5.2301   -2.1299    0.6006 C   0  0  0  0  0  0  0  0  0  0  0  0
    3.8055   -1.9545    0.0840 C   0  0  0  0  0  0  0  0  0  0  0  0
    2.9999   -1.2024    1.0191 N   0  0  0  0  0  0  0  0  0  0  0  0
    1.6398   -1.2005    0.9496 C   0  0  0  0  0  0  0  0  0  0  0  0
    0.9626   -1.9232    0.2370 O   0  0  0  0  0  0  0  0  0  0  0  0
    1.1594   -0.2482    1.7850 O   0  0  0  0  0  0  0  0  0  0  0  0
   -0.2707   -0.1170    1.8100 C   0  0  0  0  0  0  0  0  0  0  0  0
   -0.7954    0.7694    0.6625 C   0  0  0  0  0  0  0  0  0  0  0  0
   -0.1448    2.1670    0.7078 C   0  0  0  0  0  0  0  0  0  0  0  0
   -0.5086    3.0464   -0.4816 C   0  0  0  0  0  0  0  0  0  0  0  0
   -2.2479    0.8686    0.7415 N   0  0  0  0  0  0  0  0  0  0  0  0
   -3.0630    0.8352   -0.3478 C   0  0  0  0  0  0  0  0  0  0  0  0
   -2.7076    0.6449   -1.4994 O   0  0  0  0  0  0  0  0  0  0  0  0
   -4.3348    1.0685    0.0573 O   0  0  0  0  0  0  0  0  0  0  0  0
   -5.3334    1.0818   -0.9797 C   0  0  0  0  0  0  0  0  0  0  0  0
   -5.3825    2.4631   -1.6234 C   0  0  0  0  0  0  0  0  0  0  0  0
   -6.6669    0.7461   -0.3228 C   0  0  0  0  0  0  0  0  0  0  0  0
    5.7115   -4.8459    0.2392 H   0  0  0  0  0  0  0  0  0  0  0  0
    6.5224   -4.7322   -1.3316 H   0  0  0  0  0  0  0  0  0  0  0  0
    4.8082   -4.3286   -1.1996 H   0  0  0  0  0  0  0  0  0  0  0  0
    6.1795   -2.2566   -1.3396 H   0  0  0  0  0  0  0  0  0  0  0  0
    7.1766   -2.8062    0.0030 H   0  0  0  0  0  0  0  0  0  0  0  0
    5.2154   -2.6911    1.5434 H   0  0  0  0  0  0  0  0  0  0  0  0
    5.6509   -1.1442    0.8372 H   0  0  0  0  0  0  0  0  0  0  0  0
    3.8019   -1.4047   -0.8639 H   0  0  0  0  0  0  0  0  0  0  0  0
    3.3251   -2.9231   -0.0888 H   0  0  0  0  0  0  0  0  0  0  0  0
    3.3977   -0.4152    1.5119 H   0  0  0  0  0  0  0  0  0  0  0  0
   -0.7511   -1.1040    1.8006 H   0  0  0  0  0  0  0  0  0  0  0  0
   -0.5283    0.3335    2.7762 H   0  0  0  0  0  0  0  0  0  0  0  0
   -0.5257    0.3042   -0.2933 H   0  0  0  0  0  0  0  0  0  0  0  0
    0.9468    2.0658    0.7263 H   0  0  0  0  0  0  0  0  0  0  0  0
   -0.4335    2.6843    1.6312 H   0  0  0  0  0  0  0  0  0  0  0  0
   -1.5731    3.2983   -0.4844 H   0  0  0  0  0  0  0  0  0  0  0  0
   -0.2646    2.5506   -1.4264 H   0  0  0  0  0  0  0  0  0  0  0  0
    0.0522    3.9857   -0.4381 H   0  0  0  0  0  0  0  0  0  0  0  0
   -2.6978    1.1429    1.6037 H   0  0  0  0  0  0  0  0  0  0  0  0
   -5.1162    0.3152   -1.7336 H   0  0  0  0  0  0  0  0  0  0  0  0
   -5.5653    3.2389   -0.8716 H   0  0  0  0  0  0  0  0  0  0  0  0
   -4.4267    2.7072   -2.0984 H   0  0  0  0  0  0  0  0  0  0  0  0
   -6.1679    2.5181   -2.3833 H   0  0  0  0  0  0  0  0  0  0  0  0
   -6.6180   -0.2381    0.1556 H   0  0  0  0  0  0  0  0  0  0  0  0
   -7.4804    0.7377   -1.0547 H   0  0  0  0  0  0  0  0  0  0  0  0
   -6.9103    1.4669    0.4658 H   0  0  0  0  0  0  0  0  0  0  0  0
  1  2  1  0
  2  3  1  0
  3  4  1  0
  4  5  1  0
  5  6  1  0
  6  7  2  0
  6  8  1  0
  8  9  1  0
  9 10  1  0
 10 11  1  0
 11 12  1  0
 10 13  1  0
 13 14  1  0
 14 15  2  0
 14 16  1  0
 16 17  1  0
 17 18  1  0
 17 19  1  0
  1 20  1  0
  1 21  1  0
  1 22  1  0
  2 23  1  0
  2 24  1  0
  3 25  1  0
  3 26  1  0
  4 27  1  0
  4 28  1  0
  5 29  1  0
  9 30  1  0
  9 31  1  0
 10 32  1  0
 11 33  1  0
 11 34  1  0
 12 35  1  0
 12 36  1  0
 12 37  1  0
 13 38  1  0
 17 39  1  0
 18 40  1  0
 18 41  1  0
 18 42  1  0
 19 43  1  0
 19 44  1  0
 19 45  1  0
M  END
$$$$
