
     RDKit          3D

 46 49  0  0  0  0  0  0  0  0999 V2000
    3.8719   -1.0129    2.7983 O   0  0  0  0  0  0  0  0  0  0  0  0
    2.7745   -0.7003    2.3444 C   0  0  0  0  0  0  0  0  0  0  0  0
    1.8866   -1.7490    1.6915 C   0  0  0  0  0  0  0  0  0  0  0  0
    1.8472   -1.5790   -0.1150 S   0  0  0  0  0  0  0  0  0  0  0  0
    0.4420   -0.5874   -0.2911 C   0  0  0  0  0  0  0  0  0  0  0  0
    0.1459    0.4240    0.4902 N   0  0  0  0  0  0  0  0  0  0  0  0
   -1.0613    0.9174    0.0869 N   0  0  0  0  0  0  0  0  0  0  0  0
   -1.4980    0.1803   -0.9223 C   0  0  0  0  0  0  0  0  0  0  0  0
   -2.8201    0.3374   -1.6034 C   0  0  0  0  0  0  0  0  0  0  0  0
   -3.8235   -0.7503   -1.2897 C   0  0  0  0  0  0  0  0  0  0  0  0
   -4.7055   -1.3667   -2.1598 C   0  0  0  0  0  0  0  0  0  0  0  0
   -5.5101   -2.3508   -1.5106 C   0  0  0  0  0  0  0  0  0  0  0  0
   -5.2470   -2.4228   -0.1603 C   0  0  0  0  0  0  0  0  0  0  0  0
   -4.0468   -1.3086    0.3216 S   0  0  0  0  0  0  0  0  0  0  0  0
   -0.5375   -0.7740   -1.2165 N   0  0  0  0  0  0  0  0  0  0  0  0
   -0.6109   -1.7973   -2.2415 C   0  0  0  0  0  0  0  0  0  0  0  0
   -0.1569   -1.2694   -3.5515 C   0  0  0  0  0  0  0  0  0  0  0  0
   -0.8064   -0.9564   -4.7312 C   0  0  0  0  0  0  0  0  0  0  0  0
    0.1921   -0.4937   -5.6246 C   0  0  0  0  0  0  0  0  0  0  0  0
    1.3864   -0.5633   -4.9414 C   0  0  0  0  0  0  0  0  0  0  0  0
    1.1838   -1.0432   -3.6874 O   0  0  0  0  0  0  0  0  0  0  0  0
    2.2027    0.5554    2.4079 N   0  0  0  0  0  0  0  0  0  0  0  0
    2.6710    1.6842    3.1110 C   0  0  0  0  0  0  0  0  0  0  0  0
    3.7553    1.6538    3.9880 C   0  0  0  0  0  0  0  0  0  0  0  0
    4.1404    2.8015    4.6902 C   0  0  0  0  0  0  0  0  0  0  0  0
    3.4442    3.9955    4.5149 C   0  0  0  0  0  0  0  0  0  0  0  0
    2.3606    4.0324    3.6398 C   0  0  0  0  0  0  0  0  0  0  0  0
    1.4807    5.4968    3.4337 Cl  0  0  0  0  0  0  0  0  0  0  0  0
    1.9743    2.8863    2.9389 C   0  0  0  0  0  0  0  0  0  0  0  0
    2.3028   -2.7331    1.9226 H   0  0  0  0  0  0  0  0  0  0  0  0
    0.8819   -1.7163    2.1319 H   0  0  0  0  0  0  0  0  0  0  0  0
   -3.2563    1.3016   -1.3106 H   0  0  0  0  0  0  0  0  0  0  0  0
   -2.6606    0.3982   -2.6941 H   0  0  0  0  0  0  0  0  0  0  0  0
   -4.7674   -1.1384   -3.2174 H   0  0  0  0  0  0  0  0  0  0  0  0
   -6.2472   -2.9800   -2.0003 H   0  0  0  0  0  0  0  0  0  0  0  0
   -5.7076   -3.0687    0.5751 H   0  0  0  0  0  0  0  0  0  0  0  0
   -1.6405   -2.1544   -2.2976 H   0  0  0  0  0  0  0  0  0  0  0  0
   -0.0038   -2.6570   -1.9402 H   0  0  0  0  0  0  0  0  0  0  0  0
   -1.8722   -1.0471   -4.9284 H   0  0  0  0  0  0  0  0  0  0  0  0
    0.0640   -0.1522   -6.6426 H   0  0  0  0  0  0  0  0  0  0  0  0
    2.4162   -0.3228   -5.1908 H   0  0  0  0  0  0  0  0  0  0  0  0
    1.3642    0.6978    1.8414 H   0  0  0  0  0  0  0  0  0  0  0  0
    4.3213    0.7464    4.1605 H   0  0  0  0  0  0  0  0  0  0  0  0
    4.9999    2.7619    5.3597 H   0  0  0  0  0  0  0  0  0  0  0  0
    3.7432    4.8827    5.0671 H   0  0  0  0  0  0  0  0  0  0  0  0
    1.1269    2.9415    2.2541 H   0  0  0  0  0  0  0  0  0  0  0  0
  1  2  2  0
  2  3  1  0
  3  4  1  0
  4  5  1  0
  5  6  2  0
  6  7  1  0
  7  8  2  0
  8  9  1  0
  9 10  1  0
 10 11  2  0
 11 12  1  0
 12 13  2  0
 13 14  1  0
  8 15  1  0
 15 16  1  0
 16 17  1  0
 17 18  2  0
 18 19  1  0
 19 20  2  0
 20 21  1  0
  2 22  1  0
 22 23  1  0
 23 24  2  0
 24 25  1  0
 25 26  2  0
 26 27  1  0
 27 28  1  0
 27 29  2  0
 15  5  1  0
 21 17  1  0
 29 23  1  0
 14 10  1  0
  3 30  1  0
  3 31  1  0
  9 32  1  0
  9 33  1  0
 11 34  1  0
 12 35  1  0
 13 36  1  0
 16 37  1  0
 16 38  1  0
 18 39  1  0
 19 40  1  0
 20 41  1  0
 22 42  1  0
 24 43  1  0
 25 44  1  0
 26 45  1  0
 29 46  1  0
M  END
$$$$
