
     RDKit          3D

 43 45  0  0  0  0  0  0  0  0999 V2000
   -5.6127   -0.3649   -2.9022 C   0  0  0  0  0  0  0  0  0  0  0  0
   -4.7100    0.6469   -2.4742 O   0  0  0  0  0  0  0  0  0  0  0  0
   -3.9172    0.3510   -1.3999 C   0  0  0  0  0  0  0  0  0  0  0  0
   -3.8305   -0.8805   -0.7561 C   0  0  0  0  0  0  0  0  0  0  0  0
   -2.9633   -1.0521    0.3315 C   0  0  0  0  0  0  0  0  0  0  0  0
   -2.1656    0.0015    0.7960 C   0  0  0  0  0  0  0  0  0  0  0  0
   -1.2916   -0.1182    1.8351 O   0  0  0  0  0  0  0  0  0  0  0  0
   -1.0694   -1.4087    2.3908 C   0  0  0  0  0  0  0  0  0  0  0  0
   -2.2647    1.2400    0.1501 C   0  0  0  0  0  0  0  0  0  0  0  0
   -1.3353    2.6676    0.6724 S   0  0  0  0  0  6  0  0  0  0  0  0
   -2.0817    3.8376    0.2486 O   0  0  0  0  0  0  0  0  0  0  0  0
   -0.9238    2.5382    2.0533 O   0  0  0  0  0  0  0  0  0  0  0  0
    0.0263    2.6428   -0.3323 N   0  0  0  0  0  0  0  0  0  0  0  0
    0.8148    1.4640   -0.4240 C   0  0  0  0  0  0  0  0  0  0  0  0
    0.8570    0.7814   -1.6400 C   0  0  0  0  0  0  0  0  0  0  0  0
    1.5992   -0.3937   -1.7483 C   0  0  0  0  0  0  0  0  0  0  0  0
    2.3040   -0.8751   -0.6467 C   0  0  0  0  0  0  0  0  0  0  0  0
    3.0157   -2.0240   -0.8517 O   0  0  0  0  0  0  0  0  0  0  0  0
    2.2692   -0.2040    0.5845 C   0  0  0  0  0  0  0  0  0  0  0  0
    3.0525   -0.8143    2.0730 S   0  0  0  0  0  0  0  0  0  0  0  0
    4.7421   -0.7294    1.6697 C   0  0  0  0  0  0  0  0  0  0  0  0
    5.2612   -1.3139    0.5410 N   0  0  0  0  0  0  0  0  0  0  0  0
    6.5426   -1.0415    0.6362 C   0  0  0  0  0  0  0  0  0  0  0  0
    6.7767   -0.3440    1.7786 N   0  0  0  0  0  0  0  0  0  0  0  0
    5.6417   -0.1490    2.4667 N   0  0  0  0  0  0  0  0  0  0  0  0
    1.5115    0.9734    0.6818 C   0  0  0  0  0  0  0  0  0  0  0  0
   -3.1386    1.4113   -0.9394 C   0  0  0  0  0  0  0  0  0  0  0  0
   -6.3066   -0.6402   -2.1009 H   0  0  0  0  0  0  0  0  0  0  0  0
   -5.0734   -1.2439   -3.2762 H   0  0  0  0  0  0  0  0  0  0  0  0
   -6.2002    0.0423   -3.7318 H   0  0  0  0  0  0  0  0  0  0  0  0
   -4.4205   -1.7350   -1.0734 H   0  0  0  0  0  0  0  0  0  0  0  0
   -2.9393   -2.0344    0.7997 H   0  0  0  0  0  0  0  0  0  0  0  0
   -0.2997   -1.3137    3.1631 H   0  0  0  0  0  0  0  0  0  0  0  0
   -1.9772   -1.7860    2.8709 H   0  0  0  0  0  0  0  0  0  0  0  0
   -0.6987   -2.1091    1.6345 H   0  0  0  0  0  0  0  0  0  0  0  0
   -0.1292    3.1855   -1.1793 H   0  0  0  0  0  0  0  0  0  0  0  0
    0.3083    1.1440   -2.5058 H   0  0  0  0  0  0  0  0  0  0  0  0
    1.6351   -0.9345   -2.6913 H   0  0  0  0  0  0  0  0  0  0  0  0
    3.7889   -2.0007   -0.2484 H   0  0  0  0  0  0  0  0  0  0  0  0
    7.3199   -1.3168   -0.0618 H   0  0  0  0  0  0  0  0  0  0  0  0
    7.6510    0.0144    2.1458 H   0  0  0  0  0  0  0  0  0  0  0  0
    1.4546    1.5064    1.6293 H   0  0  0  0  0  0  0  0  0  0  0  0
   -3.2232    2.3793   -1.4345 H   0  0  0  0  0  0  0  0  0  0  0  0
  1  2  1  0
  2  3  1  0
  3  4  2  0
  4  5  1  0
  5  6  2  0
  6  7  1  0
  7  8  1  0
  6  9  1  0
  9 10  1  0
 10 11  2  0
 10 12  2  0
 10 13  1  0
 13 14  1  0
 14 15  2  0
 15 16  1  0
 16 17  2  0
 17 18  1  0
 17 19  1  0
 19 20  1  0
 20 21  1  0
 21 22  1  0
 22 23  2  0
 23 24  1  0
 24 25  1  0
 19 26  2  0
  9 27  2  0
 27  3  1  0
 26 14  1  0
 25 21  2  0
  1 28  1  0
  1 29  1  0
  1 30  1  0
  4 31  1  0
  5 32  1  0
  8 33  1  0
  8 34  1  0
  8 35  1  0
 13 36  1  0
 15 37  1  0
 16 38  1  0
 18 39  1  0
 23 40  1  0
 24 41  1  0
 26 42  1  0
 27 43  1  0
M  END
$$$$
