
     RDKit          3D

 58 63  0  0  0  0  0  0  0  0999 V2000
    5.7029    4.0075   -0.7550 C   0  0  0  0  0  0  0  0  0  0  0  0
    5.4277    2.5498   -0.9040 C   0  0  0  0  0  0  0  0  0  0  0  0
    5.8821    1.6979   -1.8895 C   0  0  0  0  0  0  0  0  0  0  0  0
    5.4250    0.3624   -1.6985 C   0  0  0  0  0  0  0  0  0  0  0  0
    4.5955    0.2412   -0.6001 C   0  0  0  0  0  0  0  0  0  0  0  0
    3.9897   -0.9812   -0.0935 C   0  0  0  0  0  0  0  0  0  0  0  0
    4.6510   -2.0157    0.0177 O   0  0  0  0  0  0  0  0  0  0  0  0
    2.6260   -0.9801    0.2347 N   0  0  0  0  0  0  0  0  0  0  0  0
    1.6640    0.0150   -0.2397 C   0  0  0  0  0  0  0  0  0  0  0  0
    0.3436   -0.6501   -0.6136 C   0  0  0  0  0  0  0  0  0  0  0  0
   -0.3378   -1.3768    0.5838 C   0  0  0  0  0  0  0  0  0  0  0  0
    0.7625   -1.8660    1.5793 C   0  0  0  0  0  0  0  0  0  0  0  0
    2.0802   -2.1702    0.8752 C   0  0  0  0  0  0  0  0  0  0  0  0
   -0.9843   -2.5304   -0.0220 O   0  0  0  0  0  0  0  0  0  0  0  0
   -1.8545   -3.2245    0.7722 C   0  0  0  0  0  0  0  0  0  0  0  0
   -2.1928   -4.5061    0.3398 C   0  0  0  0  0  0  0  0  0  0  0  0
   -3.0548   -5.2960    1.1046 C   0  0  0  0  0  0  0  0  0  0  0  0
   -3.5794   -4.7991    2.2984 C   0  0  0  0  0  0  0  0  0  0  0  0
   -4.6383   -5.7780    3.2357 Cl  0  0  0  0  0  0  0  0  0  0  0  0
   -3.2586   -3.5149    2.7313 C   0  0  0  0  0  0  0  0  0  0  0  0
   -2.4016   -2.7282    1.9556 C   0  0  0  0  0  0  0  0  0  0  0  0
   -2.0791   -1.3472    2.3627 C   0  0  0  0  0  0  0  0  0  0  0  0
   -2.4016   -0.9504    3.4766 O   0  0  0  0  0  0  0  0  0  0  0  0
   -1.4056   -0.4926    1.2938 C   0  0  0  0  0  0  0  0  0  0  0  0
   -2.5116    0.0727    0.4059 C   0  0  0  0  0  0  0  0  0  0  0  0
   -2.0833    1.4978    0.3557 C   0  0  0  0  0  0  0  0  0  0  0  0
   -2.7199    2.4803   -0.5531 C   0  0  0  0  0  0  0  0  0  0  0  0
   -3.7994    2.1288   -1.3725 C   0  0  0  0  0  0  0  0  0  0  0  0
   -4.3754    3.0831   -2.2183 C   0  0  0  0  0  0  0  0  0  0  0  0
   -3.8760    4.3850   -2.2438 C   0  0  0  0  0  0  0  0  0  0  0  0
   -4.5903    5.5534   -3.2845 Cl  0  0  0  0  0  0  0  0  0  0  0  0
   -2.8043    4.7444   -1.4300 C   0  0  0  0  0  0  0  0  0  0  0  0
   -2.2267    3.7927   -0.5847 C   0  0  0  0  0  0  0  0  0  0  0  0
   -1.1142    1.8024    1.1562 N   0  0  0  0  0  0  0  0  0  0  0  0
   -0.7888    0.6466    1.8987 O   0  0  0  0  0  0  0  0  0  0  0  0
    4.4670    1.7248    0.2455 S   0  0  0  0  0  0  0  0  0  0  0  0
    5.4062    4.5418   -1.6636 H   0  0  0  0  0  0  0  0  0  0  0  0
    6.7733    4.1736   -0.5935 H   0  0  0  0  0  0  0  0  0  0  0  0
    5.1614    4.4519    0.0865 H   0  0  0  0  0  0  0  0  0  0  0  0
    6.5260    2.0136   -2.7014 H   0  0  0  0  0  0  0  0  0  0  0  0
    5.6826   -0.4766   -2.3359 H   0  0  0  0  0  0  0  0  0  0  0  0
    2.0581    0.5316   -1.1201 H   0  0  0  0  0  0  0  0  0  0  0  0
    1.5228    0.7510    0.5576 H   0  0  0  0  0  0  0  0  0  0  0  0
   -0.3175    0.0867   -1.0770 H   0  0  0  0  0  0  0  0  0  0  0  0
    0.5426   -1.3793   -1.4126 H   0  0  0  0  0  0  0  0  0  0  0  0
    0.9567   -1.0995    2.3401 H   0  0  0  0  0  0  0  0  0  0  0  0
    0.4485   -2.7704    2.1116 H   0  0  0  0  0  0  0  0  0  0  0  0
    2.8082   -2.5544    1.5995 H   0  0  0  0  0  0  0  0  0  0  0  0
    1.9455   -2.9399    0.1050 H   0  0  0  0  0  0  0  0  0  0  0  0
   -1.7764   -4.8989   -0.5851 H   0  0  0  0  0  0  0  0  0  0  0  0
   -3.3086   -6.2984    0.7675 H   0  0  0  0  0  0  0  0  0  0  0  0
   -3.6752   -3.1257    3.6580 H   0  0  0  0  0  0  0  0  0  0  0  0
   -2.5481   -0.3838   -0.5867 H   0  0  0  0  0  0  0  0  0  0  0  0
   -3.5061    0.0204    0.8628 H   0  0  0  0  0  0  0  0  0  0  0  0
   -4.2159    1.1258   -1.3692 H   0  0  0  0  0  0  0  0  0  0  0  0
   -5.2148    2.8065   -2.8517 H   0  0  0  0  0  0  0  0  0  0  0  0
   -2.4154    5.7596   -1.4434 H   0  0  0  0  0  0  0  0  0  0  0  0
   -1.3924    4.0860    0.0509 H   0  0  0  0  0  0  0  0  0  0  0  0
  1  2  1  0
  2  3  2  0
  3  4  1  0
  4  5  2  0
  5  6  1  0
  6  7  2  0
  6  8  1  0
  8  9  1  0
  9 10  1  0
 10 11  1  0
 11 12  1  0
 12 13  1  0
 11 14  1  0
 14 15  1  0
 15 16  2  0
 16 17  1  0
 17 18  2  0
 18 19  1  0
 18 20  1  0
 20 21  2  0
 21 22  1  0
 22 23  2  0
 22 24  1  0
 24 25  1  0
 25 26  1  0
 26 27  1  0
 27 28  2  0
 28 29  1  0
 29 30  2  0
 30 31  1  0
 30 32  1  0
 32 33  2  0
 26 34  2  0
 34 35  1  0
  5 36  1  0
 36  2  1  0
 13  8  1  0
 21 15  1  0
 35 24  1  0
 24 11  1  0
 33 27  1  0
  1 37  1  0
  1 38  1  0
  1 39  1  0
  3 40  1  0
  4 41  1  0
  9 42  1  0
  9 43  1  0
 10 44  1  0
 10 45  1  0
 12 46  1  0
 12 47  1  0
 13 48  1  0
 13 49  1  0
 16 50  1  0
 17 51  1  0
 20 52  1  0
 25 53  1  0
 25 54  1  0
 28 55  1  0
 29 56  1  0
 32 57  1  0
 33 58  1  0
M  END
$$$$
