
     RDKit          3D

 50 53  0  0  0  0  0  0  0  0999 V2000
    8.4031    1.7559    1.0005 C   0  0  0  0  0  0  0  0  0  0  0  0
    7.1284    2.2255    1.4210 O   0  0  0  0  0  0  0  0  0  0  0  0
    6.0394    1.5195    0.9924 C   0  0  0  0  0  0  0  0  0  0  0  0
    4.8110    2.0188    1.4229 C   0  0  0  0  0  0  0  0  0  0  0  0
    3.6128    1.3924    1.0571 C   0  0  0  0  0  0  0  0  0  0  0  0
    3.6076    0.2462    0.2441 C   0  0  0  0  0  0  0  0  0  0  0  0
    2.3580   -0.4348   -0.1602 C   0  0  0  0  0  0  0  0  0  0  0  0
    1.1465    0.2193   -0.2967 C   0  0  0  0  0  0  0  0  0  0  0  0
    0.0260   -0.5242   -0.6698 C   0  0  0  0  0  0  0  0  0  0  0  0
   -1.2548    0.2146   -0.7389 C   0  0  0  0  0  0  0  0  0  0  0  0
   -1.3300    1.1596   -1.5116 O   0  0  0  0  0  0  0  0  0  0  0  0
   -2.2127   -0.2476    0.1425 N   0  0  0  0  0  0  0  0  0  0  0  0
   -3.5234    0.2433    0.3197 C   0  0  0  0  0  0  0  0  0  0  0  0
   -4.3206   -0.3977    1.2703 C   0  0  0  0  0  0  0  0  0  0  0  0
   -5.6220    0.0436    1.5168 C   0  0  0  0  0  0  0  0  0  0  0  0
   -6.1581    1.1268    0.8056 C   0  0  0  0  0  0  0  0  0  0  0  0
   -7.5487    1.5993    1.1281 C   0  0  0  0  0  0  0  0  0  0  0  0
   -5.3856    1.7396   -0.1957 C   0  0  0  0  0  0  0  0  0  0  0  0
   -5.8318    2.8968   -0.8569 N   0  0  0  0  0  0  0  0  0  0  0  0
   -4.0580    1.3209   -0.3893 C   0  0  0  0  0  0  0  0  0  0  0  0
    0.1192   -1.9024   -0.9541 C   0  0  0  0  0  0  0  0  0  0  0  0
   -0.9504   -2.7184   -1.4064 C   0  0  0  0  0  0  0  0  0  0  0  0
   -0.7624   -4.0767   -1.6529 C   0  0  0  0  0  0  0  0  0  0  0  0
    0.4919   -4.6369   -1.4607 C   0  0  0  0  0  0  0  0  0  0  0  0
    1.5509   -3.8321   -1.0344 C   0  0  0  0  0  0  0  0  0  0  0  0
    1.3911   -2.4753   -0.7853 C   0  0  0  0  0  0  0  0  0  0  0  0
    2.4649   -1.7677   -0.3948 N   0  0  0  0  0  0  0  0  0  0  0  0
    4.8595   -0.2446   -0.1720 C   0  0  0  0  0  0  0  0  0  0  0  0
    6.0602    0.3810    0.1926 C   0  0  0  0  0  0  0  0  0  0  0  0
    8.4963    1.7890   -0.0901 H   0  0  0  0  0  0  0  0  0  0  0  0
    9.1607    2.4252    1.4195 H   0  0  0  0  0  0  0  0  0  0  0  0
    8.5993    0.7494    1.3844 H   0  0  0  0  0  0  0  0  0  0  0  0
    4.7830    2.9039    2.0543 H   0  0  0  0  0  0  0  0  0  0  0  0
    2.6852    1.8137    1.4369 H   0  0  0  0  0  0  0  0  0  0  0  0
    1.0537    1.2878   -0.1299 H   0  0  0  0  0  0  0  0  0  0  0  0
   -1.9468   -1.0198    0.7423 H   0  0  0  0  0  0  0  0  0  0  0  0
   -3.9403   -1.2377    1.8452 H   0  0  0  0  0  0  0  0  0  0  0  0
   -6.2125   -0.4571    2.2810 H   0  0  0  0  0  0  0  0  0  0  0  0
   -7.9794    1.0420    1.9669 H   0  0  0  0  0  0  0  0  0  0  0  0
   -7.5369    2.6570    1.4105 H   0  0  0  0  0  0  0  0  0  0  0  0
   -8.2060    1.4584    0.2641 H   0  0  0  0  0  0  0  0  0  0  0  0
   -6.8375    2.9468   -0.9733 H   0  0  0  0  0  0  0  0  0  0  0  0
   -5.3364    3.0811   -1.7249 H   0  0  0  0  0  0  0  0  0  0  0  0
   -3.4539    1.8597   -1.1120 H   0  0  0  0  0  0  0  0  0  0  0  0
   -1.9369   -2.2962   -1.5908 H   0  0  0  0  0  0  0  0  0  0  0  0
   -1.5894   -4.6900   -2.0023 H   0  0  0  0  0  0  0  0  0  0  0  0
    0.6566   -5.6944   -1.6514 H   0  0  0  0  0  0  0  0  0  0  0  0
    2.5347   -4.2767   -0.8981 H   0  0  0  0  0  0  0  0  0  0  0  0
    4.9074   -1.1345   -0.7990 H   0  0  0  0  0  0  0  0  0  0  0  0
    6.9872   -0.0523   -0.1670 H   0  0  0  0  0  0  0  0  0  0  0  0
  1  2  1  0
  2  3  1  0
  3  4  2  0
  4  5  1  0
  5  6  2  0
  6  7  1  0
  7  8  2  0
  8  9  1  0
  9 10  1  0
 10 11  2  0
 10 12  1  0
 12 13  1  0
 13 14  2  0
 14 15  1  0
 15 16  2  0
 16 17  1  0
 16 18  1  0
 18 19  1  0
 18 20  2  0
  9 21  2  0
 21 22  1  0
 22 23  2  0
 23 24  1  0
 24 25  2  0
 25 26  1  0
 26 27  2  0
  6 28  1  0
 28 29  2  0
 29  3  1  0
 27  7  1  0
 20 13  1  0
 26 21  1  0
  1 30  1  0
  1 31  1  0
  1 32  1  0
  4 33  1  0
  5 34  1  0
  8 35  1  0
 12 36  1  0
 14 37  1  0
 15 38  1  0
 17 39  1  0
 17 40  1  0
 17 41  1  0
 19 42  1  0
 19 43  1  0
 20 44  1  0
 22 45  1  0
 23 46  1  0
 24 47  1  0
 25 48  1  0
 28 49  1  0
 29 50  1  0
M  END
$$$$
