
     RDKit          3D

 46 49  0  0  0  0  0  0  0  0999 V2000
    2.4473    2.7913    1.3244 O   0  0  0  0  0  0  0  0  0  0  0  0
    2.8247    1.8584    0.6196 C   0  0  0  0  0  0  0  0  0  0  0  0
    3.5463    2.1188   -0.6961 C   0  0  0  0  0  0  0  0  0  0  0  0
    2.3488    2.2445   -2.0615 S   0  0  0  0  0  0  0  0  0  0  0  0
    1.8164    0.6041   -2.1518 C   0  0  0  0  0  0  0  0  0  0  0  0
    2.5348   -0.4404   -1.8119 N   0  0  0  0  0  0  0  0  0  0  0  0
    1.7389   -1.5474   -1.9264 N   0  0  0  0  0  0  0  0  0  0  0  0
    0.5446   -1.1611   -2.3392 C   0  0  0  0  0  0  0  0  0  0  0  0
   -0.6104   -2.0700   -2.6135 C   0  0  0  0  0  0  0  0  0  0  0  0
   -1.6861   -2.0183   -1.5659 C   0  0  0  0  0  0  0  0  0  0  0  0
   -2.9930   -1.5890   -1.7016 C   0  0  0  0  0  0  0  0  0  0  0  0
   -3.7276   -1.6870   -0.4845 C   0  0  0  0  0  0  0  0  0  0  0  0
   -2.9641   -2.2024    0.5382 C   0  0  0  0  0  0  0  0  0  0  0  0
   -1.3780   -2.5767    0.0276 S   0  0  0  0  0  0  0  0  0  0  0  0
    0.5515    0.2111   -2.4905 N   0  0  0  0  0  0  0  0  0  0  0  0
   -0.5451    1.0536   -2.9261 C   0  0  0  0  0  0  0  0  0  0  0  0
   -1.3832    1.5250   -1.7949 C   0  0  0  0  0  0  0  0  0  0  0  0
   -1.2051    1.6498   -0.4307 C   0  0  0  0  0  0  0  0  0  0  0  0
   -2.4146    2.1711    0.0873 C   0  0  0  0  0  0  0  0  0  0  0  0
   -3.2537    2.3333   -0.9881 C   0  0  0  0  0  0  0  0  0  0  0  0
   -2.6393    1.9435   -2.1343 O   0  0  0  0  0  0  0  0  0  0  0  0
    2.6380    0.5118    0.8855 N   0  0  0  0  0  0  0  0  0  0  0  0
    2.0003   -0.0683    1.9999 C   0  0  0  0  0  0  0  0  0  0  0  0
    1.8136   -1.4570    1.9680 C   0  0  0  0  0  0  0  0  0  0  0  0
    1.1934   -2.1209    3.0302 C   0  0  0  0  0  0  0  0  0  0  0  0
    0.7493   -1.3979    4.1338 C   0  0  0  0  0  0  0  0  0  0  0  0
    0.9328   -0.0176    4.1688 C   0  0  0  0  0  0  0  0  0  0  0  0
    0.3783    0.8751    5.5343 Cl  0  0  0  0  0  0  0  0  0  0  0  0
    1.5558    0.6498    3.1110 C   0  0  0  0  0  0  0  0  0  0  0  0
    4.0835    3.0687   -0.6085 H   0  0  0  0  0  0  0  0  0  0  0  0
    4.2948    1.3441   -0.8931 H   0  0  0  0  0  0  0  0  0  0  0  0
   -1.0351   -1.8355   -3.5971 H   0  0  0  0  0  0  0  0  0  0  0  0
   -0.2405   -3.1008   -2.6911 H   0  0  0  0  0  0  0  0  0  0  0  0
   -3.4060   -1.2055   -2.6269 H   0  0  0  0  0  0  0  0  0  0  0  0
   -4.7634   -1.3910   -0.3656 H   0  0  0  0  0  0  0  0  0  0  0  0
   -3.2637   -2.3830    1.5623 H   0  0  0  0  0  0  0  0  0  0  0  0
   -1.1460    0.4785   -3.6391 H   0  0  0  0  0  0  0  0  0  0  0  0
   -0.1363    1.9043   -3.4815 H   0  0  0  0  0  0  0  0  0  0  0  0
   -0.3182    1.3974    0.1344 H   0  0  0  0  0  0  0  0  0  0  0  0
   -2.6428    2.4010    1.1182 H   0  0  0  0  0  0  0  0  0  0  0  0
   -4.2655    2.6969   -1.0984 H   0  0  0  0  0  0  0  0  0  0  0  0
    2.8842   -0.1373    0.1366 H   0  0  0  0  0  0  0  0  0  0  0  0
    2.1426   -2.0413    1.1098 H   0  0  0  0  0  0  0  0  0  0  0  0
    1.0507   -3.1969    2.9887 H   0  0  0  0  0  0  0  0  0  0  0  0
    0.2638   -1.9116    4.9588 H   0  0  0  0  0  0  0  0  0  0  0  0
    1.6835    1.7249    3.1821 H   0  0  0  0  0  0  0  0  0  0  0  0
  1  2  2  0
  2  3  1  0
  3  4  1  0
  4  5  1  0
  5  6  2  0
  6  7  1  0
  7  8  2  0
  8  9  1  0
  9 10  1  0
 10 11  2  0
 11 12  1  0
 12 13  2  0
 13 14  1  0
  8 15  1  0
 15 16  1  0
 16 17  1  0
 17 18  2  0
 18 19  1  0
 19 20  2  0
 20 21  1  0
  2 22  1  0
 22 23  1  0
 23 24  2  0
 24 25  1  0
 25 26  2  0
 26 27  1  0
 27 28  1  0
 27 29  2  0
 15  5  1  0
 21 17  1  0
 29 23  1  0
 14 10  1  0
  3 30  1  0
  3 31  1  0
  9 32  1  0
  9 33  1  0
 11 34  1  0
 12 35  1  0
 13 36  1  0
 16 37  1  0
 16 38  1  0
 18 39  1  0
 19 40  1  0
 20 41  1  0
 22 42  1  0
 24 43  1  0
 25 44  1  0
 26 45  1  0
 29 46  1  0
M  END
$$$$
