
     RDKit          3D

 39 41  0  0  0  0  0  0  0  0999 V2000
    2.8980   -1.4676    1.5622 O   0  0  0  0  0  0  0  0  0  0  0  0
    2.9376   -1.0826    0.4046 C   0  0  0  0  0  0  0  0  0  0  0  0
    2.1674   -1.5324   -0.6149 O   0  0  0  0  0  0  0  0  0  0  0  0
    1.1878   -2.5180   -0.2672 C   0  0  0  0  0  0  0  0  0  0  0  0
   -0.1530   -1.8496   -0.1123 C   0  0  0  0  0  0  0  0  0  0  0  0
   -0.5835   -1.4089    1.1441 C   0  0  0  0  0  0  0  0  0  0  0  0
   -1.8173   -0.7662    1.2867 C   0  0  0  0  0  0  0  0  0  0  0  0
   -2.6502   -0.5406    0.1794 C   0  0  0  0  0  0  0  0  0  0  0  0
   -3.9482    0.1378    0.3308 C   0  0  0  0  0  0  0  0  0  0  0  0
   -4.0422    1.3889    0.9631 C   0  0  0  0  0  0  0  0  0  0  0  0
   -5.2737    2.0341    1.1065 C   0  0  0  0  0  0  0  0  0  0  0  0
   -6.4340    1.4374    0.6202 C   0  0  0  0  0  0  0  0  0  0  0  0
   -6.3639    0.1973   -0.0092 C   0  0  0  0  0  0  0  0  0  0  0  0
   -5.1313   -0.4459   -0.1527 C   0  0  0  0  0  0  0  0  0  0  0  0
   -2.2035   -0.9765   -1.0782 C   0  0  0  0  0  0  0  0  0  0  0  0
   -0.9693   -1.6182   -1.2250 C   0  0  0  0  0  0  0  0  0  0  0  0
    3.8755   -0.0341   -0.0804 C   0  0  0  0  0  0  0  0  0  0  0  0
    3.8173    0.4830   -1.3834 C   0  0  0  0  0  0  0  0  0  0  0  0
    4.7199    1.4702   -1.7893 C   0  0  0  0  0  0  0  0  0  0  0  0
    5.6826    1.9470   -0.8995 C   0  0  0  0  0  0  0  0  0  0  0  0
    5.7341    1.4329    0.3927 C   0  0  0  0  0  0  0  0  0  0  0  0
    6.6585    1.8726    1.2933 O   0  0  0  0  0  0  0  0  0  0  0  0
    4.8416    0.4509    0.8094 C   0  0  0  0  0  0  0  0  0  0  0  0
    1.4560   -3.0913    0.6287 H   0  0  0  0  0  0  0  0  0  0  0  0
    1.1479   -3.2444   -1.0873 H   0  0  0  0  0  0  0  0  0  0  0  0
    0.0427   -1.5595    2.0223 H   0  0  0  0  0  0  0  0  0  0  0  0
   -2.1292   -0.4468    2.2792 H   0  0  0  0  0  0  0  0  0  0  0  0
   -3.1461    1.8776    1.3407 H   0  0  0  0  0  0  0  0  0  0  0  0
   -5.3237    3.0029    1.5964 H   0  0  0  0  0  0  0  0  0  0  0  0
   -7.3920    1.9380    0.7324 H   0  0  0  0  0  0  0  0  0  0  0  0
   -7.2678   -0.2735   -0.3866 H   0  0  0  0  0  0  0  0  0  0  0  0
   -5.1004   -1.4199   -0.6367 H   0  0  0  0  0  0  0  0  0  0  0  0
   -2.8131   -0.8024   -1.9627 H   0  0  0  0  0  0  0  0  0  0  0  0
   -0.6481   -1.9300   -2.2163 H   0  0  0  0  0  0  0  0  0  0  0  0
    3.0710    0.1306   -2.0914 H   0  0  0  0  0  0  0  0  0  0  0  0
    4.6688    1.8678   -2.8002 H   0  0  0  0  0  0  0  0  0  0  0  0
    6.3769    2.7141   -1.2284 H   0  0  0  0  0  0  0  0  0  0  0  0
    7.2049    2.5580    0.8750 H   0  0  0  0  0  0  0  0  0  0  0  0
    4.9017    0.0672    1.8253 H   0  0  0  0  0  0  0  0  0  0  0  0
  1  2  2  0
  2  3  1  0
  3  4  1  0
  4  5  1  0
  5  6  2  0
  6  7  1  0
  7  8  2  0
  8  9  1  0
  9 10  2  0
 10 11  1  0
 11 12  2  0
 12 13  1  0
 13 14  2  0
  8 15  1  0
 15 16  2  0
  2 17  1  0
 17 18  2  0
 18 19  1  0
 19 20  2  0
 20 21  1  0
 21 22  1  0
 21 23  2  0
 16  5  1  0
 23 17  1  0
 14  9  1  0
  4 24  1  0
  4 25  1  0
  6 26  1  0
  7 27  1  0
 10 28  1  0
 11 29  1  0
 12 30  1  0
 13 31  1  0
 14 32  1  0
 15 33  1  0
 16 34  1  0
 18 35  1  0
 19 36  1  0
 20 37  1  0
 22 38  1  0
 23 39  1  0
M  END
$$$$
