
     RDKit          3D

 38 38  0  0  0  0  0  0  0  0999 V2000
    6.9231    1.6164    2.0728 C   0  0  0  0  0  0  0  0  0  0  0  0
    6.0024    1.7786    1.0013 O   0  0  0  0  0  0  0  0  0  0  0  0
    4.6982    1.3171    1.3585 C   0  0  0  0  0  0  0  0  0  0  0  0
    3.7423    1.5913    0.1961 C   0  0  0  0  0  0  0  0  0  0  0  0
    2.4507    0.9447    0.3460 N   0  0  0  0  0  0  0  0  0  0  0  0
    1.5221    1.3954    1.2584 C   0  0  0  0  0  0  0  0  0  0  0  0
    1.7113    2.3496    2.0025 O   0  0  0  0  0  0  0  0  0  0  0  0
    0.2631    0.5981    1.3186 C   0  0  0  0  0  0  0  0  0  0  0  0
   -0.1638    0.2044    2.6140 C   0  0  0  0  0  0  0  0  0  0  0  0
   -0.5082   -0.1539    3.6636 N   0  0  0  0  0  0  0  0  0  0  0  0
   -0.3942    0.3807    0.1603 C   0  0  0  0  0  0  0  0  0  0  0  0
   -1.6396   -0.3415   -0.1307 C   0  0  0  0  0  0  0  0  0  0  0  0
   -2.3192   -1.1360    0.9584 C   0  0  0  0  0  0  0  0  0  0  0  0
   -2.1204   -0.2844   -1.3922 C   0  0  0  0  0  0  0  0  0  0  0  0
   -3.3482   -0.9284   -1.8688 C   0  0  0  0  0  0  0  0  0  0  0  0
   -4.5976   -0.3567   -1.6044 C   0  0  0  0  0  0  0  0  0  0  0  0
   -5.7626   -0.9742   -2.0629 C   0  0  0  0  0  0  0  0  0  0  0  0
   -5.6835   -2.1627   -2.7879 C   0  0  0  0  0  0  0  0  0  0  0  0
   -4.4404   -2.7353   -3.0557 C   0  0  0  0  0  0  0  0  0  0  0  0
   -3.2738   -2.1195   -2.5981 C   0  0  0  0  0  0  0  0  0  0  0  0
    7.9020    1.9738    1.7423 H   0  0  0  0  0  0  0  0  0  0  0  0
    6.6100    2.2068    2.9394 H   0  0  0  0  0  0  0  0  0  0  0  0
    7.0102    0.5606    2.3467 H   0  0  0  0  0  0  0  0  0  0  0  0
    4.3554    1.8293    2.2647 H   0  0  0  0  0  0  0  0  0  0  0  0
    4.7421    0.2407    1.5628 H   0  0  0  0  0  0  0  0  0  0  0  0
    4.1768    1.2365   -0.7451 H   0  0  0  0  0  0  0  0  0  0  0  0
    3.5887    2.6716    0.0900 H   0  0  0  0  0  0  0  0  0  0  0  0
    2.2944    0.0788   -0.1547 H   0  0  0  0  0  0  0  0  0  0  0  0
    0.0494    0.8315   -0.7318 H   0  0  0  0  0  0  0  0  0  0  0  0
   -3.1554   -1.7407    0.5953 H   0  0  0  0  0  0  0  0  0  0  0  0
   -2.7237   -0.4688    1.7261 H   0  0  0  0  0  0  0  0  0  0  0  0
   -1.6184   -1.8419    1.4164 H   0  0  0  0  0  0  0  0  0  0  0  0
   -1.6089    0.2793   -2.1706 H   0  0  0  0  0  0  0  0  0  0  0  0
   -4.6709    0.5696   -1.0394 H   0  0  0  0  0  0  0  0  0  0  0  0
   -6.7315   -0.5282   -1.8538 H   0  0  0  0  0  0  0  0  0  0  0  0
   -6.5913   -2.6432   -3.1438 H   0  0  0  0  0  0  0  0  0  0  0  0
   -4.3798   -3.6622   -3.6200 H   0  0  0  0  0  0  0  0  0  0  0  0
   -2.3108   -2.5770   -2.8105 H   0  0  0  0  0  0  0  0  0  0  0  0
  1  2  1  0
  2  3  1  0
  3  4  1  0
  4  5  1  0
  5  6  1  0
  6  7  2  0
  6  8  1  0
  8  9  1  0
  9 10  3  0
  8 11  2  3
 11 12  1  0
 12 13  1  0
 12 14  2  3
 14 15  1  0
 15 16  2  0
 16 17  1  0
 17 18  2  0
 18 19  1  0
 19 20  2  0
 20 15  1  0
  1 21  1  0
  1 22  1  0
  1 23  1  0
  3 24  1  0
  3 25  1  0
  4 26  1  0
  4 27  1  0
  5 28  1  0
 11 29  1  0
 13 30  1  0
 13 31  1  0
 13 32  1  0
 14 33  1  0
 16 34  1  0
 17 35  1  0
 18 36  1  0
 19 37  1  0
 20 38  1  0
M  END
$$$$
