
     RDKit          3D

 65 66  0  0  0  0  0  0  0  0999 V2000
   -4.3014    6.5306    0.1335 C   0  0  0  0  0  0  0  0  0  0  0  0
   -3.2751    6.0649   -0.7327 O   0  0  0  0  0  0  0  0  0  0  0  0
   -3.0565    4.7153   -0.7593 C   0  0  0  0  0  0  0  0  0  0  0  0
   -3.7901    3.7495   -0.0720 C   0  0  0  0  0  0  0  0  0  0  0  0
   -3.4551    2.3934   -0.1827 C   0  0  0  0  0  0  0  0  0  0  0  0
   -2.3854    1.9783   -0.9885 C   0  0  0  0  0  0  0  0  0  0  0  0
   -1.9474    0.5238   -1.1121 C   0  0  0  0  0  0  0  0  0  0  0  0
   -3.0544   -0.5568   -0.9064 C   0  0  0  0  0  0  0  0  0  0  0  0
   -4.2442   -0.3654   -1.1468 O   0  0  0  0  0  0  0  0  0  0  0  0
   -2.5579   -1.7995   -0.5352 N   0  0  0  0  0  0  0  0  0  0  0  0
   -3.3574   -3.0206   -0.3668 C   0  0  0  0  0  0  0  0  0  0  0  0
   -2.4062   -4.1527    0.0614 C   0  0  0  0  0  0  0  0  0  0  0  0
   -4.4123   -2.8373    0.7357 C   0  0  0  0  0  0  0  0  0  0  0  0
   -4.0330   -3.4237   -1.6860 C   0  0  0  0  0  0  0  0  0  0  0  0
   -0.7369    0.2513   -0.2839 N   0  0  0  0  0  0  0  0  0  0  0  0
   -0.8560    0.3878    1.1778 C   0  0  0  0  0  0  0  0  0  0  0  0
   -0.4358    1.7598    1.7216 C   0  0  0  0  0  0  0  0  0  0  0  0
   -0.0898    1.6527    3.1006 O   0  0  0  0  0  0  0  0  0  0  0  0
    0.4507   -0.0642   -0.9337 C   0  0  0  0  0  0  0  0  0  0  0  0
    0.5220   -0.1472   -2.1591 O   0  0  0  0  0  0  0  0  0  0  0  0
    1.6630   -0.3554   -0.0678 C   0  0  0  0  0  0  0  0  0  0  0  0
    2.9253   -0.5454   -0.9045 C   0  0  0  0  0  0  0  0  0  0  0  0
    4.1187   -0.8782   -0.0322 C   0  0  0  0  0  0  0  0  0  0  0  0
    4.0238   -0.9951    1.1868 O   0  0  0  0  0  0  0  0  0  0  0  0
    5.2703   -1.0222   -0.7698 N   0  0  0  0  0  0  0  0  0  0  0  0
    6.5026   -1.3666   -0.2603 C   0  0  0  0  0  0  0  0  0  0  0  0
    6.8701   -1.6925    1.0635 C   0  0  0  0  0  0  0  0  0  0  0  0
    8.2115   -1.9728    0.9909 C   0  0  0  0  0  0  0  0  0  0  0  0
    9.2263   -2.3861    1.9751 C   0  0  0  0  0  0  0  0  0  0  0  0
    8.6317   -1.8051   -0.2909 O   0  0  0  0  0  0  0  0  0  0  0  0
    7.5592   -1.4303   -1.0791 N   0  0  0  0  0  0  0  0  0  0  0  0
   -1.6534    2.9616   -1.6761 C   0  0  0  0  0  0  0  0  0  0  0  0
   -1.9894    4.3129   -1.5633 C   0  0  0  0  0  0  0  0  0  0  0  0
   -4.0932    6.2615    1.1742 H   0  0  0  0  0  0  0  0  0  0  0  0
   -5.2821    6.1616   -0.1825 H   0  0  0  0  0  0  0  0  0  0  0  0
   -4.3206    7.6224    0.0702 H   0  0  0  0  0  0  0  0  0  0  0  0
   -4.6333    4.0133    0.5583 H   0  0  0  0  0  0  0  0  0  0  0  0
   -4.0508    1.6697    0.3715 H   0  0  0  0  0  0  0  0  0  0  0  0
   -1.6894    0.3830   -2.1710 H   0  0  0  0  0  0  0  0  0  0  0  0
   -1.5514   -1.8982   -0.5957 H   0  0  0  0  0  0  0  0  0  0  0  0
   -1.6409   -4.3343   -0.7028 H   0  0  0  0  0  0  0  0  0  0  0  0
   -2.9476   -5.0912    0.2237 H   0  0  0  0  0  0  0  0  0  0  0  0
   -1.8831   -3.8999    0.9910 H   0  0  0  0  0  0  0  0  0  0  0  0
   -4.9552   -3.7706    0.9225 H   0  0  0  0  0  0  0  0  0  0  0  0
   -3.9447   -2.5263    1.6771 H   0  0  0  0  0  0  0  0  0  0  0  0
   -5.1540   -2.0769    0.4734 H   0  0  0  0  0  0  0  0  0  0  0  0
   -4.5450   -4.3880   -1.5901 H   0  0  0  0  0  0  0  0  0  0  0  0
   -3.2983   -3.5108   -2.4942 H   0  0  0  0  0  0  0  0  0  0  0  0
   -4.7804   -2.6887   -2.0026 H   0  0  0  0  0  0  0  0  0  0  0  0
   -0.2478   -0.3914    1.6502 H   0  0  0  0  0  0  0  0  0  0  0  0
   -1.8851    0.1680    1.4841 H   0  0  0  0  0  0  0  0  0  0  0  0
    0.4190    2.1789    1.1820 H   0  0  0  0  0  0  0  0  0  0  0  0
   -1.2546    2.4787    1.6443 H   0  0  0  0  0  0  0  0  0  0  0  0
    0.8120    1.2905    3.1527 H   0  0  0  0  0  0  0  0  0  0  0  0
    1.8229    0.4684    0.6333 H   0  0  0  0  0  0  0  0  0  0  0  0
    1.4628   -1.2693    0.5034 H   0  0  0  0  0  0  0  0  0  0  0  0
    3.1453    0.3707   -1.4655 H   0  0  0  0  0  0  0  0  0  0  0  0
    2.7869   -1.3611   -1.6236 H   0  0  0  0  0  0  0  0  0  0  0  0
    5.2738   -0.8474   -1.7658 H   0  0  0  0  0  0  0  0  0  0  0  0
    6.2512   -1.7260    1.9471 H   0  0  0  0  0  0  0  0  0  0  0  0
    8.8066   -3.1122    2.6793 H   0  0  0  0  0  0  0  0  0  0  0  0
   10.0861   -2.8535    1.4863 H   0  0  0  0  0  0  0  0  0  0  0  0
    9.5815   -1.5219    2.5454 H   0  0  0  0  0  0  0  0  0  0  0  0
   -0.8132    2.6765   -2.3080 H   0  0  0  0  0  0  0  0  0  0  0  0
   -1.4144    5.0597   -2.1061 H   0  0  0  0  0  0  0  0  0  0  0  0
  1  2  1  0
  2  3  1  0
  3  4  2  0
  4  5  1  0
  5  6  2  0
  6  7  1  0
  7  8  1  0
  8  9  2  0
  8 10  1  0
 10 11  1  0
 11 12  1  0
 11 13  1  0
 11 14  1  0
  7 15  1  0
 15 16  1  0
 16 17  1  0
 17 18  1  0
 15 19  1  0
 19 20  2  0
 19 21  1  0
 21 22  1  0
 22 23  1  0
 23 24  2  0
 23 25  1  0
 25 26  1  0
 26 27  1  0
 27 28  2  0
 28 29  1  0
 28 30  1  0
 30 31  1  0
  6 32  1  0
 32 33  2  0
 33  3  1  0
 31 26  2  0
  1 34  1  0
  1 35  1  0
  1 36  1  0
  4 37  1  0
  5 38  1  0
  7 39  1  0
 10 40  1  0
 12 41  1  0
 12 42  1  0
 12 43  1  0
 13 44  1  0
 13 45  1  0
 13 46  1  0
 14 47  1  0
 14 48  1  0
 14 49  1  0
 16 50  1  0
 16 51  1  0
 17 52  1  0
 17 53  1  0
 18 54  1  0
 21 55  1  0
 21 56  1  0
 22 57  1  0
 22 58  1  0
 25 59  1  0
 27 60  1  0
 29 61  1  0
 29 62  1  0
 29 63  1  0
 32 64  1  0
 33 65  1  0
M  END
$$$$
