
     RDKit          3D

 33 33  0  0  0  0  0  0  0  0999 V2000
   -3.3470   -2.1979    0.6474 C   0  0  0  0  0  0  0  0  0  0  0  0
   -3.6744   -0.7080    0.5398 C   0  0  0  0  0  0  0  0  0  0  0  0
   -4.5701   -0.4254   -0.6675 C   0  0  0  0  0  0  0  0  0  0  0  0
   -2.4790    0.1467    0.5765 N   0  0  0  0  0  0  0  0  0  0  0  0
   -1.5159   -0.0703   -0.5003 C   0  0  0  0  0  0  0  0  0  0  0  0
   -0.3161    0.8677   -0.3567 C   0  0  0  0  0  0  0  0  0  0  0  0
    0.4655    0.6438    0.9370 C   0  0  0  0  0  0  0  0  0  0  0  0
    1.6224    1.4836    0.9631 O   0  0  0  0  0  0  0  0  0  0  0  0
    2.8206    0.9958    0.5179 C   0  0  0  0  0  0  0  0  0  0  0  0
    2.9778   -0.1935   -0.2013 C   0  0  0  0  0  0  0  0  0  0  0  0
    4.2465   -0.6046   -0.6253 C   0  0  0  0  0  0  0  0  0  0  0  0
    5.3643    0.1741   -0.3378 C   0  0  0  0  0  0  0  0  0  0  0  0
    6.9197   -0.3384   -0.8639 Cl  0  0  0  0  0  0  0  0  0  0  0  0
    5.2292    1.3645    0.3677 C   0  0  0  0  0  0  0  0  0  0  0  0
    3.9606    1.7728    0.7900 C   0  0  0  0  0  0  0  0  0  0  0  0
    3.8384    3.4116    1.7480 Br  0  0  0  0  0  0  0  0  0  0  0  0
   -2.8635   -2.5806   -0.2573 H   0  0  0  0  0  0  0  0  0  0  0  0
   -4.2638   -2.7783    0.7995 H   0  0  0  0  0  0  0  0  0  0  0  0
   -2.6880   -2.3945    1.5001 H   0  0  0  0  0  0  0  0  0  0  0  0
   -4.2531   -0.4480    1.4353 H   0  0  0  0  0  0  0  0  0  0  0  0
   -4.1048   -0.7400   -1.6073 H   0  0  0  0  0  0  0  0  0  0  0  0
   -5.5186   -0.9656   -0.5727 H   0  0  0  0  0  0  0  0  0  0  0  0
   -4.8055    0.6419   -0.7414 H   0  0  0  0  0  0  0  0  0  0  0  0
   -2.7746    1.1244    0.5708 H   0  0  0  0  0  0  0  0  0  0  0  0
   -1.1483   -1.1018   -0.4950 H   0  0  0  0  0  0  0  0  0  0  0  0
   -1.9783    0.1171   -1.4752 H   0  0  0  0  0  0  0  0  0  0  0  0
    0.3452    0.7294   -1.2204 H   0  0  0  0  0  0  0  0  0  0  0  0
   -0.6403    1.9154   -0.4072 H   0  0  0  0  0  0  0  0  0  0  0  0
   -0.1493    0.9529    1.7902 H   0  0  0  0  0  0  0  0  0  0  0  0
    0.7105   -0.4099    1.1123 H   0  0  0  0  0  0  0  0  0  0  0  0
    2.1332   -0.8229   -0.4613 H   0  0  0  0  0  0  0  0  0  0  0  0
    4.3524   -1.5322   -1.1827 H   0  0  0  0  0  0  0  0  0  0  0  0
    6.1045    1.9700    0.5862 H   0  0  0  0  0  0  0  0  0  0  0  0
  1  2  1  0
  2  3  1  0
  2  4  1  0
  4  5  1  0
  5  6  1  0
  6  7  1  0
  7  8  1  0
  8  9  1  0
  9 10  2  0
 10 11  1  0
 11 12  2  0
 12 13  1  0
 12 14  1  0
 14 15  2  0
 15 16  1  0
 15  9  1  0
  1 17  1  0
  1 18  1  0
  1 19  1  0
  2 20  1  0
  3 21  1  0
  3 22  1  0
  3 23  1  0
  4 24  1  0
  5 25  1  0
  5 26  1  0
  6 27  1  0
  6 28  1  0
  7 29  1  0
  7 30  1  0
 10 31  1  0
 11 32  1  0
 14 33  1  0
M  END
$$$$
