
     RDKit          3D

 44 45  0  0  0  0  0  0  0  0999 V2000
   -7.4109    1.0798    0.5799 C   0  0  0  0  0  0  0  0  0  0  0  0
   -6.8900    0.6839    1.9541 C   0  0  0  0  0  0  0  0  0  0  0  0
   -6.3198   -0.7319    1.9731 C   0  0  0  0  0  0  0  0  0  0  0  0
   -5.2336   -0.8652    1.0436 O   0  0  0  0  0  0  0  0  0  0  0  0
   -4.0125   -0.4949    1.5062 C   0  0  0  0  0  0  0  0  0  0  0  0
   -3.7723   -0.0723    2.6251 O   0  0  0  0  0  0  0  0  0  0  0  0
   -2.9802   -0.6715    0.4463 C   0  0  0  0  0  0  0  0  0  0  0  0
   -3.3043   -1.1232   -0.8398 C   0  0  0  0  0  0  0  0  0  0  0  0
   -2.3047   -1.2706   -1.7993 C   0  0  0  0  0  0  0  0  0  0  0  0
   -0.9806   -0.9676   -1.4781 C   0  0  0  0  0  0  0  0  0  0  0  0
   -0.6388   -0.5144   -0.1974 C   0  0  0  0  0  0  0  0  0  0  0  0
    0.7202   -0.2336    0.0353 N   0  0  0  0  0  0  0  0  0  0  0  0
    1.3165    0.2183    1.1980 C   0  0  0  0  0  0  0  0  0  0  0  0
    0.7554    0.4607    2.2622 O   0  0  0  0  0  0  0  0  0  0  0  0
    2.8306    0.4097    1.0601 C   0  0  0  0  0  0  0  0  0  0  0  0
    3.2843    0.0711   -0.2501 O   0  0  0  0  0  0  0  0  0  0  0  0
    4.6233    0.2019   -0.4955 C   0  0  0  0  0  0  0  0  0  0  0  0
    5.0124   -0.1434   -1.7947 C   0  0  0  0  0  0  0  0  0  0  0  0
    6.3509   -0.0587   -2.1877 C   0  0  0  0  0  0  0  0  0  0  0  0
    7.3090    0.3773   -1.2665 C   0  0  0  0  0  0  0  0  0  0  0  0
    8.7183    0.4702   -1.6679 N   0  0  0  0  0  4  0  0  0  0  0  0
    9.5338    0.8609   -0.8207 O   0  0  0  0  0  0  0  0  0  0  0  0
    9.0084    0.1525   -2.8300 O   0  0  0  0  0  1  0  0  0  0  0  0
    6.9314    0.7255    0.0365 C   0  0  0  0  0  0  0  0  0  0  0  0
    5.5870    0.6363    0.4182 C   0  0  0  0  0  0  0  0  0  0  0  0
   -1.6447   -0.3679    0.7609 C   0  0  0  0  0  0  0  0  0  0  0  0
   -6.6083    1.0847   -0.1642 H   0  0  0  0  0  0  0  0  0  0  0  0
   -7.8422    2.0852    0.6155 H   0  0  0  0  0  0  0  0  0  0  0  0
   -8.1895    0.3884    0.2422 H   0  0  0  0  0  0  0  0  0  0  0  0
   -6.1180    1.4025    2.2510 H   0  0  0  0  0  0  0  0  0  0  0  0
   -7.7040    0.7546    2.6839 H   0  0  0  0  0  0  0  0  0  0  0  0
   -6.0058   -1.0154    2.9848 H   0  0  0  0  0  0  0  0  0  0  0  0
   -7.0895   -1.4502    1.6699 H   0  0  0  0  0  0  0  0  0  0  0  0
   -4.3304   -1.3626   -1.1081 H   0  0  0  0  0  0  0  0  0  0  0  0
   -2.5566   -1.6211   -2.7973 H   0  0  0  0  0  0  0  0  0  0  0  0
   -0.2199   -1.0914   -2.2452 H   0  0  0  0  0  0  0  0  0  0  0  0
    1.3625   -0.3763   -0.7390 H   0  0  0  0  0  0  0  0  0  0  0  0
    3.3037   -0.2433    1.8026 H   0  0  0  0  0  0  0  0  0  0  0  0
    3.0392    1.4652    1.2695 H   0  0  0  0  0  0  0  0  0  0  0  0
    4.2668   -0.4825   -2.5109 H   0  0  0  0  0  0  0  0  0  0  0  0
    6.6243   -0.3337   -3.2043 H   0  0  0  0  0  0  0  0  0  0  0  0
    7.6658    1.0664    0.7643 H   0  0  0  0  0  0  0  0  0  0  0  0
    5.3312    0.9146    1.4365 H   0  0  0  0  0  0  0  0  0  0  0  0
   -1.4185   -0.0180    1.7647 H   0  0  0  0  0  0  0  0  0  0  0  0
  1  2  1  0
  2  3  1  0
  3  4  1  0
  4  5  1  0
  5  6  2  0
  5  7  1  0
  7  8  2  0
  8  9  1  0
  9 10  2  0
 10 11  1  0
 11 12  1  0
 12 13  1  0
 13 14  2  0
 13 15  1  0
 15 16  1  0
 16 17  1  0
 17 18  2  0
 18 19  1  0
 19 20  2  0
 20 21  1  0
 21 22  2  0
 21 23  1  0
 20 24  1  0
 24 25  2  0
 11 26  2  0
 26  7  1  0
 25 17  1  0
  1 27  1  0
  1 28  1  0
  1 29  1  0
  2 30  1  0
  2 31  1  0
  3 32  1  0
  3 33  1  0
  8 34  1  0
  9 35  1  0
 10 36  1  0
 12 37  1  0
 15 38  1  0
 15 39  1  0
 18 40  1  0
 19 41  1  0
 24 42  1  0
 25 43  1  0
 26 44  1  0
M  CHG  2  21   1  23  -1
M  END
$$$$
