
     RDKit          3D

 41 42  0  0  0  0  0  0  0  0999 V2000
   -4.7422   -1.8471    0.9147 C   0  0  0  0  0  0  0  0  0  0  0  0
   -4.2576   -1.4575   -0.4734 C   0  0  0  0  0  0  0  0  0  0  0  0
   -3.6480   -0.1208   -0.4734 N   0  0  0  0  0  0  0  0  0  0  0  0
   -4.5625    1.0153   -0.6597 C   0  0  0  0  0  0  0  0  0  0  0  0
   -4.7345    1.8181    0.6230 C   0  0  0  0  0  0  0  0  0  0  0  0
   -2.2739    0.0512   -0.3388 C   0  0  0  0  0  0  0  0  0  0  0  0
   -1.6346    1.2641   -0.6450 C   0  0  0  0  0  0  0  0  0  0  0  0
   -0.2473    1.4434   -0.5151 C   0  0  0  0  0  0  0  0  0  0  0  0
    0.5672    0.4011   -0.0768 C   0  0  0  0  0  0  0  0  0  0  0  0
    2.0181    0.5446    0.1035 C   0  0  0  0  0  0  0  0  0  0  0  0
    2.7997    1.2765   -0.7055 C   0  0  0  0  0  0  0  0  0  0  0  0
    4.2626    1.4545   -0.5146 C   0  0  0  0  0  0  0  0  0  0  0  0
    4.7877    2.5124   -0.8486 O   0  0  0  0  0  0  0  0  0  0  0  0
    5.0884    0.3737    0.0585 C   0  0  0  0  0  0  0  0  0  0  0  0
    4.8634   -0.9804   -0.1993 C   0  0  0  0  0  0  0  0  0  0  0  0
    5.7080   -1.9317    0.3702 C   0  0  0  0  0  0  0  0  0  0  0  0
    6.7535   -1.4930    1.1682 C   0  0  0  0  0  0  0  0  0  0  0  0
    7.0082   -0.1909    1.4215 N   0  0  0  0  0  0  0  0  0  0  0  0
    6.1773    0.7161    0.8495 C   0  0  0  0  0  0  0  0  0  0  0  0
   -0.0420   -0.8076    0.2549 C   0  0  0  0  0  0  0  0  0  0  0  0
   -1.4300   -0.9743    0.1187 C   0  0  0  0  0  0  0  0  0  0  0  0
   -5.1495   -2.8629    0.9004 H   0  0  0  0  0  0  0  0  0  0  0  0
   -3.9339   -1.8141    1.6514 H   0  0  0  0  0  0  0  0  0  0  0  0
   -5.5346   -1.1748    1.2580 H   0  0  0  0  0  0  0  0  0  0  0  0
   -3.5724   -2.2166   -0.8683 H   0  0  0  0  0  0  0  0  0  0  0  0
   -5.1120   -1.4755   -1.1618 H   0  0  0  0  0  0  0  0  0  0  0  0
   -4.2339    1.6583   -1.4837 H   0  0  0  0  0  0  0  0  0  0  0  0
   -5.5540    0.6551   -0.9616 H   0  0  0  0  0  0  0  0  0  0  0  0
   -5.4547    2.6273    0.4653 H   0  0  0  0  0  0  0  0  0  0  0  0
   -5.1065    1.1889    1.4373 H   0  0  0  0  0  0  0  0  0  0  0  0
   -3.7944    2.2679    0.9552 H   0  0  0  0  0  0  0  0  0  0  0  0
   -2.2009    2.1176   -1.0045 H   0  0  0  0  0  0  0  0  0  0  0  0
    0.1709    2.4180   -0.7547 H   0  0  0  0  0  0  0  0  0  0  0  0
    2.4313    0.0096    0.9551 H   0  0  0  0  0  0  0  0  0  0  0  0
    2.3949    1.8547   -1.5304 H   0  0  0  0  0  0  0  0  0  0  0  0
    4.0555   -1.3045   -0.8490 H   0  0  0  0  0  0  0  0  0  0  0  0
    5.5606   -2.9910    0.1891 H   0  0  0  0  0  0  0  0  0  0  0  0
    7.4383   -2.1973    1.6330 H   0  0  0  0  0  0  0  0  0  0  0  0
    6.4196    1.7557    1.0576 H   0  0  0  0  0  0  0  0  0  0  0  0
    0.5479   -1.6441    0.6223 H   0  0  0  0  0  0  0  0  0  0  0  0
   -1.8338   -1.9397    0.4080 H   0  0  0  0  0  0  0  0  0  0  0  0
  1  2  1  0
  2  3  1  0
  3  4  1  0
  4  5  1  0
  3  6  1  0
  6  7  2  0
  7  8  1  0
  8  9  2  0
  9 10  1  0
 10 11  2  3
 11 12  1  0
 12 13  2  0
 12 14  1  0
 14 15  2  0
 15 16  1  0
 16 17  2  0
 17 18  1  0
 18 19  2  0
  9 20  1  0
 20 21  2  0
 21  6  1  0
 19 14  1  0
  1 22  1  0
  1 23  1  0
  1 24  1  0
  2 25  1  0
  2 26  1  0
  4 27  1  0
  4 28  1  0
  5 29  1  0
  5 30  1  0
  5 31  1  0
  7 32  1  0
  8 33  1  0
 10 34  1  0
 11 35  1  0
 15 36  1  0
 16 37  1  0
 17 38  1  0
 19 39  1  0
 20 40  1  0
 21 41  1  0
M  END
$$$$
