
     RDKit          3D

 46 48  0  0  0  0  0  0  0  0999 V2000
    6.5534   -2.2061    2.6648 C   0  0  0  0  0  0  0  0  0  0  0  0
    6.0888   -2.7450    1.3250 C   0  0  0  0  0  0  0  0  0  0  0  0
    5.3007   -1.7584    0.6421 O   0  0  0  0  0  0  0  0  0  0  0  0
    5.9943   -0.8730   -0.1166 C   0  0  0  0  0  0  0  0  0  0  0  0
    7.2063   -0.8455   -0.2583 O   0  0  0  0  0  0  0  0  0  0  0  0
    5.0688    0.0904   -0.7728 C   0  0  0  0  0  0  0  0  0  0  0  0
    5.6182    1.0602   -1.6180 C   0  0  0  0  0  0  0  0  0  0  0  0
    4.7879    1.9808   -2.2541 C   0  0  0  0  0  0  0  0  0  0  0  0
    3.4059    1.9405   -2.0488 C   0  0  0  0  0  0  0  0  0  0  0  0
    2.8404    0.9830   -1.2048 C   0  0  0  0  0  0  0  0  0  0  0  0
    1.4559    0.8755   -0.9508 N   0  0  0  0  0  0  0  0  0  0  0  0
    0.4527    1.7158   -1.4006 C   0  0  0  0  0  0  0  0  0  0  0  0
    0.5924    2.7472   -2.0466 O   0  0  0  0  0  0  0  0  0  0  0  0
   -0.9282    1.3181   -1.0024 C   0  0  0  0  0  0  0  0  0  0  0  0
   -1.8681    2.3230   -0.7558 C   0  0  0  0  0  0  0  0  0  0  0  0
   -3.1736    1.9894   -0.3806 C   0  0  0  0  0  0  0  0  0  0  0  0
   -3.5622    0.6492   -0.2524 C   0  0  0  0  0  0  0  0  0  0  0  0
   -4.8977    0.4041    0.1311 N   0  0  0  0  0  0  0  0  0  0  0  0
   -5.5037   -0.8226    0.3766 C   0  0  0  0  0  0  0  0  0  0  0  0
   -4.9180   -1.9000    0.3200 O   0  0  0  0  0  0  0  0  0  0  0  0
   -6.9168   -0.7266    0.7268 C   0  0  0  0  0  0  0  0  0  0  0  0
   -7.8218    0.3220    0.7954 C   0  0  0  0  0  0  0  0  0  0  0  0
   -9.0648   -0.2269    1.2004 C   0  0  0  0  0  0  0  0  0  0  0  0
   -8.8536   -1.5741    1.3545 C   0  0  0  0  0  0  0  0  0  0  0  0
   -7.5658   -1.8863    1.0711 O   0  0  0  0  0  0  0  0  0  0  0  0
   -2.6246   -0.3505   -0.5217 C   0  0  0  0  0  0  0  0  0  0  0  0
   -1.3158   -0.0217   -0.9001 C   0  0  0  0  0  0  0  0  0  0  0  0
    3.6799    0.0562   -0.5708 C   0  0  0  0  0  0  0  0  0  0  0  0
    7.1064   -2.9697    3.2190 H   0  0  0  0  0  0  0  0  0  0  0  0
    5.6977   -1.8829    3.2666 H   0  0  0  0  0  0  0  0  0  0  0  0
    7.1994   -1.3323    2.5347 H   0  0  0  0  0  0  0  0  0  0  0  0
    5.4442   -3.6159    1.4816 H   0  0  0  0  0  0  0  0  0  0  0  0
    6.9337   -3.0771    0.7108 H   0  0  0  0  0  0  0  0  0  0  0  0
    6.6929    1.1020   -1.7859 H   0  0  0  0  0  0  0  0  0  0  0  0
    5.2134    2.7335   -2.9141 H   0  0  0  0  0  0  0  0  0  0  0  0
    2.7964    2.6731   -2.5697 H   0  0  0  0  0  0  0  0  0  0  0  0
    1.1833    0.1371   -0.3150 H   0  0  0  0  0  0  0  0  0  0  0  0
   -1.5857    3.3698   -0.8542 H   0  0  0  0  0  0  0  0  0  0  0  0
   -3.8767    2.7972   -0.1925 H   0  0  0  0  0  0  0  0  0  0  0  0
   -5.4683    1.2255    0.2655 H   0  0  0  0  0  0  0  0  0  0  0  0
   -7.6292    1.3622    0.5771 H   0  0  0  0  0  0  0  0  0  0  0  0
   -9.9994    0.2935    1.3571 H   0  0  0  0  0  0  0  0  0  0  0  0
   -9.4825   -2.4053    1.6428 H   0  0  0  0  0  0  0  0  0  0  0  0
   -2.8797   -1.4047   -0.4642 H   0  0  0  0  0  0  0  0  0  0  0  0
   -0.6289   -0.8290   -1.1400 H   0  0  0  0  0  0  0  0  0  0  0  0
    3.2521   -0.6958    0.0866 H   0  0  0  0  0  0  0  0  0  0  0  0
  1  2  1  0
  2  3  1  0
  3  4  1  0
  4  5  2  0
  4  6  1  0
  6  7  2  0
  7  8  1  0
  8  9  2  0
  9 10  1  0
 10 11  1  0
 11 12  1  0
 12 13  2  0
 12 14  1  0
 14 15  2  0
 15 16  1  0
 16 17  2  0
 17 18  1  0
 18 19  1  0
 19 20  2  0
 19 21  1  0
 21 22  2  0
 22 23  1  0
 23 24  2  0
 24 25  1  0
 17 26  1  0
 26 27  2  0
 10 28  2  0
 28  6  1  0
 27 14  1  0
 25 21  1  0
  1 29  1  0
  1 30  1  0
  1 31  1  0
  2 32  1  0
  2 33  1  0
  7 34  1  0
  8 35  1  0
  9 36  1  0
 11 37  1  0
 15 38  1  0
 16 39  1  0
 18 40  1  0
 22 41  1  0
 23 42  1  0
 24 43  1  0
 26 44  1  0
 27 45  1  0
 28 46  1  0
M  END
$$$$
