
     RDKit          3D

 69 74  0  0  0  0  0  0  0  0999 V2000
    7.3851   -1.3973   -1.5685 C   0  0  0  0  0  0  0  0  0  0  0  0
    6.8965   -1.4540   -0.2363 O   0  0  0  0  0  0  0  0  0  0  0  0
    5.5458   -1.3026   -0.0460 C   0  0  0  0  0  0  0  0  0  0  0  0
    4.6298   -1.0138   -1.0625 C   0  0  0  0  0  0  0  0  0  0  0  0
    3.2612   -0.8804   -0.7792 C   0  0  0  0  0  0  0  0  0  0  0  0
    2.8025   -1.0193    0.5431 C   0  0  0  0  0  0  0  0  0  0  0  0
    3.7239   -1.3115    1.5612 C   0  0  0  0  0  0  0  0  0  0  0  0
    5.0890   -1.4370    1.2782 C   0  0  0  0  0  0  0  0  0  0  0  0
    6.0370   -1.7313    2.2279 O   0  0  0  0  0  0  0  0  0  0  0  0
    5.7259   -1.3737    3.5678 C   0  0  0  0  0  0  0  0  0  0  0  0
    1.3236   -0.9310    0.8772 C   0  0  0  0  0  0  0  0  0  0  0  0
    0.5946   -0.1982   -0.1714 N   0  0  0  0  0  0  0  0  0  0  0  0
   -0.7754   -0.1809    0.1535 C   0  0  0  0  0  0  0  0  0  0  0  0
   -1.5599   -1.2262   -0.1954 N   0  0  0  0  0  0  0  0  0  0  0  0
   -2.8708   -1.2200    0.1225 C   0  0  0  0  0  0  0  0  0  0  0  0
   -3.7078   -2.4094   -0.3382 C   0  0  0  0  0  0  0  0  0  0  0  0
   -4.2221   -2.3164   -1.7257 N   0  0  0  0  0  0  0  0  0  0  0  0
   -4.8994   -3.5632   -2.1375 C   0  0  0  0  0  0  0  0  0  0  0  0
   -6.4317   -3.4891   -2.0479 C   0  0  0  0  0  0  0  0  0  0  0  0
   -6.9936   -2.4502   -2.8595 O   0  0  0  0  0  0  0  0  0  0  0  0
   -6.0995   -1.3447   -3.0574 C   0  0  0  0  0  0  0  0  0  0  0  0
   -5.1259   -1.1537   -1.8846 C   0  0  0  0  0  0  0  0  0  0  0  0
   -3.5121   -0.2516    0.7915 N   0  0  0  0  0  0  0  0  0  0  0  0
   -2.7153    0.7778    1.1152 C   0  0  0  0  0  0  0  0  0  0  0  0
   -3.3547    2.1215    1.9450 S   0  0  0  0  0  0  0  0  0  0  0  0
   -1.8545    2.9188    1.9278 C   0  0  0  0  0  0  0  0  0  0  0  0
   -0.8586    2.1686    1.3283 C   0  0  0  0  0  0  0  0  0  0  0  0
   -1.3622    0.9019    0.8429 C   0  0  0  0  0  0  0  0  0  0  0  0
    0.5399    2.6974    1.1742 C   0  0  0  0  0  0  0  0  0  0  0  0
    0.7890    3.9447    2.0383 C   0  0  0  0  0  0  0  0  0  0  0  0
   -0.3820    4.9498    2.0214 C   0  0  0  0  0  0  0  0  0  0  0  0
   -0.5699    5.5769    0.6361 C   0  0  0  0  0  0  0  0  0  0  0  0
   -1.6796    4.2822    2.5271 C   0  0  0  0  0  0  0  0  0  0  0  0
    0.8370   -0.7776   -1.5018 C   0  0  0  0  0  0  0  0  0  0  0  0
    2.2973   -0.5177   -1.8875 C   0  0  0  0  0  0  0  0  0  0  0  0
    7.2333   -0.4032   -2.0018 H   0  0  0  0  0  0  0  0  0  0  0  0
    6.9314   -2.1744   -2.1930 H   0  0  0  0  0  0  0  0  0  0  0  0
    8.4624   -1.5844   -1.5371 H   0  0  0  0  0  0  0  0  0  0  0  0
    4.9551   -0.8821   -2.0894 H   0  0  0  0  0  0  0  0  0  0  0  0
    3.3520   -1.4532    2.5712 H   0  0  0  0  0  0  0  0  0  0  0  0
    6.6478   -1.4384    4.1540 H   0  0  0  0  0  0  0  0  0  0  0  0
    5.3593   -0.3434    3.6366 H   0  0  0  0  0  0  0  0  0  0  0  0
    5.0075   -2.0763    4.0009 H   0  0  0  0  0  0  0  0  0  0  0  0
    1.2103   -0.4150    1.8394 H   0  0  0  0  0  0  0  0  0  0  0  0
    0.9403   -1.9555    0.9879 H   0  0  0  0  0  0  0  0  0  0  0  0
   -4.5321   -2.5588    0.3719 H   0  0  0  0  0  0  0  0  0  0  0  0
   -3.0614   -3.2932   -0.2573 H   0  0  0  0  0  0  0  0  0  0  0  0
   -4.5303   -4.4305   -1.5775 H   0  0  0  0  0  0  0  0  0  0  0  0
   -4.6269   -3.7397   -3.1860 H   0  0  0  0  0  0  0  0  0  0  0  0
   -6.8729   -4.4349   -2.3780 H   0  0  0  0  0  0  0  0  0  0  0  0
   -6.7539   -3.3248   -1.0132 H   0  0  0  0  0  0  0  0  0  0  0  0
   -6.7133   -0.4476   -3.1870 H   0  0  0  0  0  0  0  0  0  0  0  0
   -5.5563   -1.5060   -3.9966 H   0  0  0  0  0  0  0  0  0  0  0  0
   -4.5284   -0.2514   -2.0557 H   0  0  0  0  0  0  0  0  0  0  0  0
   -5.7232   -1.0026   -0.9756 H   0  0  0  0  0  0  0  0  0  0  0  0
    1.2738    1.9367    1.4551 H   0  0  0  0  0  0  0  0  0  0  0  0
    0.7088    2.9412    0.1186 H   0  0  0  0  0  0  0  0  0  0  0  0
    0.9540    3.6270    3.0766 H   0  0  0  0  0  0  0  0  0  0  0  0
    1.7161    4.4331    1.7148 H   0  0  0  0  0  0  0  0  0  0  0  0
   -0.1352    5.7674    2.7120 H   0  0  0  0  0  0  0  0  0  0  0  0
   -1.3405    6.3536    0.6685 H   0  0  0  0  0  0  0  0  0  0  0  0
   -0.8738    4.8407   -0.1129 H   0  0  0  0  0  0  0  0  0  0  0  0
    0.3631    6.0425    0.2982 H   0  0  0  0  0  0  0  0  0  0  0  0
   -1.6162    4.1676    3.6170 H   0  0  0  0  0  0  0  0  0  0  0  0
   -2.5442    4.9225    2.3177 H   0  0  0  0  0  0  0  0  0  0  0  0
    0.1900   -0.3118   -2.2568 H   0  0  0  0  0  0  0  0  0  0  0  0
    0.6376   -1.8587   -1.5078 H   0  0  0  0  0  0  0  0  0  0  0  0
    2.5337   -1.0843   -2.7957 H   0  0  0  0  0  0  0  0  0  0  0  0
    2.4289    0.5491   -2.1075 H   0  0  0  0  0  0  0  0  0  0  0  0
  1  2  1  0
  2  3  1  0
  3  4  2  0
  4  5  1  0
  5  6  2  0
  6  7  1  0
  7  8  2  0
  8  9  1  0
  9 10  1  0
  6 11  1  0
 11 12  1  0
 12 13  1  0
 13 14  2  0
 14 15  1  0
 15 16  1  0
 16 17  1  0
 17 18  1  0
 18 19  1  0
 19 20  1  0
 20 21  1  0
 21 22  1  0
 15 23  2  0
 23 24  1  0
 24 25  1  0
 25 26  1  0
 26 27  2  0
 27 28  1  0
 27 29  1  0
 29 30  1  0
 30 31  1  0
 31 32  1  0
 31 33  1  0
 12 34  1  0
 34 35  1  0
  8  3  1  0
 28 13  1  0
 35  5  1  0
 22 17  1  0
 28 24  2  0
 33 26  1  0
  1 36  1  0
  1 37  1  0
  1 38  1  0
  4 39  1  0
  7 40  1  0
 10 41  1  0
 10 42  1  0
 10 43  1  0
 11 44  1  0
 11 45  1  0
 16 46  1  0
 16 47  1  0
 18 48  1  0
 18 49  1  0
 19 50  1  0
 19 51  1  0
 21 52  1  0
 21 53  1  0
 22 54  1  0
 22 55  1  0
 29 56  1  0
 29 57  1  0
 30 58  1  0
 30 59  1  0
 31 60  1  0
 32 61  1  0
 32 62  1  0
 32 63  1  0
 33 64  1  0
 33 65  1  0
 34 66  1  0
 34 67  1  0
 35 68  1  0
 35 69  1  0
M  END
$$$$
