
     RDKit          3D

 39 40  0  0  0  0  0  0  0  0999 V2000
    6.7053    0.6199    0.9617 C   0  0  0  0  0  0  0  0  0  0  0  0
    5.1981    0.5986    0.7510 C   0  0  0  0  0  0  0  0  0  0  0  0
    4.7895    0.0186   -0.6122 C   0  0  0  0  0  0  0  0  0  0  0  0
    5.2007    0.9058   -1.7867 C   0  0  0  0  0  0  0  0  0  0  0  0
    3.2853   -0.2696   -0.6495 C   0  0  0  0  0  0  0  0  0  0  0  0
    2.8895   -1.4251   -0.7709 O   0  0  0  0  0  0  0  0  0  0  0  0
    2.5030    0.8553   -0.5314 N   0  0  0  0  0  0  0  0  0  0  0  0
    1.1319    0.9128   -0.5327 C   0  0  0  0  0  0  0  0  0  0  0  0
    0.4853    2.0508   -0.4059 N   0  0  0  0  0  0  0  0  0  0  0  0
   -0.8841    1.8799   -0.4346 N   0  0  0  0  0  0  0  0  0  0  0  0
   -1.2174    0.6144   -0.5831 C   0  0  0  0  0  0  0  0  0  0  0  0
   -2.6192    0.1061   -0.6455 C   0  0  0  0  0  0  0  0  0  0  0  0
   -3.2011   -0.0682    0.7580 C   0  0  0  0  0  0  0  0  0  0  0  0
   -4.6194   -0.5800    0.7099 C   0  0  0  0  0  0  0  0  0  0  0  0
   -4.8785   -1.9571    0.7114 C   0  0  0  0  0  0  0  0  0  0  0  0
   -6.1903   -2.4288    0.6445 C   0  0  0  0  0  0  0  0  0  0  0  0
   -7.2529   -1.5300    0.5715 C   0  0  0  0  0  0  0  0  0  0  0  0
   -7.0051   -0.1586    0.5645 C   0  0  0  0  0  0  0  0  0  0  0  0
   -5.6943    0.3156    0.6314 C   0  0  0  0  0  0  0  0  0  0  0  0
    0.1249   -0.4500   -0.6961 S   0  0  0  0  0  0  0  0  0  0  0  0
    7.1325   -0.3813    0.8467 H   0  0  0  0  0  0  0  0  0  0  0  0
    6.9381    0.9727    1.9716 H   0  0  0  0  0  0  0  0  0  0  0  0
    7.1994    1.2912    0.2532 H   0  0  0  0  0  0  0  0  0  0  0  0
    4.8095    1.6170    0.8705 H   0  0  0  0  0  0  0  0  0  0  0  0
    4.7437   -0.0006    1.5501 H   0  0  0  0  0  0  0  0  0  0  0  0
    5.2871   -0.9527   -0.7392 H   0  0  0  0  0  0  0  0  0  0  0  0
    6.2888    0.9232   -1.9031 H   0  0  0  0  0  0  0  0  0  0  0  0
    4.8609    1.9385   -1.6550 H   0  0  0  0  0  0  0  0  0  0  0  0
    4.7727    0.5338   -2.7241 H   0  0  0  0  0  0  0  0  0  0  0  0
    2.9346    1.7626   -0.4280 H   0  0  0  0  0  0  0  0  0  0  0  0
   -2.6626   -0.8409   -1.1982 H   0  0  0  0  0  0  0  0  0  0  0  0
   -3.2257    0.8205   -1.2170 H   0  0  0  0  0  0  0  0  0  0  0  0
   -3.1761    0.8837    1.3051 H   0  0  0  0  0  0  0  0  0  0  0  0
   -2.5853   -0.7609    1.3470 H   0  0  0  0  0  0  0  0  0  0  0  0
   -4.0605   -2.6722    0.7661 H   0  0  0  0  0  0  0  0  0  0  0  0
   -6.3835   -3.4984    0.6492 H   0  0  0  0  0  0  0  0  0  0  0  0
   -8.2741   -1.8982    0.5200 H   0  0  0  0  0  0  0  0  0  0  0  0
   -7.8336    0.5427    0.5068 H   0  0  0  0  0  0  0  0  0  0  0  0
   -5.5172    1.3891    0.6229 H   0  0  0  0  0  0  0  0  0  0  0  0
  1  2  1  0
  2  3  1  0
  3  4  1  0
  3  5  1  0
  5  6  2  0
  5  7  1  0
  7  8  1  0
  8  9  2  0
  9 10  1  0
 10 11  2  0
 11 12  1  0
 12 13  1  0
 13 14  1  0
 14 15  2  0
 15 16  1  0
 16 17  2  0
 17 18  1  0
 18 19  2  0
 11 20  1  0
 20  8  1  0
 19 14  1  0
  1 21  1  0
  1 22  1  0
  1 23  1  0
  2 24  1  0
  2 25  1  0
  3 26  1  0
  4 27  1  0
  4 28  1  0
  4 29  1  0
  7 30  1  0
 12 31  1  0
 12 32  1  0
 13 33  1  0
 13 34  1  0
 15 35  1  0
 16 36  1  0
 17 37  1  0
 18 38  1  0
 19 39  1  0
M  END
$$$$
