
     RDKit          3D

 62 65  0  0  0  0  0  0  0  0999 V2000
   -2.1511   -0.4387   -2.5992 C   0  0  0  0  0  0  0  0  0  0  0  0
   -2.3194    0.8501   -1.8081 C   0  0  0  0  0  0  0  0  0  0  0  0
   -2.9637    0.5940   -0.5279 N   0  0  0  0  0  0  0  0  0  0  0  0
   -2.4095    0.5520    0.7610 C   0  0  0  0  0  0  0  0  0  0  0  0
   -1.1393    0.4053    1.1919 C   0  0  0  0  0  0  0  0  0  0  0  0
    0.0552    0.1482    0.4153 C   0  0  0  0  0  0  0  0  0  0  0  0
    1.2803    0.1568    0.9591 C   0  0  0  0  0  0  0  0  0  0  0  0
    2.5509   -0.1366    0.2430 C   0  0  0  0  0  0  0  0  0  0  0  0
    3.7310   -0.0327    0.7903 N   0  0  0  0  0  4  0  0  0  0  0  0
    4.1192    0.4356    2.1379 C   0  0  0  0  0  0  0  0  0  0  0  0
    4.1989   -0.7415    3.0914 C   0  0  0  0  0  0  0  0  0  0  0  0
    4.7700   -0.4487   -0.1676 C   0  0  0  0  0  0  0  0  0  0  0  0
    6.1413   -0.5205    0.0117 C   0  0  0  0  0  0  0  0  0  0  0  0
    6.9143   -0.9607   -1.0658 C   0  0  0  0  0  0  0  0  0  0  0  0
    6.3095   -1.3177   -2.2811 C   0  0  0  0  0  0  0  0  0  0  0  0
    4.9240   -1.2429   -2.4384 C   0  0  0  0  0  0  0  0  0  0  0  0
    4.1637   -0.8050   -1.3638 C   0  0  0  0  0  0  0  0  0  0  0  0
    2.6691   -0.6284   -1.2370 C   0  0  0  0  0  0  0  0  0  0  0  0
    2.2047    0.4344   -2.2390 C   0  0  0  0  0  0  0  0  0  0  0  0
    1.9742   -1.9766   -1.4523 C   0  0  0  0  0  0  0  0  0  0  0  0
   -3.5822    0.6810    1.8009 C   0  0  0  0  0  0  0  0  0  0  0  0
   -3.4705    1.9760    2.6193 C   0  0  0  0  0  0  0  0  0  0  0  0
   -3.6749   -0.5462    2.7208 C   0  0  0  0  0  0  0  0  0  0  0  0
   -4.7919    0.7419    0.8880 C   0  0  0  0  0  0  0  0  0  0  0  0
   -6.1366    0.8422    1.2260 C   0  0  0  0  0  0  0  0  0  0  0  0
   -7.0756    0.8952    0.1978 C   0  0  0  0  0  0  0  0  0  0  0  0
   -6.6631    0.8481   -1.1398 C   0  0  0  0  0  0  0  0  0  0  0  0
   -5.3056    0.7490   -1.4670 C   0  0  0  0  0  0  0  0  0  0  0  0
   -4.3654    0.6976   -0.4486 C   0  0  0  0  0  0  0  0  0  0  0  0
   -3.1199   -0.8774   -2.8581 H   0  0  0  0  0  0  0  0  0  0  0  0
   -1.6099   -0.2432   -3.5300 H   0  0  0  0  0  0  0  0  0  0  0  0
   -1.5940   -1.1899   -2.0317 H   0  0  0  0  0  0  0  0  0  0  0  0
   -1.3449    1.3269   -1.6621 H   0  0  0  0  0  0  0  0  0  0  0  0
   -2.8843    1.5779   -2.4037 H   0  0  0  0  0  0  0  0  0  0  0  0
   -0.9829    0.4370    2.2703 H   0  0  0  0  0  0  0  0  0  0  0  0
   -0.1035   -0.0937   -0.6229 H   0  0  0  0  0  0  0  0  0  0  0  0
    1.3619    0.3876    2.0187 H   0  0  0  0  0  0  0  0  0  0  0  0
    5.0720    0.9705    2.0742 H   0  0  0  0  0  0  0  0  0  0  0  0
    3.3769    1.1625    2.4819 H   0  0  0  0  0  0  0  0  0  0  0  0
    3.2373   -1.2602    3.1702 H   0  0  0  0  0  0  0  0  0  0  0  0
    4.4761   -0.3953    4.0920 H   0  0  0  0  0  0  0  0  0  0  0  0
    4.9474   -1.4738    2.7706 H   0  0  0  0  0  0  0  0  0  0  0  0
    6.6347   -0.2581    0.9411 H   0  0  0  0  0  0  0  0  0  0  0  0
    7.9974   -1.0317   -0.9684 H   0  0  0  0  0  0  0  0  0  0  0  0
    6.9298   -1.6593   -3.1100 H   0  0  0  0  0  0  0  0  0  0  0  0
    4.4686   -1.5255   -3.3847 H   0  0  0  0  0  0  0  0  0  0  0  0
    1.1213    0.5725   -2.2291 H   0  0  0  0  0  0  0  0  0  0  0  0
    2.6553    1.4105   -2.0223 H   0  0  0  0  0  0  0  0  0  0  0  0
    2.4789    0.1660   -3.2659 H   0  0  0  0  0  0  0  0  0  0  0  0
    0.8856   -1.8950   -1.3990 H   0  0  0  0  0  0  0  0  0  0  0  0
    2.2796   -2.7076   -0.6937 H   0  0  0  0  0  0  0  0  0  0  0  0
    2.2142   -2.4010   -2.4341 H   0  0  0  0  0  0  0  0  0  0  0  0
   -4.3459    2.1180    3.2638 H   0  0  0  0  0  0  0  0  0  0  0  0
   -3.3971    2.8576    1.9709 H   0  0  0  0  0  0  0  0  0  0  0  0
   -2.5874    1.9666    3.2677 H   0  0  0  0  0  0  0  0  0  0  0  0
   -2.8022   -0.6251    3.3784 H   0  0  0  0  0  0  0  0  0  0  0  0
   -3.7424   -1.4768    2.1445 H   0  0  0  0  0  0  0  0  0  0  0  0
   -4.5608   -0.4970    3.3647 H   0  0  0  0  0  0  0  0  0  0  0  0
   -6.4568    0.8809    2.2621 H   0  0  0  0  0  0  0  0  0  0  0  0
   -8.1345    0.9729    0.4333 H   0  0  0  0  0  0  0  0  0  0  0  0
   -7.4073    0.8869   -1.9321 H   0  0  0  0  0  0  0  0  0  0  0  0
   -5.0209    0.7052   -2.5116 H   0  0  0  0  0  0  0  0  0  0  0  0
  1  2  1  0
  2  3  1  0
  3  4  1  0
  4  5  2  3
  5  6  1  0
  6  7  2  3
  7  8  1  0
  8  9  2  0
  9 10  1  0
 10 11  1  0
  9 12  1  0
 12 13  2  0
 13 14  1  0
 14 15  2  0
 15 16  1  0
 16 17  2  0
 17 18  1  0
 18 19  1  0
 18 20  1  0
  4 21  1  0
 21 22  1  0
 21 23  1  0
 21 24  1  0
 24 25  2  0
 25 26  1  0
 26 27  2  0
 27 28  1  0
 28 29  2  0
 29  3  1  0
 18  8  1  0
 29 24  1  0
 17 12  1  0
  1 30  1  0
  1 31  1  0
  1 32  1  0
  2 33  1  0
  2 34  1  0
  5 35  1  0
  6 36  1  0
  7 37  1  0
 10 38  1  0
 10 39  1  0
 11 40  1  0
 11 41  1  0
 11 42  1  0
 13 43  1  0
 14 44  1  0
 15 45  1  0
 16 46  1  0
 19 47  1  0
 19 48  1  0
 19 49  1  0
 20 50  1  0
 20 51  1  0
 20 52  1  0
 22 53  1  0
 22 54  1  0
 22 55  1  0
 23 56  1  0
 23 57  1  0
 23 58  1  0
 25 59  1  0
 26 60  1  0
 27 61  1  0
 28 62  1  0
M  CHG  1   9   1
M  END
$$$$
