
     RDKit          3D

 37 39  0  0  0  0  0  0  0  0999 V2000
   -3.5305   -1.6206    1.2497 C   0  0  0  0  0  0  0  0  0  0  0  0
   -4.3721   -0.4310    0.8774 C   0  0  0  0  0  0  0  0  0  0  0  0
   -5.7552   -0.4601    1.1120 C   0  0  0  0  0  0  0  0  0  0  0  0
   -6.5538    0.6309    0.7748 C   0  0  0  0  0  0  0  0  0  0  0  0
   -5.9779    1.7598    0.2006 C   0  0  0  0  0  0  0  0  0  0  0  0
   -4.6020    1.8022   -0.0386 C   0  0  0  0  0  0  0  0  0  0  0  0
   -3.7923    0.7122    0.2964 C   0  0  0  0  0  0  0  0  0  0  0  0
   -2.4371    0.6540    0.1035 O   0  0  0  0  0  0  0  0  0  0  0  0
   -1.8074    1.7901   -0.4824 C   0  0  0  0  0  0  0  0  0  0  0  0
   -0.2996    1.5613   -0.6270 C   0  0  0  0  0  0  0  0  0  0  0  0
    0.4160    2.4323   -1.1136 O   0  0  0  0  0  0  0  0  0  0  0  0
    0.0977    0.3283   -0.1648 N   0  0  0  0  0  0  0  0  0  0  0  0
    1.3643   -0.1911   -0.1467 C   0  0  0  0  0  0  0  0  0  0  0  0
    1.6235   -1.3894    0.3230 N   0  0  0  0  0  0  0  0  0  0  0  0
    2.9654   -1.6986    0.2393 N   0  0  0  0  0  0  0  0  0  0  0  0
    3.6822   -0.7231   -0.2921 C   0  0  0  0  0  0  0  0  0  0  0  0
    5.1395   -0.7817   -0.5012 C   0  0  0  0  0  0  0  0  0  0  0  0
    5.8311   -1.9389   -0.1186 C   0  0  0  0  0  0  0  0  0  0  0  0
    7.2011   -2.0032   -0.3113 C   0  0  0  0  0  0  0  0  0  0  0  0
    7.9262   -1.0052   -0.8536 N   0  0  0  0  0  0  0  0  0  0  0  0
    7.2522    0.1035   -1.2183 C   0  0  0  0  0  0  0  0  0  0  0  0
    5.8828    0.2614   -1.0657 C   0  0  0  0  0  0  0  0  0  0  0  0
    2.7275    0.6446   -0.7222 S   0  0  0  0  0  0  0  0  0  0  0  0
   -4.1357   -2.4209    1.6884 H   0  0  0  0  0  0  0  0  0  0  0  0
   -2.7745   -1.3335    1.9878 H   0  0  0  0  0  0  0  0  0  0  0  0
   -3.0357   -2.0273    0.3617 H   0  0  0  0  0  0  0  0  0  0  0  0
   -6.2193   -1.3360    1.5603 H   0  0  0  0  0  0  0  0  0  0  0  0
   -7.6244    0.5993    0.9603 H   0  0  0  0  0  0  0  0  0  0  0  0
   -6.6009    2.6111   -0.0625 H   0  0  0  0  0  0  0  0  0  0  0  0
   -4.1994    2.7039   -0.4880 H   0  0  0  0  0  0  0  0  0  0  0  0
   -2.2037    1.9663   -1.4890 H   0  0  0  0  0  0  0  0  0  0  0  0
   -1.9390    2.6693    0.1587 H   0  0  0  0  0  0  0  0  0  0  0  0
   -0.6195   -0.2831    0.2113 H   0  0  0  0  0  0  0  0  0  0  0  0
    5.3137   -2.7849    0.3255 H   0  0  0  0  0  0  0  0  0  0  0  0
    7.7656   -2.8862   -0.0252 H   0  0  0  0  0  0  0  0  0  0  0  0
    7.8606    0.8923   -1.6526 H   0  0  0  0  0  0  0  0  0  0  0  0
    5.4304    1.1921   -1.3901 H   0  0  0  0  0  0  0  0  0  0  0  0
  1  2  1  0
  2  3  2  0
  3  4  1  0
  4  5  2  0
  5  6  1  0
  6  7  2  0
  7  8  1  0
  8  9  1  0
  9 10  1  0
 10 11  2  0
 10 12  1  0
 12 13  1  0
 13 14  2  0
 14 15  1  0
 15 16  2  0
 16 17  1  0
 17 18  2  0
 18 19  1  0
 19 20  2  0
 20 21  1  0
 21 22  2  0
 16 23  1  0
  7  2  1  0
 23 13  1  0
 22 17  1  0
  1 24  1  0
  1 25  1  0
  1 26  1  0
  3 27  1  0
  4 28  1  0
  5 29  1  0
  6 30  1  0
  9 31  1  0
  9 32  1  0
 12 33  1  0
 18 34  1  0
 19 35  1  0
 21 36  1  0
 22 37  1  0
M  END
$$$$
