
     RDKit          3D

 33 34  0  0  0  0  0  0  0  0999 V2000
   -1.4087   -1.3844    1.6040 N   0  0  0  0  0  0  0  0  0  0  0  0
   -1.7911   -0.6538    0.5967 C   0  0  0  0  0  0  0  0  0  0  0  0
   -0.9017   -0.2009   -0.3594 N   0  0  0  0  0  0  0  0  0  0  0  0
    0.4385   -0.4524   -0.0059 O   0  0  0  0  0  0  0  0  0  0  0  0
    1.0829    0.6698    0.4424 C   0  0  0  0  0  0  0  0  0  0  0  0
    0.6268    1.8072    0.3760 O   0  0  0  0  0  0  0  0  0  0  0  0
    2.4387    0.3148    0.9930 C   0  0  0  0  0  0  0  0  0  0  0  0
    3.4876    0.1924   -0.0810 C   0  0  0  0  0  0  0  0  0  0  0  0
    3.8343   -1.0634   -0.5975 C   0  0  0  0  0  0  0  0  0  0  0  0
    4.7919   -1.1715   -1.6070 C   0  0  0  0  0  0  0  0  0  0  0  0
    5.4067   -0.0274   -2.1123 C   0  0  0  0  0  0  0  0  0  0  0  0
    5.0629    1.2266   -1.6111 C   0  0  0  0  0  0  0  0  0  0  0  0
    4.1057    1.3377   -0.6017 C   0  0  0  0  0  0  0  0  0  0  0  0
   -3.2425   -0.3352    0.4284 C   0  0  0  0  0  0  0  0  0  0  0  0
   -4.1459   -1.4078    0.5181 C   0  0  0  0  0  0  0  0  0  0  0  0
   -5.5158   -1.1942    0.3589 C   0  0  0  0  0  0  0  0  0  0  0  0
   -5.9936    0.0894    0.1068 C   0  0  0  0  0  0  0  0  0  0  0  0
   -5.1018    1.1592    0.0111 C   0  0  0  0  0  0  0  0  0  0  0  0
   -3.7262    0.9523    0.1686 C   0  0  0  0  0  0  0  0  0  0  0  0
   -2.7031    2.3367    0.0592 Cl  0  0  0  0  0  0  0  0  0  0  0  0
   -2.1952   -1.6185    2.2168 H   0  0  0  0  0  0  0  0  0  0  0  0
   -1.0453    0.7660   -0.6631 H   0  0  0  0  0  0  0  0  0  0  0  0
    2.7292    1.0858    1.7173 H   0  0  0  0  0  0  0  0  0  0  0  0
    2.3589   -0.6106    1.5766 H   0  0  0  0  0  0  0  0  0  0  0  0
    3.3588   -1.9666   -0.2197 H   0  0  0  0  0  0  0  0  0  0  0  0
    5.0561   -2.1493   -2.0015 H   0  0  0  0  0  0  0  0  0  0  0  0
    6.1512   -0.1129   -2.8993 H   0  0  0  0  0  0  0  0  0  0  0  0
    5.5381    2.1196   -2.0086 H   0  0  0  0  0  0  0  0  0  0  0  0
    3.8422    2.3250   -0.2263 H   0  0  0  0  0  0  0  0  0  0  0  0
   -3.7823   -2.4195    0.6902 H   0  0  0  0  0  0  0  0  0  0  0  0
   -6.2085   -2.0304    0.4251 H   0  0  0  0  0  0  0  0  0  0  0  0
   -7.0608    0.2588   -0.0181 H   0  0  0  0  0  0  0  0  0  0  0  0
   -5.4880    2.1574   -0.1844 H   0  0  0  0  0  0  0  0  0  0  0  0
  1  2  2  3
  2  3  1  0
  3  4  1  0
  4  5  1  0
  5  6  2  0
  5  7  1  0
  7  8  1  0
  8  9  2  0
  9 10  1  0
 10 11  2  0
 11 12  1  0
 12 13  2  0
  2 14  1  0
 14 15  2  0
 15 16  1  0
 16 17  2  0
 17 18  1  0
 18 19  2  0
 19 20  1  0
 13  8  1  0
 19 14  1  0
  1 21  1  0
  3 22  1  0
  7 23  1  0
  7 24  1  0
  9 25  1  0
 10 26  1  0
 11 27  1  0
 12 28  1  0
 13 29  1  0
 15 30  1  0
 16 31  1  0
 17 32  1  0
 18 33  1  0
M  END
$$$$
