
     RDKit          3D

 37 38  0  0  0  0  0  0  0  0999 V2000
    1.2740   -2.6644    0.0524 O   0  0  0  0  0  0  0  0  0  0  0  0
    0.5167   -1.8368    0.5468 C   0  0  0  0  0  0  0  0  0  0  0  0
   -0.8204   -2.2601    1.1266 C   0  0  0  0  0  0  0  0  0  0  0  0
   -1.8215   -2.6588    0.0422 C   0  0  0  0  0  0  0  0  0  0  0  0
   -2.1094   -1.5817   -1.0142 C   0  0  0  0  0  0  0  0  0  0  0  0
   -2.5526   -0.2410   -0.4773 C   0  0  0  0  0  0  0  0  0  0  0  0
   -3.5809   -0.1330    0.4682 C   0  0  0  0  0  0  0  0  0  0  0  0
   -3.9742    1.1175    0.9493 C   0  0  0  0  0  0  0  0  0  0  0  0
   -3.3562    2.2743    0.4793 C   0  0  0  0  0  0  0  0  0  0  0  0
   -2.3505    2.1831   -0.4794 C   0  0  0  0  0  0  0  0  0  0  0  0
   -1.9558    0.9337   -0.9599 C   0  0  0  0  0  0  0  0  0  0  0  0
    0.7240   -0.4717    0.6216 N   0  0  0  0  0  0  0  0  0  0  0  0
    1.8464    0.2561    0.1775 C   0  0  0  0  0  0  0  0  0  0  0  0
    1.7815    1.6525    0.3002 C   0  0  0  0  0  0  0  0  0  0  0  0
    2.8413    2.4624   -0.1154 C   0  0  0  0  0  0  0  0  0  0  0  0
    3.9852    1.8838   -0.6584 C   0  0  0  0  0  0  0  0  0  0  0  0
    4.0579    0.4898   -0.7787 C   0  0  0  0  0  0  0  0  0  0  0  0
    5.2670   -0.1199   -1.3475 N   0  0  0  0  0  4  0  0  0  0  0  0
    5.3651   -1.3539   -1.3204 O   0  0  0  0  0  0  0  0  0  0  0  0
    6.1241    0.6410   -1.8211 O   0  0  0  0  0  1  0  0  0  0  0  0
    2.9946   -0.3270   -0.3629 C   0  0  0  0  0  0  0  0  0  0  0  0
   -1.2326   -1.4741    1.7685 H   0  0  0  0  0  0  0  0  0  0  0  0
   -0.6332   -3.1159    1.7866 H   0  0  0  0  0  0  0  0  0  0  0  0
   -2.7566   -2.9619    0.5284 H   0  0  0  0  0  0  0  0  0  0  0  0
   -1.4483   -3.5498   -0.4791 H   0  0  0  0  0  0  0  0  0  0  0  0
   -1.2133   -1.4536   -1.6346 H   0  0  0  0  0  0  0  0  0  0  0  0
   -2.8916   -1.9486   -1.6910 H   0  0  0  0  0  0  0  0  0  0  0  0
   -4.0915   -1.0201    0.8358 H   0  0  0  0  0  0  0  0  0  0  0  0
   -4.7727    1.1889    1.6838 H   0  0  0  0  0  0  0  0  0  0  0  0
   -3.6711    3.2471    0.8483 H   0  0  0  0  0  0  0  0  0  0  0  0
   -1.8819    3.0856   -0.8637 H   0  0  0  0  0  0  0  0  0  0  0  0
   -1.1761    0.8829   -1.7183 H   0  0  0  0  0  0  0  0  0  0  0  0
   -0.0443    0.0801    0.9894 H   0  0  0  0  0  0  0  0  0  0  0  0
    0.8993    2.1310    0.7212 H   0  0  0  0  0  0  0  0  0  0  0  0
    2.7729    3.5432   -0.0138 H   0  0  0  0  0  0  0  0  0  0  0  0
    4.8053    2.5239   -0.9776 H   0  0  0  0  0  0  0  0  0  0  0  0
    3.0795   -1.4049   -0.4650 H   0  0  0  0  0  0  0  0  0  0  0  0
  1  2  2  0
  2  3  1  0
  3  4  1  0
  4  5  1  0
  5  6  1  0
  6  7  2  0
  7  8  1  0
  8  9  2  0
  9 10  1  0
 10 11  2  0
  2 12  1  0
 12 13  1  0
 13 14  2  0
 14 15  1  0
 15 16  2  0
 16 17  1  0
 17 18  1  0
 18 19  2  0
 18 20  1  0
 17 21  2  0
 11  6  1  0
 21 13  1  0
  3 22  1  0
  3 23  1  0
  4 24  1  0
  4 25  1  0
  5 26  1  0
  5 27  1  0
  7 28  1  0
  8 29  1  0
  9 30  1  0
 10 31  1  0
 11 32  1  0
 12 33  1  0
 14 34  1  0
 15 35  1  0
 16 36  1  0
 21 37  1  0
M  CHG  2  18   1  20  -1
M  END
$$$$
