
     RDKit          3D

 43 45  0  0  0  0  0  0  0  0999 V2000
   -2.4500   -1.3207    1.4891 C   0  0  0  0  0  0  0  0  0  0  0  0
   -3.0531   -0.5030    0.3855 C   0  0  0  0  0  0  0  0  0  0  0  0
   -3.6876   -0.9693   -0.5519 O   0  0  0  0  0  0  0  0  0  0  0  0
   -2.7857    0.8398    0.6298 O   0  0  0  0  0  0  0  0  0  0  0  0
   -3.1682    1.6832   -0.4215 C   0  0  0  0  0  0  0  0  0  0  0  0
   -4.3229    2.4468   -0.2424 C   0  0  0  0  0  0  0  0  0  0  0  0
   -4.7290    3.3178   -1.2513 C   0  0  0  0  0  0  0  0  0  0  0  0
   -3.9782    3.4267   -2.4230 C   0  0  0  0  0  0  0  0  0  0  0  0
   -2.8122    2.6714   -2.5879 C   0  0  0  0  0  0  0  0  0  0  0  0
   -2.3811    1.8006   -1.5803 C   0  0  0  0  0  0  0  0  0  0  0  0
   -1.1551    1.0209   -1.7970 C   0  0  0  0  0  0  0  0  0  0  0  0
   -0.1262    1.0535   -0.9352 C   0  0  0  0  0  0  0  0  0  0  0  0
    1.0787    0.2250   -1.0193 C   0  0  0  0  0  0  0  0  0  0  0  0
    1.6156   -0.2293   -2.2141 C   0  0  0  0  0  0  0  0  0  0  0  0
    2.7598   -1.0202   -2.1707 C   0  0  0  0  0  0  0  0  0  0  0  0
    3.3425   -1.3395   -0.9391 C   0  0  0  0  0  0  0  0  0  0  0  0
    4.4993   -2.1396   -0.8578 C   0  0  0  0  0  0  0  0  0  0  0  0
    5.0739   -2.4391    0.3778 C   0  0  0  0  0  0  0  0  0  0  0  0
    4.4952   -1.9476    1.5407 C   0  0  0  0  0  0  0  0  0  0  0  0
    3.3371   -1.1713    1.4469 C   0  0  0  0  0  0  0  0  0  0  0  0
    2.8041   -0.6639    2.6424 O   0  0  0  0  0  0  0  0  0  0  0  0
    1.6358   -1.3133    3.0177 C   0  0  0  0  0  0  0  0  0  0  0  0
    1.0096   -0.5582    4.1521 C   0  0  0  0  0  0  0  0  0  0  0  0
    1.1855   -2.3545    2.5566 O   0  0  0  0  0  0  0  0  0  0  0  0
    2.7401   -0.8307    0.2283 C   0  0  0  0  0  0  0  0  0  0  0  0
    1.6393   -0.0462    0.1810 N   0  0  0  0  0  0  0  0  0  0  0  0
   -2.9344   -1.0775    2.4378 H   0  0  0  0  0  0  0  0  0  0  0  0
   -2.6022   -2.3829    1.2775 H   0  0  0  0  0  0  0  0  0  0  0  0
   -1.3753   -1.1309    1.5452 H   0  0  0  0  0  0  0  0  0  0  0  0
   -4.9056    2.3562    0.6690 H   0  0  0  0  0  0  0  0  0  0  0  0
   -5.6327    3.9091   -1.1278 H   0  0  0  0  0  0  0  0  0  0  0  0
   -4.3001    4.1027   -3.2115 H   0  0  0  0  0  0  0  0  0  0  0  0
   -2.2401    2.7758   -3.5069 H   0  0  0  0  0  0  0  0  0  0  0  0
   -1.1593    0.3831   -2.6759 H   0  0  0  0  0  0  0  0  0  0  0  0
   -0.1696    1.6822   -0.0485 H   0  0  0  0  0  0  0  0  0  0  0  0
    1.1666    0.0198   -3.1688 H   0  0  0  0  0  0  0  0  0  0  0  0
    3.1887   -1.3855   -3.1003 H   0  0  0  0  0  0  0  0  0  0  0  0
    4.9605   -2.5321   -1.7619 H   0  0  0  0  0  0  0  0  0  0  0  0
    5.9686   -3.0543    0.4295 H   0  0  0  0  0  0  0  0  0  0  0  0
    4.9312   -2.1695    2.5098 H   0  0  0  0  0  0  0  0  0  0  0  0
    0.0379   -1.0014    4.3886 H   0  0  0  0  0  0  0  0  0  0  0  0
    0.8481    0.4829    3.8607 H   0  0  0  0  0  0  0  0  0  0  0  0
    1.6507   -0.6169    5.0348 H   0  0  0  0  0  0  0  0  0  0  0  0
  1  2  1  0
  2  3  2  0
  2  4  1  0
  4  5  1  0
  5  6  2  0
  6  7  1  0
  7  8  2  0
  8  9  1  0
  9 10  2  0
 10 11  1  0
 11 12  2  0
 12 13  1  0
 13 14  2  0
 14 15  1  0
 15 16  2  0
 16 17  1  0
 17 18  2  0
 18 19  1  0
 19 20  2  0
 20 21  1  0
 21 22  1  0
 22 23  1  0
 22 24  2  0
 20 25  1  0
 25 26  2  0
 10  5  1  0
 26 13  1  0
 25 16  1  0
  1 27  1  0
  1 28  1  0
  1 29  1  0
  6 30  1  0
  7 31  1  0
  8 32  1  0
  9 33  1  0
 11 34  1  0
 12 35  1  0
 14 36  1  0
 15 37  1  0
 17 38  1  0
 18 39  1  0
 19 40  1  0
 23 41  1  0
 23 42  1  0
 23 43  1  0
M  END
$$$$
