
     RDKit          3D

 51 53  0  0  0  0  0  0  0  0999 V2000
    8.5263    1.2810   -2.3285 C   0  0  0  0  0  0  0  0  0  0  0  0
    8.9714    0.5214   -1.2122 O   0  0  0  0  0  0  0  0  0  0  0  0
    8.0102   -0.0318   -0.4113 C   0  0  0  0  0  0  0  0  0  0  0  0
    8.5050   -0.7607    0.6703 C   0  0  0  0  0  0  0  0  0  0  0  0
    7.6323   -1.3766    1.5651 C   0  0  0  0  0  0  0  0  0  0  0  0
    6.2525   -1.2679    1.3840 C   0  0  0  0  0  0  0  0  0  0  0  0
    5.7409   -0.5427    0.3072 C   0  0  0  0  0  0  0  0  0  0  0  0
    4.3653   -0.3889    0.0582 N   0  0  0  0  0  0  0  0  0  0  0  0
    3.3089   -0.8882    0.7909 C   0  0  0  0  0  0  0  0  0  0  0  0
    3.3209   -1.5638    1.8098 O   0  0  0  0  0  0  0  0  0  0  0  0
    1.9486   -0.4958    0.1816 C   0  0  0  0  0  0  0  0  0  0  0  0
    1.9314    0.2032   -0.8239 O   0  0  0  0  0  0  0  0  0  0  0  0
    0.8861   -1.0066    0.9056 N   0  0  0  0  0  0  0  0  0  0  0  0
   -0.4467   -0.7393    0.7289 N   0  0  0  0  0  0  0  0  0  0  0  0
   -0.8714   -0.3396   -0.4252 C   0  0  0  0  0  0  0  0  0  0  0  0
   -2.2818   -0.0315   -0.6170 C   0  0  0  0  0  0  0  0  0  0  0  0
   -2.8797    0.2785   -1.8628 C   0  0  0  0  0  0  0  0  0  0  0  0
   -4.2312    0.4798   -1.6684 C   0  0  0  0  0  0  0  0  0  0  0  0
   -5.2580    0.7232   -2.7223 C   0  0  0  0  0  0  0  0  0  0  0  0
   -4.4985    0.3076   -0.3136 N   0  0  0  0  0  0  0  0  0  0  0  0
   -5.7868    0.3573    0.2964 C   0  0  0  0  0  0  0  0  0  0  0  0
   -6.6814    1.3852   -0.0204 C   0  0  0  0  0  0  0  0  0  0  0  0
   -7.9431    1.4219    0.5799 C   0  0  0  0  0  0  0  0  0  0  0  0
   -8.3189    0.4337    1.4944 C   0  0  0  0  0  0  0  0  0  0  0  0
   -9.8940    0.5450    2.1951 Cl  0  0  0  0  0  0  0  0  0  0  0  0
   -7.4263   -0.5962    1.8109 C   0  0  0  0  0  0  0  0  0  0  0  0
   -7.8250   -1.8558    2.9251 Cl  0  0  0  0  0  0  0  0  0  0  0  0
   -6.1616   -0.6341    1.2135 C   0  0  0  0  0  0  0  0  0  0  0  0
   -3.2909    0.0497    0.3386 C   0  0  0  0  0  0  0  0  0  0  0  0
   -3.1581   -0.0319    1.8280 C   0  0  0  0  0  0  0  0  0  0  0  0
    6.6280    0.0745   -0.5894 C   0  0  0  0  0  0  0  0  0  0  0  0
    7.9574    0.6589   -3.0274 H   0  0  0  0  0  0  0  0  0  0  0  0
    7.9432    2.1504   -2.0072 H   0  0  0  0  0  0  0  0  0  0  0  0
    9.4111    1.6502   -2.8560 H   0  0  0  0  0  0  0  0  0  0  0  0
    9.5789   -0.8488    0.8167 H   0  0  0  0  0  0  0  0  0  0  0  0
    8.0260   -1.9427    2.4055 H   0  0  0  0  0  0  0  0  0  0  0  0
    5.6061   -1.7622    2.1023 H   0  0  0  0  0  0  0  0  0  0  0  0
    4.0891    0.1596   -0.7538 H   0  0  0  0  0  0  0  0  0  0  0  0
    1.1215   -1.4579    1.7911 H   0  0  0  0  0  0  0  0  0  0  0  0
   -0.2400   -0.2512   -1.3230 H   0  0  0  0  0  0  0  0  0  0  0  0
   -2.3784    0.3173   -2.8228 H   0  0  0  0  0  0  0  0  0  0  0  0
   -5.5217    1.7837   -2.7697 H   0  0  0  0  0  0  0  0  0  0  0  0
   -4.8689    0.4400   -3.7068 H   0  0  0  0  0  0  0  0  0  0  0  0
   -6.1617    0.1297   -2.5545 H   0  0  0  0  0  0  0  0  0  0  0  0
   -6.4019    2.1904   -0.6949 H   0  0  0  0  0  0  0  0  0  0  0  0
   -8.6270    2.2320    0.3360 H   0  0  0  0  0  0  0  0  0  0  0  0
   -5.4912   -1.4596    1.4423 H   0  0  0  0  0  0  0  0  0  0  0  0
   -2.2249    0.4328    2.1618 H   0  0  0  0  0  0  0  0  0  0  0  0
   -3.1603   -1.0760    2.1554 H   0  0  0  0  0  0  0  0  0  0  0  0
   -3.9552    0.5062    2.3489 H   0  0  0  0  0  0  0  0  0  0  0  0
    6.2233    0.6364   -1.4239 H   0  0  0  0  0  0  0  0  0  0  0  0
  1  2  1  0
  2  3  1  0
  3  4  2  0
  4  5  1  0
  5  6  2  0
  6  7  1  0
  7  8  1  0
  8  9  1  0
  9 10  2  0
  9 11  1  0
 11 12  2  0
 11 13  1  0
 13 14  1  0
 14 15  2  3
 15 16  1  0
 16 17  1  0
 17 18  2  0
 18 19  1  0
 18 20  1  0
 20 21  1  0
 21 22  2  0
 22 23  1  0
 23 24  2  0
 24 25  1  0
 24 26  1  0
 26 27  1  0
 26 28  2  0
 20 29  1  0
 29 30  1  0
  7 31  2  0
 31  3  1  0
 29 16  2  0
 28 21  1  0
  1 32  1  0
  1 33  1  0
  1 34  1  0
  4 35  1  0
  5 36  1  0
  6 37  1  0
  8 38  1  0
 13 39  1  0
 15 40  1  0
 17 41  1  0
 19 42  1  0
 19 43  1  0
 19 44  1  0
 22 45  1  0
 23 46  1  0
 28 47  1  0
 30 48  1  0
 30 49  1  0
 30 50  1  0
 31 51  1  0
M  END
$$$$
