
     RDKit          3D

 59 64  0  0  0  0  0  0  0  0999 V2000
    4.4873   -2.1961    0.9183 O   0  0  0  0  0  0  0  0  0  0  0  0
    3.8043   -1.2010    0.6877 C   0  0  0  0  0  0  0  0  0  0  0  0
    4.4507    0.1282    0.7852 C   0  0  0  0  0  0  0  0  0  0  0  0
    4.4622    0.9670   -0.2614 C   0  0  0  0  0  0  0  0  0  0  0  0
    5.1172    2.2330   -0.2156 C   0  0  0  0  0  0  0  0  0  0  0  0
    5.7955    2.8780    0.8074 C   0  0  0  0  0  0  0  0  0  0  0  0
    6.3079    4.1540    0.4278 C   0  0  0  0  0  0  0  0  0  0  0  0
    6.0074    4.4591   -0.8775 C   0  0  0  0  0  0  0  0  0  0  0  0
    5.1065    3.2224   -1.6325 S   0  0  0  0  0  0  0  0  0  0  0  0
    2.4543   -1.2529    0.3819 N   0  0  0  0  0  0  0  0  0  0  0  0
    1.5454   -0.1049    0.4030 C   0  0  0  0  0  0  0  0  0  0  0  0
    0.1704   -0.5157    0.9149 C   0  0  0  0  0  0  0  0  0  0  0  0
   -0.5161   -1.5980    0.0301 C   0  0  0  0  0  0  0  0  0  0  0  0
    0.5814   -2.4839   -0.6414 C   0  0  0  0  0  0  0  0  0  0  0  0
    1.8496   -2.5673    0.2005 C   0  0  0  0  0  0  0  0  0  0  0  0
   -1.2686   -2.4038    0.9788 O   0  0  0  0  0  0  0  0  0  0  0  0
   -2.1599   -3.2940    0.4469 C   0  0  0  0  0  0  0  0  0  0  0  0
   -2.6092   -4.2997    1.3036 C   0  0  0  0  0  0  0  0  0  0  0  0
   -3.5014   -5.2652    0.8348 C   0  0  0  0  0  0  0  0  0  0  0  0
   -3.9393   -5.2160   -0.4856 C   0  0  0  0  0  0  0  0  0  0  0  0
   -4.7944   -6.1456   -0.9289 F   0  0  0  0  0  0  0  0  0  0  0  0
   -3.5109   -4.2139   -1.3465 C   0  0  0  0  0  0  0  0  0  0  0  0
   -2.6257   -3.2451   -0.8681 C   0  0  0  0  0  0  0  0  0  0  0  0
   -2.1870   -2.1374   -1.7375 C   0  0  0  0  0  0  0  0  0  0  0  0
   -2.4428   -2.1678   -2.9363 O   0  0  0  0  0  0  0  0  0  0  0  0
   -1.4864   -0.9861   -1.0238 C   0  0  0  0  0  0  0  0  0  0  0  0
   -2.5729   -0.0613   -0.4814 C   0  0  0  0  0  0  0  0  0  0  0  0
   -2.0246    1.2495   -0.9290 C   0  0  0  0  0  0  0  0  0  0  0  0
   -2.5950    2.5386   -0.4727 C   0  0  0  0  0  0  0  0  0  0  0  0
   -1.9970    3.7316   -0.8987 C   0  0  0  0  0  0  0  0  0  0  0  0
   -2.5024    4.9623   -0.4766 C   0  0  0  0  0  0  0  0  0  0  0  0
   -3.6079    5.0075    0.3708 C   0  0  0  0  0  0  0  0  0  0  0  0
   -4.2109    3.8237    0.7945 C   0  0  0  0  0  0  0  0  0  0  0  0
   -3.7100    2.5889    0.3718 C   0  0  0  0  0  0  0  0  0  0  0  0
   -1.0114    1.1693   -1.7298 N   0  0  0  0  0  0  0  0  0  0  0  0
   -0.7620   -0.1994   -1.9729 O   0  0  0  0  0  0  0  0  0  0  0  0
    4.9828    0.3053    1.7107 H   0  0  0  0  0  0  0  0  0  0  0  0
    3.9639    0.6773   -1.1851 H   0  0  0  0  0  0  0  0  0  0  0  0
    5.9310    2.4572    1.7958 H   0  0  0  0  0  0  0  0  0  0  0  0
    6.8690    4.8106    1.0810 H   0  0  0  0  0  0  0  0  0  0  0  0
    6.2699    5.3531   -1.4272 H   0  0  0  0  0  0  0  0  0  0  0  0
    1.4905    0.2940   -0.6144 H   0  0  0  0  0  0  0  0  0  0  0  0
    1.9461    0.6797    1.0526 H   0  0  0  0  0  0  0  0  0  0  0  0
    0.2898   -0.9068    1.9357 H   0  0  0  0  0  0  0  0  0  0  0  0
   -0.4547    0.3720    1.0382 H   0  0  0  0  0  0  0  0  0  0  0  0
    0.8556   -2.0735   -1.6215 H   0  0  0  0  0  0  0  0  0  0  0  0
    0.2231   -3.5049   -0.8129 H   0  0  0  0  0  0  0  0  0  0  0  0
    1.6348   -2.9799    1.1934 H   0  0  0  0  0  0  0  0  0  0  0  0
    2.5719   -3.2359   -0.2822 H   0  0  0  0  0  0  0  0  0  0  0  0
   -2.2563   -4.3408    2.3312 H   0  0  0  0  0  0  0  0  0  0  0  0
   -3.8542   -6.0582    1.4879 H   0  0  0  0  0  0  0  0  0  0  0  0
   -3.8742   -4.1917   -2.3705 H   0  0  0  0  0  0  0  0  0  0  0  0
   -2.6872   -0.1159    0.6045 H   0  0  0  0  0  0  0  0  0  0  0  0
   -3.5498   -0.2141   -0.9539 H   0  0  0  0  0  0  0  0  0  0  0  0
   -1.1354    3.7121   -1.5636 H   0  0  0  0  0  0  0  0  0  0  0  0
   -2.0348    5.8842   -0.8138 H   0  0  0  0  0  0  0  0  0  0  0  0
   -4.0014    5.9663    0.6981 H   0  0  0  0  0  0  0  0  0  0  0  0
   -5.0761    3.8638    1.4521 H   0  0  0  0  0  0  0  0  0  0  0  0
   -4.2089    1.6880    0.7127 H   0  0  0  0  0  0  0  0  0  0  0  0
  1  2  2  0
  2  3  1  0
  3  4  2  3
  4  5  1  0
  5  6  2  0
  6  7  1  0
  7  8  2  0
  8  9  1  0
  2 10  1  0
 10 11  1  0
 11 12  1  0
 12 13  1  0
 13 14  1  0
 14 15  1  0
 13 16  1  0
 16 17  1  0
 17 18  2  0
 18 19  1  0
 19 20  2  0
 20 21  1  0
 20 22  1  0
 22 23  2  0
 23 24  1  0
 24 25  2  0
 24 26  1  0
 26 27  1  0
 27 28  1  0
 28 29  1  0
 29 30  2  0
 30 31  1  0
 31 32  2  0
 32 33  1  0
 33 34  2  0
 28 35  2  0
 35 36  1  0
  9  5  1  0
 15 10  1  0
 23 17  1  0
 36 26  1  0
 26 13  1  0
 34 29  1  0
  3 37  1  0
  4 38  1  0
  6 39  1  0
  7 40  1  0
  8 41  1  0
 11 42  1  0
 11 43  1  0
 12 44  1  0
 12 45  1  0
 14 46  1  0
 14 47  1  0
 15 48  1  0
 15 49  1  0
 18 50  1  0
 19 51  1  0
 22 52  1  0
 27 53  1  0
 27 54  1  0
 30 55  1  0
 31 56  1  0
 32 57  1  0
 33 58  1  0
 34 59  1  0
M  END
$$$$
