
     RDKit          3D

 48 50  0  0  0  0  0  0  0  0999 V2000
    7.9409    1.1069    1.4207 C   0  0  0  0  0  0  0  0  0  0  0  0
    6.6736    1.7523    1.4483 O   0  0  0  0  0  0  0  0  0  0  0  0
    5.6098    1.0569    0.9450 C   0  0  0  0  0  0  0  0  0  0  0  0
    5.6472   -0.2379    0.4269 C   0  0  0  0  0  0  0  0  0  0  0  0
    4.4791   -0.8418   -0.0580 C   0  0  0  0  0  0  0  0  0  0  0  0
    3.2614   -0.1575   -0.0220 C   0  0  0  0  0  0  0  0  0  0  0  0
    2.0848   -0.6719   -0.4960 O   0  0  0  0  0  0  0  0  0  0  0  0
    1.9462   -2.0927   -0.4653 C   0  0  0  0  0  0  0  0  0  0  0  0
    0.5017   -2.3803   -0.6192 C   0  0  0  0  0  0  0  0  0  0  0  0
   -0.5860   -1.6664   -1.0602 C   0  0  0  0  0  0  0  0  0  0  0  0
   -1.6932   -2.5444   -0.9002 C   0  0  0  0  0  0  0  0  0  0  0  0
   -3.1210   -2.2990   -1.1563 C   0  0  0  0  0  0  0  0  0  0  0  0
   -4.0076   -3.0851   -0.8314 O   0  0  0  0  0  0  0  0  0  0  0  0
   -3.4130   -1.0836   -1.7542 N   0  0  0  0  0  0  0  0  0  0  0  0
   -4.7719   -0.5465   -1.7582 C   0  0  0  0  0  0  0  0  0  0  0  0
   -4.9196    0.4833   -2.8778 C   0  0  0  0  0  0  0  0  0  0  0  0
   -5.1824    0.0081   -0.3759 C   0  0  0  0  0  0  0  0  0  0  0  0
   -4.1518    0.9246    0.2410 C   0  0  0  0  0  0  0  0  0  0  0  0
   -3.3259    0.4651    1.2661 C   0  0  0  0  0  0  0  0  0  0  0  0
   -2.3430    1.3116    1.7708 C   0  0  0  0  0  0  0  0  0  0  0  0
   -2.2141    2.5916    1.2486 C   0  0  0  0  0  0  0  0  0  0  0  0
   -3.0793    2.9740    0.2389 C   0  0  0  0  0  0  0  0  0  0  0  0
   -4.0366    2.1706   -0.2773 N   0  0  0  0  0  0  0  0  0  0  0  0
   -1.2724   -3.7249   -0.4112 N   0  0  0  0  0  0  0  0  0  0  0  0
    0.0925   -3.6187   -0.2447 O   0  0  0  0  0  0  0  0  0  0  0  0
    3.2332    1.1500    0.4827 C   0  0  0  0  0  0  0  0  0  0  0  0
    1.7617    2.0583    0.5379 Cl  0  0  0  0  0  0  0  0  0  0  0  0
    4.3977    1.7483    0.9680 C   0  0  0  0  0  0  0  0  0  0  0  0
    8.6749    1.7925    1.8554 H   0  0  0  0  0  0  0  0  0  0  0  0
    7.9341    0.1971    2.0300 H   0  0  0  0  0  0  0  0  0  0  0  0
    8.2509    0.8936    0.3922 H   0  0  0  0  0  0  0  0  0  0  0  0
    6.5708   -0.8066    0.3805 H   0  0  0  0  0  0  0  0  0  0  0  0
    4.5588   -1.8409   -0.4765 H   0  0  0  0  0  0  0  0  0  0  0  0
    2.2999   -2.4994    0.4896 H   0  0  0  0  0  0  0  0  0  0  0  0
    2.4984   -2.5416   -1.2977 H   0  0  0  0  0  0  0  0  0  0  0  0
   -0.5699   -0.6449   -1.4097 H   0  0  0  0  0  0  0  0  0  0  0  0
   -2.6750   -0.3987   -1.8373 H   0  0  0  0  0  0  0  0  0  0  0  0
   -5.4546   -1.3741   -1.9906 H   0  0  0  0  0  0  0  0  0  0  0  0
   -5.9302    0.9045   -2.8943 H   0  0  0  0  0  0  0  0  0  0  0  0
   -4.7354    0.0150   -3.8513 H   0  0  0  0  0  0  0  0  0  0  0  0
   -4.2033    1.3044   -2.7791 H   0  0  0  0  0  0  0  0  0  0  0  0
   -6.1359    0.5453   -0.4525 H   0  0  0  0  0  0  0  0  0  0  0  0
   -5.3658   -0.8305    0.3087 H   0  0  0  0  0  0  0  0  0  0  0  0
   -3.4343   -0.5402    1.6630 H   0  0  0  0  0  0  0  0  0  0  0  0
   -1.6829    0.9736    2.5645 H   0  0  0  0  0  0  0  0  0  0  0  0
   -1.4581    3.2744    1.6202 H   0  0  0  0  0  0  0  0  0  0  0  0
   -3.0219    3.9662   -0.1995 H   0  0  0  0  0  0  0  0  0  0  0  0
    4.3678    2.7595    1.3659 H   0  0  0  0  0  0  0  0  0  0  0  0
  1  2  1  0
  2  3  1  0
  3  4  2  0
  4  5  1  0
  5  6  2  0
  6  7  1  0
  7  8  1  0
  8  9  1  0
  9 10  2  0
 10 11  1  0
 11 12  1  0
 12 13  2  0
 12 14  1  0
 14 15  1  0
 15 16  1  0
 15 17  1  0
 17 18  1  0
 18 19  2  0
 19 20  1  0
 20 21  2  0
 21 22  1  0
 22 23  2  0
 11 24  2  0
 24 25  1  0
  6 26  1  0
 26 27  1  0
 26 28  2  0
 28  3  1  0
 25  9  1  0
 23 18  1  0
  1 29  1  0
  1 30  1  0
  1 31  1  0
  4 32  1  0
  5 33  1  0
  8 34  1  0
  8 35  1  0
 10 36  1  0
 14 37  1  0
 15 38  1  0
 16 39  1  0
 16 40  1  0
 16 41  1  0
 17 42  1  0
 17 43  1  0
 19 44  1  0
 20 45  1  0
 21 46  1  0
 22 47  1  0
 28 48  1  0
M  END
$$$$
