
     RDKit          3D

 37 37  0  0  0  0  0  0  0  0999 V2000
   -1.3674   -2.6735   -2.5852 C   0  0  0  0  0  0  0  0  0  0  0  0
   -1.1013   -1.7251   -1.5512 O   0  0  0  0  0  0  0  0  0  0  0  0
   -2.0648   -0.7657   -1.4161 C   0  0  0  0  0  0  0  0  0  0  0  0
   -3.1080   -0.7382   -2.0585 O   0  0  0  0  0  0  0  0  0  0  0  0
   -1.7283    0.2229   -0.2835 C   0  0  0  0  0  0  0  0  0  0  0  0
   -2.6052   -0.0490    0.9467 C   0  0  0  0  0  0  0  0  0  0  0  0
   -4.0667    0.3418    0.7261 C   0  0  0  0  0  0  0  0  0  0  0  0
   -5.0470    0.1357    2.2524 S   0  0  0  0  0  0  0  0  0  0  0  0
   -4.5545    1.6394    3.1323 C   0  0  0  0  0  0  0  0  0  0  0  0
   -0.3157    0.1237    0.1120 N   0  0  0  0  0  0  0  0  0  0  0  0
    0.6272    0.8222   -0.5985 C   0  0  0  0  0  0  0  0  0  0  0  0
    0.3697    1.6209   -1.4865 O   0  0  0  0  0  0  0  0  0  0  0  0
    1.8907    0.5010   -0.1848 N   0  0  0  0  0  0  0  0  0  0  0  0
    3.0136    1.2233   -0.7364 C   0  0  0  0  0  0  0  0  0  0  0  0
    4.2692    0.5722   -0.2563 C   0  0  0  0  0  0  0  0  0  0  0  0
    4.9580   -0.4812   -0.8267 C   0  0  0  0  0  0  0  0  0  0  0  0
    6.1195   -0.8368   -0.0825 C   0  0  0  0  0  0  0  0  0  0  0  0
    6.2791   -0.0450    1.0323 C   0  0  0  0  0  0  0  0  0  0  0  0
    5.0335    1.1170    1.1784 S   0  0  0  0  0  0  0  0  0  0  0  0
   -1.4603   -2.1718   -3.5536 H   0  0  0  0  0  0  0  0  0  0  0  0
   -0.5226   -3.3660   -2.6346 H   0  0  0  0  0  0  0  0  0  0  0  0
   -2.2715   -3.2456   -2.3549 H   0  0  0  0  0  0  0  0  0  0  0  0
   -1.9045    1.2350   -0.6661 H   0  0  0  0  0  0  0  0  0  0  0  0
   -2.5409   -1.1109    1.2196 H   0  0  0  0  0  0  0  0  0  0  0  0
   -2.1955    0.5180    1.7920 H   0  0  0  0  0  0  0  0  0  0  0  0
   -4.5264   -0.3054   -0.0256 H   0  0  0  0  0  0  0  0  0  0  0  0
   -4.1577    1.3741    0.3731 H   0  0  0  0  0  0  0  0  0  0  0  0
   -5.1247    1.7100    4.0626 H   0  0  0  0  0  0  0  0  0  0  0  0
   -3.4918    1.6133    3.3839 H   0  0  0  0  0  0  0  0  0  0  0  0
   -4.7703    2.5242    2.5278 H   0  0  0  0  0  0  0  0  0  0  0  0
   -0.0049   -0.8120    0.3408 H   0  0  0  0  0  0  0  0  0  0  0  0
    1.9602    0.2615    0.7935 H   0  0  0  0  0  0  0  0  0  0  0  0
    2.9435    2.2711   -0.4229 H   0  0  0  0  0  0  0  0  0  0  0  0
    2.9539    1.1975   -1.8306 H   0  0  0  0  0  0  0  0  0  0  0  0
    4.6401   -0.9746   -1.7379 H   0  0  0  0  0  0  0  0  0  0  0  0
    6.8035   -1.6324   -0.3516 H   0  0  0  0  0  0  0  0  0  0  0  0
    7.0682   -0.0916    1.7703 H   0  0  0  0  0  0  0  0  0  0  0  0
  1  2  1  0
  2  3  1  0
  3  4  2  0
  3  5  1  0
  5  6  1  0
  6  7  1  0
  7  8  1  0
  8  9  1  0
  5 10  1  0
 10 11  1  0
 11 12  2  0
 11 13  1  0
 13 14  1  0
 14 15  1  0
 15 16  2  0
 16 17  1  0
 17 18  2  0
 18 19  1  0
 19 15  1  0
  1 20  1  0
  1 21  1  0
  1 22  1  0
  5 23  1  0
  6 24  1  0
  6 25  1  0
  7 26  1  0
  7 27  1  0
  9 28  1  0
  9 29  1  0
  9 30  1  0
 10 31  1  0
 13 32  1  0
 14 33  1  0
 14 34  1  0
 16 35  1  0
 17 36  1  0
 18 37  1  0
M  END
$$$$
