
     RDKit          3D

 38 38  0  0  0  0  0  0  0  0999 V2000
    5.8336   -0.8888   -3.1789 C   0  0  0  0  0  0  0  0  0  0  0  0
    4.3524   -0.5662   -3.2228 C   0  0  0  0  0  0  0  0  0  0  0  0
    3.8833   -0.4329   -1.8743 O   0  0  0  0  0  0  0  0  0  0  0  0
    2.5649   -0.1009   -1.7720 C   0  0  0  0  0  0  0  0  0  0  0  0
    1.7962    0.0248   -2.7161 O   0  0  0  0  0  0  0  0  0  0  0  0
    2.1662   -0.0052   -0.3284 C   0  0  0  0  0  0  0  0  0  0  0  0
    1.1532    1.0852   -0.0995 C   0  0  0  0  0  0  0  0  0  0  0  0
    1.3977    2.2612   -0.3653 O   0  0  0  0  0  0  0  0  0  0  0  0
   -0.1837    0.7371    0.4523 C   0  0  0  0  0  0  0  0  0  0  0  0
   -1.2872    1.4789    0.0054 C   0  0  0  0  0  0  0  0  0  0  0  0
   -2.5651    1.1983    0.4887 C   0  0  0  0  0  0  0  0  0  0  0  0
   -3.7066    1.8584    0.1147 O   0  0  0  0  0  0  0  0  0  0  0  0
   -3.5562    3.0099   -0.7057 C   0  0  0  0  0  0  0  0  0  0  0  0
   -2.7215    0.1566    1.4195 C   0  0  0  0  0  0  0  0  0  0  0  0
   -3.9709   -0.1060    1.9393 O   0  0  0  0  0  0  0  0  0  0  0  0
   -4.6484   -1.0552    1.1172 C   0  0  0  0  0  0  0  0  0  0  0  0
   -1.6164   -0.5678    1.9031 C   0  0  0  0  0  0  0  0  0  0  0  0
   -1.8895   -1.5396    2.8305 O   0  0  0  0  0  0  0  0  0  0  0  0
   -0.7917   -2.1402    3.5014 C   0  0  0  0  0  0  0  0  0  0  0  0
   -0.3436   -0.2732    1.4096 C   0  0  0  0  0  0  0  0  0  0  0  0
    6.0105   -1.8138   -2.6205 H   0  0  0  0  0  0  0  0  0  0  0  0
    6.3858   -0.0956   -2.6630 H   0  0  0  0  0  0  0  0  0  0  0  0
    6.2391   -1.0024   -4.1889 H   0  0  0  0  0  0  0  0  0  0  0  0
    3.8110   -1.3779   -3.7219 H   0  0  0  0  0  0  0  0  0  0  0  0
    4.1949    0.3726   -3.7656 H   0  0  0  0  0  0  0  0  0  0  0  0
    3.0370    0.2265    0.2966 H   0  0  0  0  0  0  0  0  0  0  0  0
    1.7932   -0.9911   -0.0376 H   0  0  0  0  0  0  0  0  0  0  0  0
   -1.1177    2.2651   -0.7253 H   0  0  0  0  0  0  0  0  0  0  0  0
   -4.5474    3.4545   -0.8416 H   0  0  0  0  0  0  0  0  0  0  0  0
   -2.9178    3.7599   -0.2258 H   0  0  0  0  0  0  0  0  0  0  0  0
   -3.1748    2.7384   -1.6960 H   0  0  0  0  0  0  0  0  0  0  0  0
   -4.8321   -0.6566    0.1136 H   0  0  0  0  0  0  0  0  0  0  0  0
   -5.6178   -1.2655    1.5795 H   0  0  0  0  0  0  0  0  0  0  0  0
   -4.0935   -1.9977    1.0537 H   0  0  0  0  0  0  0  0  0  0  0  0
   -0.1978   -2.7476    2.8113 H   0  0  0  0  0  0  0  0  0  0  0  0
   -1.1934   -2.8074    4.2707 H   0  0  0  0  0  0  0  0  0  0  0  0
   -0.1711   -1.3892    4.0015 H   0  0  0  0  0  0  0  0  0  0  0  0
    0.5253   -0.8069    1.7757 H   0  0  0  0  0  0  0  0  0  0  0  0
  1  2  1  0
  2  3  1  0
  3  4  1  0
  4  5  2  0
  4  6  1  0
  6  7  1  0
  7  8  2  0
  7  9  1  0
  9 10  2  0
 10 11  1  0
 11 12  1  0
 12 13  1  0
 11 14  2  0
 14 15  1  0
 15 16  1  0
 14 17  1  0
 17 18  1  0
 18 19  1  0
 17 20  2  0
 20  9  1  0
  1 21  1  0
  1 22  1  0
  1 23  1  0
  2 24  1  0
  2 25  1  0
  6 26  1  0
  6 27  1  0
 10 28  1  0
 13 29  1  0
 13 30  1  0
 13 31  1  0
 16 32  1  0
 16 33  1  0
 16 34  1  0
 19 35  1  0
 19 36  1  0
 19 37  1  0
 20 38  1  0
M  END
$$$$
