
     RDKit          3D

 36 36  0  0  0  0  0  0  0  0999 V2000
    1.5985   -4.6146    4.0073 C   0  0  0  0  0  0  0  0  0  0  0  0
    0.9947   -4.5040    2.6209 C   0  0  0  0  0  0  0  0  0  0  0  0
    0.5885   -3.1530    2.4167 O   0  0  0  0  0  0  0  0  0  0  0  0
   -0.0402   -2.9322    1.1545 C   0  0  0  0  0  0  0  0  0  0  0  0
    0.9921   -2.7489    0.0444 C   0  0  0  0  0  0  0  0  0  0  0  0
    0.3485   -2.4252   -1.3012 C   0  0  0  0  0  0  0  0  0  0  0  0
   -0.2939   -1.1241   -1.3226 N   0  0  0  0  0  0  0  0  0  0  0  0
    0.4292    0.0356   -1.5062 C   0  0  0  0  0  0  0  0  0  0  0  0
    1.6438    0.0261   -1.6936 O   0  0  0  0  0  0  0  0  0  0  0  0
   -0.3458    1.3220   -1.4631 C   0  0  0  0  0  0  0  0  0  0  0  0
   -1.7518    1.2762   -1.2708 C   0  0  0  0  0  0  0  0  0  0  0  0
   -2.8909    1.1325   -1.1014 N   0  0  0  0  0  0  0  0  0  0  0  0
    0.3742    2.4520   -1.6030 C   0  0  0  0  0  0  0  0  0  0  0  0
   -0.1599    3.7728   -1.5948 C   0  0  0  0  0  0  0  0  0  0  0  0
    0.5453    4.9766   -1.6220 C   0  0  0  0  0  0  0  0  0  0  0  0
   -0.3878    6.0430   -1.6068 C   0  0  0  0  0  0  0  0  0  0  0  0
   -1.6158    5.4363   -1.5772 C   0  0  0  0  0  0  0  0  0  0  0  0
   -2.9397    5.9732   -1.5570 N   0  0  0  0  0  4  0  0  0  0  0  0
   -3.8886    5.1807   -1.5681 O   0  0  0  0  0  0  0  0  0  0  0  0
   -3.0260    7.2089   -1.5347 O   0  0  0  0  0  1  0  0  0  0  0  0
   -1.5033    4.0844   -1.5689 O   0  0  0  0  0  0  0  0  0  0  0  0
    1.9232   -5.6389    4.2109 H   0  0  0  0  0  0  0  0  0  0  0  0
    0.8713   -4.3162    4.7697 H   0  0  0  0  0  0  0  0  0  0  0  0
    2.4587   -3.9445    4.1077 H   0  0  0  0  0  0  0  0  0  0  0  0
    0.1270   -5.1679    2.5417 H   0  0  0  0  0  0  0  0  0  0  0  0
    1.7389   -4.7945    1.8733 H   0  0  0  0  0  0  0  0  0  0  0  0
   -0.6324   -2.0171    1.2615 H   0  0  0  0  0  0  0  0  0  0  0  0
   -0.7390   -3.7455    0.9261 H   0  0  0  0  0  0  0  0  0  0  0  0
    1.5816   -3.6662   -0.0627 H   0  0  0  0  0  0  0  0  0  0  0  0
    1.7037   -1.9667    0.3355 H   0  0  0  0  0  0  0  0  0  0  0  0
    1.1137   -2.4461   -2.0854 H   0  0  0  0  0  0  0  0  0  0  0  0
   -0.4123   -3.1703   -1.5568 H   0  0  0  0  0  0  0  0  0  0  0  0
   -1.2927   -1.0989   -1.1472 H   0  0  0  0  0  0  0  0  0  0  0  0
    1.4538    2.3815   -1.7304 H   0  0  0  0  0  0  0  0  0  0  0  0
    1.6243    5.0668   -1.6483 H   0  0  0  0  0  0  0  0  0  0  0  0
   -0.1906    7.1064   -1.6192 H   0  0  0  0  0  0  0  0  0  0  0  0
  1  2  1  0
  2  3  1  0
  3  4  1  0
  4  5  1  0
  5  6  1  0
  6  7  1  0
  7  8  1  0
  8  9  2  0
  8 10  1  0
 10 11  1  0
 11 12  3  0
 10 13  2  3
 13 14  1  0
 14 15  2  0
 15 16  1  0
 16 17  2  0
 17 18  1  0
 18 19  2  0
 18 20  1  0
 17 21  1  0
 21 14  1  0
  1 22  1  0
  1 23  1  0
  1 24  1  0
  2 25  1  0
  2 26  1  0
  4 27  1  0
  4 28  1  0
  5 29  1  0
  5 30  1  0
  6 31  1  0
  6 32  1  0
  7 33  1  0
 13 34  1  0
 15 35  1  0
 16 36  1  0
M  CHG  2  18   1  20  -1
M  END
$$$$
