
     RDKit          3D

 35 36  0  0  0  0  0  0  0  0999 V2000
    5.6811    0.3918    2.2801 C   0  0  0  0  0  0  0  0  0  0  0  0
    4.7967   -0.0841    1.1663 C   0  0  0  0  0  0  0  0  0  0  0  0
    5.2802   -0.9933    0.2334 C   0  0  0  0  0  0  0  0  0  0  0  0
    4.4325   -1.4127   -0.7844 C   0  0  0  0  0  0  0  0  0  0  0  0
    3.1323   -0.9168   -0.8419 C   0  0  0  0  0  0  0  0  0  0  0  0
    2.7219   -0.0141    0.1268 C   0  0  0  0  0  0  0  0  0  0  0  0
    1.4508    0.5562    0.1878 N   0  0  0  0  0  0  0  0  0  0  0  0
    0.3787    0.3558   -0.6580 C   0  0  0  0  0  0  0  0  0  0  0  0
    0.3682   -0.3869   -1.6348 O   0  0  0  0  0  0  0  0  0  0  0  0
   -0.8461    1.1778   -0.2287 C   0  0  0  0  0  0  0  0  0  0  0  0
   -1.9922    1.0376   -1.0580 O   0  0  0  0  0  0  0  0  0  0  0  0
   -2.9554    0.1942   -0.5679 C   0  0  0  0  0  0  0  0  0  0  0  0
   -2.6596   -1.0779   -0.0685 C   0  0  0  0  0  0  0  0  0  0  0  0
   -3.6850   -1.9063    0.3896 C   0  0  0  0  0  0  0  0  0  0  0  0
   -5.0085   -1.4748    0.3327 C   0  0  0  0  0  0  0  0  0  0  0  0
   -5.3103   -0.2166   -0.1896 C   0  0  0  0  0  0  0  0  0  0  0  0
   -4.2888    0.6287   -0.6472 C   0  0  0  0  0  0  0  0  0  0  0  0
   -4.6296    1.9696   -1.2328 C   0  0  0  0  0  0  0  0  0  0  0  0
    3.5332    0.4047    1.1231 N   0  0  0  0  0  0  0  0  0  0  0  0
    5.9779   -0.4511    2.9119 H   0  0  0  0  0  0  0  0  0  0  0  0
    5.1599    1.1225    2.9068 H   0  0  0  0  0  0  0  0  0  0  0  0
    6.5775    0.8707    1.8737 H   0  0  0  0  0  0  0  0  0  0  0  0
    6.2962   -1.3699    0.2931 H   0  0  0  0  0  0  0  0  0  0  0  0
    4.7778   -2.1218   -1.5318 H   0  0  0  0  0  0  0  0  0  0  0  0
    2.4795   -1.2497   -1.6397 H   0  0  0  0  0  0  0  0  0  0  0  0
    1.3645    1.1902    0.9710 H   0  0  0  0  0  0  0  0  0  0  0  0
   -0.5525    2.2331   -0.2887 H   0  0  0  0  0  0  0  0  0  0  0  0
   -1.0726    0.9750    0.8270 H   0  0  0  0  0  0  0  0  0  0  0  0
   -1.6417   -1.4559   -0.0581 H   0  0  0  0  0  0  0  0  0  0  0  0
   -3.4514   -2.8961    0.7728 H   0  0  0  0  0  0  0  0  0  0  0  0
   -5.8081   -2.1244    0.6802 H   0  0  0  0  0  0  0  0  0  0  0  0
   -6.3506    0.0980   -0.2450 H   0  0  0  0  0  0  0  0  0  0  0  0
   -5.6899    2.2117   -1.0930 H   0  0  0  0  0  0  0  0  0  0  0  0
   -4.4184    1.9754   -2.3082 H   0  0  0  0  0  0  0  0  0  0  0  0
   -4.0483    2.7593   -0.7426 H   0  0  0  0  0  0  0  0  0  0  0  0
  1  2  1  0
  2  3  2  0
  3  4  1  0
  4  5  2  0
  5  6  1  0
  6  7  1  0
  7  8  1  0
  8  9  2  0
  8 10  1  0
 10 11  1  0
 11 12  1  0
 12 13  2  0
 13 14  1  0
 14 15  2  0
 15 16  1  0
 16 17  2  0
 17 18  1  0
  6 19  2  0
 19  2  1  0
 17 12  1  0
  1 20  1  0
  1 21  1  0
  1 22  1  0
  3 23  1  0
  4 24  1  0
  5 25  1  0
  7 26  1  0
 10 27  1  0
 10 28  1  0
 13 29  1  0
 14 30  1  0
 15 31  1  0
 16 32  1  0
 18 33  1  0
 18 34  1  0
 18 35  1  0
M  END
$$$$
