
     RDKit          3D

 58 60  0  0  0  0  0  0  0  0999 V2000
    6.7772   -2.7558   -3.2016 C   0  0  0  0  0  0  0  0  0  0  0  0
    6.1756   -1.6454   -2.3943 C   0  0  0  0  0  0  0  0  0  0  0  0
    6.9958   -0.8172   -1.6199 C   0  0  0  0  0  0  0  0  0  0  0  0
    6.4483    0.2352   -0.8821 C   0  0  0  0  0  0  0  0  0  0  0  0
    5.0706    0.4824   -0.9137 C   0  0  0  0  0  0  0  0  0  0  0  0
    4.4673    1.6033   -0.0986 C   0  0  0  0  0  0  0  0  0  0  0  0
    4.3135    1.2462    1.3843 C   0  0  0  0  0  0  0  0  0  0  0  0
    3.4666    0.0882    1.6102 N   0  0  0  0  0  0  0  0  0  0  0  0
    2.0960    0.1621    1.5022 C   0  0  0  0  0  0  0  0  0  0  0  0
    1.4894    1.2056    1.2946 O   0  0  0  0  0  0  0  0  0  0  0  0
    1.4174   -1.1819    1.6366 C   0  0  0  0  0  0  0  0  0  0  0  0
   -0.0955   -1.0356    1.5600 C   0  0  0  0  0  0  0  0  0  0  0  0
   -0.7117   -2.3685    1.5480 N   0  0  0  0  0  0  0  0  0  0  0  0
   -2.2456   -2.5866    2.1907 S   0  0  0  0  0  6  0  0  0  0  0  0
   -2.2257   -2.1463    3.5664 O   0  0  0  0  0  0  0  0  0  0  0  0
   -2.6536   -3.9230    1.8177 O   0  0  0  0  0  0  0  0  0  0  0  0
   -3.2270   -1.4473    1.2457 C   0  0  0  0  0  0  0  0  0  0  0  0
   -3.6153   -1.7900   -0.0490 C   0  0  0  0  0  0  0  0  0  0  0  0
   -4.3900   -0.8986   -0.7984 C   0  0  0  0  0  0  0  0  0  0  0  0
   -4.7935    0.3364   -0.2630 C   0  0  0  0  0  0  0  0  0  0  0  0
   -4.4110    0.6476    1.0423 C   0  0  0  0  0  0  0  0  0  0  0  0
   -3.6326   -0.2372    1.8050 C   0  0  0  0  0  0  0  0  0  0  0  0
   -4.8293    1.9302    1.6274 C   0  0  0  0  0  0  0  0  0  0  0  0
   -4.4590    2.2140    2.7627 O   0  0  0  0  0  0  0  0  0  0  0  0
   -5.6208    2.7491    0.8376 N   0  0  0  0  0  0  0  0  0  0  0  0
   -6.0381    4.0284    1.3853 C   0  0  0  0  0  0  0  0  0  0  0  0
   -5.9715    2.4894   -0.4812 C   0  0  0  0  0  0  0  0  0  0  0  0
   -6.6085    3.3077   -1.1495 O   0  0  0  0  0  0  0  0  0  0  0  0
   -5.5642    1.2668   -1.0092 N   0  0  0  0  0  0  0  0  0  0  0  0
   -5.9364    0.9567   -2.3838 C   0  0  0  0  0  0  0  0  0  0  0  0
    4.2524   -0.3388   -1.6991 C   0  0  0  0  0  0  0  0  0  0  0  0
    4.8007   -1.3906   -2.4371 C   0  0  0  0  0  0  0  0  0  0  0  0
    7.5358   -3.2853   -2.6161 H   0  0  0  0  0  0  0  0  0  0  0  0
    6.0190   -3.4901   -3.4939 H   0  0  0  0  0  0  0  0  0  0  0  0
    7.2406   -2.3540   -4.1075 H   0  0  0  0  0  0  0  0  0  0  0  0
    8.0699   -0.9869   -1.5873 H   0  0  0  0  0  0  0  0  0  0  0  0
    7.1065    0.8627   -0.2863 H   0  0  0  0  0  0  0  0  0  0  0  0
    3.4951    1.8825   -0.5226 H   0  0  0  0  0  0  0  0  0  0  0  0
    5.1023    2.4929   -0.1948 H   0  0  0  0  0  0  0  0  0  0  0  0
    3.8806    2.0991    1.9184 H   0  0  0  0  0  0  0  0  0  0  0  0
    5.2854    1.0226    1.8360 H   0  0  0  0  0  0  0  0  0  0  0  0
    3.9090   -0.8217    1.5605 H   0  0  0  0  0  0  0  0  0  0  0  0
    1.7786   -1.8327    0.8318 H   0  0  0  0  0  0  0  0  0  0  0  0
    1.7057   -1.6338    2.5925 H   0  0  0  0  0  0  0  0  0  0  0  0
   -0.4505   -0.4475    2.4130 H   0  0  0  0  0  0  0  0  0  0  0  0
   -0.3831   -0.5123    0.6411 H   0  0  0  0  0  0  0  0  0  0  0  0
   -0.4854   -3.0128    0.7904 H   0  0  0  0  0  0  0  0  0  0  0  0
   -3.3244   -2.7454   -0.4802 H   0  0  0  0  0  0  0  0  0  0  0  0
   -4.6681   -1.2018   -1.8041 H   0  0  0  0  0  0  0  0  0  0  0  0
   -3.3468    0.0247    2.8226 H   0  0  0  0  0  0  0  0  0  0  0  0
   -5.4373    4.8159    0.9180 H   0  0  0  0  0  0  0  0  0  0  0  0
   -7.0928    4.2078    1.1506 H   0  0  0  0  0  0  0  0  0  0  0  0
   -5.9083    4.0771    2.4698 H   0  0  0  0  0  0  0  0  0  0  0  0
   -5.0309    0.8039   -2.9797 H   0  0  0  0  0  0  0  0  0  0  0  0
   -6.5580    0.0555   -2.3967 H   0  0  0  0  0  0  0  0  0  0  0  0
   -6.5099    1.7615   -2.8519 H   0  0  0  0  0  0  0  0  0  0  0  0
    3.1794   -0.1606   -1.7407 H   0  0  0  0  0  0  0  0  0  0  0  0
    4.1460   -2.0079   -3.0471 H   0  0  0  0  0  0  0  0  0  0  0  0
  1  2  1  0
  2  3  2  0
  3  4  1  0
  4  5  2  0
  5  6  1  0
  6  7  1  0
  7  8  1  0
  8  9  1  0
  9 10  2  0
  9 11  1  0
 11 12  1  0
 12 13  1  0
 13 14  1  0
 14 15  2  0
 14 16  2  0
 14 17  1  0
 17 18  2  0
 18 19  1  0
 19 20  2  0
 20 21  1  0
 21 22  2  0
 21 23  1  0
 23 24  2  0
 23 25  1  0
 25 26  1  0
 25 27  1  0
 27 28  2  0
 27 29  1  0
 29 30  1  0
  5 31  1  0
 31 32  2  0
 32  2  1  0
 22 17  1  0
 29 20  1  0
  1 33  1  0
  1 34  1  0
  1 35  1  0
  3 36  1  0
  4 37  1  0
  6 38  1  0
  6 39  1  0
  7 40  1  0
  7 41  1  0
  8 42  1  0
 11 43  1  0
 11 44  1  0
 12 45  1  0
 12 46  1  0
 13 47  1  0
 18 48  1  0
 19 49  1  0
 22 50  1  0
 26 51  1  0
 26 52  1  0
 26 53  1  0
 30 54  1  0
 30 55  1  0
 30 56  1  0
 31 57  1  0
 32 58  1  0
M  END
$$$$
