
     RDKit          3D

 49 51  0  0  0  0  0  0  0  0999 V2000
    2.4298    2.3040    3.4291 C   0  0  0  0  0  0  0  0  0  0  0  0
    2.7418    1.3064    2.4677 O   0  0  0  0  0  0  0  0  0  0  0  0
    2.3989    1.5544    1.1615 C   0  0  0  0  0  0  0  0  0  0  0  0
    1.6171    2.6386    0.7436 C   0  0  0  0  0  0  0  0  0  0  0  0
    1.3026    2.8033   -0.6065 C   0  0  0  0  0  0  0  0  0  0  0  0
    1.7775    1.8819   -1.5401 C   0  0  0  0  0  0  0  0  0  0  0  0
    1.3669    2.0701   -3.2607 S   0  0  0  0  0  6  0  0  0  0  0  0
    2.5703    1.8068   -4.0208 O   0  0  0  0  0  0  0  0  0  0  0  0
    0.6348    3.3093   -3.4175 O   0  0  0  0  0  0  0  0  0  0  0  0
    0.3200    0.7748   -3.5585 N   0  0  0  0  0  0  0  0  0  0  0  0
   -0.7660    0.5589   -2.6618 C   0  0  0  0  0  0  0  0  0  0  0  0
   -1.8092    1.4671   -2.5800 C   0  0  0  0  0  0  0  0  0  0  0  0
   -2.8110    1.2635   -1.6391 C   0  0  0  0  0  0  0  0  0  0  0  0
   -2.7648    0.1596   -0.7652 C   0  0  0  0  0  0  0  0  0  0  0  0
   -1.7203   -0.7901   -0.8515 C   0  0  0  0  0  0  0  0  0  0  0  0
   -0.7262   -0.5542   -1.8131 C   0  0  0  0  0  0  0  0  0  0  0  0
   -1.6959   -1.9369    0.0383 N   0  0  0  0  0  0  0  0  0  0  0  0
   -0.7753   -2.9977   -0.0997 C   0  0  0  0  0  0  0  0  0  0  0  0
   -0.9645   -4.1842    0.8232 C   0  0  0  0  0  0  0  0  0  0  0  0
    0.1617   -3.0495   -0.8981 O   0  0  0  0  0  0  0  0  0  0  0  0
   -2.7883   -2.0466    1.0176 C   0  0  0  0  0  0  0  0  0  0  0  0
   -3.3807   -0.7201    1.4521 C   0  0  0  0  0  0  0  0  0  0  0  0
   -3.8813    0.0177    0.2324 C   0  0  0  0  0  0  0  0  0  0  0  0
    2.5741    0.8028   -1.1444 C   0  0  0  0  0  0  0  0  0  0  0  0
    2.8657    0.6217    0.2106 C   0  0  0  0  0  0  0  0  0  0  0  0
    3.6226   -0.4166    0.6959 O   0  0  0  0  0  0  0  0  0  0  0  0
    3.7259   -1.5724   -0.1268 C   0  0  0  0  0  0  0  0  0  0  0  0
    1.3467    2.4068    3.5510 H   0  0  0  0  0  0  0  0  0  0  0  0
    2.8424    1.9827    4.3904 H   0  0  0  0  0  0  0  0  0  0  0  0
    2.8929    3.2626    3.1728 H   0  0  0  0  0  0  0  0  0  0  0  0
    1.2294    3.3685    1.4465 H   0  0  0  0  0  0  0  0  0  0  0  0
    0.6867    3.6448   -0.9165 H   0  0  0  0  0  0  0  0  0  0  0  0
    0.8273   -0.0487   -3.8809 H   0  0  0  0  0  0  0  0  0  0  0  0
   -1.8498    2.3305   -3.2392 H   0  0  0  0  0  0  0  0  0  0  0  0
   -3.6287    1.9793   -1.5791 H   0  0  0  0  0  0  0  0  0  0  0  0
    0.1280   -1.2095   -1.9161 H   0  0  0  0  0  0  0  0  0  0  0  0
   -0.6993   -3.9106    1.8475 H   0  0  0  0  0  0  0  0  0  0  0  0
   -1.9870   -4.5656    0.7691 H   0  0  0  0  0  0  0  0  0  0  0  0
   -0.2979   -4.9939    0.5077 H   0  0  0  0  0  0  0  0  0  0  0  0
   -3.5592   -2.6886    0.5727 H   0  0  0  0  0  0  0  0  0  0  0  0
   -2.4278   -2.5488    1.9201 H   0  0  0  0  0  0  0  0  0  0  0  0
   -4.2032   -0.8861    2.1567 H   0  0  0  0  0  0  0  0  0  0  0  0
   -2.6193   -0.1246    1.9724 H   0  0  0  0  0  0  0  0  0  0  0  0
   -4.2517    1.0025    0.5407 H   0  0  0  0  0  0  0  0  0  0  0  0
   -4.7128   -0.5222   -0.2361 H   0  0  0  0  0  0  0  0  0  0  0  0
    2.9529    0.1218   -1.8992 H   0  0  0  0  0  0  0  0  0  0  0  0
    4.1661   -2.3729    0.4756 H   0  0  0  0  0  0  0  0  0  0  0  0
    4.3949   -1.3871   -0.9731 H   0  0  0  0  0  0  0  0  0  0  0  0
    2.7430   -1.9136   -0.4680 H   0  0  0  0  0  0  0  0  0  0  0  0
  1  2  1  0
  2  3  1  0
  3  4  2  0
  4  5  1  0
  5  6  2  0
  6  7  1  0
  7  8  2  0
  7  9  2  0
  7 10  1  0
 10 11  1  0
 11 12  2  0
 12 13  1  0
 13 14  2  0
 14 15  1  0
 15 16  2  0
 15 17  1  0
 17 18  1  0
 18 19  1  0
 18 20  2  0
 17 21  1  0
 21 22  1  0
 22 23  1  0
  6 24  1  0
 24 25  2  0
 25 26  1  0
 26 27  1  0
 25  3  1  0
 16 11  1  0
 23 14  1  0
  1 28  1  0
  1 29  1  0
  1 30  1  0
  4 31  1  0
  5 32  1  0
 10 33  1  0
 12 34  1  0
 13 35  1  0
 16 36  1  0
 19 37  1  0
 19 38  1  0
 19 39  1  0
 21 40  1  0
 21 41  1  0
 22 42  1  0
 22 43  1  0
 23 44  1  0
 23 45  1  0
 24 46  1  0
 27 47  1  0
 27 48  1  0
 27 49  1  0
M  END
$$$$
