
     RDKit          3D

 23 23  0  0  0  0  0  0  0  0999 V2000
   -1.8215    2.8074   -0.9223 O   0  0  0  0  0  0  0  0  0  0  0  0
   -0.9961    1.9508   -0.6629 C   0  0  0  0  0  0  0  0  0  0  0  0
    0.3224    2.1911   -0.7696 O   0  0  0  0  0  0  0  0  0  0  0  0
   -1.2958    0.5390   -0.3517 C   0  0  0  0  0  0  0  0  0  0  0  0
   -2.3755   -0.0379   -1.0409 C   0  0  0  0  0  0  0  0  0  0  0  0
   -2.7315   -1.3659   -0.8084 C   0  0  0  0  0  0  0  0  0  0  0  0
   -2.0233   -2.1184    0.1242 C   0  0  0  0  0  0  0  0  0  0  0  0
   -0.9604   -1.5421    0.8237 C   0  0  0  0  0  0  0  0  0  0  0  0
   -0.5728   -0.2140    0.5900 C   0  0  0  0  0  0  0  0  0  0  0  0
    0.4622    0.3125    1.3811 N   0  0  0  0  0  0  0  0  0  0  0  0
    1.6965    0.2369    0.9718 C   0  0  0  0  0  0  0  0  0  0  0  0
    2.2076   -0.4021   -0.2860 C   0  0  0  0  0  0  0  0  0  0  0  0
    3.1851    0.5467   -0.8938 N   0  0  0  0  0  4  0  0  0  0  0  0
    2.9190    1.0027   -2.0129 O   0  0  0  0  0  0  0  0  0  0  0  0
    4.2198    0.7785   -0.2532 O   0  0  0  0  0  1  0  0  0  0  0  0
    0.3705    3.1319   -1.0434 H   0  0  0  0  0  0  0  0  0  0  0  0
   -2.9422    0.5520   -1.7596 H   0  0  0  0  0  0  0  0  0  0  0  0
   -3.5690   -1.8067   -1.3442 H   0  0  0  0  0  0  0  0  0  0  0  0
   -2.3101   -3.1483    0.3236 H   0  0  0  0  0  0  0  0  0  0  0  0
   -0.4396   -2.1275    1.5782 H   0  0  0  0  0  0  0  0  0  0  0  0
    2.4556    0.6430    1.6641 H   0  0  0  0  0  0  0  0  0  0  0  0
    1.4341   -0.6198   -1.0230 H   0  0  0  0  0  0  0  0  0  0  0  0
    2.7650   -1.3100   -0.0407 H   0  0  0  0  0  0  0  0  0  0  0  0
  1  2  2  0
  2  3  1  0
  2  4  1  0
  4  5  2  0
  5  6  1  0
  6  7  2  0
  7  8  1  0
  8  9  2  0
  9 10  1  0
 10 11  2  3
 11 12  1  0
 12 13  1  0
 13 14  2  0
 13 15  1  0
  9  4  1  0
  3 16  1  0
  5 17  1  0
  6 18  1  0
  7 19  1  0
  8 20  1  0
 11 21  1  0
 12 22  1  0
 12 23  1  0
M  CHG  2  13   1  15  -1
M  END
$$$$
