
     RDKit          3D

 47 49  0  0  0  0  0  0  0  0999 V2000
   -3.5585    2.1913   -0.1180 C   0  0  0  0  0  0  0  0  0  0  0  0
   -3.5860    1.4722    1.2206 C   0  0  0  0  0  0  0  0  0  0  0  0
   -4.0234    0.0746    1.0946 N   0  0  0  0  0  4  0  0  0  0  0  0
   -3.1798   -0.9493    1.0794 C   0  0  0  0  0  0  0  0  0  0  0  0
   -1.7671   -0.9068    1.1505 C   0  0  0  0  0  0  0  0  0  0  0  0
   -1.0325   -0.5340    0.0913 C   0  0  0  0  0  0  0  0  0  0  0  0
    0.4129   -0.4873    0.1261 C   0  0  0  0  0  0  0  0  0  0  0  0
    1.1504   -0.1022   -0.9272 C   0  0  0  0  0  0  0  0  0  0  0  0
    2.6182   -0.0398   -0.9115 C   0  0  0  0  0  0  0  0  0  0  0  0
    3.4048   -1.0227   -0.3128 C   0  0  0  0  0  0  0  0  0  0  0  0
    4.8063   -0.9400   -0.3498 C   0  0  0  0  0  0  0  0  0  0  0  0
    5.4833    0.1174   -0.9811 C   0  0  0  0  0  0  0  0  0  0  0  0
    6.8784    0.1836   -1.0310 N   0  0  0  0  0  0  0  0  0  0  0  0
    7.5243    1.4235   -1.4590 C   0  0  0  0  0  0  0  0  0  0  0  0
    7.6700   -0.6692   -0.1456 C   0  0  0  0  0  0  0  0  0  0  0  0
    4.6655    1.0769   -1.6017 C   0  0  0  0  0  0  0  0  0  0  0  0
    3.2635    1.0040   -1.5722 C   0  0  0  0  0  0  0  0  0  0  0  0
   -4.0196   -2.4419    1.0079 S   0  0  0  0  0  0  0  0  0  0  0  0
   -5.5496   -1.6583    0.9654 C   0  0  0  0  0  0  0  0  0  0  0  0
   -6.8273   -2.2339    0.8896 C   0  0  0  0  0  0  0  0  0  0  0  0
   -7.9339   -1.3815    0.8801 C   0  0  0  0  0  0  0  0  0  0  0  0
   -7.7735   -0.0014    0.9457 C   0  0  0  0  0  0  0  0  0  0  0  0
   -6.4962    0.5676    1.0213 C   0  0  0  0  0  0  0  0  0  0  0  0
   -5.3679   -0.2787    1.0277 C   0  0  0  0  0  0  0  0  0  0  0  0
   -2.8801    1.6988   -0.8195 H   0  0  0  0  0  0  0  0  0  0  0  0
   -3.2234    3.2246    0.0135 H   0  0  0  0  0  0  0  0  0  0  0  0
   -4.5500    2.2118   -0.5798 H   0  0  0  0  0  0  0  0  0  0  0  0
   -4.2583    1.9917    1.9135 H   0  0  0  0  0  0  0  0  0  0  0  0
   -2.5961    1.5196    1.6875 H   0  0  0  0  0  0  0  0  0  0  0  0
   -1.2919   -1.2276    2.0755 H   0  0  0  0  0  0  0  0  0  0  0  0
   -1.5008   -0.2654   -0.8550 H   0  0  0  0  0  0  0  0  0  0  0  0
    0.9069   -0.7701    1.0549 H   0  0  0  0  0  0  0  0  0  0  0  0
    0.6854    0.2062   -1.8610 H   0  0  0  0  0  0  0  0  0  0  0  0
    2.9520   -1.8816    0.1754 H   0  0  0  0  0  0  0  0  0  0  0  0
    5.3558   -1.7468    0.1262 H   0  0  0  0  0  0  0  0  0  0  0  0
    7.2537    1.6755   -2.4900 H   0  0  0  0  0  0  0  0  0  0  0  0
    8.6160    1.3289   -1.4502 H   0  0  0  0  0  0  0  0  0  0  0  0
    7.2595    2.2537   -0.7950 H   0  0  0  0  0  0  0  0  0  0  0  0
    7.4433   -0.4613    0.9059 H   0  0  0  0  0  0  0  0  0  0  0  0
    8.7442   -0.5072   -0.2898 H   0  0  0  0  0  0  0  0  0  0  0  0
    7.4958   -1.7296   -0.3574 H   0  0  0  0  0  0  0  0  0  0  0  0
    5.0997    1.9146   -2.1392 H   0  0  0  0  0  0  0  0  0  0  0  0
    2.6934    1.7811   -2.0756 H   0  0  0  0  0  0  0  0  0  0  0  0
   -6.9607   -3.3126    0.8413 H   0  0  0  0  0  0  0  0  0  0  0  0
   -8.9366   -1.8061    0.8218 H   0  0  0  0  0  0  0  0  0  0  0  0
   -8.6546    0.6406    0.9376 H   0  0  0  0  0  0  0  0  0  0  0  0
   -6.4157    1.6497    1.0693 H   0  0  0  0  0  0  0  0  0  0  0  0
  1  2  1  0
  2  3  1  0
  3  4  2  0
  4  5  1  0
  5  6  2  3
  6  7  1  0
  7  8  2  3
  8  9  1  0
  9 10  2  0
 10 11  1  0
 11 12  2  0
 12 13  1  0
 13 14  1  0
 13 15  1  0
 12 16  1  0
 16 17  2  0
  4 18  1  0
 18 19  1  0
 19 20  2  0
 20 21  1  0
 21 22  2  0
 22 23  1  0
 23 24  2  0
 24  3  1  0
 17  9  1  0
 24 19  1  0
  1 25  1  0
  1 26  1  0
  1 27  1  0
  2 28  1  0
  2 29  1  0
  5 30  1  0
  6 31  1  0
  7 32  1  0
  8 33  1  0
 10 34  1  0
 11 35  1  0
 14 36  1  0
 14 37  1  0
 14 38  1  0
 15 39  1  0
 15 40  1  0
 15 41  1  0
 16 42  1  0
 17 43  1  0
 20 44  1  0
 21 45  1  0
 22 46  1  0
 23 47  1  0
M  CHG  1   3   1
M  END
$$$$
