
     RDKit          3D

 68 71  0  0  0  0  0  0  0  0999 V2000
   -1.3181   -5.1951   -4.5151 C   0  0  0  0  0  0  0  0  0  0  0  0
   -1.4881   -4.3633   -3.2790 C   0  0  0  0  0  0  0  0  0  0  0  0
   -2.3103   -3.2330   -3.2825 C   0  0  0  0  0  0  0  0  0  0  0  0
   -2.4498   -2.4484   -2.1328 C   0  0  0  0  0  0  0  0  0  0  0  0
   -1.7613   -2.7694   -0.9536 C   0  0  0  0  0  0  0  0  0  0  0  0
   -1.8806   -1.9464    0.3305 C   0  0  0  0  0  0  0  0  0  0  0  0
   -3.0038   -0.8717    0.3393 C   0  0  0  0  0  0  0  0  0  0  0  0
   -4.1386   -1.1325    0.7410 O   0  0  0  0  0  0  0  0  0  0  0  0
   -2.6740    0.3532   -0.2000 N   0  0  0  0  0  0  0  0  0  0  0  0
   -3.6428    1.4114   -0.3593 C   0  0  0  0  0  0  0  0  0  0  0  0
   -4.0471    2.0566    0.9647 C   0  0  0  0  0  0  0  0  0  0  0  0
   -4.6132    3.4166    0.5713 C   0  0  0  0  0  0  0  0  0  0  0  0
   -4.0356    3.7376   -0.8070 C   0  0  0  0  0  0  0  0  0  0  0  0
   -3.0830    2.5957   -1.1387 C   0  0  0  0  0  0  0  0  0  0  0  0
   -0.5680   -1.4577    0.8277 N   0  0  0  0  0  0  0  0  0  0  0  0
   -0.2966   -1.6741    2.2514 C   0  0  0  0  0  0  0  0  0  0  0  0
   -1.0030   -0.6582    3.0743 C   0  0  0  0  0  0  0  0  0  0  0  0
   -2.2445   -0.6157    3.6760 C   0  0  0  0  0  0  0  0  0  0  0  0
   -2.3295    0.6368    4.3304 C   0  0  0  0  0  0  0  0  0  0  0  0
   -1.1366    1.2764    4.0905 C   0  0  0  0  0  0  0  0  0  0  0  0
   -0.3246    0.4979    3.3306 O   0  0  0  0  0  0  0  0  0  0  0  0
    0.2175   -0.6408    0.0237 C   0  0  0  0  0  0  0  0  0  0  0  0
   -0.1740   -0.2320   -1.0723 O   0  0  0  0  0  0  0  0  0  0  0  0
    1.5892   -0.2517    0.5439 C   0  0  0  0  0  0  0  0  0  0  0  0
    2.4021    0.4971   -0.5083 C   0  0  0  0  0  0  0  0  0  0  0  0
    3.7672    0.8876    0.0222 C   0  0  0  0  0  0  0  0  0  0  0  0
    4.0466    0.8277    1.2163 O   0  0  0  0  0  0  0  0  0  0  0  0
    4.6096    1.3152   -0.9784 N   0  0  0  0  0  0  0  0  0  0  0  0
    5.8984    1.7642   -0.7896 C   0  0  0  0  0  0  0  0  0  0  0  0
    6.6062    1.9821    0.4144 C   0  0  0  0  0  0  0  0  0  0  0  0
    7.8414    2.4275    0.0146 C   0  0  0  0  0  0  0  0  0  0  0  0
    9.0678    2.8199    0.7285 C   0  0  0  0  0  0  0  0  0  0  0  0
    7.8759    2.4787   -1.3432 O   0  0  0  0  0  0  0  0  0  0  0  0
    6.6609    2.0542   -1.8519 N   0  0  0  0  0  0  0  0  0  0  0  0
   -0.9335   -3.9082   -0.9606 C   0  0  0  0  0  0  0  0  0  0  0  0
   -0.7958   -4.6919   -2.1095 C   0  0  0  0  0  0  0  0  0  0  0  0
   -0.3252   -5.0310   -4.9448 H   0  0  0  0  0  0  0  0  0  0  0  0
   -1.4358   -6.2574   -4.2777 H   0  0  0  0  0  0  0  0  0  0  0  0
   -2.0667   -4.9439   -5.2735 H   0  0  0  0  0  0  0  0  0  0  0  0
   -2.8526   -2.9489   -4.1823 H   0  0  0  0  0  0  0  0  0  0  0  0
   -3.1045   -1.5818   -2.1873 H   0  0  0  0  0  0  0  0  0  0  0  0
   -2.2305   -2.6784    1.0749 H   0  0  0  0  0  0  0  0  0  0  0  0
   -1.8321    0.3716   -0.7775 H   0  0  0  0  0  0  0  0  0  0  0  0
   -4.5267    1.0054   -0.8676 H   0  0  0  0  0  0  0  0  0  0  0  0
   -4.7727    1.4573    1.5228 H   0  0  0  0  0  0  0  0  0  0  0  0
   -3.1707    2.1947    1.6107 H   0  0  0  0  0  0  0  0  0  0  0  0
   -5.7069    3.3783    0.5168 H   0  0  0  0  0  0  0  0  0  0  0  0
   -4.3498    4.1810    1.3096 H   0  0  0  0  0  0  0  0  0  0  0  0
   -3.5241    4.7047   -0.8213 H   0  0  0  0  0  0  0  0  0  0  0  0
   -4.8462    3.7837   -1.5435 H   0  0  0  0  0  0  0  0  0  0  0  0
   -3.0287    2.3985   -2.2142 H   0  0  0  0  0  0  0  0  0  0  0  0
   -2.0692    2.8435   -0.7983 H   0  0  0  0  0  0  0  0  0  0  0  0
    0.7758   -1.6303    2.4579 H   0  0  0  0  0  0  0  0  0  0  0  0
   -0.6164   -2.6861    2.5225 H   0  0  0  0  0  0  0  0  0  0  0  0
   -3.0047   -1.3849    3.6376 H   0  0  0  0  0  0  0  0  0  0  0  0
   -3.1616    1.0263    4.8999 H   0  0  0  0  0  0  0  0  0  0  0  0
   -0.7315    2.2385    4.3721 H   0  0  0  0  0  0  0  0  0  0  0  0
    1.4652    0.3803    1.4290 H   0  0  0  0  0  0  0  0  0  0  0  0
    2.1314   -1.1609    0.8286 H   0  0  0  0  0  0  0  0  0  0  0  0
    2.5283   -0.1306   -1.3989 H   0  0  0  0  0  0  0  0  0  0  0  0
    1.8832    1.4147   -0.8110 H   0  0  0  0  0  0  0  0  0  0  0  0
    4.3263    1.2693   -1.9481 H   0  0  0  0  0  0  0  0  0  0  0  0
    6.2761    1.8261    1.4303 H   0  0  0  0  0  0  0  0  0  0  0  0
    8.8209    3.3755    1.6398 H   0  0  0  0  0  0  0  0  0  0  0  0
    9.6408    1.9329    1.0114 H   0  0  0  0  0  0  0  0  0  0  0  0
    9.7039    3.4567    0.1065 H   0  0  0  0  0  0  0  0  0  0  0  0
   -0.3825   -4.1898   -0.0657 H   0  0  0  0  0  0  0  0  0  0  0  0
   -0.1429   -5.5619   -2.0858 H   0  0  0  0  0  0  0  0  0  0  0  0
  1  2  1  0
  2  3  2  0
  3  4  1  0
  4  5  2  0
  5  6  1  0
  6  7  1  0
  7  8  2  0
  7  9  1  0
  9 10  1  0
 10 11  1  0
 11 12  1  0
 12 13  1  0
 13 14  1  0
  6 15  1  0
 15 16  1  0
 16 17  1  0
 17 18  2  0
 18 19  1  0
 19 20  2  0
 20 21  1  0
 15 22  1  0
 22 23  2  0
 22 24  1  0
 24 25  1  0
 25 26  1  0
 26 27  2  0
 26 28  1  0
 28 29  1  0
 29 30  1  0
 30 31  2  0
 31 32  1  0
 31 33  1  0
 33 34  1  0
  5 35  1  0
 35 36  2  0
 36  2  1  0
 14 10  1  0
 21 17  1  0
 34 29  2  0
  1 37  1  0
  1 38  1  0
  1 39  1  0
  3 40  1  0
  4 41  1  0
  6 42  1  0
  9 43  1  0
 10 44  1  0
 11 45  1  0
 11 46  1  0
 12 47  1  0
 12 48  1  0
 13 49  1  0
 13 50  1  0
 14 51  1  0
 14 52  1  0
 16 53  1  0
 16 54  1  0
 18 55  1  0
 19 56  1  0
 20 57  1  0
 24 58  1  0
 24 59  1  0
 25 60  1  0
 25 61  1  0
 28 62  1  0
 30 63  1  0
 32 64  1  0
 32 65  1  0
 32 66  1  0
 35 67  1  0
 36 68  1  0
M  END
$$$$
