
     RDKit          3D

 41 43  0  0  0  0  0  0  0  0999 V2000
   -3.2581   -1.0025    1.4755 C   0  0  0  0  0  0  0  0  0  0  0  0
   -3.0978   -0.1571    0.3200 N   0  0  0  0  0  0  0  0  0  0  0  0
   -1.9395    0.1002   -0.3596 C   0  0  0  0  0  0  0  0  0  0  0  0
   -0.3765   -0.4259    0.1535 S   0  0  0  0  0  0  0  0  0  0  0  0
    0.5885   -0.0484   -1.3404 C   0  0  0  0  0  0  0  0  0  0  0  0
    2.0493   -0.3612   -1.0804 C   0  0  0  0  0  0  0  0  0  0  0  0
    2.5662   -1.4153   -1.4450 O   0  0  0  0  0  0  0  0  0  0  0  0
    2.7062    0.6664   -0.3998 N   0  0  0  0  0  0  0  0  0  0  0  0
    3.9853    0.5682    0.0952 N   0  0  0  0  0  0  0  0  0  0  0  0
    4.8749   -0.0324   -0.6346 C   0  0  0  0  0  0  0  0  0  0  0  0
    6.2205   -0.1998   -0.1364 C   0  0  0  0  0  0  0  0  0  0  0  0
    6.7441    0.1558    1.0927 C   0  0  0  0  0  0  0  0  0  0  0  0
    8.1272   -0.1786    1.2097 C   0  0  0  0  0  0  0  0  0  0  0  0
    8.5979   -0.7743    0.0592 C   0  0  0  0  0  0  0  0  0  0  0  0
    9.9405   -1.2381   -0.1787 N   0  0  0  0  0  4  0  0  0  0  0  0
   10.7398   -1.1057    0.7585 O   0  0  0  0  0  0  0  0  0  0  0  0
   10.2075   -1.7268   -1.2839 O   0  0  0  0  0  1  0  0  0  0  0  0
    7.4010   -0.9328   -1.1366 S   0  0  0  0  0  0  0  0  0  0  0  0
   -2.1976    0.8136   -1.4274 N   0  0  0  0  0  0  0  0  0  0  0  0
   -3.5488    1.0521   -1.4471 N   0  0  0  0  0  0  0  0  0  0  0  0
   -4.0910    0.5061   -0.3719 C   0  0  0  0  0  0  0  0  0  0  0  0
   -5.5073    0.5767   -0.0186 C   0  0  0  0  0  0  0  0  0  0  0  0
   -6.4746    0.3246   -1.0022 C   0  0  0  0  0  0  0  0  0  0  0  0
   -7.8369    0.3940   -0.6969 C   0  0  0  0  0  0  0  0  0  0  0  0
   -8.2392    0.7287    0.5937 C   0  0  0  0  0  0  0  0  0  0  0  0
   -9.9144    0.8148    0.9733 Cl  0  0  0  0  0  0  0  0  0  0  0  0
   -7.2915    1.0018    1.5781 C   0  0  0  0  0  0  0  0  0  0  0  0
   -5.9288    0.9315    1.2714 C   0  0  0  0  0  0  0  0  0  0  0  0
   -3.0452   -0.4091    2.3683 H   0  0  0  0  0  0  0  0  0  0  0  0
   -2.5740   -1.8522    1.4098 H   0  0  0  0  0  0  0  0  0  0  0  0
   -4.2765   -1.3960    1.5125 H   0  0  0  0  0  0  0  0  0  0  0  0
    0.4889    1.0076   -1.6142 H   0  0  0  0  0  0  0  0  0  0  0  0
    0.2418   -0.6570   -2.1820 H   0  0  0  0  0  0  0  0  0  0  0  0
    2.1190    1.2999    0.1387 H   0  0  0  0  0  0  0  0  0  0  0  0
    4.6597   -0.4002   -1.6532 H   0  0  0  0  0  0  0  0  0  0  0  0
    6.1580    0.6322    1.8715 H   0  0  0  0  0  0  0  0  0  0  0  0
    8.7334    0.0108    2.0887 H   0  0  0  0  0  0  0  0  0  0  0  0
   -6.1675    0.0756   -2.0172 H   0  0  0  0  0  0  0  0  0  0  0  0
   -8.5730    0.1931   -1.4709 H   0  0  0  0  0  0  0  0  0  0  0  0
   -7.6064    1.2804    2.5805 H   0  0  0  0  0  0  0  0  0  0  0  0
   -5.2055    1.1794    2.0446 H   0  0  0  0  0  0  0  0  0  0  0  0
  1  2  1  0
  2  3  1  0
  3  4  1  0
  4  5  1  0
  5  6  1  0
  6  7  2  0
  6  8  1  0
  8  9  1  0
  9 10  2  3
 10 11  1  0
 11 12  2  0
 12 13  1  0
 13 14  2  0
 14 15  1  0
 15 16  2  0
 15 17  1  0
 14 18  1  0
  3 19  2  0
 19 20  1  0
 20 21  2  0
 21 22  1  0
 22 23  2  0
 23 24  1  0
 24 25  2  0
 25 26  1  0
 25 27  1  0
 27 28  2  0
 21  2  1  0
 28 22  1  0
 18 11  1  0
  1 29  1  0
  1 30  1  0
  1 31  1  0
  5 32  1  0
  5 33  1  0
  8 34  1  0
 10 35  1  0
 12 36  1  0
 13 37  1  0
 23 38  1  0
 24 39  1  0
 27 40  1  0
 28 41  1  0
M  CHG  2  15   1  17  -1
M  END
$$$$
