
     RDKit          3D

 27 27  0  0  0  0  0  0  0  0999 V2000
   -1.8823   -1.2889   -0.1478 C   0  0  0  0  0  0  0  0  0  0  0  0
   -1.4968    0.1928   -0.2691 C   0  0  0  0  0  0  0  0  0  0  0  0
   -0.9362    0.4608   -1.6677 C   0  0  0  0  0  0  0  0  0  0  0  0
   -2.7589    1.0513   -0.0680 C   0  0  0  0  0  0  0  0  0  0  0  0
   -0.3066    0.6548    1.0289 S   0  0  0  0  0  6  0  0  0  0  0  0
    0.1787    2.0040    0.8317 O   0  0  0  0  0  0  0  0  0  0  0  0
   -0.8343    0.2438    2.3169 O   0  0  0  0  0  0  0  0  0  0  0  0
    1.0988   -0.3563    0.8370 C   0  0  0  0  0  0  0  0  0  0  0  0
    1.2032   -1.6436    1.4603 C   0  0  0  0  0  0  0  0  0  0  0  0
    2.4213   -2.2383    1.2274 C   0  0  0  0  0  0  0  0  0  0  0  0
    3.4423   -1.2489    0.2837 S   0  0  0  0  0  0  0  0  0  0  0  0
    2.2601   -0.0054    0.1709 C   0  0  0  0  0  0  0  0  0  0  0  0
    2.5613    1.1780   -0.5939 C   0  0  0  0  0  0  0  0  0  0  0  0
    1.8810    1.6926   -1.4678 O   0  0  0  0  0  0  0  0  0  0  0  0
    3.7582    1.7083   -0.2607 O   0  0  0  0  0  0  0  0  0  0  0  0
   -1.0305   -1.9456   -0.3503 H   0  0  0  0  0  0  0  0  0  0  0  0
   -2.6687   -1.5501   -0.8653 H   0  0  0  0  0  0  0  0  0  0  0  0
   -2.2563   -1.5279    0.8535 H   0  0  0  0  0  0  0  0  0  0  0  0
   -0.0437   -0.1403   -1.8665 H   0  0  0  0  0  0  0  0  0  0  0  0
   -0.6749    1.5159   -1.7966 H   0  0  0  0  0  0  0  0  0  0  0  0
   -1.6725    0.2113   -2.4406 H   0  0  0  0  0  0  0  0  0  0  0  0
   -3.2043    0.8795    0.9183 H   0  0  0  0  0  0  0  0  0  0  0  0
   -2.5274    2.1200   -0.1403 H   0  0  0  0  0  0  0  0  0  0  0  0
   -3.5201    0.8224   -0.8222 H   0  0  0  0  0  0  0  0  0  0  0  0
    0.4279   -2.0999    2.0667 H   0  0  0  0  0  0  0  0  0  0  0  0
    2.7679   -3.2010    1.5799 H   0  0  0  0  0  0  0  0  0  0  0  0
    3.8130    2.5107   -0.8185 H   0  0  0  0  0  0  0  0  0  0  0  0
  1  2  1  0
  2  3  1  0
  2  4  1  0
  2  5  1  0
  5  6  2  0
  5  7  2  0
  5  8  1  0
  8  9  1  0
  9 10  2  0
 10 11  1  0
 11 12  1  0
 12 13  1  0
 13 14  2  0
 13 15  1  0
 12  8  2  0
  1 16  1  0
  1 17  1  0
  1 18  1  0
  3 19  1  0
  3 20  1  0
  3 21  1  0
  4 22  1  0
  4 23  1  0
  4 24  1  0
  9 25  1  0
 10 26  1  0
 15 27  1  0
M  END
$$$$
