
     RDKit          3D

 33 34  0  0  0  0  0  0  0  0999 V2000
   -1.5278   -1.2979    2.1276 N   0  0  0  0  0  0  0  0  0  0  0  0
   -1.8035   -0.3180    1.3202 C   0  0  0  0  0  0  0  0  0  0  0  0
   -0.8041    0.5292    0.8661 N   0  0  0  0  0  0  0  0  0  0  0  0
    0.4637   -0.0895    0.9091 O   0  0  0  0  0  0  0  0  0  0  0  0
    0.8843   -0.4689   -0.3367 C   0  0  0  0  0  0  0  0  0  0  0  0
    0.3051   -0.1547   -1.3745 O   0  0  0  0  0  0  0  0  0  0  0  0
    2.1577   -1.2712   -0.2560 C   0  0  0  0  0  0  0  0  0  0  0  0
    3.3659   -0.4744   -0.6699 C   0  0  0  0  0  0  0  0  0  0  0  0
    4.1695    0.1514    0.2918 C   0  0  0  0  0  0  0  0  0  0  0  0
    5.2757    0.9083   -0.0978 C   0  0  0  0  0  0  0  0  0  0  0  0
    5.5846    1.0520   -1.4489 C   0  0  0  0  0  0  0  0  0  0  0  0
    4.7867    0.4416   -2.4125 C   0  0  0  0  0  0  0  0  0  0  0  0
    3.6812   -0.3173   -2.0259 C   0  0  0  0  0  0  0  0  0  0  0  0
   -3.2117   -0.0450    0.8705 C   0  0  0  0  0  0  0  0  0  0  0  0
   -3.5855    1.2974    0.6866 C   0  0  0  0  0  0  0  0  0  0  0  0
   -4.8675    1.6291    0.2474 C   0  0  0  0  0  0  0  0  0  0  0  0
   -5.7954    0.6195   -0.0117 C   0  0  0  0  0  0  0  0  0  0  0  0
   -5.4427   -0.7134    0.1823 C   0  0  0  0  0  0  0  0  0  0  0  0
   -4.1573   -1.0525    0.6224 C   0  0  0  0  0  0  0  0  0  0  0  0
   -3.8221   -2.7435    0.7911 Cl  0  0  0  0  0  0  0  0  0  0  0  0
   -2.3738   -1.8218    2.3814 H   0  0  0  0  0  0  0  0  0  0  0  0
   -0.9789    0.9352   -0.0558 H   0  0  0  0  0  0  0  0  0  0  0  0
    2.2864   -1.6598    0.7614 H   0  0  0  0  0  0  0  0  0  0  0  0
    2.0437   -2.1589   -0.8909 H   0  0  0  0  0  0  0  0  0  0  0  0
    3.9406    0.0547    1.3514 H   0  0  0  0  0  0  0  0  0  0  0  0
    5.8969    1.3877    0.6538 H   0  0  0  0  0  0  0  0  0  0  0  0
    6.4444    1.6431   -1.7498 H   0  0  0  0  0  0  0  0  0  0  0  0
    5.0227    0.5576   -3.4672 H   0  0  0  0  0  0  0  0  0  0  0  0
    3.0610   -0.7815   -2.7897 H   0  0  0  0  0  0  0  0  0  0  0  0
   -2.8866    2.0995    0.8948 H   0  0  0  0  0  0  0  0  0  0  0  0
   -5.1433    2.6786    0.1043 H   0  0  0  0  0  0  0  0  0  0  0  0
   -6.7923    0.8740   -0.3635 H   0  0  0  0  0  0  0  0  0  0  0  0
   -6.1778   -1.4906   -0.0192 H   0  0  0  0  0  0  0  0  0  0  0  0
  1  2  2  3
  2  3  1  0
  3  4  1  0
  4  5  1  0
  5  6  2  0
  5  7  1  0
  7  8  1  0
  8  9  2  0
  9 10  1  0
 10 11  2  0
 11 12  1  0
 12 13  2  0
  2 14  1  0
 14 15  2  0
 15 16  1  0
 16 17  2  0
 17 18  1  0
 18 19  2  0
 19 20  1  0
 13  8  1  0
 19 14  1  0
  1 21  1  0
  3 22  1  0
  7 23  1  0
  7 24  1  0
  9 25  1  0
 10 26  1  0
 11 27  1  0
 12 28  1  0
 13 29  1  0
 15 30  1  0
 16 31  1  0
 17 32  1  0
 18 33  1  0
M  END
$$$$
