
     RDKit          3D

 37 38  0  0  0  0  0  0  0  0999 V2000
   -5.8391   -1.1163   -0.3041 C   0  0  0  0  0  0  0  0  0  0  0  0
   -5.0694   -0.1347   -1.0675 N   0  0  0  0  0  0  0  0  0  0  0  0
   -5.6925    0.3274   -2.3073 C   0  0  0  0  0  0  0  0  0  0  0  0
   -3.6761   -0.1197   -0.9539 C   0  0  0  0  0  0  0  0  0  0  0  0
   -3.0035   -0.7761    0.0911 C   0  0  0  0  0  0  0  0  0  0  0  0
   -1.6059   -0.7451    0.2253 C   0  0  0  0  0  0  0  0  0  0  0  0
   -0.8204   -0.0327   -0.6795 C   0  0  0  0  0  0  0  0  0  0  0  0
    0.6457    0.0096   -0.5932 C   0  0  0  0  0  0  0  0  0  0  0  0
    1.3116    0.1483    0.5649 C   0  0  0  0  0  0  0  0  0  0  0  0
    2.7743    0.2002    0.6684 C   0  0  0  0  0  0  0  0  0  0  0  0
    3.5659    0.8709   -0.2630 C   0  0  0  0  0  0  0  0  0  0  0  0
    4.9456    0.9115   -0.0953 C   0  0  0  0  0  0  0  0  0  0  0  0
    5.5276    0.3182    0.9704 N   0  0  0  0  0  4  0  0  0  0  0  0
    6.9920    0.3641    1.1199 C   0  0  0  0  0  0  0  0  0  0  0  0
    4.7811   -0.3318    1.8906 C   0  0  0  0  0  0  0  0  0  0  0  0
    3.3979   -0.3953    1.7636 C   0  0  0  0  0  0  0  0  0  0  0  0
   -1.4603    0.6234   -1.7295 C   0  0  0  0  0  0  0  0  0  0  0  0
   -2.8586    0.5866   -1.8526 C   0  0  0  0  0  0  0  0  0  0  0  0
   -5.7127   -0.9672    0.7736 H   0  0  0  0  0  0  0  0  0  0  0  0
   -5.5481   -2.1381   -0.5716 H   0  0  0  0  0  0  0  0  0  0  0  0
   -6.9135   -1.0180   -0.4961 H   0  0  0  0  0  0  0  0  0  0  0  0
   -5.3695   -0.2804   -3.1597 H   0  0  0  0  0  0  0  0  0  0  0  0
   -6.7852    0.2648   -2.2518 H   0  0  0  0  0  0  0  0  0  0  0  0
   -5.4624    1.3812   -2.4975 H   0  0  0  0  0  0  0  0  0  0  0  0
   -3.5536   -1.3376    0.8404 H   0  0  0  0  0  0  0  0  0  0  0  0
   -1.1546   -1.2950    1.0466 H   0  0  0  0  0  0  0  0  0  0  0  0
    1.1627   -0.0694   -1.5460 H   0  0  0  0  0  0  0  0  0  0  0  0
    0.7643    0.2266    1.5034 H   0  0  0  0  0  0  0  0  0  0  0  0
    3.1187    1.3744   -1.1178 H   0  0  0  0  0  0  0  0  0  0  0  0
    5.5909    1.4194   -0.8065 H   0  0  0  0  0  0  0  0  0  0  0  0
    7.3678    1.2928    0.6827 H   0  0  0  0  0  0  0  0  0  0  0  0
    7.4011   -0.5053    0.5995 H   0  0  0  0  0  0  0  0  0  0  0  0
    7.2454    0.3369    2.1828 H   0  0  0  0  0  0  0  0  0  0  0  0
    5.2986   -0.7975    2.7247 H   0  0  0  0  0  0  0  0  0  0  0  0
    2.8143   -0.9208    2.5177 H   0  0  0  0  0  0  0  0  0  0  0  0
   -0.8901    1.1873   -2.4636 H   0  0  0  0  0  0  0  0  0  0  0  0
   -3.2900    1.1373   -2.6832 H   0  0  0  0  0  0  0  0  0  0  0  0
  1  2  1  0
  2  3  1  0
  2  4  1  0
  4  5  2  0
  5  6  1  0
  6  7  2  0
  7  8  1  0
  8  9  2  3
  9 10  1  0
 10 11  2  0
 11 12  1  0
 12 13  2  0
 13 14  1  0
 13 15  1  0
 15 16  2  0
  7 17  1  0
 17 18  2  0
 18  4  1  0
 16 10  1  0
  1 19  1  0
  1 20  1  0
  1 21  1  0
  3 22  1  0
  3 23  1  0
  3 24  1  0
  5 25  1  0
  6 26  1  0
  8 27  1  0
  9 28  1  0
 11 29  1  0
 12 30  1  0
 14 31  1  0
 14 32  1  0
 14 33  1  0
 15 34  1  0
 16 35  1  0
 17 36  1  0
 18 37  1  0
M  CHG  1  13   1
M  END
$$$$
