
     RDKit          3D

 97 99  0  0  0  0  0  0  0  0999 V2000
   -2.7360    1.0980   -2.0087 C   0  0  0  0  0  0  0  0  0  0  0  0
   -1.9611    0.8489   -0.9352 C   0  0  0  0  0  0  0  0  0  0  0  0
   -2.2220   -0.2815    0.0690 C   0  0  1  0  0  0  0  0  0  0  0  0
   -3.2040    0.2299    0.9946 O   0  0  0  0  0  0  0  0  0  0  0  0
   -2.9863   -0.0125    2.3122 C   0  0  0  0  0  0  0  0  0  0  0  0
   -1.9775   -0.5332    2.7737 O   0  0  0  0  0  0  0  0  0  0  0  0
   -4.1806    0.3885    3.1540 C   0  0  0  0  0  0  0  0  0  0  0  0
   -4.7963    1.7085    2.6992 C   0  0  0  0  0  0  0  0  0  0  0  0
   -5.2032   -0.7421    3.1479 C   0  0  0  0  0  0  0  0  0  0  0  0
   -2.7103   -1.6172   -0.5460 C   0  0  0  0  0  0  0  0  0  0  0  0
   -4.1240   -1.5406   -0.8439 O   0  0  0  0  0  0  0  0  0  0  0  0
   -4.5777   -2.5225   -1.6704 C   0  0  0  0  0  0  0  0  0  0  0  0
   -6.0658   -2.4270   -1.8166 C   0  0  0  0  0  0  0  0  0  0  0  0
   -3.8719   -3.3540   -2.2233 O   0  0  0  0  0  0  0  0  0  0  0  0
   -2.4809   -2.7556    0.4617 C   0  0  0  0  0  0  0  0  0  0  0  0
   -3.3972   -3.0914    1.2280 O   0  0  0  0  0  0  0  0  0  0  0  0
   -1.1323   -3.5274    0.4646 C   0  0  0  0  0  0  0  0  0  0  0  0
   -1.4191   -4.9139   -0.1458 C   0  0  0  0  0  0  0  0  0  0  0  0
   -0.7153   -3.7337    1.9339 C   0  0  0  0  0  0  0  0  0  0  0  0
   -0.0471   -2.8670   -0.3794 C   0  0  0  0  0  0  0  0  0  0  0  0
    1.0921   -2.2893    0.0441 C   0  0  0  0  0  0  0  0  0  0  0  0
    2.1324   -1.6964   -0.8854 C   0  0  2  0  0  0  0  0  0  0  0  0
    3.2594   -2.7223   -1.0807 C   0  0  0  0  0  0  0  0  0  0  0  0
    2.7071   -0.3168   -0.4362 C   0  0  2  0  0  0  0  0  0  0  0  0
    3.5177   -0.5305    0.7536 O   0  0  0  0  0  0  0  0  0  0  0  0
    4.8132   -0.1485    0.7276 C   0  0  0  0  0  0  0  0  0  0  0  0
    5.3841    0.3950   -0.2040 O   0  0  0  0  0  0  0  0  0  0  0  0
    5.4747   -0.4958    2.0149 C   0  0  0  0  0  0  0  0  0  0  0  0
    4.7524   -0.9487    3.1275 C   0  0  0  0  0  0  0  0  0  0  0  0
    5.4175   -1.2594    4.3179 C   0  0  0  0  0  0  0  0  0  0  0  0
    6.8012   -1.1250    4.3991 C   0  0  0  0  0  0  0  0  0  0  0  0
    7.5283   -0.6740    3.2947 C   0  0  0  0  0  0  0  0  0  0  0  0
    6.8663   -0.3597    2.1038 C   0  0  0  0  0  0  0  0  0  0  0  0
    1.6643    0.8100   -0.1049 C   0  0  1  0  0  0  0  0  0  0  0  0
    1.0943    0.5320    1.1746 O   0  0  0  0  0  0  0  0  0  0  0  0
    2.3294    2.2013   -0.1103 C   0  0  0  0  0  0  0  0  0  0  0  0
    2.4236    2.5840   -1.5966 C   0  0  2  0  0  0  0  0  0  0  0  0
    2.3816    4.0876   -1.8187 C   0  0  0  0  0  0  0  0  0  0  0  0
    1.3285    1.7439   -2.2988 C   0  0  2  0  0  0  0  0  0  0  0  0
    0.4912    2.5013   -3.1726 O   0  0  0  0  0  0  0  0  0  0  0  0
    0.7118    2.3836   -4.5082 C   0  0  0  0  0  0  0  0  0  0  0  0
   -0.2421    3.2666   -5.2527 C   0  0  0  0  0  0  0  0  0  0  0  0
    1.5461    1.6629   -5.0364 O   0  0  0  0  0  0  0  0  0  0  0  0
    0.5543    1.0198   -1.1710 C   0  0  2  0  0  0  0  0  0  0  0  0
   -0.7317    1.7025   -0.5922 C   0  0  1  0  0  0  0  0  0  0  0  0
   -0.9374    3.0338   -1.1073 O   0  0  0  0  0  0  0  0  0  0  0  0
   -1.0790    4.0413   -0.2107 C   0  0  0  0  0  0  0  0  0  0  0  0
   -1.4353    5.3133   -0.9179 C   0  0  0  0  0  0  0  0  0  0  0  0
   -0.9524    3.9505    1.0031 O   0  0  0  0  0  0  0  0  0  0  0  0
   -2.5172    1.9184   -2.6880 H   0  0  0  0  0  0  0  0  0  0  0  0
   -3.6208    0.5182   -2.2330 H   0  0  0  0  0  0  0  0  0  0  0  0
   -1.2740   -0.4778    0.5814 H   0  0  0  0  0  0  0  0  0  0  0  0
   -3.8114    0.5316    4.1761 H   0  0  0  0  0  0  0  0  0  0  0  0
   -5.2942    1.6074    1.7267 H   0  0  0  0  0  0  0  0  0  0  0  0
   -4.0264    2.4845    2.6030 H   0  0  0  0  0  0  0  0  0  0  0  0
   -5.5426    2.0559    3.4245 H   0  0  0  0  0  0  0  0  0  0  0  0
   -6.0559   -0.5053    3.7922 H   0  0  0  0  0  0  0  0  0  0  0  0
   -4.7520   -1.6727    3.5118 H   0  0  0  0  0  0  0  0  0  0  0  0
   -5.5807   -0.9331    2.1354 H   0  0  0  0  0  0  0  0  0  0  0  0
   -2.1650   -1.8258   -1.4721 H   0  0  0  0  0  0  0  0  0  0  0  0
   -6.5430   -2.5990   -0.8486 H   0  0  0  0  0  0  0  0  0  0  0  0
   -6.4044   -3.1945   -2.5211 H   0  0  0  0  0  0  0  0  0  0  0  0
   -6.3374   -1.4434   -2.2142 H   0  0  0  0  0  0  0  0  0  0  0  0
   -2.2317   -5.4234    0.3874 H   0  0  0  0  0  0  0  0  0  0  0  0
   -0.5333   -5.5612   -0.1060 H   0  0  0  0  0  0  0  0  0  0  0  0
   -1.7304   -4.8326   -1.1940 H   0  0  0  0  0  0  0  0  0  0  0  0
    0.2153   -4.3082    2.0145 H   0  0  0  0  0  0  0  0  0  0  0  0
   -1.4773   -4.2859    2.4962 H   0  0  0  0  0  0  0  0  0  0  0  0
   -0.5714   -2.7791    2.4498 H   0  0  0  0  0  0  0  0  0  0  0  0
   -0.2050   -2.9189   -1.4579 H   0  0  0  0  0  0  0  0  0  0  0  0
    1.3289   -2.2370    1.1078 H   0  0  0  0  0  0  0  0  0  0  0  0
    1.6748   -1.5503   -1.8727 H   0  0  0  0  0  0  0  0  0  0  0  0
    2.8645   -3.6488   -1.5171 H   0  0  0  0  0  0  0  0  0  0  0  0
    3.7509   -2.9841   -0.1367 H   0  0  0  0  0  0  0  0  0  0  0  0
    4.0205   -2.3313   -1.7648 H   0  0  0  0  0  0  0  0  0  0  0  0
    3.3456    0.0177   -1.2616 H   0  0  0  0  0  0  0  0  0  0  0  0
    3.6727   -1.0679    3.0873 H   0  0  0  0  0  0  0  0  0  0  0  0
    4.8520   -1.6111    5.1792 H   0  0  0  0  0  0  0  0  0  0  0  0
    7.3190   -1.3730    5.3239 H   0  0  0  0  0  0  0  0  0  0  0  0
    8.6083   -0.5712    3.3595 H   0  0  0  0  0  0  0  0  0  0  0  0
    7.4400   -0.0098    1.2481 H   0  0  0  0  0  0  0  0  0  0  0  0
    1.5184    1.1123    1.8395 H   0  0  0  0  0  0  0  0  0  0  0  0
    3.3083    2.2126    0.3792 H   0  0  0  0  0  0  0  0  0  0  0  0
    1.7102    2.9197    0.4426 H   0  0  0  0  0  0  0  0  0  0  0  0
    3.3963    2.2368   -1.9735 H   0  0  0  0  0  0  0  0  0  0  0  0
    2.4693    4.3305   -2.8812 H   0  0  0  0  0  0  0  0  0  0  0  0
    3.2163    4.5694   -1.2978 H   0  0  0  0  0  0  0  0  0  0  0  0
    1.4584    4.5284   -1.4435 H   0  0  0  0  0  0  0  0  0  0  0  0
    1.8397    0.9556   -2.8702 H   0  0  0  0  0  0  0  0  0  0  0  0
   -0.0492    3.1852   -6.3271 H   0  0  0  0  0  0  0  0  0  0  0  0
   -1.2694    2.9475   -5.0550 H   0  0  0  0  0  0  0  0  0  0  0  0
   -0.0966    4.3060   -4.9459 H   0  0  0  0  0  0  0  0  0  0  0  0
    0.2427    0.0441   -1.5564 H   0  0  0  0  0  0  0  0  0  0  0  0
   -0.6903    1.7518    0.4978 H   0  0  0  0  0  0  0  0  0  0  0  0
   -2.4810    5.2748   -1.2327 H   0  0  0  0  0  0  0  0  0  0  0  0
   -0.7814    5.4611   -1.7823 H   0  0  0  0  0  0  0  0  0  0  0  0
   -1.2954    6.1586   -0.2364 H   0  0  0  0  0  0  0  0  0  0  0  0
  1  2  2  0
  2  3  1  0
  3  4  1  0
  4  5  1  0
  5  6  2  0
  5  7  1  0
  7  8  1  0
  7  9  1  0
  3 10  1  0
 10 11  1  0
 11 12  1  0
 12 13  1  0
 12 14  2  0
 10 15  1  0
 15 16  2  0
 15 17  1  0
 17 18  1  0
 17 19  1  0
 17 20  1  0
 20 21  2  0
 21 22  1  0
 22 23  1  0
 22 24  1  0
 24 25  1  0
 25 26  1  0
 26 27  2  0
 26 28  1  0
 28 29  2  0
 29 30  1  0
 30 31  2  0
 31 32  1  0
 32 33  2  0
 24 34  1  0
 34 35  1  1
 34 36  1  0
 36 37  1  0
 37 38  1  0
 37 39  1  0
 39 40  1  0
 40 41  1  0
 41 42  1  0
 41 43  2  0
 39 44  1  0
 44 45  1  0
 45 46  1  0
 46 47  1  0
 47 48  1  0
 47 49  2  0
 45  2  1  0
 33 28  1  0
 44 34  1  0
  1 50  1  0
  1 51  1  0
  3 52  1  1
  7 53  1  0
  8 54  1  0
  8 55  1  0
  8 56  1  0
  9 57  1  0
  9 58  1  0
  9 59  1  0
 10 60  1  0
 13 61  1  0
 13 62  1  0
 13 63  1  0
 18 64  1  0
 18 65  1  0
 18 66  1  0
 19 67  1  0
 19 68  1  0
 19 69  1  0
 20 70  1  0
 21 71  1  0
 22 72  1  6
 23 73  1  0
 23 74  1  0
 23 75  1  0
 24 76  1  6
 29 77  1  0
 30 78  1  0
 31 79  1  0
 32 80  1  0
 33 81  1  0
 35 82  1  0
 36 83  1  0
 36 84  1  0
 37 85  1  6
 38 86  1  0
 38 87  1  0
 38 88  1  0
 39 89  1  6
 42 90  1  0
 42 91  1  0
 42 92  1  0
 44 93  1  6
 45 94  1  1
 48 95  1  0
 48 96  1  0
 48 97  1  0
M  END
$$$$
