
     RDKit          3D

 47 49  0  0  0  0  0  0  0  0999 V2000
    8.4818   -0.0012   -0.3623 C   0  0  0  0  0  0  0  0  0  0  0  0
    7.4868   -0.1466    0.7789 C   0  0  0  0  0  0  0  0  0  0  0  0
    6.0613   -0.0667    0.2942 C   0  0  0  0  0  0  0  0  0  0  0  0
    5.3845   -1.2227   -0.1153 C   0  0  0  0  0  0  0  0  0  0  0  0
    4.0712   -1.1438   -0.5846 C   0  0  0  0  0  0  0  0  0  0  0  0
    3.4146    0.0868   -0.6444 C   0  0  0  0  0  0  0  0  0  0  0  0
    2.0933    0.1615   -1.1015 N   0  0  0  0  0  0  0  0  0  0  0  0
    1.1336    0.0591   -0.2484 C   0  0  0  0  0  0  0  0  0  0  0  0
    1.2349   -0.1185    1.0953 N   0  0  0  0  0  0  0  0  0  0  0  0
    0.0765   -0.2013    1.8106 C   0  0  0  0  0  0  0  0  0  0  0  0
    0.0135   -0.3686    3.0181 O   0  0  0  0  0  0  0  0  0  0  0  0
   -1.0913   -0.0606    0.8985 C   0  0  0  0  0  0  0  0  0  0  0  0
   -2.3502   -0.1161    1.3533 C   0  0  0  0  0  0  0  0  0  0  0  0
   -3.5718   -0.0055    0.5458 C   0  0  0  0  0  0  0  0  0  0  0  0
   -4.4667   -1.0851    0.5213 C   0  0  0  0  0  0  0  0  0  0  0  0
   -5.6462   -0.9985   -0.2164 C   0  0  0  0  0  0  0  0  0  0  0  0
   -6.6021   -1.9774   -0.3282 O   0  0  0  0  0  0  0  0  0  0  0  0
   -6.3522   -3.1989    0.3577 C   0  0  0  0  0  0  0  0  0  0  0  0
   -5.9224    0.1812   -0.9233 C   0  0  0  0  0  0  0  0  0  0  0  0
   -7.0888    0.2573   -1.6476 O   0  0  0  0  0  0  0  0  0  0  0  0
   -5.0451    1.2716   -0.9092 C   0  0  0  0  0  0  0  0  0  0  0  0
   -5.4256    2.3704   -1.6324 O   0  0  0  0  0  0  0  0  0  0  0  0
   -4.4776    3.4180   -1.7767 C   0  0  0  0  0  0  0  0  0  0  0  0
   -3.8709    1.1713   -0.1595 C   0  0  0  0  0  0  0  0  0  0  0  0
   -0.5435    0.1400   -0.7248 S   0  0  0  0  0  0  0  0  0  0  0  0
    4.0955    1.2441   -0.2626 C   0  0  0  0  0  0  0  0  0  0  0  0
    5.4088    1.1697    0.2073 C   0  0  0  0  0  0  0  0  0  0  0  0
    8.3488   -0.7917   -1.1087 H   0  0  0  0  0  0  0  0  0  0  0  0
    8.3665    0.9625   -0.8697 H   0  0  0  0  0  0  0  0  0  0  0  0
    9.5061   -0.0634    0.0186 H   0  0  0  0  0  0  0  0  0  0  0  0
    7.6484   -1.1023    1.2923 H   0  0  0  0  0  0  0  0  0  0  0  0
    7.6654    0.6340    1.5284 H   0  0  0  0  0  0  0  0  0  0  0  0
    5.8794   -2.1909   -0.0814 H   0  0  0  0  0  0  0  0  0  0  0  0
    3.5599   -2.0450   -0.9125 H   0  0  0  0  0  0  0  0  0  0  0  0
    2.1243   -0.1944    1.5623 H   0  0  0  0  0  0  0  0  0  0  0  0
   -2.5258   -0.2780    2.4165 H   0  0  0  0  0  0  0  0  0  0  0  0
   -4.2188   -1.9804    1.0823 H   0  0  0  0  0  0  0  0  0  0  0  0
   -7.1943   -3.8697    0.1620 H   0  0  0  0  0  0  0  0  0  0  0  0
   -5.4454   -3.6842   -0.0179 H   0  0  0  0  0  0  0  0  0  0  0  0
   -6.2981   -3.0392    1.4396 H   0  0  0  0  0  0  0  0  0  0  0  0
   -7.5296   -0.6025   -1.5147 H   0  0  0  0  0  0  0  0  0  0  0  0
   -3.5489    3.0556   -2.2301 H   0  0  0  0  0  0  0  0  0  0  0  0
   -4.2845    3.9068   -0.8163 H   0  0  0  0  0  0  0  0  0  0  0  0
   -4.9060    4.1668   -2.4499 H   0  0  0  0  0  0  0  0  0  0  0  0
   -3.1756    2.0026   -0.1034 H   0  0  0  0  0  0  0  0  0  0  0  0
    3.6034    2.2101   -0.3387 H   0  0  0  0  0  0  0  0  0  0  0  0
    5.9230    2.0842    0.4952 H   0  0  0  0  0  0  0  0  0  0  0  0
  1  2  1  0
  2  3  1  0
  3  4  2  0
  4  5  1  0
  5  6  2  0
  6  7  1  0
  7  8  2  3
  8  9  1  0
  9 10  1  0
 10 11  2  0
 10 12  1  0
 12 13  2  3
 13 14  1  0
 14 15  2  0
 15 16  1  0
 16 17  1  0
 17 18  1  0
 16 19  2  0
 19 20  1  0
 19 21  1  0
 21 22  1  0
 22 23  1  0
 21 24  2  0
 12 25  1  0
  6 26  1  0
 26 27  2  0
 27  3  1  0
 25  8  1  0
 24 14  1  0
  1 28  1  0
  1 29  1  0
  1 30  1  0
  2 31  1  0
  2 32  1  0
  4 33  1  0
  5 34  1  0
  9 35  1  0
 13 36  1  0
 15 37  1  0
 18 38  1  0
 18 39  1  0
 18 40  1  0
 20 41  1  0
 23 42  1  0
 23 43  1  0
 23 44  1  0
 24 45  1  0
 26 46  1  0
 27 47  1  0
M  END
$$$$
