
     RDKit          3D

 47 50  0  0  0  0  0  0  0  0999 V2000
   -2.3344   -3.2225    0.8099 C   0  0  0  0  0  0  0  0  0  0  0  0
   -1.5303   -2.0740    0.2703 C   0  0  0  0  0  0  0  0  0  0  0  0
   -0.3226   -2.3127   -0.1602 N   0  0  0  0  0  0  0  0  0  0  0  0
    0.4746   -1.2801   -0.6655 N   0  0  0  0  0  0  0  0  0  0  0  0
    1.8286   -1.6310   -1.0574 C   0  0  0  0  0  0  0  0  0  0  0  0
    2.8283   -1.2175    0.0259 C   0  0  0  0  0  0  0  0  0  0  0  0
    2.5499   -1.1292    1.2195 O   0  0  0  0  0  0  0  0  0  0  0  0
    4.1093   -1.0095   -0.4523 N   0  0  0  0  0  0  0  0  0  0  0  0
    5.1262   -0.4934    0.4350 C   0  0  0  0  0  0  0  0  0  0  0  0
    6.4474   -0.6080   -0.2528 C   0  0  0  0  0  0  0  0  0  0  0  0
    7.3272   -1.6735   -0.2412 C   0  0  0  0  0  0  0  0  0  0  0  0
    8.4935   -1.4229   -1.0200 C   0  0  0  0  0  0  0  0  0  0  0  0
    8.4657   -0.1756   -1.6019 C   0  0  0  0  0  0  0  0  0  0  0  0
    7.0406    0.6840   -1.2108 S   0  0  0  0  0  0  0  0  0  0  0  0
    0.0828    0.0659   -0.7941 C   0  0  0  0  0  0  0  0  0  0  0  0
    0.8122    0.9358   -1.2684 O   0  0  0  0  0  0  0  0  0  0  0  0
   -1.2714    0.3041   -0.3155 C   0  0  0  0  0  0  0  0  0  0  0  0
   -1.9084    1.4762   -0.2900 N   0  0  0  0  0  0  0  0  0  0  0  0
   -3.1560    1.1920    0.1744 N   0  0  0  0  0  0  0  0  0  0  0  0
   -4.1502    2.2190    0.1277 C   0  0  0  0  0  0  0  0  0  0  0  0
   -5.5207    1.9428    0.2018 C   0  0  0  0  0  0  0  0  0  0  0  0
   -6.4556    2.9828    0.1434 C   0  0  0  0  0  0  0  0  0  0  0  0
   -6.0335    4.3023   -0.0018 C   0  0  0  0  0  0  0  0  0  0  0  0
   -4.6751    4.5870   -0.1024 C   0  0  0  0  0  0  0  0  0  0  0  0
   -3.7382    3.5523   -0.0461 C   0  0  0  0  0  0  0  0  0  0  0  0
   -3.2325   -0.1325    0.6243 C   0  0  0  0  0  0  0  0  0  0  0  0
   -4.3477   -0.6887    1.4332 C   0  0  0  0  0  0  0  0  0  0  0  0
   -2.0527   -0.7297    0.2115 C   0  0  0  0  0  0  0  0  0  0  0  0
   -2.4028   -3.1401    1.8978 H   0  0  0  0  0  0  0  0  0  0  0  0
   -3.3373   -3.2209    0.3753 H   0  0  0  0  0  0  0  0  0  0  0  0
   -1.8511   -4.1730    0.5645 H   0  0  0  0  0  0  0  0  0  0  0  0
    1.9010   -2.7135   -1.2066 H   0  0  0  0  0  0  0  0  0  0  0  0
    2.0700   -1.1288   -2.0005 H   0  0  0  0  0  0  0  0  0  0  0  0
    4.2155   -0.7892   -1.4345 H   0  0  0  0  0  0  0  0  0  0  0  0
    5.1213   -1.0700    1.3669 H   0  0  0  0  0  0  0  0  0  0  0  0
    4.8756    0.5443    0.6822 H   0  0  0  0  0  0  0  0  0  0  0  0
    7.1401   -2.5922    0.3026 H   0  0  0  0  0  0  0  0  0  0  0  0
    9.3113   -2.1217   -1.1464 H   0  0  0  0  0  0  0  0  0  0  0  0
    9.2143    0.2752   -2.2390 H   0  0  0  0  0  0  0  0  0  0  0  0
   -5.9082    0.9330    0.2564 H   0  0  0  0  0  0  0  0  0  0  0  0
   -7.5186    2.7598    0.1974 H   0  0  0  0  0  0  0  0  0  0  0  0
   -6.7627    5.1068   -0.0496 H   0  0  0  0  0  0  0  0  0  0  0  0
   -4.3395    5.6134   -0.2279 H   0  0  0  0  0  0  0  0  0  0  0  0
   -2.6816    3.8051   -0.1278 H   0  0  0  0  0  0  0  0  0  0  0  0
   -3.9872   -1.4633    2.1157 H   0  0  0  0  0  0  0  0  0  0  0  0
   -5.1087   -1.1382    0.7885 H   0  0  0  0  0  0  0  0  0  0  0  0
   -4.8086    0.0700    2.0724 H   0  0  0  0  0  0  0  0  0  0  0  0
  1  2  1  0
  2  3  2  0
  3  4  1  0
  4  5  1  0
  5  6  1  0
  6  7  2  0
  6  8  1  0
  8  9  1  0
  9 10  1  0
 10 11  2  0
 11 12  1  0
 12 13  2  0
 13 14  1  0
  4 15  1  0
 15 16  2  0
 15 17  1  0
 17 18  2  0
 18 19  1  0
 19 20  1  0
 20 21  2  0
 21 22  1  0
 22 23  2  0
 23 24  1  0
 24 25  2  0
 19 26  1  0
 26 27  1  0
 26 28  2  0
 28  2  1  0
 14 10  1  0
 28 17  1  0
 25 20  1  0
  1 29  1  0
  1 30  1  0
  1 31  1  0
  5 32  1  0
  5 33  1  0
  8 34  1  0
  9 35  1  0
  9 36  1  0
 11 37  1  0
 12 38  1  0
 13 39  1  0
 21 40  1  0
 22 41  1  0
 23 42  1  0
 24 43  1  0
 25 44  1  0
 27 45  1  0
 27 46  1  0
 27 47  1  0
M  END
$$$$
