
     RDKit          3D

 32 32  0  0  0  0  0  0  0  0999 V2000
   -2.7721    0.4154   -4.6423 C   0  0  0  0  0  0  0  0  0  0  0  0
   -1.8038    0.8969   -4.1189 C   0  0  0  0  0  0  0  0  0  0  0  0
   -0.6124    1.4854   -3.4852 C   0  0  0  0  0  0  0  0  0  0  0  0
   -0.9172    2.1011   -2.1862 N   0  0  0  0  0  0  0  0  0  0  0  0
    0.2299    2.8694   -1.7054 C   0  0  0  0  0  0  0  0  0  0  0  0
   -1.4216    1.1627   -1.1714 C   0  0  0  0  0  0  0  0  0  0  0  0
   -0.4928    0.0110   -0.7722 C   0  0  0  0  0  0  0  0  0  0  0  0
   -1.1435   -0.8636    0.2993 C   0  0  0  0  0  0  0  0  0  0  0  0
   -0.2788   -1.9421    0.6560 O   0  0  0  0  0  0  0  0  0  0  0  0
    0.6004   -1.7914    1.6953 C   0  0  0  0  0  0  0  0  0  0  0  0
    0.8776   -0.5797    2.3366 C   0  0  0  0  0  0  0  0  0  0  0  0
    1.8041   -0.5342    3.3823 C   0  0  0  0  0  0  0  0  0  0  0  0
    2.1349    0.9662    4.1592 Cl  0  0  0  0  0  0  0  0  0  0  0  0
    2.4664   -1.6851    3.8012 C   0  0  0  0  0  0  0  0  0  0  0  0
    2.2036   -2.8970    3.1654 C   0  0  0  0  0  0  0  0  0  0  0  0
    1.2786   -2.9493    2.1176 C   0  0  0  0  0  0  0  0  0  0  0  0
    0.9982   -4.4825    1.3673 Cl  0  0  0  0  0  0  0  0  0  0  0  0
   -3.6343   -0.0065   -5.1045 H   0  0  0  0  0  0  0  0  0  0  0  0
   -0.2335    2.2578   -4.1673 H   0  0  0  0  0  0  0  0  0  0  0  0
    0.1819    0.7348   -3.3998 H   0  0  0  0  0  0  0  0  0  0  0  0
    0.4699    3.6761   -2.4074 H   0  0  0  0  0  0  0  0  0  0  0  0
    1.1267    2.2535   -1.5797 H   0  0  0  0  0  0  0  0  0  0  0  0
    0.0029    3.3512   -0.7479 H   0  0  0  0  0  0  0  0  0  0  0  0
   -1.6760    1.7393   -0.2717 H   0  0  0  0  0  0  0  0  0  0  0  0
   -2.3804    0.7494   -1.5087 H   0  0  0  0  0  0  0  0  0  0  0  0
   -0.2535   -0.6204   -1.6356 H   0  0  0  0  0  0  0  0  0  0  0  0
    0.4648    0.3935   -0.4042 H   0  0  0  0  0  0  0  0  0  0  0  0
   -2.0469   -1.3221   -0.1204 H   0  0  0  0  0  0  0  0  0  0  0  0
   -1.4785   -0.2929    1.1729 H   0  0  0  0  0  0  0  0  0  0  0  0
    0.3983    0.3461    2.0387 H   0  0  0  0  0  0  0  0  0  0  0  0
    3.1861   -1.6452    4.6147 H   0  0  0  0  0  0  0  0  0  0  0  0
    2.7209   -3.7975    3.4873 H   0  0  0  0  0  0  0  0  0  0  0  0
  1  2  3  0
  2  3  1  0
  3  4  1  0
  4  5  1  0
  4  6  1  0
  6  7  1  0
  7  8  1  0
  8  9  1  0
  9 10  1  0
 10 11  2  0
 11 12  1  0
 12 13  1  0
 12 14  2  0
 14 15  1  0
 15 16  2  0
 16 17  1  0
 16 10  1  0
  1 18  1  0
  3 19  1  0
  3 20  1  0
  5 21  1  0
  5 22  1  0
  5 23  1  0
  6 24  1  0
  6 25  1  0
  7 26  1  0
  7 27  1  0
  8 28  1  0
  8 29  1  0
 11 30  1  0
 14 31  1  0
 15 32  1  0
M  END
$$$$
