
     RDKit          3D

 25 26  0  0  0  0  0  0  0  0999 V2000
   -4.7852    0.4538    0.1963 O   0  0  0  0  0  0  0  0  0  0  0  0
   -3.5982    0.2169    0.0514 C   0  0  0  0  0  0  0  0  0  0  0  0
   -2.9923   -0.7590   -0.9117 C   0  0  0  0  0  0  0  0  0  0  0  0
   -1.5102   -0.4064   -0.8414 C   0  0  0  0  0  0  0  0  0  0  0  0
   -1.3345    0.1600    0.5075 N   0  0  0  0  0  0  0  0  0  0  0  0
   -0.2178    1.1178    0.5675 C   0  0  0  0  0  0  0  0  0  0  0  0
    1.1329    0.4611    0.3710 C   0  0  0  0  0  0  0  0  0  0  0  0
    1.9487    0.8148   -0.7143 C   0  0  0  0  0  0  0  0  0  0  0  0
    3.1945    0.2075   -0.8907 C   0  0  0  0  0  0  0  0  0  0  0  0
    3.6315   -0.7554    0.0167 C   0  0  0  0  0  0  0  0  0  0  0  0
    5.1655   -1.5028   -0.2035 Cl  0  0  0  0  0  0  0  0  0  0  0  0
    2.8344   -1.1168    1.1000 C   0  0  0  0  0  0  0  0  0  0  0  0
    1.5893   -0.5097    1.2771 C   0  0  0  0  0  0  0  0  0  0  0  0
   -2.5645    0.7658    0.7824 N   0  0  0  0  0  0  0  0  0  0  0  0
   -3.3974   -0.6177   -1.9165 H   0  0  0  0  0  0  0  0  0  0  0  0
   -3.1852   -1.7750   -0.5540 H   0  0  0  0  0  0  0  0  0  0  0  0
   -0.8812   -1.2875   -1.0029 H   0  0  0  0  0  0  0  0  0  0  0  0
   -1.2848    0.3303   -1.6242 H   0  0  0  0  0  0  0  0  0  0  0  0
   -0.2025    1.5957    1.5565 H   0  0  0  0  0  0  0  0  0  0  0  0
   -0.3595    1.9302   -0.1582 H   0  0  0  0  0  0  0  0  0  0  0  0
    1.6204    1.5648   -1.4308 H   0  0  0  0  0  0  0  0  0  0  0  0
    3.8175    0.4892   -1.7354 H   0  0  0  0  0  0  0  0  0  0  0  0
    3.1730   -1.8687    1.8076 H   0  0  0  0  0  0  0  0  0  0  0  0
    0.9684   -0.8007    2.1227 H   0  0  0  0  0  0  0  0  0  0  0  0
   -2.7627    1.2917    1.6273 H   0  0  0  0  0  0  0  0  0  0  0  0
  1  2  2  0
  2  3  1  0
  3  4  1  0
  4  5  1  0
  5  6  1  0
  6  7  1  0
  7  8  2  0
  8  9  1  0
  9 10  2  0
 10 11  1  0
 10 12  1  0
 12 13  2  0
  5 14  1  0
 14  2  1  0
 13  7  1  0
  3 15  1  0
  3 16  1  0
  4 17  1  0
  4 18  1  0
  6 19  1  0
  6 20  1  0
  8 21  1  0
  9 22  1  0
 12 23  1  0
 13 24  1  0
 14 25  1  0
M  END
$$$$
