
     RDKit          3D

 39 41  0  0  0  0  0  0  0  0999 V2000
    5.0093    2.3388    0.2458 C   0  0  0  0  0  0  0  0  0  0  0  0
    4.7102    1.4509    1.4403 C   0  0  0  0  0  0  0  0  0  0  0  0
    4.2140    0.1474    1.0423 N   0  0  0  0  0  0  0  0  0  0  0  0
    4.9367   -1.0041    0.9440 C   0  0  0  0  0  0  0  0  0  0  0  0
    4.0497   -1.9723    0.5398 C   0  0  0  0  0  0  0  0  0  0  0  0
    2.7989   -1.3128    0.4184 C   0  0  0  0  0  0  0  0  0  0  0  0
    1.5116   -1.9096    0.0100 C   0  0  0  0  0  0  0  0  0  0  0  0
    1.4326   -3.0999   -0.2698 O   0  0  0  0  0  0  0  0  0  0  0  0
    0.5009   -0.9673    0.0004 N   0  0  0  0  0  0  0  0  0  0  0  0
   -0.8330   -1.1384   -0.3254 C   0  0  0  0  0  0  0  0  0  0  0  0
   -1.4339   -2.6777   -0.7907 S   0  0  0  0  0  0  0  0  0  0  0  0
   -2.9664   -2.0583   -0.9875 C   0  0  0  0  0  0  0  0  0  0  0  0
   -3.0646   -0.7225   -0.7208 C   0  0  0  0  0  0  0  0  0  0  0  0
   -1.8219   -0.1497   -0.3201 C   0  0  0  0  0  0  0  0  0  0  0  0
   -1.5660    1.2400    0.0495 C   0  0  0  0  0  0  0  0  0  0  0  0
   -0.4575    1.6600    0.3652 O   0  0  0  0  0  0  0  0  0  0  0  0
   -2.6897    2.0149    0.0090 O   0  0  0  0  0  0  0  0  0  0  0  0
   -2.4706    3.3787    0.3681 C   0  0  0  0  0  0  0  0  0  0  0  0
   -4.4599   -0.2481   -0.9190 C   0  0  0  0  0  0  0  0  0  0  0  0
   -5.1167   -1.4423   -1.6802 C   0  0  0  0  0  0  0  0  0  0  0  0
   -4.2378   -2.6970   -1.3958 C   0  0  0  0  0  0  0  0  0  0  0  0
    2.9124   -0.0053    0.7339 N   0  0  0  0  0  0  0  0  0  0  0  0
    5.3885    3.3096    0.5793 H   0  0  0  0  0  0  0  0  0  0  0  0
    5.7620    1.8823   -0.4057 H   0  0  0  0  0  0  0  0  0  0  0  0
    4.1095    2.5115   -0.3541 H   0  0  0  0  0  0  0  0  0  0  0  0
    3.9543    1.9090    2.0876 H   0  0  0  0  0  0  0  0  0  0  0  0
    5.6150    1.2958    2.0380 H   0  0  0  0  0  0  0  0  0  0  0  0
    5.9949   -1.0403    1.1615 H   0  0  0  0  0  0  0  0  0  0  0  0
    4.2553   -3.0174    0.3522 H   0  0  0  0  0  0  0  0  0  0  0  0
    0.7998   -0.0265    0.2708 H   0  0  0  0  0  0  0  0  0  0  0  0
   -2.1063    3.4510    1.3977 H   0  0  0  0  0  0  0  0  0  0  0  0
   -3.4276    3.9037    0.3029 H   0  0  0  0  0  0  0  0  0  0  0  0
   -1.7693    3.8509   -0.3269 H   0  0  0  0  0  0  0  0  0  0  0  0
   -4.9520   -0.0925    0.0467 H   0  0  0  0  0  0  0  0  0  0  0  0
   -4.5190    0.6691   -1.5112 H   0  0  0  0  0  0  0  0  0  0  0  0
   -6.1623   -1.5926   -1.3942 H   0  0  0  0  0  0  0  0  0  0  0  0
   -5.0979   -1.2307   -2.7577 H   0  0  0  0  0  0  0  0  0  0  0  0
   -4.6606   -3.2838   -0.5739 H   0  0  0  0  0  0  0  0  0  0  0  0
   -4.1428   -3.3247   -2.2858 H   0  0  0  0  0  0  0  0  0  0  0  0
  1  2  1  0
  2  3  1  0
  3  4  1  0
  4  5  2  0
  5  6  1  0
  6  7  1  0
  7  8  2  0
  7  9  1  0
  9 10  1  0
 10 11  1  0
 11 12  1  0
 12 13  2  0
 13 14  1  0
 14 15  1  0
 15 16  2  0
 15 17  1  0
 17 18  1  0
 13 19  1  0
 19 20  1  0
 20 21  1  0
  6 22  2  0
 22  3  1  0
 14 10  2  0
 21 12  1  0
  1 23  1  0
  1 24  1  0
  1 25  1  0
  2 26  1  0
  2 27  1  0
  4 28  1  0
  5 29  1  0
  9 30  1  0
 18 31  1  0
 18 32  1  0
 18 33  1  0
 19 34  1  0
 19 35  1  0
 20 36  1  0
 20 37  1  0
 21 38  1  0
 21 39  1  0
M  END
$$$$
