
     RDKit          3D

 54 58  0  0  0  0  0  0  0  0999 V2000
    4.3090   -2.2457   -2.5192 F   0  0  0  0  0  0  0  0  0  0  0  0
    5.5161   -1.6178   -2.4291 C   0  0  0  0  0  0  0  0  0  0  0  0
    6.4473   -2.5939   -2.6306 F   0  0  0  0  0  0  0  0  0  0  0  0
    5.5957   -0.8053   -3.5202 F   0  0  0  0  0  0  0  0  0  0  0  0
    5.6957   -0.8645   -1.1295 C   0  0  0  0  0  0  0  0  0  0  0  0
    6.8631   -1.0849   -0.3716 C   0  0  0  0  0  0  0  0  0  0  0  0
    7.0801   -0.4117    0.8301 C   0  0  0  0  0  0  0  0  0  0  0  0
    6.1350    0.4946    1.2949 C   0  0  0  0  0  0  0  0  0  0  0  0
    4.9762    0.7319    0.5572 C   0  0  0  0  0  0  0  0  0  0  0  0
    4.7405    0.0675   -0.6597 C   0  0  0  0  0  0  0  0  0  0  0  0
    3.4562    0.3729   -1.4087 C   0  0  0  0  0  0  0  0  0  0  0  0
    2.2421   -0.4496   -0.9272 C   0  0  0  0  0  0  0  0  0  0  0  0
    1.7358   -0.0606    0.4022 N   0  0  0  0  0  0  0  0  0  0  0  0
    0.8423   -1.0973    0.9644 C   0  0  0  0  0  0  0  0  0  0  0  0
   -0.5377   -1.2262    0.2805 C   0  0  0  0  0  0  0  0  0  0  0  0
   -1.2212    0.0645    0.1975 N   0  0  0  0  0  0  0  0  0  0  0  0
   -2.6000    0.2241    0.2989 C   0  0  0  0  0  0  0  0  0  0  0  0
   -3.0322    1.4109    0.6559 N   0  0  0  0  0  0  0  0  0  0  0  0
   -4.4018    1.6641    0.8452 C   0  0  0  0  0  0  0  0  0  0  0  0
   -4.7908    2.9451    1.2423 C   0  0  0  0  0  0  0  0  0  0  0  0
   -6.1376    3.2475    1.4589 C   0  0  0  0  0  0  0  0  0  0  0  0
   -7.1119    2.2653    1.2801 C   0  0  0  0  0  0  0  0  0  0  0  0
   -6.7448    0.9787    0.8836 C   0  0  0  0  0  0  0  0  0  0  0  0
   -5.3925    0.6917    0.6713 C   0  0  0  0  0  0  0  0  0  0  0  0
   -4.9359   -0.5690    0.2552 N   0  0  0  0  0  0  0  0  0  0  0  0
   -5.6625   -1.7014   -0.0275 C   0  0  0  0  0  0  0  0  0  0  0  0
   -4.7956   -2.6652   -0.4883 C   0  0  0  0  0  0  0  0  0  0  0  0
   -3.4984   -2.1025   -0.4663 C   0  0  0  0  0  0  0  0  0  0  0  0
   -3.5927   -0.8169    0.0429 C   0  0  0  0  0  0  0  0  0  0  0  0
   -0.3925    1.1778   -0.2947 C   0  0  0  0  0  0  0  0  0  0  0  0
    0.9880    1.2175    0.3951 C   0  0  0  0  0  0  0  0  0  0  0  0
    7.6163   -1.7922   -0.7175 H   0  0  0  0  0  0  0  0  0  0  0  0
    7.9844   -0.5973    1.4040 H   0  0  0  0  0  0  0  0  0  0  0  0
    6.2949    1.0165    2.2349 H   0  0  0  0  0  0  0  0  0  0  0  0
    4.2423    1.4372    0.9439 H   0  0  0  0  0  0  0  0  0  0  0  0
    3.6010    0.1833   -2.4784 H   0  0  0  0  0  0  0  0  0  0  0  0
    3.2547    1.4493   -1.3540 H   0  0  0  0  0  0  0  0  0  0  0  0
    2.5476   -1.5034   -0.8985 H   0  0  0  0  0  0  0  0  0  0  0  0
    1.4518   -0.3820   -1.6836 H   0  0  0  0  0  0  0  0  0  0  0  0
    0.6822   -0.8592    2.0248 H   0  0  0  0  0  0  0  0  0  0  0  0
    1.3460   -2.0719    0.9603 H   0  0  0  0  0  0  0  0  0  0  0  0
   -1.1196   -1.9326    0.8820 H   0  0  0  0  0  0  0  0  0  0  0  0
   -0.4216   -1.6453   -0.7252 H   0  0  0  0  0  0  0  0  0  0  0  0
   -4.0327    3.7104    1.3863 H   0  0  0  0  0  0  0  0  0  0  0  0
   -6.4234    4.2494    1.7686 H   0  0  0  0  0  0  0  0  0  0  0  0
   -8.1590    2.5040    1.4496 H   0  0  0  0  0  0  0  0  0  0  0  0
   -7.5210    0.2332    0.7486 H   0  0  0  0  0  0  0  0  0  0  0  0
   -6.7350   -1.7368    0.0959 H   0  0  0  0  0  0  0  0  0  0  0  0
   -5.0702   -3.6594   -0.8168 H   0  0  0  0  0  0  0  0  0  0  0  0
   -2.5985   -2.6005   -0.7958 H   0  0  0  0  0  0  0  0  0  0  0  0
   -0.8725    2.1488   -0.1293 H   0  0  0  0  0  0  0  0  0  0  0  0
   -0.2731    1.0720   -1.3792 H   0  0  0  0  0  0  0  0  0  0  0  0
    1.5914    2.0181   -0.0456 H   0  0  0  0  0  0  0  0  0  0  0  0
    0.8390    1.5166    1.4416 H   0  0  0  0  0  0  0  0  0  0  0  0
  1  2  1  0
  2  3  1  0
  2  4  1  0
  2  5  1  0
  5  6  2  0
  6  7  1  0
  7  8  2  0
  8  9  1  0
  9 10  2  0
 10 11  1  0
 11 12  1  0
 12 13  1  0
 13 14  1  0
 14 15  1  0
 15 16  1  0
 16 17  1  0
 17 18  2  0
 18 19  1  0
 19 20  2  0
 20 21  1  0
 21 22  2  0
 22 23  1  0
 23 24  2  0
 24 25  1  0
 25 26  1  0
 26 27  2  0
 27 28  1  0
 28 29  2  0
 16 30  1  0
 30 31  1  0
 10  5  1  0
 31 13  1  0
 29 17  1  0
 24 19  1  0
 29 25  1  0
  6 32  1  0
  7 33  1  0
  8 34  1  0
  9 35  1  0
 11 36  1  0
 11 37  1  0
 12 38  1  0
 12 39  1  0
 14 40  1  0
 14 41  1  0
 15 42  1  0
 15 43  1  0
 20 44  1  0
 21 45  1  0
 22 46  1  0
 23 47  1  0
 26 48  1  0
 27 49  1  0
 28 50  1  0
 30 51  1  0
 30 52  1  0
 31 53  1  0
 31 54  1  0
M  END
$$$$
