
     RDKit          3D

 41 42  0  0  0  0  0  0  0  0999 V2000
    1.8066    4.7422    1.5713 C   0  0  0  0  0  0  0  0  0  0  0  0
    1.8116    4.2040    0.1529 C   0  0  0  0  0  0  0  0  0  0  0  0
    1.8029    2.7669    0.1689 O   0  0  0  0  0  0  0  0  0  0  0  0
    0.5708    2.1735    0.2837 C   0  0  0  0  0  0  0  0  0  0  0  0
   -0.4858    2.7929    0.3224 O   0  0  0  0  0  0  0  0  0  0  0  0
    0.7234    0.6262    0.2977 C   0  0  0  0  0  0  0  0  0  0  0  0
   -0.5390    0.0381   -0.1387 N   0  0  0  0  0  0  0  0  0  0  0  0
   -1.6012   -0.1496    0.7035 C   0  0  0  0  0  0  0  0  0  0  0  0
   -1.5258    0.0219    1.9113 O   0  0  0  0  0  0  0  0  0  0  0  0
   -2.8661   -0.6292    0.0884 C   0  0  0  0  0  0  0  0  0  0  0  0
   -3.7218   -1.4210    0.8675 C   0  0  0  0  0  0  0  0  0  0  0  0
   -4.9210   -1.8961    0.3347 C   0  0  0  0  0  0  0  0  0  0  0  0
   -5.2740   -1.5733   -0.9753 C   0  0  0  0  0  0  0  0  0  0  0  0
   -4.4301   -0.7708   -1.7431 C   0  0  0  0  0  0  0  0  0  0  0  0
   -4.8790   -0.3598   -3.3536 Cl  0  0  0  0  0  0  0  0  0  0  0  0
   -3.2290   -0.2916   -1.2203 C   0  0  0  0  0  0  0  0  0  0  0  0
    1.6484    0.2514   -0.8234 N   0  0  0  0  0  0  0  0  0  0  0  0
    2.2458   -0.9736   -0.8132 C   0  0  0  0  0  0  0  0  0  0  0  0
    3.5498   -1.1147   -0.9049 N   0  0  0  0  0  0  0  0  0  0  0  0
    3.9536   -2.4324   -0.8847 N   0  0  0  0  0  0  0  0  0  0  0  0
    2.9335   -3.2588   -0.8135 C   0  0  0  0  0  0  0  0  0  0  0  0
    3.0373   -4.7384   -0.7799 C   0  0  0  0  0  0  0  0  0  0  0  0
    1.4063   -2.4801   -0.7728 S   0  0  0  0  0  0  0  0  0  0  0  0
    1.2740    0.3338    1.7374 C   0  0  0  0  0  0  0  0  0  0  0  0
    1.1499   -0.9723    2.0796 F   0  0  0  0  0  0  0  0  0  0  0  0
    2.6069    0.6129    1.7975 F   0  0  0  0  0  0  0  0  0  0  0  0
    0.7003    1.0768    2.7097 F   0  0  0  0  0  0  0  0  0  0  0  0
    0.8867    4.4615    2.0943 H   0  0  0  0  0  0  0  0  0  0  0  0
    1.8902    5.8325    1.5728 H   0  0  0  0  0  0  0  0  0  0  0  0
    2.6389    4.3211    2.1453 H   0  0  0  0  0  0  0  0  0  0  0  0
    2.7324    4.5113   -0.3535 H   0  0  0  0  0  0  0  0  0  0  0  0
    0.9738    4.5996   -0.4329 H   0  0  0  0  0  0  0  0  0  0  0  0
   -0.6083   -0.1375   -1.1281 H   0  0  0  0  0  0  0  0  0  0  0  0
   -3.4526   -1.6705    1.8932 H   0  0  0  0  0  0  0  0  0  0  0  0
   -5.5803   -2.5114    0.9425 H   0  0  0  0  0  0  0  0  0  0  0  0
   -6.2104   -1.9407   -1.3880 H   0  0  0  0  0  0  0  0  0  0  0  0
   -2.6089    0.3617   -1.8263 H   0  0  0  0  0  0  0  0  0  0  0  0
    2.3803    0.9675   -0.8767 H   0  0  0  0  0  0  0  0  0  0  0  0
    2.6452   -5.1740   -1.7041 H   0  0  0  0  0  0  0  0  0  0  0  0
    2.4821   -5.1534    0.0674 H   0  0  0  0  0  0  0  0  0  0  0  0
    4.0826   -5.0467   -0.6784 H   0  0  0  0  0  0  0  0  0  0  0  0
  1  2  1  0
  2  3  1  0
  3  4  1  0
  4  5  2  0
  4  6  1  0
  6  7  1  0
  7  8  1  0
  8  9  2  0
  8 10  1  0
 10 11  2  0
 11 12  1  0
 12 13  2  0
 13 14  1  0
 14 15  1  0
 14 16  2  0
  6 17  1  0
 17 18  1  0
 18 19  2  0
 19 20  1  0
 20 21  2  0
 21 22  1  0
 21 23  1  0
  6 24  1  0
 24 25  1  0
 24 26  1  0
 24 27  1  0
 16 10  1  0
 23 18  1  0
  1 28  1  0
  1 29  1  0
  1 30  1  0
  2 31  1  0
  2 32  1  0
  7 33  1  0
 11 34  1  0
 12 35  1  0
 13 36  1  0
 16 37  1  0
 17 38  1  0
 22 39  1  0
 22 40  1  0
 22 41  1  0
M  END
$$$$
