
     RDKit          3D

 38 40  0  0  0  0  0  0  0  0999 V2000
   -1.5920    1.6123   -3.4485 C   0  0  0  0  0  0  0  0  0  0  0  0
   -1.5423    1.4802   -1.9528 C   0  0  0  0  0  0  0  0  0  0  0  0
   -2.7322    1.2511   -1.2457 C   0  0  0  0  0  0  0  0  0  0  0  0
   -2.7141    1.0676    0.1369 C   0  0  0  0  0  0  0  0  0  0  0  0
   -3.9202    0.8066    0.7291 O   0  0  0  0  0  0  0  0  0  0  0  0
   -1.5152    1.1361    0.8543 C   0  0  0  0  0  0  0  0  0  0  0  0
   -1.4181    0.9347    2.6248 S   0  0  0  0  0  0  0  0  0  0  0  0
   -1.8166   -0.7534    2.7707 C   0  0  0  0  0  0  0  0  0  0  0  0
   -0.8884   -1.7450    2.9168 N   0  0  0  0  0  0  0  0  0  0  0  0
   -1.6243   -2.8311    2.9526 C   0  0  0  0  0  0  0  0  0  0  0  0
   -2.9360   -2.4974    2.8230 N   0  0  0  0  0  0  0  0  0  0  0  0
   -3.0881   -1.1667    2.6994 N   0  0  0  0  0  0  0  0  0  0  0  0
   -0.3303    1.3812    0.1544 C   0  0  0  0  0  0  0  0  0  0  0  0
   -0.3374    1.5275   -1.2364 C   0  0  0  0  0  0  0  0  0  0  0  0
    0.9172    1.6385   -1.9034 N   0  0  0  0  0  0  0  0  0  0  0  0
    1.7323    0.2063   -2.2975 S   0  0  0  0  0  6  0  0  0  0  0  0
    2.7761    0.5874   -3.2263 O   0  0  0  0  0  0  0  0  0  0  0  0
    0.7762   -0.8252   -2.6358 O   0  0  0  0  0  0  0  0  0  0  0  0
    2.5215   -0.2327   -0.7665 C   0  0  0  0  0  0  0  0  0  0  0  0
    1.9319   -1.1900    0.0676 C   0  0  0  0  0  0  0  0  0  0  0  0
    2.5471   -1.5229    1.2759 C   0  0  0  0  0  0  0  0  0  0  0  0
    3.7548   -0.9197    1.6282 C   0  0  0  0  0  0  0  0  0  0  0  0
    4.5140   -1.3353    3.1150 Cl  0  0  0  0  0  0  0  0  0  0  0  0
    4.3545    0.0169    0.7838 C   0  0  0  0  0  0  0  0  0  0  0  0
    3.7386    0.3630   -0.4212 C   0  0  0  0  0  0  0  0  0  0  0  0
   -1.0093    2.4773   -3.7805 H   0  0  0  0  0  0  0  0  0  0  0  0
   -1.2029    0.7075   -3.9241 H   0  0  0  0  0  0  0  0  0  0  0  0
   -2.6178    1.7651   -3.8009 H   0  0  0  0  0  0  0  0  0  0  0  0
   -3.6835    1.1883   -1.7701 H   0  0  0  0  0  0  0  0  0  0  0  0
   -3.7460    0.3869    1.5985 H   0  0  0  0  0  0  0  0  0  0  0  0
   -1.2770   -3.8486    3.0648 H   0  0  0  0  0  0  0  0  0  0  0  0
   -3.7526   -3.0994    2.8069 H   0  0  0  0  0  0  0  0  0  0  0  0
    0.6096    1.4507    0.6971 H   0  0  0  0  0  0  0  0  0  0  0  0
    0.9982    2.3199   -2.6567 H   0  0  0  0  0  0  0  0  0  0  0  0
    0.9896   -1.6631   -0.2026 H   0  0  0  0  0  0  0  0  0  0  0  0
    2.0766   -2.2464    1.9381 H   0  0  0  0  0  0  0  0  0  0  0  0
    5.2988    0.4796    1.0594 H   0  0  0  0  0  0  0  0  0  0  0  0
    4.2076    1.0922   -1.0781 H   0  0  0  0  0  0  0  0  0  0  0  0
  1  2  1  0
  2  3  2  0
  3  4  1  0
  4  5  1  0
  4  6  2  0
  6  7  1  0
  7  8  1  0
  8  9  1  0
  9 10  2  0
 10 11  1  0
 11 12  1  0
  6 13  1  0
 13 14  2  0
 14 15  1  0
 15 16  1  0
 16 17  2  0
 16 18  2  0
 16 19  1  0
 19 20  2  0
 20 21  1  0
 21 22  2  0
 22 23  1  0
 22 24  1  0
 24 25  2  0
 14  2  1  0
 25 19  1  0
 12  8  2  0
  1 26  1  0
  1 27  1  0
  1 28  1  0
  3 29  1  0
  5 30  1  0
 10 31  1  0
 11 32  1  0
 13 33  1  0
 15 34  1  0
 20 35  1  0
 21 36  1  0
 24 37  1  0
 25 38  1  0
M  END
$$$$
