
     RDKit          3D

 43 45  0  0  0  0  0  0  0  0999 V2000
    6.2291   -1.5719   -1.7414 C   0  0  0  0  0  0  0  0  0  0  0  0
    5.5060   -0.7041   -0.7543 C   0  0  0  0  0  0  0  0  0  0  0  0
    6.2217    0.0730    0.1622 C   0  0  0  0  0  0  0  0  0  0  0  0
    5.5514    0.8552    1.1094 C   0  0  0  0  0  0  0  0  0  0  0  0
    6.3217    1.7221    2.0620 C   0  0  0  0  0  0  0  0  0  0  0  0
    4.1479    0.8659    1.1259 C   0  0  0  0  0  0  0  0  0  0  0  0
    3.4159    0.0823    0.2326 C   0  0  0  0  0  0  0  0  0  0  0  0
    2.0056    0.0351    0.1962 N   0  0  0  0  0  0  0  0  0  0  0  0
    1.1208    0.6575    1.0578 C   0  0  0  0  0  0  0  0  0  0  0  0
    1.3979    1.3100    2.0570 O   0  0  0  0  0  0  0  0  0  0  0  0
   -0.3201    0.4551    0.7313 C   0  0  0  0  0  0  0  0  0  0  0  0
   -1.2389    0.3753    1.7818 C   0  0  0  0  0  0  0  0  0  0  0  0
   -2.5986    0.1853    1.5149 C   0  0  0  0  0  0  0  0  0  0  0  0
   -3.0623    0.0793    0.1967 C   0  0  0  0  0  0  0  0  0  0  0  0
   -4.4489   -0.1129    0.0199 N   0  0  0  0  0  0  0  0  0  0  0  0
   -5.1403   -0.2969   -1.1718 C   0  0  0  0  0  0  0  0  0  0  0  0
   -4.6043   -0.3472   -2.2752 O   0  0  0  0  0  0  0  0  0  0  0  0
   -6.5825   -0.4413   -1.0043 C   0  0  0  0  0  0  0  0  0  0  0  0
   -7.4382   -0.3539    0.0837 C   0  0  0  0  0  0  0  0  0  0  0  0
   -8.7498   -0.5943   -0.3982 C   0  0  0  0  0  0  0  0  0  0  0  0
   -8.6254   -0.8125   -1.7475 C   0  0  0  0  0  0  0  0  0  0  0  0
   -7.3267   -0.7217   -2.1234 O   0  0  0  0  0  0  0  0  0  0  0  0
   -2.1422    0.1823   -0.8493 C   0  0  0  0  0  0  0  0  0  0  0  0
   -0.7789    0.3743   -0.5872 C   0  0  0  0  0  0  0  0  0  0  0  0
    4.1050   -0.7032   -0.7017 C   0  0  0  0  0  0  0  0  0  0  0  0
    7.1923   -1.1305   -2.0185 H   0  0  0  0  0  0  0  0  0  0  0  0
    5.6474   -1.6842   -2.6623 H   0  0  0  0  0  0  0  0  0  0  0  0
    6.4048   -2.5623   -1.3102 H   0  0  0  0  0  0  0  0  0  0  0  0
    7.3098    0.0711    0.1387 H   0  0  0  0  0  0  0  0  0  0  0  0
    7.3046    1.2900    2.2775 H   0  0  0  0  0  0  0  0  0  0  0  0
    5.7937    1.8176    3.0167 H   0  0  0  0  0  0  0  0  0  0  0  0
    6.4606    2.7186    1.6317 H   0  0  0  0  0  0  0  0  0  0  0  0
    3.6480    1.5000    1.8520 H   0  0  0  0  0  0  0  0  0  0  0  0
    1.6112   -0.5782   -0.5043 H   0  0  0  0  0  0  0  0  0  0  0  0
   -0.8971    0.4592    2.8120 H   0  0  0  0  0  0  0  0  0  0  0  0
   -3.2837    0.1229    2.3567 H   0  0  0  0  0  0  0  0  0  0  0  0
   -4.9939   -0.1428    0.8686 H   0  0  0  0  0  0  0  0  0  0  0  0
   -7.1685   -0.1370    1.1070 H   0  0  0  0  0  0  0  0  0  0  0  0
   -9.6717   -0.6041    0.1666 H   0  0  0  0  0  0  0  0  0  0  0  0
   -9.3264   -1.0321   -2.5411 H   0  0  0  0  0  0  0  0  0  0  0  0
   -2.4504    0.1338   -1.8896 H   0  0  0  0  0  0  0  0  0  0  0  0
   -0.1009    0.4895   -1.4288 H   0  0  0  0  0  0  0  0  0  0  0  0
    3.5546   -1.3242   -1.4043 H   0  0  0  0  0  0  0  0  0  0  0  0
  1  2  1  0
  2  3  2  0
  3  4  1  0
  4  5  1  0
  4  6  2  0
  6  7  1  0
  7  8  1  0
  8  9  1  0
  9 10  2  0
  9 11  1  0
 11 12  2  0
 12 13  1  0
 13 14  2  0
 14 15  1  0
 15 16  1  0
 16 17  2  0
 16 18  1  0
 18 19  2  0
 19 20  1  0
 20 21  2  0
 21 22  1  0
 14 23  1  0
 23 24  2  0
  7 25  2  0
 25  2  1  0
 24 11  1  0
 22 18  1  0
  1 26  1  0
  1 27  1  0
  1 28  1  0
  3 29  1  0
  5 30  1  0
  5 31  1  0
  5 32  1  0
  6 33  1  0
  8 34  1  0
 12 35  1  0
 13 36  1  0
 15 37  1  0
 19 38  1  0
 20 39  1  0
 21 40  1  0
 23 41  1  0
 24 42  1  0
 25 43  1  0
M  END
$$$$
