
     RDKit          3D

 52 55  0  0  0  0  0  0  0  0999 V2000
   -4.6041   -2.6094   -2.6554 C   0  0  0  0  0  0  0  0  0  0  0  0
   -3.2467   -2.1508   -2.1593 C   0  0  0  0  0  0  0  0  0  0  0  0
   -3.4462   -1.4059   -0.9540 O   0  0  0  0  0  0  0  0  0  0  0  0
   -2.3135   -0.9036   -0.3916 C   0  0  0  0  0  0  0  0  0  0  0  0
   -1.1922   -1.0594   -0.8661 O   0  0  0  0  0  0  0  0  0  0  0  0
   -2.5533   -0.1479    0.8416 C   0  0  0  0  0  0  0  0  0  0  0  0
   -3.8158    0.0597    1.5207 C   0  0  0  0  0  0  0  0  0  0  0  0
   -5.1360   -0.4303    1.1573 C   0  0  0  0  0  0  0  0  0  0  0  0
   -5.5575   -1.6935    1.5871 C   0  0  0  0  0  0  0  0  0  0  0  0
   -6.8214   -2.1660    1.2298 C   0  0  0  0  0  0  0  0  0  0  0  0
   -7.6649   -1.3791    0.4456 C   0  0  0  0  0  0  0  0  0  0  0  0
   -7.2483   -0.1184    0.0176 C   0  0  0  0  0  0  0  0  0  0  0  0
   -5.9852    0.3579    0.3727 C   0  0  0  0  0  0  0  0  0  0  0  0
   -3.6745    0.8279    2.6582 C   0  0  0  0  0  0  0  0  0  0  0  0
   -2.0610    1.2972    2.9179 S   0  0  0  0  0  0  0  0  0  0  0  0
   -1.5214    0.4888    1.5256 C   0  0  0  0  0  0  0  0  0  0  0  0
   -0.1821    0.5036    1.1648 N   0  0  0  0  0  0  0  0  0  0  0  0
    0.8703    1.1329    1.8056 C   0  0  0  0  0  0  0  0  0  0  0  0
    0.8222    1.7996    2.8332 O   0  0  0  0  0  0  0  0  0  0  0  0
    2.1511    0.9335    1.1146 C   0  0  0  0  0  0  0  0  0  0  0  0
    3.4152    1.4563    1.4868 C   0  0  0  0  0  0  0  0  0  0  0  0
    4.2852    1.0021    0.5247 C   0  0  0  0  0  0  0  0  0  0  0  0
    5.7228    1.1317    0.3056 C   0  0  0  0  0  0  0  0  0  0  0  0
    6.5709    1.1498    1.4288 C   0  0  0  0  0  0  0  0  0  0  0  0
    7.9534    1.2674    1.2851 C   0  0  0  0  0  0  0  0  0  0  0  0
    8.5082    1.3754    0.0154 C   0  0  0  0  0  0  0  0  0  0  0  0
    7.6838    1.3685   -1.1120 C   0  0  0  0  0  0  0  0  0  0  0  0
    6.2932    1.2466   -0.9811 C   0  0  0  0  0  0  0  0  0  0  0  0
    5.4263    1.2776   -2.0443 O   0  0  0  0  0  0  0  0  0  0  0  0
    5.9750    1.1618   -3.3498 C   0  0  0  0  0  0  0  0  0  0  0  0
    3.5900    0.2339   -0.3614 O   0  0  0  0  0  0  0  0  0  0  0  0
    2.2536    0.1900   -0.0008 N   0  0  0  0  0  0  0  0  0  0  0  0
   -5.2547   -1.7494   -2.8462 H   0  0  0  0  0  0  0  0  0  0  0  0
   -4.5073   -3.1907   -3.5766 H   0  0  0  0  0  0  0  0  0  0  0  0
   -5.1039   -3.2239   -1.8993 H   0  0  0  0  0  0  0  0  0  0  0  0
   -2.7711   -1.5156   -2.9147 H   0  0  0  0  0  0  0  0  0  0  0  0
   -2.6130   -3.0207   -1.9548 H   0  0  0  0  0  0  0  0  0  0  0  0
   -4.9061   -2.3151    2.1966 H   0  0  0  0  0  0  0  0  0  0  0  0
   -7.1475   -3.1483    1.5616 H   0  0  0  0  0  0  0  0  0  0  0  0
   -8.6487   -1.7489    0.1674 H   0  0  0  0  0  0  0  0  0  0  0  0
   -7.9066    0.4931   -0.5939 H   0  0  0  0  0  0  0  0  0  0  0  0
   -5.6678    1.3402    0.0312 H   0  0  0  0  0  0  0  0  0  0  0  0
   -4.4445    1.1364    3.3535 H   0  0  0  0  0  0  0  0  0  0  0  0
    0.0639   -0.0104    0.3145 H   0  0  0  0  0  0  0  0  0  0  0  0
    3.6400    2.0842    2.3361 H   0  0  0  0  0  0  0  0  0  0  0  0
    6.1590    1.0581    2.4319 H   0  0  0  0  0  0  0  0  0  0  0  0
    8.5939    1.2738    2.1635 H   0  0  0  0  0  0  0  0  0  0  0  0
    9.5851    1.4715   -0.1005 H   0  0  0  0  0  0  0  0  0  0  0  0
    8.1580    1.4747   -2.0822 H   0  0  0  0  0  0  0  0  0  0  0  0
    6.5939    0.2632   -3.4455 H   0  0  0  0  0  0  0  0  0  0  0  0
    5.1429    1.0678   -4.0547 H   0  0  0  0  0  0  0  0  0  0  0  0
    6.5378    2.0616   -3.6180 H   0  0  0  0  0  0  0  0  0  0  0  0
  1  2  1  0
  2  3  1  0
  3  4  1  0
  4  5  2  0
  4  6  1  0
  6  7  1  0
  7  8  1  0
  8  9  2  0
  9 10  1  0
 10 11  2  0
 11 12  1  0
 12 13  2  0
  7 14  2  0
 14 15  1  0
 15 16  1  0
 16 17  1  0
 17 18  1  0
 18 19  2  0
 18 20  1  0
 20 21  1  0
 21 22  2  0
 22 23  1  0
 23 24  2  0
 24 25  1  0
 25 26  2  0
 26 27  1  0
 27 28  2  0
 28 29  1  0
 29 30  1  0
 22 31  1  0
 31 32  1  0
 16  6  2  0
 32 20  2  0
 13  8  1  0
 28 23  1  0
  1 33  1  0
  1 34  1  0
  1 35  1  0
  2 36  1  0
  2 37  1  0
  9 38  1  0
 10 39  1  0
 11 40  1  0
 12 41  1  0
 13 42  1  0
 14 43  1  0
 17 44  1  0
 21 45  1  0
 24 46  1  0
 25 47  1  0
 26 48  1  0
 27 49  1  0
 30 50  1  0
 30 51  1  0
 30 52  1  0
M  END
$$$$
