
     RDKit          3D

 57 60  0  0  0  0  0  0  0  0999 V2000
   -5.1631   -3.4103    0.9521 C   0  0  0  0  0  0  0  0  0  0  0  0
   -4.7283   -1.9650    0.6904 C   0  0  0  0  0  0  0  0  0  0  0  0
   -5.9621   -1.0975    0.4493 C   0  0  0  0  0  0  0  0  0  0  0  0
   -3.7756   -1.8954   -0.5071 C   0  0  0  0  0  0  0  0  0  0  0  0
   -3.6603   -2.8528   -1.2763 O   0  0  0  0  0  0  0  0  0  0  0  0
   -3.0655   -0.7242   -0.7247 N   0  0  0  0  0  0  0  0  0  0  0  0
   -3.0062    0.4448    0.1659 C   0  0  0  0  0  0  0  0  0  0  0  0
   -1.5914    1.0519    0.2626 C   0  0  0  0  0  0  0  0  0  0  0  0
   -0.9726    1.2965   -1.0658 N   0  0  0  0  0  0  0  0  0  0  0  0
   -0.5099    2.6279   -1.2071 C   0  0  0  0  0  0  0  0  0  0  0  0
   -1.3472    3.6812   -1.6010 C   0  0  0  0  0  0  0  0  0  0  0  0
   -0.8546    4.9849   -1.6906 C   0  0  0  0  0  0  0  0  0  0  0  0
    0.4773    5.2517   -1.3819 C   0  0  0  0  0  0  0  0  0  0  0  0
    1.3269    4.2187   -0.9816 C   0  0  0  0  0  0  0  0  0  0  0  0
    0.8429    2.9138   -0.8909 C   0  0  0  0  0  0  0  0  0  0  0  0
    1.6306    1.8043   -0.5176 N   0  0  0  0  0  0  0  0  0  0  0  0
    2.9419    1.7838   -0.1006 C   0  0  0  0  0  0  0  0  0  0  0  0
    3.6653    2.7549    0.0863 O   0  0  0  0  0  0  0  0  0  0  0  0
    3.4873    0.4242    0.1818 C   0  0  0  0  0  0  0  0  0  0  0  0
    3.0799   -0.7036   -0.5476 C   0  0  0  0  0  0  0  0  0  0  0  0
    3.6070   -1.9615   -0.2431 C   0  0  0  0  0  0  0  0  0  0  0  0
    4.5416   -2.0937    0.7821 C   0  0  0  0  0  0  0  0  0  0  0  0
    4.9812   -0.9650    1.4819 C   0  0  0  0  0  0  0  0  0  0  0  0
    4.4502    0.2900    1.1904 C   0  0  0  0  0  0  0  0  0  0  0  0
    5.9258   -1.0193    2.4750 O   0  0  0  0  0  0  0  0  0  0  0  0
    6.6374   -2.2620    2.4527 C   0  0  0  0  0  0  0  0  0  0  0  0
    5.6737   -3.4271    2.3006 C   0  0  0  0  0  0  0  0  0  0  0  0
    4.9953   -3.3617    1.0400 O   0  0  0  0  0  0  0  0  0  0  0  0
   -1.7143    0.7600   -2.2261 C   0  0  0  0  0  0  0  0  0  0  0  0
   -2.2107   -0.6620   -1.9192 C   0  0  0  0  0  0  0  0  0  0  0  0
   -5.7516   -3.8104    0.1186 H   0  0  0  0  0  0  0  0  0  0  0  0
   -5.7745   -3.4733    1.8585 H   0  0  0  0  0  0  0  0  0  0  0  0
   -4.2922   -4.0620    1.0868 H   0  0  0  0  0  0  0  0  0  0  0  0
   -4.1974   -1.6307    1.5869 H   0  0  0  0  0  0  0  0  0  0  0  0
   -6.6515   -1.1586    1.2980 H   0  0  0  0  0  0  0  0  0  0  0  0
   -6.4995   -1.4213   -0.4494 H   0  0  0  0  0  0  0  0  0  0  0  0
   -5.7034   -0.0450    0.3086 H   0  0  0  0  0  0  0  0  0  0  0  0
   -3.6954    1.1895   -0.2508 H   0  0  0  0  0  0  0  0  0  0  0  0
   -3.3565    0.1990    1.1697 H   0  0  0  0  0  0  0  0  0  0  0  0
   -0.9430    0.3441    0.7940 H   0  0  0  0  0  0  0  0  0  0  0  0
   -1.6370    1.9620    0.8745 H   0  0  0  0  0  0  0  0  0  0  0  0
   -2.3948    3.5076   -1.8244 H   0  0  0  0  0  0  0  0  0  0  0  0
   -1.5121    5.7949   -1.9963 H   0  0  0  0  0  0  0  0  0  0  0  0
    0.8612    6.2665   -1.4518 H   0  0  0  0  0  0  0  0  0  0  0  0
    2.3606    4.4580   -0.7536 H   0  0  0  0  0  0  0  0  0  0  0  0
    1.0951    0.9421   -0.5378 H   0  0  0  0  0  0  0  0  0  0  0  0
    2.3726   -0.6184   -1.3681 H   0  0  0  0  0  0  0  0  0  0  0  0
    3.2881   -2.8374   -0.8023 H   0  0  0  0  0  0  0  0  0  0  0  0
    4.7915    1.1625    1.7425 H   0  0  0  0  0  0  0  0  0  0  0  0
    7.3665   -2.2325    1.6331 H   0  0  0  0  0  0  0  0  0  0  0  0
    7.1867   -2.3462    3.3959 H   0  0  0  0  0  0  0  0  0  0  0  0
    4.9230   -3.4340    3.1007 H   0  0  0  0  0  0  0  0  0  0  0  0
    6.2180   -4.3759    2.3355 H   0  0  0  0  0  0  0  0  0  0  0  0
   -2.5801    1.3857   -2.4749 H   0  0  0  0  0  0  0  0  0  0  0  0
   -1.0550    0.7313   -3.1020 H   0  0  0  0  0  0  0  0  0  0  0  0
   -2.7646   -1.0576   -2.7781 H   0  0  0  0  0  0  0  0  0  0  0  0
   -1.3570   -1.3273   -1.7365 H   0  0  0  0  0  0  0  0  0  0  0  0
  1  2  1  0
  2  3  1  0
  2  4  1  0
  4  5  2  0
  4  6  1  0
  6  7  1  0
  7  8  1  0
  8  9  1  0
  9 10  1  0
 10 11  2  0
 11 12  1  0
 12 13  2  0
 13 14  1  0
 14 15  2  0
 15 16  1  0
 16 17  1  0
 17 18  2  0
 17 19  1  0
 19 20  2  0
 20 21  1  0
 21 22  2  0
 22 23  1  0
 23 24  2  0
 23 25  1  0
 25 26  1  0
 26 27  1  0
 27 28  1  0
  9 29  1  0
 29 30  1  0
 30  6  1  0
 15 10  1  0
 24 19  1  0
 28 22  1  0
  1 31  1  0
  1 32  1  0
  1 33  1  0
  2 34  1  0
  3 35  1  0
  3 36  1  0
  3 37  1  0
  7 38  1  0
  7 39  1  0
  8 40  1  0
  8 41  1  0
 11 42  1  0
 12 43  1  0
 13 44  1  0
 14 45  1  0
 16 46  1  0
 20 47  1  0
 21 48  1  0
 24 49  1  0
 26 50  1  0
 26 51  1  0
 27 52  1  0
 27 53  1  0
 29 54  1  0
 29 55  1  0
 30 56  1  0
 30 57  1  0
M  END
$$$$
