
     RDKit          3D

 19 19  0  0  0  0  0  0  0  0999 V2000
   -2.8498   -0.1764   -1.9282 C   0  0  0  0  0  0  0  0  0  0  0  0
   -2.0483    0.2933   -0.7228 C   0  0  0  0  0  0  0  0  0  0  0  0
   -1.6657   -0.8829    0.1734 C   0  0  0  0  0  0  0  0  0  0  0  0
   -0.7441   -0.3340    1.6421 S   0  0  0  0  0  0  0  0  0  0  0  0
    0.8489   -0.0536    0.9759 C   0  0  0  0  0  0  0  0  0  0  0  0
    1.1933   -0.4101   -0.2416 N   0  0  0  0  0  0  0  0  0  0  0  0
    2.5032   -0.0753   -0.5264 N   0  0  0  0  0  0  0  0  0  0  0  0
    3.1008    0.5131    0.4852 C   0  0  0  0  0  0  0  0  0  0  0  0
    4.3812    0.9320    0.4771 N   0  0  0  0  0  0  0  0  0  0  0  0
    2.1026    0.6964    1.8709 S   0  0  0  0  0  0  0  0  0  0  0  0
   -2.2690   -0.8778   -2.5357 H   0  0  0  0  0  0  0  0  0  0  0  0
   -3.1202    0.6762   -2.5590 H   0  0  0  0  0  0  0  0  0  0  0  0
   -3.7734   -0.6741   -1.6159 H   0  0  0  0  0  0  0  0  0  0  0  0
   -1.1558    0.8185   -1.0812 H   0  0  0  0  0  0  0  0  0  0  0  0
   -2.6503    1.0180   -0.1611 H   0  0  0  0  0  0  0  0  0  0  0  0
   -1.0927   -1.6363   -0.3774 H   0  0  0  0  0  0  0  0  0  0  0  0
   -2.5755   -1.3772    0.5318 H   0  0  0  0  0  0  0  0  0  0  0  0
    4.8514    1.0172    1.3705 H   0  0  0  0  0  0  0  0  0  0  0  0
    4.9634    0.5330   -0.2523 H   0  0  0  0  0  0  0  0  0  0  0  0
  1  2  1  0
  2  3  1  0
  3  4  1  0
  4  5  1  0
  5  6  2  0
  6  7  1  0
  7  8  2  0
  8  9  1  0
  8 10  1  0
 10  5  1  0
  1 11  1  0
  1 12  1  0
  1 13  1  0
  2 14  1  0
  2 15  1  0
  3 16  1  0
  3 17  1  0
  9 18  1  0
  9 19  1  0
M  END
$$$$
