
     RDKit          3D

 42 44  0  0  0  0  0  0  0  0999 V2000
   -6.0718    1.9238   -1.7385 C   0  0  0  0  0  0  0  0  0  0  0  0
   -5.8165    1.8173   -0.3441 O   0  0  0  0  0  0  0  0  0  0  0  0
   -4.6623    1.1916    0.0397 C   0  0  0  0  0  0  0  0  0  0  0  0
   -4.4689    1.1304    1.4181 C   0  0  0  0  0  0  0  0  0  0  0  0
   -3.3312    0.5230    1.9395 C   0  0  0  0  0  0  0  0  0  0  0  0
   -3.2417    0.4850    3.3078 O   0  0  0  0  0  0  0  0  0  0  0  0
   -2.3474   -0.0114    1.0920 C   0  0  0  0  0  0  0  0  0  0  0  0
   -1.1367   -0.5942    1.7282 C   0  0  0  0  0  0  0  0  0  0  0  0
   -1.2533   -1.1560    2.8173 O   0  0  0  0  0  0  0  0  0  0  0  0
    0.1912   -0.3799    1.0946 C   0  0  0  0  0  0  0  0  0  0  0  0
    1.2730   -1.0016    1.5902 C   0  0  0  0  0  0  0  0  0  0  0  0
    2.6325   -0.8960    1.0706 C   0  0  0  0  0  0  0  0  0  0  0  0
    3.0819    0.2530    0.5029 C   0  0  0  0  0  0  0  0  0  0  0  0
    4.5249    0.3416    0.1248 C   0  0  2  0  0  0  0  0  0  0  0  0
    4.8874    1.2103   -0.9397 O   0  0  0  0  0  0  0  0  0  0  0  0
    6.1770    0.6664   -1.3198 C   0  0  0  0  0  0  0  0  0  0  0  0
    6.3428   -0.6657   -0.7716 O   0  0  0  0  0  0  0  0  0  0  0  0
    5.0058   -0.9899   -0.4215 C   0  0  1  0  0  0  0  0  0  0  0  0
    4.7769   -2.0463    0.6043 C   0  0  0  0  0  0  0  0  0  0  0  0
    3.6217   -1.9791    1.2994 C   0  0  0  0  0  0  0  0  0  0  0  0
   -2.5580    0.0055   -0.3004 C   0  0  0  0  0  0  0  0  0  0  0  0
   -1.6183   -0.6136   -1.0840 O   0  0  0  0  0  0  0  0  0  0  0  0
   -1.8938   -0.7711   -2.4708 C   0  0  0  0  0  0  0  0  0  0  0  0
   -3.7120    0.6229   -0.8146 C   0  0  0  0  0  0  0  0  0  0  0  0
   -5.2921    2.5074   -2.2391 H   0  0  0  0  0  0  0  0  0  0  0  0
   -6.1812    0.9348   -2.1955 H   0  0  0  0  0  0  0  0  0  0  0  0
   -7.0195    2.4560   -1.8656 H   0  0  0  0  0  0  0  0  0  0  0  0
   -5.2112    1.5520    2.0916 H   0  0  0  0  0  0  0  0  0  0  0  0
   -2.5431   -0.1651    3.5478 H   0  0  0  0  0  0  0  0  0  0  0  0
    0.2495    0.2840    0.2421 H   0  0  0  0  0  0  0  0  0  0  0  0
    1.1530   -1.6770    2.4377 H   0  0  0  0  0  0  0  0  0  0  0  0
    2.4705    1.1384    0.3805 H   0  0  0  0  0  0  0  0  0  0  0  0
    5.0972    0.6696    1.0060 H   0  0  0  0  0  0  0  0  0  0  0  0
    6.9727    1.3106   -0.9336 H   0  0  0  0  0  0  0  0  0  0  0  0
    6.2351    0.6214   -2.4116 H   0  0  0  0  0  0  0  0  0  0  0  0
    4.4945   -1.2786   -1.3522 H   0  0  0  0  0  0  0  0  0  0  0  0
    5.4888   -2.8515    0.7331 H   0  0  0  0  0  0  0  0  0  0  0  0
    3.3756   -2.7443    2.0312 H   0  0  0  0  0  0  0  0  0  0  0  0
   -1.9172    0.1990   -2.9774 H   0  0  0  0  0  0  0  0  0  0  0  0
   -1.0780   -1.3545   -2.9083 H   0  0  0  0  0  0  0  0  0  0  0  0
   -2.8237   -1.3268   -2.6307 H   0  0  0  0  0  0  0  0  0  0  0  0
   -3.8740    0.6586   -1.8842 H   0  0  0  0  0  0  0  0  0  0  0  0
  1  2  1  0
  2  3  1  0
  3  4  2  0
  4  5  1  0
  5  6  1  0
  5  7  2  0
  7  8  1  0
  8  9  2  0
  8 10  1  0
 10 11  2  0
 11 12  1  0
 12 13  2  0
 13 14  1  0
 14 15  1  0
 15 16  1  0
 16 17  1  0
 17 18  1  0
 18 19  1  0
 19 20  2  0
  7 21  1  0
 21 22  1  0
 22 23  1  0
 21 24  2  0
 24  3  1  0
 20 12  1  0
 18 14  1  0
  1 25  1  0
  1 26  1  0
  1 27  1  0
  4 28  1  0
  6 29  1  0
 10 30  1  0
 11 31  1  0
 13 32  1  0
 14 33  1  1
 16 34  1  0
 16 35  1  0
 18 36  1  6
 19 37  1  0
 20 38  1  0
 23 39  1  0
 23 40  1  0
 23 41  1  0
 24 42  1  0
M  END
$$$$
