
     RDKit          3D

 56 61  0  0  0  0  0  0  0  0999 V2000
    5.8403   -0.8488    0.9400 C   0  0  0  0  0  0  0  0  0  0  0  0
    4.6306   -0.5786    0.0969 C   0  0  0  0  0  0  0  0  0  0  0  0
    4.7446   -0.1633   -1.2435 C   0  0  0  0  0  0  0  0  0  0  0  0
    6.2930    0.0552   -1.9861 Cl  0  0  0  0  0  0  0  0  0  0  0  0
    3.6092    0.0929   -2.0381 C   0  0  0  0  0  0  0  0  0  0  0  0
    2.3232   -0.0562   -1.5181 C   0  0  0  0  0  0  0  0  0  0  0  0
    2.1982   -0.4596   -0.1978 C   0  0  0  0  0  0  0  0  0  0  0  0
    3.3360   -0.7153    0.5842 C   0  0  0  0  0  0  0  0  0  0  0  0
    2.9460   -1.1072    1.8636 N   0  0  0  0  0  0  0  0  0  0  0  0
    1.5562   -1.1232    2.0040 C   0  0  0  0  0  0  0  0  0  0  0  0
    0.9664   -1.4170    3.0340 O   0  0  0  0  0  0  0  0  0  0  0  0
    0.9680   -0.7108    0.6294 C   0  0  0  0  0  0  0  0  0  0  0  0
    0.0552   -1.7650    0.0770 N   0  0  0  0  0  0  0  0  0  0  0  0
   -1.3691   -1.2879    0.2025 C   0  0  2  0  0  0  0  0  0  0  0  0
   -2.2124   -1.6074   -1.0475 C   0  0  0  0  0  0  0  0  0  0  0  0
   -2.3462   -3.0804   -1.3587 C   0  0  0  0  0  0  0  0  0  0  0  0
   -2.9715   -3.9515   -0.4557 C   0  0  0  0  0  0  0  0  0  0  0  0
   -3.0989   -5.3093   -0.7535 C   0  0  0  0  0  0  0  0  0  0  0  0
   -2.6089   -5.8097   -1.9577 C   0  0  0  0  0  0  0  0  0  0  0  0
   -1.9922   -4.9527   -2.8663 C   0  0  0  0  0  0  0  0  0  0  0  0
   -1.8628   -3.5946   -2.5704 C   0  0  0  0  0  0  0  0  0  0  0  0
   -1.2056    0.1700    0.4332 C   0  0  0  0  0  0  0  0  0  0  0  0
    0.1273    0.4924    0.6786 C   0  0  0  0  0  0  0  0  0  0  0  0
    0.2321    1.8448    0.8611 C   0  0  0  0  0  0  0  0  0  0  0  0
    1.3421    2.5690    0.9959 O   0  0  0  0  0  0  0  0  0  0  0  0
   -1.0751    2.3693    0.8266 N   0  0  0  0  0  0  0  0  0  0  0  0
   -1.4462    3.7229    1.1098 C   0  0  0  0  0  0  0  0  0  0  0  0
   -2.5445    4.3114    0.4655 C   0  0  0  0  0  0  0  0  0  0  0  0
   -2.8977    5.6341    0.7459 C   0  0  0  0  0  0  0  0  0  0  0  0
   -2.1634    6.3610    1.6742 C   0  0  0  0  0  0  0  0  0  0  0  0
   -2.5058    7.6277    1.9419 F   0  0  0  0  0  0  0  0  0  0  0  0
   -1.0825    5.7899    2.3339 C   0  0  0  0  0  0  0  0  0  0  0  0
   -0.7226    4.4688    2.0560 C   0  0  0  0  0  0  0  0  0  0  0  0
   -1.9550    1.3160    0.5066 C   0  0  0  0  0  0  0  0  0  0  0  0
   -3.2700    1.4899    0.4029 O   0  0  0  0  0  0  0  0  0  0  0  0
    6.4499   -1.6387    0.4889 H   0  0  0  0  0  0  0  0  0  0  0  0
    5.5829   -1.1817    1.9491 H   0  0  0  0  0  0  0  0  0  0  0  0
    6.4412    0.0606    1.0437 H   0  0  0  0  0  0  0  0  0  0  0  0
    3.7313    0.4156   -3.0700 H   0  0  0  0  0  0  0  0  0  0  0  0
    1.4510    0.1525   -2.1294 H   0  0  0  0  0  0  0  0  0  0  0  0
    3.5561   -1.3396    2.6312 H   0  0  0  0  0  0  0  0  0  0  0  0
    0.2644   -1.8636   -0.9129 H   0  0  0  0  0  0  0  0  0  0  0  0
   -1.8038   -1.7501    1.0968 H   0  0  0  0  0  0  0  0  0  0  0  0
   -3.2255   -1.2018   -0.9267 H   0  0  0  0  0  0  0  0  0  0  0  0
   -1.7942   -1.0830   -1.9182 H   0  0  0  0  0  0  0  0  0  0  0  0
   -3.3621   -3.5837    0.4903 H   0  0  0  0  0  0  0  0  0  0  0  0
   -3.5790   -5.9776   -0.0433 H   0  0  0  0  0  0  0  0  0  0  0  0
   -2.7070   -6.8674   -2.1871 H   0  0  0  0  0  0  0  0  0  0  0  0
   -1.6109   -5.3427   -3.8065 H   0  0  0  0  0  0  0  0  0  0  0  0
   -1.3803   -2.9432   -3.2953 H   0  0  0  0  0  0  0  0  0  0  0  0
    1.1537    3.4882    0.7351 H   0  0  0  0  0  0  0  0  0  0  0  0
   -3.1231    3.7716   -0.2797 H   0  0  0  0  0  0  0  0  0  0  0  0
   -3.7411    6.0989    0.2450 H   0  0  0  0  0  0  0  0  0  0  0  0
   -0.5380    6.3698    3.0727 H   0  0  0  0  0  0  0  0  0  0  0  0
    0.0879    4.0255    2.6317 H   0  0  0  0  0  0  0  0  0  0  0  0
   -3.6910    0.6137    0.3696 H   0  0  0  0  0  0  0  0  0  0  0  0
  1  2  1  0
  2  3  2  0
  3  4  1  0
  3  5  1  0
  5  6  2  0
  6  7  1  0
  7  8  2  0
  8  9  1  0
  9 10  1  0
 10 11  2  0
 10 12  1  0
 12 13  1  0
 13 14  1  0
 14 15  1  0
 15 16  1  0
 16 17  2  0
 17 18  1  0
 18 19  2  0
 19 20  1  0
 20 21  2  0
 14 22  1  0
 22 23  1  0
 23 24  2  0
 24 25  1  0
 24 26  1  0
 26 27  1  0
 27 28  2  0
 28 29  1  0
 29 30  2  0
 30 31  1  0
 30 32  1  0
 32 33  2  0
 26 34  1  0
 34 35  1  0
  8  2  1  0
 23 12  1  0
 33 27  1  0
 12  7  1  0
 21 16  1  0
 34 22  2  0
  1 36  1  0
  1 37  1  0
  1 38  1  0
  5 39  1  0
  6 40  1  0
  9 41  1  0
 13 42  1  0
 14 43  1  1
 15 44  1  0
 15 45  1  0
 17 46  1  0
 18 47  1  0
 19 48  1  0
 20 49  1  0
 21 50  1  0
 25 51  1  0
 28 52  1  0
 29 53  1  0
 32 54  1  0
 33 55  1  0
 35 56  1  0
M  END
$$$$
