
     RDKit          3D

 48 50  0  0  0  0  0  0  0  0999 V2000
   -4.5764    0.7988    2.4155 C   0  0  0  0  0  0  0  0  0  0  0  0
   -5.0239    0.9847    1.0761 O   0  0  0  0  0  0  0  0  0  0  0  0
   -4.1345    0.7090    0.0694 C   0  0  0  0  0  0  0  0  0  0  0  0
   -2.9168    0.0466    0.2416 C   0  0  0  0  0  0  0  0  0  0  0  0
   -2.0755   -0.1834   -0.8569 C   0  0  0  0  0  0  0  0  0  0  0  0
   -0.7985   -0.8943   -0.6996 C   0  0  0  0  0  0  0  0  0  0  0  0
    0.2713   -0.4453   -0.0115 C   0  0  0  0  0  0  0  0  0  0  0  0
    0.2788    0.8030    0.6675 C   0  0  0  0  0  0  0  0  0  0  0  0
    0.3769    1.7991    1.2556 N   0  0  0  0  0  0  0  0  0  0  0  0
    1.5012   -1.3204    0.0054 C   0  0  0  0  0  0  0  0  0  0  0  0
    1.4652   -2.4207   -0.5387 O   0  0  0  0  0  0  0  0  0  0  0  0
    2.6002   -0.7740    0.6522 N   0  0  0  0  0  0  0  0  0  0  0  0
    3.8894   -1.3514    0.8402 C   0  0  0  0  0  0  0  0  0  0  0  0
    4.1992   -2.6293    0.3587 C   0  0  0  0  0  0  0  0  0  0  0  0
    5.4631   -3.1747    0.5560 C   0  0  0  0  0  0  0  0  0  0  0  0
    6.4324   -2.4462    1.2370 C   0  0  0  0  0  0  0  0  0  0  0  0
    6.1775   -1.1791    1.7303 C   0  0  0  0  0  0  0  0  0  0  0  0
    7.1843   -0.5612    2.3735 N   0  0  0  0  0  0  0  0  0  0  0  0
    6.9707    0.6736    2.8689 C   0  0  0  0  0  0  0  0  0  0  0  0
    5.7729    1.3401    2.7505 C   0  0  0  0  0  0  0  0  0  0  0  0
    4.7311    0.6973    2.0866 C   0  0  0  0  0  0  0  0  0  0  0  0
    4.8955   -0.6041    1.5421 C   0  0  0  0  0  0  0  0  0  0  0  0
   -2.4578    0.2406   -2.1388 C   0  0  0  0  0  0  0  0  0  0  0  0
   -3.6720    0.9030   -2.3313 C   0  0  0  0  0  0  0  0  0  0  0  0
   -4.1314    1.3520   -3.5443 O   0  0  0  0  0  0  0  0  0  0  0  0
   -3.1884    1.4343   -4.6068 C   0  0  0  0  0  0  0  0  0  0  0  0
   -4.5132    1.1114   -1.2245 C   0  0  0  0  0  0  0  0  0  0  0  0
   -5.6983    1.7937   -1.3975 O   0  0  0  0  0  0  0  0  0  0  0  0
   -6.7482    0.8705   -1.6883 C   0  0  0  0  0  0  0  0  0  0  0  0
   -5.3542    1.1801    3.0847 H   0  0  0  0  0  0  0  0  0  0  0  0
   -3.6598    1.3674    2.6139 H   0  0  0  0  0  0  0  0  0  0  0  0
   -4.4417   -0.2664    2.6377 H   0  0  0  0  0  0  0  0  0  0  0  0
   -2.6129   -0.3099    1.2218 H   0  0  0  0  0  0  0  0  0  0  0  0
   -0.7557   -1.8473   -1.2270 H   0  0  0  0  0  0  0  0  0  0  0  0
    2.4983    0.1511    1.0440 H   0  0  0  0  0  0  0  0  0  0  0  0
    3.4806   -3.2381   -0.1815 H   0  0  0  0  0  0  0  0  0  0  0  0
    5.6934   -4.1678    0.1767 H   0  0  0  0  0  0  0  0  0  0  0  0
    7.4190   -2.8808    1.3853 H   0  0  0  0  0  0  0  0  0  0  0  0
    7.8193    1.1234    3.3765 H   0  0  0  0  0  0  0  0  0  0  0  0
    5.6469    2.3351    3.1617 H   0  0  0  0  0  0  0  0  0  0  0  0
    3.7955    1.2422    2.0077 H   0  0  0  0  0  0  0  0  0  0  0  0
   -1.7948    0.0389   -2.9760 H   0  0  0  0  0  0  0  0  0  0  0  0
   -3.6736    1.9431   -5.4452 H   0  0  0  0  0  0  0  0  0  0  0  0
   -2.3121    2.0272   -4.3196 H   0  0  0  0  0  0  0  0  0  0  0  0
   -2.8965    0.4351   -4.9483 H   0  0  0  0  0  0  0  0  0  0  0  0
   -7.6779    1.4411   -1.7819 H   0  0  0  0  0  0  0  0  0  0  0  0
   -6.5707    0.3534   -2.6405 H   0  0  0  0  0  0  0  0  0  0  0  0
   -6.8777    0.1407   -0.8792 H   0  0  0  0  0  0  0  0  0  0  0  0
  1  2  1  0
  2  3  1  0
  3  4  2  0
  4  5  1  0
  5  6  1  0
  6  7  2  3
  7  8  1  0
  8  9  3  0
  7 10  1  0
 10 11  2  0
 10 12  1  0
 12 13  1  0
 13 14  2  0
 14 15  1  0
 15 16  2  0
 16 17  1  0
 17 18  2  0
 18 19  1  0
 19 20  2  0
 20 21  1  0
 21 22  2  0
  5 23  2  0
 23 24  1  0
 24 25  1  0
 25 26  1  0
 24 27  2  0
 27 28  1  0
 28 29  1  0
 27  3  1  0
 22 13  1  0
 22 17  1  0
  1 30  1  0
  1 31  1  0
  1 32  1  0
  4 33  1  0
  6 34  1  0
 12 35  1  0
 14 36  1  0
 15 37  1  0
 16 38  1  0
 19 39  1  0
 20 40  1  0
 21 41  1  0
 23 42  1  0
 26 43  1  0
 26 44  1  0
 26 45  1  0
 29 46  1  0
 29 47  1  0
 29 48  1  0
M  END
$$$$
