
     RDKit          3D

 39 41  0  0  0  0  0  0  0  0999 V2000
   -3.0314   -0.9476    4.5235 C   0  0  0  0  0  0  0  0  0  0  0  0
   -2.9702   -1.5422    3.2333 O   0  0  0  0  0  0  0  0  0  0  0  0
   -2.9033   -0.6952    2.1618 C   0  0  0  0  0  0  0  0  0  0  0  0
   -2.8990    0.7007    2.2182 C   0  0  0  0  0  0  0  0  0  0  0  0
   -2.8235    1.4522    1.0408 C   0  0  0  0  0  0  0  0  0  0  0  0
   -2.7431    0.8004   -0.1930 C   0  0  0  0  0  0  0  0  0  0  0  0
   -2.6485    1.7608   -1.6876 S   0  0  0  0  0  6  0  0  0  0  0  0
   -3.2703    3.0413   -1.4204 O   0  0  0  0  0  0  0  0  0  0  0  0
   -3.0860    0.9306   -2.7887 O   0  0  0  0  0  0  0  0  0  0  0  0
   -0.9925    2.0696   -1.8355 N   0  0  0  0  0  0  0  0  0  0  0  0
   -0.0788    0.9792   -1.8254 C   0  0  0  0  0  0  0  0  0  0  0  0
   -0.0787    0.0417   -2.8559 C   0  0  0  0  0  0  0  0  0  0  0  0
    0.7938   -1.0442   -2.8050 C   0  0  0  0  0  0  0  0  0  0  0  0
    1.6660   -1.1864   -1.7273 C   0  0  0  0  0  0  0  0  0  0  0  0
    2.4888   -2.2786   -1.7640 O   0  0  0  0  0  0  0  0  0  0  0  0
    1.6747   -0.2537   -0.6803 C   0  0  0  0  0  0  0  0  0  0  0  0
    2.6914   -0.4152    0.7799 S   0  0  0  0  0  0  0  0  0  0  0  0
    4.2921   -0.2501    0.1194 C   0  0  0  0  0  0  0  0  0  0  0  0
    5.0845    0.8440    0.3183 N   0  0  0  0  0  0  0  0  0  0  0  0
    6.1782    0.5390   -0.3396 C   0  0  0  0  0  0  0  0  0  0  0  0
    6.0419   -0.6899   -0.9040 N   0  0  0  0  0  0  0  0  0  0  0  0
    4.8387   -1.2220   -0.6227 N   0  0  0  0  0  0  0  0  0  0  0  0
    0.7896    0.8324   -0.7407 C   0  0  0  0  0  0  0  0  0  0  0  0
   -2.7685   -0.5934   -0.2621 C   0  0  0  0  0  0  0  0  0  0  0  0
   -2.8407   -1.3341    0.9187 C   0  0  0  0  0  0  0  0  0  0  0  0
   -3.0740   -1.7542    5.2617 H   0  0  0  0  0  0  0  0  0  0  0  0
   -2.1332   -0.3557    4.7285 H   0  0  0  0  0  0  0  0  0  0  0  0
   -3.9379   -0.3440    4.6370 H   0  0  0  0  0  0  0  0  0  0  0  0
   -2.9587    1.2340    3.1615 H   0  0  0  0  0  0  0  0  0  0  0  0
   -2.8326    2.5385    1.0966 H   0  0  0  0  0  0  0  0  0  0  0  0
   -0.7231    2.9246   -1.3517 H   0  0  0  0  0  0  0  0  0  0  0  0
   -0.7507    0.1476   -3.7044 H   0  0  0  0  0  0  0  0  0  0  0  0
    0.7966   -1.7790   -3.6058 H   0  0  0  0  0  0  0  0  0  0  0  0
    3.2469   -2.1101   -1.1639 H   0  0  0  0  0  0  0  0  0  0  0  0
    7.0678    1.1451   -0.4377 H   0  0  0  0  0  0  0  0  0  0  0  0
    6.7011   -1.2114   -1.4724 H   0  0  0  0  0  0  0  0  0  0  0  0
    0.7678    1.5549    0.0713 H   0  0  0  0  0  0  0  0  0  0  0  0
   -2.7250   -1.1086   -1.2190 H   0  0  0  0  0  0  0  0  0  0  0  0
   -2.8504   -2.4211    0.8718 H   0  0  0  0  0  0  0  0  0  0  0  0
  1  2  1  0
  2  3  1  0
  3  4  2  0
  4  5  1  0
  5  6  2  0
  6  7  1  0
  7  8  2  0
  7  9  2  0
  7 10  1  0
 10 11  1  0
 11 12  2  0
 12 13  1  0
 13 14  2  0
 14 15  1  0
 14 16  1  0
 16 17  1  0
 17 18  1  0
 18 19  1  0
 19 20  2  0
 20 21  1  0
 21 22  1  0
 16 23  2  0
  6 24  1  0
 24 25  2  0
 25  3  1  0
 23 11  1  0
 22 18  2  0
  1 26  1  0
  1 27  1  0
  1 28  1  0
  4 29  1  0
  5 30  1  0
 10 31  1  0
 12 32  1  0
 13 33  1  0
 15 34  1  0
 20 35  1  0
 21 36  1  0
 23 37  1  0
 24 38  1  0
 25 39  1  0
M  END
$$$$
