
     RDKit          3D

 51 54  0  0  0  0  0  0  0  0999 V2000
    6.4903    1.0321   -2.6039 C   0  0  0  0  0  0  0  0  0  0  0  0
    5.4782    1.8172   -3.4248 C   0  0  0  0  0  0  0  0  0  0  0  0
    4.1108    1.8016   -2.7926 C   0  0  0  0  0  0  0  0  0  0  0  0
    3.2127    0.7661   -3.0604 C   0  0  0  0  0  0  0  0  0  0  0  0
    1.9480    0.7438   -2.4578 C   0  0  0  0  0  0  0  0  0  0  0  0
    1.5418    1.7500   -1.5666 C   0  0  0  0  0  0  0  0  0  0  0  0
    0.2341    1.7331   -0.9359 N   0  0  0  0  0  0  0  0  0  0  0  0
   -0.4103    2.9582   -0.7261 C   0  0  0  0  0  0  0  0  0  0  0  0
   -0.0305    4.0538   -1.1428 O   0  0  0  0  0  0  0  0  0  0  0  0
   -1.6864    2.9395    0.0048 C   0  0  0  0  0  0  0  0  0  0  0  0
   -2.3038    4.1567    0.3455 C   0  0  0  0  0  0  0  0  0  0  0  0
   -3.5148    4.1641    1.0301 C   0  0  0  0  0  0  0  0  0  0  0  0
   -4.1076    2.9569    1.3760 C   0  0  0  0  0  0  0  0  0  0  0  0
   -3.4928    1.7478    1.0313 C   0  0  0  0  0  0  0  0  0  0  0  0
   -2.2733    1.7240    0.3327 C   0  0  0  0  0  0  0  0  0  0  0  0
   -1.6243    0.5215   -0.0415 N   0  0  0  0  0  0  0  0  0  0  0  0
   -2.2072   -0.7799    0.2956 C   0  0  0  0  0  0  0  0  0  0  0  0
   -1.8575   -1.2272    1.7203 C   0  0  0  0  0  0  0  0  0  0  0  0
   -1.4674   -0.4646    2.6009 O   0  0  0  0  0  0  0  0  0  0  0  0
   -2.0834   -2.5663    1.9506 N   0  0  0  0  0  0  0  0  0  0  0  0
   -1.9130   -3.1298    3.2689 C   0  0  0  0  0  0  0  0  0  0  0  0
   -2.0150   -4.6057    3.1753 C   0  0  0  0  0  0  0  0  0  0  0  0
   -1.1799   -5.6387    3.5478 C   0  0  0  0  0  0  0  0  0  0  0  0
   -1.8431   -6.8379    3.1919 C   0  0  0  0  0  0  0  0  0  0  0  0
   -3.0369   -6.4624    2.6230 C   0  0  0  0  0  0  0  0  0  0  0  0
   -3.1510   -5.1093    2.6052 O   0  0  0  0  0  0  0  0  0  0  0  0
   -0.3425    0.4992   -0.5973 C   0  0  0  0  0  0  0  0  0  0  0  0
    0.2233   -0.5899   -0.7444 O   0  0  0  0  0  0  0  0  0  0  0  0
    2.4588    2.7819   -1.3053 C   0  0  0  0  0  0  0  0  0  0  0  0
    3.7244    2.8077   -1.9050 C   0  0  0  0  0  0  0  0  0  0  0  0
    6.1997   -0.0207   -2.5154 H   0  0  0  0  0  0  0  0  0  0  0  0
    6.5837    1.4408   -1.5916 H   0  0  0  0  0  0  0  0  0  0  0  0
    7.4758    1.0726   -3.0788 H   0  0  0  0  0  0  0  0  0  0  0  0
    5.4198    1.4019   -4.4382 H   0  0  0  0  0  0  0  0  0  0  0  0
    5.8206    2.8532   -3.5408 H   0  0  0  0  0  0  0  0  0  0  0  0
    3.4857   -0.0348   -3.7439 H   0  0  0  0  0  0  0  0  0  0  0  0
    1.2813   -0.0705   -2.7309 H   0  0  0  0  0  0  0  0  0  0  0  0
   -1.8378    5.1036    0.0776 H   0  0  0  0  0  0  0  0  0  0  0  0
   -3.9873    5.1061    1.2966 H   0  0  0  0  0  0  0  0  0  0  0  0
   -5.0476    2.9506    1.9235 H   0  0  0  0  0  0  0  0  0  0  0  0
   -3.9927    0.8394    1.3517 H   0  0  0  0  0  0  0  0  0  0  0  0
   -3.2945   -0.7631    0.1689 H   0  0  0  0  0  0  0  0  0  0  0  0
   -1.8410   -1.5424   -0.4031 H   0  0  0  0  0  0  0  0  0  0  0  0
   -2.5555   -3.1366    1.2595 H   0  0  0  0  0  0  0  0  0  0  0  0
   -0.9421   -2.8200    3.6696 H   0  0  0  0  0  0  0  0  0  0  0  0
   -2.6984   -2.7287    3.9183 H   0  0  0  0  0  0  0  0  0  0  0  0
   -0.2114   -5.5364    4.0181 H   0  0  0  0  0  0  0  0  0  0  0  0
   -1.4943   -7.8515    3.3317 H   0  0  0  0  0  0  0  0  0  0  0  0
   -3.8711   -7.0083    2.2043 H   0  0  0  0  0  0  0  0  0  0  0  0
    2.2207    3.5789   -0.6047 H   0  0  0  0  0  0  0  0  0  0  0  0
    4.4043    3.6224   -1.6657 H   0  0  0  0  0  0  0  0  0  0  0  0
  1  2  1  0
  2  3  1  0
  3  4  2  0
  4  5  1  0
  5  6  2  0
  6  7  1  0
  7  8  1  0
  8  9  2  0
  8 10  1  0
 10 11  2  0
 11 12  1  0
 12 13  2  0
 13 14  1  0
 14 15  2  0
 15 16  1  0
 16 17  1  0
 17 18  1  0
 18 19  2  0
 18 20  1  0
 20 21  1  0
 21 22  1  0
 22 23  2  0
 23 24  1  0
 24 25  2  0
 25 26  1  0
 16 27  1  0
 27 28  2  0
  6 29  1  0
 29 30  2  0
 30  3  1  0
 27  7  1  0
 15 10  1  0
 26 22  1  0
  1 31  1  0
  1 32  1  0
  1 33  1  0
  2 34  1  0
  2 35  1  0
  4 36  1  0
  5 37  1  0
 11 38  1  0
 12 39  1  0
 13 40  1  0
 14 41  1  0
 17 42  1  0
 17 43  1  0
 20 44  1  0
 21 45  1  0
 21 46  1  0
 23 47  1  0
 24 48  1  0
 25 49  1  0
 29 50  1  0
 30 51  1  0
M  END
$$$$
