
     RDKit          3D

 42 43  0  0  0  0  0  0  0  0999 V2000
   -4.2498    1.0431    2.0146 C   0  0  0  0  0  0  0  0  0  0  0  0
   -4.7318    0.2764    0.8246 C   0  0  0  0  0  0  0  0  0  0  0  0
   -4.1644    0.1849   -0.3960 C   0  0  0  0  0  0  0  0  0  0  0  0
   -4.8131   -0.6566   -1.4688 C   0  0  0  0  0  0  0  0  0  0  0  0
   -2.8995    0.8991   -0.8312 C   0  0  0  0  0  0  0  0  0  0  0  0
   -1.8138   -0.0244   -1.1882 N   0  0  0  0  0  0  0  0  0  0  0  0
   -0.6851    0.6860   -1.8278 C   0  0  0  0  0  0  0  0  0  0  0  0
    0.4933    1.0586   -0.8971 C   0  0  0  0  0  0  0  0  0  0  0  0
    1.0281   -0.1298   -0.2135 N   0  0  0  0  0  0  0  0  0  0  0  0
    2.3539   -0.2027    0.1790 C   0  0  0  0  0  0  0  0  0  0  0  0
    3.1260    0.9503    0.3926 C   0  0  0  0  0  0  0  0  0  0  0  0
    4.4675    0.8873    0.7953 C   0  0  0  0  0  0  0  0  0  0  0  0
    5.0850   -0.3440    1.0106 C   0  0  0  0  0  0  0  0  0  0  0  0
    6.5280   -0.4191    1.4072 C   0  0  0  0  0  0  0  0  0  0  0  0
    4.3438   -1.5046    0.7930 C   0  0  0  0  0  0  0  0  0  0  0  0
    3.0023   -1.4289    0.3919 C   0  0  0  0  0  0  0  0  0  0  0  0
    0.1141   -1.2769   -0.0903 C   0  0  0  0  0  0  0  0  0  0  0  0
   -1.3524   -0.7929   -0.0071 C   0  0  0  0  0  0  0  0  0  0  0  0
   -4.1593    0.3673    2.8711 H   0  0  0  0  0  0  0  0  0  0  0  0
   -3.2784    1.5186    1.8699 H   0  0  0  0  0  0  0  0  0  0  0  0
   -4.9754    1.8211    2.2712 H   0  0  0  0  0  0  0  0  0  0  0  0
   -5.6541   -0.2751    1.0068 H   0  0  0  0  0  0  0  0  0  0  0  0
   -5.0302   -0.0455   -2.3511 H   0  0  0  0  0  0  0  0  0  0  0  0
   -5.7586   -1.0972   -1.1348 H   0  0  0  0  0  0  0  0  0  0  0  0
   -4.1553   -1.4791   -1.7668 H   0  0  0  0  0  0  0  0  0  0  0  0
   -3.1721    1.4936   -1.7143 H   0  0  0  0  0  0  0  0  0  0  0  0
   -2.5547    1.6273   -0.0899 H   0  0  0  0  0  0  0  0  0  0  0  0
   -1.0270    1.5820   -2.3606 H   0  0  0  0  0  0  0  0  0  0  0  0
   -0.2966    0.0181   -2.6084 H   0  0  0  0  0  0  0  0  0  0  0  0
    0.1634    1.7915   -0.1512 H   0  0  0  0  0  0  0  0  0  0  0  0
    1.2625    1.5290   -1.5216 H   0  0  0  0  0  0  0  0  0  0  0  0
    2.6876    1.9364    0.2693 H   0  0  0  0  0  0  0  0  0  0  0  0
    5.0184    1.8129    0.9437 H   0  0  0  0  0  0  0  0  0  0  0  0
    7.1606   -0.4509    0.5148 H   0  0  0  0  0  0  0  0  0  0  0  0
    6.8127    0.4482    2.0122 H   0  0  0  0  0  0  0  0  0  0  0  0
    6.7215   -1.3125    2.0102 H   0  0  0  0  0  0  0  0  0  0  0  0
    4.7995   -2.4825    0.9292 H   0  0  0  0  0  0  0  0  0  0  0  0
    2.4795   -2.3659    0.2234 H   0  0  0  0  0  0  0  0  0  0  0  0
    0.3222   -1.8426    0.8260 H   0  0  0  0  0  0  0  0  0  0  0  0
    0.2434   -1.9510   -0.9457 H   0  0  0  0  0  0  0  0  0  0  0  0
   -1.4391   -0.1836    0.9032 H   0  0  0  0  0  0  0  0  0  0  0  0
   -2.0023   -1.6661    0.1227 H   0  0  0  0  0  0  0  0  0  0  0  0
  1  2  1  0
  2  3  2  3
  3  4  1  0
  3  5  1  0
  5  6  1  0
  6  7  1  0
  7  8  1  0
  8  9  1  0
  9 10  1  0
 10 11  2  0
 11 12  1  0
 12 13  2  0
 13 14  1  0
 13 15  1  0
 15 16  2  0
  9 17  1  0
 17 18  1  0
 18  6  1  0
 16 10  1  0
  1 19  1  0
  1 20  1  0
  1 21  1  0
  2 22  1  0
  4 23  1  0
  4 24  1  0
  4 25  1  0
  5 26  1  0
  5 27  1  0
  7 28  1  0
  7 29  1  0
  8 30  1  0
  8 31  1  0
 11 32  1  0
 12 33  1  0
 14 34  1  0
 14 35  1  0
 14 36  1  0
 15 37  1  0
 16 38  1  0
 17 39  1  0
 17 40  1  0
 18 41  1  0
 18 42  1  0
M  END
$$$$
