
     RDKit          3D

 50 53  0  0  0  0  0  0  0  0999 V2000
    7.2945    1.3062    2.9683 C   0  0  0  0  0  0  0  0  0  0  0  0
    7.2858    1.7560    1.5176 C   0  0  0  0  0  0  0  0  0  0  0  0
    6.7444    0.7437    0.6696 O   0  0  0  0  0  0  0  0  0  0  0  0
    5.3940    0.6310    0.5117 C   0  0  0  0  0  0  0  0  0  0  0  0
    4.4444    1.4887    1.0710 C   0  0  0  0  0  0  0  0  0  0  0  0
    3.0774    1.3070    0.8114 C   0  0  0  0  0  0  0  0  0  0  0  0
    2.6333    0.2719   -0.0225 C   0  0  0  0  0  0  0  0  0  0  0  0
    1.1696    0.1282   -0.2640 C   0  0  0  0  0  0  0  0  0  0  0  0
    0.4051    0.4611    0.6332 O   0  0  0  0  0  0  0  0  0  0  0  0
    0.8248   -0.3346   -1.5208 N   0  0  0  0  0  0  0  0  0  0  0  0
   -0.4737   -0.6255   -1.9937 C   0  0  0  0  0  0  0  0  0  0  0  0
   -0.6029   -0.9434   -3.3504 C   0  0  0  0  0  0  0  0  0  0  0  0
   -1.8521   -1.2472   -3.8924 C   0  0  0  0  0  0  0  0  0  0  0  0
   -2.9859   -1.2382   -3.0814 C   0  0  0  0  0  0  0  0  0  0  0  0
   -2.8820   -0.9307   -1.7193 C   0  0  0  0  0  0  0  0  0  0  0  0
   -4.0861   -0.9260   -0.8573 C   0  0  0  0  0  0  0  0  0  0  0  0
   -4.3547    0.1705   -0.1274 C   0  0  0  0  0  0  0  0  0  0  0  0
   -5.5264    0.2294    0.7298 C   0  0  0  0  0  0  0  0  0  0  0  0
   -5.8235    1.3505    1.5079 C   0  0  0  0  0  0  0  0  0  0  0  0
   -6.9643    1.3588    2.3172 C   0  0  0  0  0  0  0  0  0  0  0  0
   -7.8112    0.2486    2.3518 C   0  0  0  0  0  0  0  0  0  0  0  0
   -7.5196   -0.8730    1.5780 C   0  0  0  0  0  0  0  0  0  0  0  0
   -6.3797   -0.8661    0.7776 C   0  0  0  0  0  0  0  0  0  0  0  0
   -6.1179   -2.0141    0.0116 O   0  0  0  0  0  0  0  0  0  0  0  0
   -5.0017   -2.1067   -0.8155 C   0  0  0  0  0  0  0  0  0  0  0  0
   -4.7982   -3.1203   -1.4770 O   0  0  0  0  0  0  0  0  0  0  0  0
   -1.6145   -0.6311   -1.1857 C   0  0  0  0  0  0  0  0  0  0  0  0
    3.5623   -0.6122   -0.5706 C   0  0  0  0  0  0  0  0  0  0  0  0
    4.9241   -0.4181   -0.2921 C   0  0  0  0  0  0  0  0  0  0  0  0
    5.8611   -1.3551   -0.8824 N   0  0  0  0  0  4  0  0  0  0  0  0
    5.8616   -1.4290   -2.1199 O   0  0  0  0  0  0  0  0  0  0  0  0
    6.5365   -2.0539   -0.1162 O   0  0  0  0  0  1  0  0  0  0  0  0
    7.7850    2.0517    3.6007 H   0  0  0  0  0  0  0  0  0  0  0  0
    7.8252    0.3537    3.0708 H   0  0  0  0  0  0  0  0  0  0  0  0
    6.2799    1.1456    3.3448 H   0  0  0  0  0  0  0  0  0  0  0  0
    8.3236    1.9025    1.1969 H   0  0  0  0  0  0  0  0  0  0  0  0
    6.7917    2.7235    1.3798 H   0  0  0  0  0  0  0  0  0  0  0  0
    4.7223    2.3145    1.7187 H   0  0  0  0  0  0  0  0  0  0  0  0
    2.3542    1.9860    1.2637 H   0  0  0  0  0  0  0  0  0  0  0  0
    1.5602   -0.4016   -2.2126 H   0  0  0  0  0  0  0  0  0  0  0  0
    0.2631   -0.9594   -4.0070 H   0  0  0  0  0  0  0  0  0  0  0  0
   -1.9435   -1.4968   -4.9467 H   0  0  0  0  0  0  0  0  0  0  0  0
   -3.9503   -1.4853   -3.5218 H   0  0  0  0  0  0  0  0  0  0  0  0
   -3.7113    1.0454   -0.1552 H   0  0  0  0  0  0  0  0  0  0  0  0
   -5.1751    2.2234    1.4957 H   0  0  0  0  0  0  0  0  0  0  0  0
   -7.1922    2.2328    2.9230 H   0  0  0  0  0  0  0  0  0  0  0  0
   -8.6965    0.2588    2.9828 H   0  0  0  0  0  0  0  0  0  0  0  0
   -8.1711   -1.7416    1.5989 H   0  0  0  0  0  0  0  0  0  0  0  0
   -1.5373   -0.4223   -0.1227 H   0  0  0  0  0  0  0  0  0  0  0  0
    3.2480   -1.4572   -1.1781 H   0  0  0  0  0  0  0  0  0  0  0  0
  1  2  1  0
  2  3  1  0
  3  4  1  0
  4  5  2  0
  5  6  1  0
  6  7  2  0
  7  8  1  0
  8  9  2  0
  8 10  1  0
 10 11  1  0
 11 12  2  0
 12 13  1  0
 13 14  2  0
 14 15  1  0
 15 16  1  0
 16 17  2  0
 17 18  1  0
 18 19  2  0
 19 20  1  0
 20 21  2  0
 21 22  1  0
 22 23  2  0
 23 24  1  0
 24 25  1  0
 25 26  2  0
 15 27  2  0
  7 28  1  0
 28 29  2  0
 29 30  1  0
 30 31  2  0
 30 32  1  0
 29  4  1  0
 27 11  1  0
 25 16  1  0
 23 18  1  0
  1 33  1  0
  1 34  1  0
  1 35  1  0
  2 36  1  0
  2 37  1  0
  5 38  1  0
  6 39  1  0
 10 40  1  0
 12 41  1  0
 13 42  1  0
 14 43  1  0
 17 44  1  0
 19 45  1  0
 20 46  1  0
 21 47  1  0
 22 48  1  0
 27 49  1  0
 28 50  1  0
M  CHG  2  30   1  32  -1
M  END
$$$$
