
     RDKit          3D

 43 45  0  0  0  0  0  0  0  0999 V2000
    7.5303    0.8889   -1.7261 O   0  0  0  0  0  0  0  0  0  0  0  0
    8.0509    0.0438   -1.0182 C   0  0  0  0  0  0  0  0  0  0  0  0
    9.3976   -0.0090   -0.9167 O   0  0  0  0  0  0  0  0  0  0  0  0
    7.3868   -1.0454   -0.2119 C   0  0  0  0  0  0  0  0  0  0  0  0
    5.8889   -0.8977   -0.0944 C   0  0  0  0  0  0  0  0  0  0  0  0
    5.3141   -0.3571    1.0618 C   0  0  0  0  0  0  0  0  0  0  0  0
    3.9257   -0.2137    1.1709 C   0  0  0  0  0  0  0  0  0  0  0  0
    3.0884   -0.6034    0.1262 C   0  0  0  0  0  0  0  0  0  0  0  0
    1.6830   -0.4830    0.1537 N   0  0  0  0  0  0  0  0  0  0  0  0
    0.8970   -0.0690    1.2136 C   0  0  0  0  0  0  0  0  0  0  0  0
    1.2714    0.1946    2.3501 O   0  0  0  0  0  0  0  0  0  0  0  0
   -0.5631    0.0091    0.9205 C   0  0  0  0  0  0  0  0  0  0  0  0
   -1.0500    0.3977   -0.3315 C   0  0  0  0  0  0  0  0  0  0  0  0
   -2.4308    0.4566   -0.5643 C   0  0  0  0  0  0  0  0  0  0  0  0
   -3.3393    0.1400    0.4484 C   0  0  0  0  0  0  0  0  0  0  0  0
   -4.7418    0.1753    0.2981 N   0  0  0  0  0  0  0  0  0  0  0  0
   -5.4704    0.4531   -0.8526 C   0  0  0  0  0  0  0  0  0  0  0  0
   -4.9634    0.6850   -1.9463 O   0  0  0  0  0  0  0  0  0  0  0  0
   -6.9163    0.4348   -0.6578 C   0  0  0  0  0  0  0  0  0  0  0  0
   -7.7360    0.2758    0.4497 C   0  0  0  0  0  0  0  0  0  0  0  0
   -9.0753    0.3561   -0.0089 C   0  0  0  0  0  0  0  0  0  0  0  0
   -9.0018    0.5605   -1.3640 C   0  0  0  0  0  0  0  0  0  0  0  0
   -7.7085    0.6106   -1.7652 O   0  0  0  0  0  0  0  0  0  0  0  0
   -2.8444   -0.2253    1.7075 C   0  0  0  0  0  0  0  0  0  0  0  0
   -1.4674   -0.2875    1.9445 C   0  0  0  0  0  0  0  0  0  0  0  0
    3.6628   -1.1335   -1.0353 C   0  0  0  0  0  0  0  0  0  0  0  0
    5.0491   -1.2808   -1.1458 C   0  0  0  0  0  0  0  0  0  0  0  0
    9.7009    0.7333   -1.4813 H   0  0  0  0  0  0  0  0  0  0  0  0
    7.6187   -2.0103   -0.6781 H   0  0  0  0  0  0  0  0  0  0  0  0
    7.8301   -1.0504    0.7912 H   0  0  0  0  0  0  0  0  0  0  0  0
    5.9380   -0.0374    1.8939 H   0  0  0  0  0  0  0  0  0  0  0  0
    3.5314    0.2167    2.0861 H   0  0  0  0  0  0  0  0  0  0  0  0
    1.2046   -0.7969   -0.6801 H   0  0  0  0  0  0  0  0  0  0  0  0
   -0.3768    0.6908   -1.1329 H   0  0  0  0  0  0  0  0  0  0  0  0
   -2.7595    0.7716   -1.5504 H   0  0  0  0  0  0  0  0  0  0  0  0
   -5.2723   -0.0526    1.1256 H   0  0  0  0  0  0  0  0  0  0  0  0
   -7.4242    0.1259    1.4730 H   0  0  0  0  0  0  0  0  0  0  0  0
   -9.9815    0.2781    0.5756 H   0  0  0  0  0  0  0  0  0  0  0  0
   -9.7379    0.6864   -2.1462 H   0  0  0  0  0  0  0  0  0  0  0  0
   -3.5181   -0.4672    2.5259 H   0  0  0  0  0  0  0  0  0  0  0  0
   -1.1011   -0.5694    2.9301 H   0  0  0  0  0  0  0  0  0  0  0  0
    3.0429   -1.4383   -1.8742 H   0  0  0  0  0  0  0  0  0  0  0  0
    5.4671   -1.6881   -2.0639 H   0  0  0  0  0  0  0  0  0  0  0  0
  1  2  2  0
  2  3  1  0
  2  4  1  0
  4  5  1  0
  5  6  2  0
  6  7  1  0
  7  8  2  0
  8  9  1  0
  9 10  1  0
 10 11  2  0
 10 12  1  0
 12 13  2  0
 13 14  1  0
 14 15  2  0
 15 16  1  0
 16 17  1  0
 17 18  2  0
 17 19  1  0
 19 20  2  0
 20 21  1  0
 21 22  2  0
 22 23  1  0
 15 24  1  0
 24 25  2  0
  8 26  1  0
 26 27  2  0
 27  5  1  0
 25 12  1  0
 23 19  1  0
  3 28  1  0
  4 29  1  0
  4 30  1  0
  6 31  1  0
  7 32  1  0
  9 33  1  0
 13 34  1  0
 14 35  1  0
 16 36  1  0
 20 37  1  0
 21 38  1  0
 22 39  1  0
 24 40  1  0
 25 41  1  0
 26 42  1  0
 27 43  1  0
M  END
$$$$
