
     RDKit          3D

 73 75  0  0  0  0  0  0  0  0999 V2000
   -2.5491   -0.3940   -3.6459 C   0  0  0  0  0  0  0  0  0  0  0  0
   -3.0015    0.2440   -2.3373 C   0  0  0  0  0  0  0  0  0  0  0  0
   -2.9911   -0.6451   -1.0827 C   0  0  0  0  0  0  0  0  0  0  0  0
   -1.4083   -1.5188   -0.7580 S   0  0  0  0  0  0  0  0  0  0  0  0
   -0.5128   -0.1588   -0.1185 C   0  0  0  0  0  0  0  0  0  0  0  0
    0.0770    0.5887   -0.9908 N   0  0  0  0  0  0  0  0  0  0  0  0
    0.8058    1.6915   -0.5386 C   0  0  0  0  0  0  0  0  0  0  0  0
    1.4882    2.4756   -1.4718 C   0  0  0  0  0  0  0  0  0  0  0  0
    2.2314    3.5899   -1.0630 C   0  0  0  0  0  0  0  0  0  0  0  0
    2.9272    4.4111   -1.9157 O   0  0  0  0  0  0  0  0  0  0  0  0
    2.8626    4.1279   -3.3063 C   0  0  0  0  0  0  0  0  0  0  0  0
    2.2981    3.9205    0.3070 C   0  0  0  0  0  0  0  0  0  0  0  0
    3.0485    5.0237    0.6273 O   0  0  0  0  0  0  0  0  0  0  0  0
    3.2626    5.2962    2.0054 C   0  0  0  0  0  0  0  0  0  0  0  0
    1.6090    3.1401    1.2381 C   0  0  0  0  0  0  0  0  0  0  0  0
    0.8690    2.0341    0.8053 C   0  0  0  0  0  0  0  0  0  0  0  0
    0.1415    1.1853    1.7643 C   0  0  0  0  0  0  0  0  0  0  0  0
    0.1130    1.5173    2.9471 O   0  0  0  0  0  0  0  0  0  0  0  0
   -0.4857    0.0500    1.2484 N   0  0  0  0  0  0  0  0  0  0  0  0
   -1.0260   -0.8989    2.2359 C   0  0  0  0  0  0  0  0  0  0  0  0
   -0.0891   -2.0938    2.4943 C   0  0  0  0  0  0  0  0  0  0  0  0
    1.2869   -1.6934    2.9731 C   0  0  0  0  0  0  0  0  0  0  0  0
    1.5050   -1.3729    4.3162 C   0  0  0  0  0  0  0  0  0  0  0  0
    2.7692   -0.9680    4.7538 C   0  0  0  0  0  0  0  0  0  0  0  0
    3.8339   -0.8673    3.8532 C   0  0  0  0  0  0  0  0  0  0  0  0
    5.1043   -0.4717    4.1906 O   0  0  0  0  0  0  0  0  0  0  0  0
    5.3661   -0.2062    5.5608 C   0  0  0  0  0  0  0  0  0  0  0  0
    3.6177   -1.1667    2.4951 C   0  0  0  0  0  0  0  0  0  0  0  0
    4.7008   -1.0520    1.6576 O   0  0  0  0  0  0  0  0  0  0  0  0
    4.4135   -0.7665    0.2934 C   0  0  0  0  0  0  0  0  0  0  0  0
    2.3546   -1.5944    2.0675 C   0  0  0  0  0  0  0  0  0  0  0  0
   -4.1476   -1.6486   -1.0938 C   0  0  0  0  0  0  0  0  0  0  0  0
   -5.1753   -1.4333   -0.4545 O   0  0  0  0  0  0  0  0  0  0  0  0
   -3.9688   -2.7601   -1.8876 N   0  0  0  0  0  0  0  0  0  0  0  0
   -5.0329   -3.7129   -2.1576 C   0  0  0  0  0  0  0  0  0  0  0  0
   -5.4964   -3.6512   -3.6172 C   0  0  0  0  0  0  0  0  0  0  0  0
   -6.0878   -2.3778   -3.8890 O   0  0  0  0  0  0  0  0  0  0  0  0
   -6.5389   -2.2803   -5.2327 C   0  0  0  0  0  0  0  0  0  0  0  0
   -2.5572    0.3575   -4.4417 H   0  0  0  0  0  0  0  0  0  0  0  0
   -3.2222   -1.1974   -3.9560 H   0  0  0  0  0  0  0  0  0  0  0  0
   -1.5324   -0.7912   -3.5851 H   0  0  0  0  0  0  0  0  0  0  0  0
   -2.3739    1.1256   -2.1535 H   0  0  0  0  0  0  0  0  0  0  0  0
   -4.0189    0.6300   -2.4871 H   0  0  0  0  0  0  0  0  0  0  0  0
   -3.1777   -0.0017   -0.2127 H   0  0  0  0  0  0  0  0  0  0  0  0
    1.4179    2.1878   -2.5158 H   0  0  0  0  0  0  0  0  0  0  0  0
    3.4444    4.8924   -3.8312 H   0  0  0  0  0  0  0  0  0  0  0  0
    1.8327    4.1825   -3.6750 H   0  0  0  0  0  0  0  0  0  0  0  0
    3.3147    3.1557   -3.5311 H   0  0  0  0  0  0  0  0  0  0  0  0
    3.7440    4.4503    2.5070 H   0  0  0  0  0  0  0  0  0  0  0  0
    3.9387    6.1540    2.0760 H   0  0  0  0  0  0  0  0  0  0  0  0
    2.3261    5.5706    2.5012 H   0  0  0  0  0  0  0  0  0  0  0  0
    1.6294    3.3660    2.2999 H   0  0  0  0  0  0  0  0  0  0  0  0
   -1.9991   -1.2669    1.8951 H   0  0  0  0  0  0  0  0  0  0  0  0
   -1.2186   -0.3822    3.1834 H   0  0  0  0  0  0  0  0  0  0  0  0
   -0.5485   -2.7520    3.2429 H   0  0  0  0  0  0  0  0  0  0  0  0
    0.0129   -2.7063    1.5910 H   0  0  0  0  0  0  0  0  0  0  0  0
    0.6891   -1.4222    5.0346 H   0  0  0  0  0  0  0  0  0  0  0  0
    2.8839   -0.7249    5.8045 H   0  0  0  0  0  0  0  0  0  0  0  0
    5.1962   -1.0960    6.1775 H   0  0  0  0  0  0  0  0  0  0  0  0
    6.4231    0.0636    5.6532 H   0  0  0  0  0  0  0  0  0  0  0  0
    4.7749    0.6444    5.9172 H   0  0  0  0  0  0  0  0  0  0  0  0
    4.0503   -1.6598   -0.2230 H   0  0  0  0  0  0  0  0  0  0  0  0
    5.3479   -0.4627   -0.1891 H   0  0  0  0  0  0  0  0  0  0  0  0
    3.7022    0.0612    0.1943 H   0  0  0  0  0  0  0  0  0  0  0  0
    2.1864   -1.8588    1.0281 H   0  0  0  0  0  0  0  0  0  0  0  0
   -3.0668   -2.8949   -2.3276 H   0  0  0  0  0  0  0  0  0  0  0  0
   -5.8794   -3.5204   -1.4893 H   0  0  0  0  0  0  0  0  0  0  0  0
   -4.6318   -4.7061   -1.9356 H   0  0  0  0  0  0  0  0  0  0  0  0
   -4.6440   -3.8024   -4.2916 H   0  0  0  0  0  0  0  0  0  0  0  0
   -6.2363   -4.4394   -3.7963 H   0  0  0  0  0  0  0  0  0  0  0  0
   -6.9561   -1.2803   -5.3817 H   0  0  0  0  0  0  0  0  0  0  0  0
   -5.7057   -2.4196   -5.9281 H   0  0  0  0  0  0  0  0  0  0  0  0
   -7.3209   -3.0195   -5.4277 H   0  0  0  0  0  0  0  0  0  0  0  0
  1  2  1  0
  2  3  1  0
  3  4  1  0
  4  5  1  0
  5  6  2  0
  6  7  1  0
  7  8  2  0
  8  9  1  0
  9 10  1  0
 10 11  1  0
  9 12  2  0
 12 13  1  0
 13 14  1  0
 12 15  1  0
 15 16  2  0
 16 17  1  0
 17 18  2  0
 17 19  1  0
 19 20  1  0
 20 21  1  0
 21 22  1  0
 22 23  2  0
 23 24  1  0
 24 25  2  0
 25 26  1  0
 26 27  1  0
 25 28  1  0
 28 29  1  0
 29 30  1  0
 28 31  2  0
  3 32  1  0
 32 33  2  0
 32 34  1  0
 34 35  1  0
 35 36  1  0
 36 37  1  0
 37 38  1  0
 19  5  1  0
 31 22  1  0
 16  7  1  0
  1 39  1  0
  1 40  1  0
  1 41  1  0
  2 42  1  0
  2 43  1  0
  3 44  1  0
  8 45  1  0
 11 46  1  0
 11 47  1  0
 11 48  1  0
 14 49  1  0
 14 50  1  0
 14 51  1  0
 15 52  1  0
 20 53  1  0
 20 54  1  0
 21 55  1  0
 21 56  1  0
 23 57  1  0
 24 58  1  0
 27 59  1  0
 27 60  1  0
 27 61  1  0
 30 62  1  0
 30 63  1  0
 30 64  1  0
 31 65  1  0
 34 66  1  0
 35 67  1  0
 35 68  1  0
 36 69  1  0
 36 70  1  0
 38 71  1  0
 38 72  1  0
 38 73  1  0
M  END
$$$$
