
     RDKit          3D

 62 65  0  0  0  0  0  0  0  0999 V2000
   -1.6481   -2.5832    0.8210 C   0  0  0  0  0  0  0  0  0  0  0  0
   -2.2668   -1.7174   -0.2664 C   0  0  0  0  0  0  0  0  0  0  0  0
   -2.8686   -0.5218    0.2997 N   0  0  0  0  0  0  0  0  0  0  0  0
   -2.3707    0.7859    0.3939 C   0  0  0  0  0  0  0  0  0  0  0  0
   -1.1374    1.3023    0.2156 C   0  0  0  0  0  0  0  0  0  0  0  0
    0.1062    0.6233   -0.0698 C   0  0  0  0  0  0  0  0  0  0  0  0
    1.2463    1.2919   -0.2963 C   0  0  0  0  0  0  0  0  0  0  0  0
    2.5212    0.5806   -0.5204 C   0  0  0  0  0  0  0  0  0  0  0  0
    2.7884   -0.2768   -1.4623 N   0  0  0  0  0  4  0  0  0  0  0  0
    1.9537   -0.7416   -2.5889 C   0  0  0  0  0  0  0  0  0  0  0  0
    1.4381   -2.1453   -2.3255 C   0  0  0  0  0  0  0  0  0  0  0  0
    4.1931   -0.7122   -1.3419 C   0  0  0  0  0  0  0  0  0  0  0  0
    4.9047   -1.5892   -2.1414 C   0  0  0  0  0  0  0  0  0  0  0  0
    6.2385   -1.8345   -1.8037 C   0  0  0  0  0  0  0  0  0  0  0  0
    6.8249   -1.2043   -0.6938 C   0  0  0  0  0  0  0  0  0  0  0  0
    6.0909   -0.3172    0.0966 C   0  0  0  0  0  0  0  0  0  0  0  0
    4.7693   -0.0797   -0.2448 C   0  0  0  0  0  0  0  0  0  0  0  0
    3.7484    0.8189    0.3958 C   0  0  0  0  0  0  0  0  0  0  0  0
    4.1950    2.2825    0.3507 C   0  0  0  0  0  0  0  0  0  0  0  0
    3.4396    0.3774    1.8289 C   0  0  0  0  0  0  0  0  0  0  0  0
   -3.5585    1.7284    0.8166 C   0  0  0  0  0  0  0  0  0  0  0  0
   -3.8962    2.7407   -0.2880 C   0  0  0  0  0  0  0  0  0  0  0  0
   -3.2853    2.4389    2.1514 C   0  0  0  0  0  0  0  0  0  0  0  0
   -4.6923    0.7337    0.9782 C   0  0  0  0  0  0  0  0  0  0  0  0
   -6.0078    0.9652    1.3632 C   0  0  0  0  0  0  0  0  0  0  0  0
   -6.8775   -0.1214    1.4360 C   0  0  0  0  0  0  0  0  0  0  0  0
   -6.4258   -1.4105    1.1276 C   0  0  0  0  0  0  0  0  0  0  0  0
   -5.0987   -1.6296    0.7393 C   0  0  0  0  0  0  0  0  0  0  0  0
   -4.2283   -0.5522    0.6605 C   0  0  0  0  0  0  0  0  0  0  0  0
   -2.4082   -2.9487    1.5189 H   0  0  0  0  0  0  0  0  0  0  0  0
   -1.1528   -3.4521    0.3761 H   0  0  0  0  0  0  0  0  0  0  0  0
   -0.9065   -2.0290    1.4046 H   0  0  0  0  0  0  0  0  0  0  0  0
   -1.5106   -1.4499   -1.0105 H   0  0  0  0  0  0  0  0  0  0  0  0
   -2.9965   -2.3068   -0.8350 H   0  0  0  0  0  0  0  0  0  0  0  0
   -1.0415    2.3825    0.3351 H   0  0  0  0  0  0  0  0  0  0  0  0
    0.0999   -0.4572   -0.0370 H   0  0  0  0  0  0  0  0  0  0  0  0
    1.2911    2.3769   -0.2487 H   0  0  0  0  0  0  0  0  0  0  0  0
    2.5481   -0.6966   -3.5076 H   0  0  0  0  0  0  0  0  0  0  0  0
    1.1169   -0.0471   -2.7128 H   0  0  0  0  0  0  0  0  0  0  0  0
    0.7658   -2.4541   -3.1324 H   0  0  0  0  0  0  0  0  0  0  0  0
    2.2503   -2.8772   -2.2745 H   0  0  0  0  0  0  0  0  0  0  0  0
    0.8845   -2.2073   -1.3839 H   0  0  0  0  0  0  0  0  0  0  0  0
    4.4772   -2.0866   -3.0051 H   0  0  0  0  0  0  0  0  0  0  0  0
    6.8363   -2.5202   -2.4038 H   0  0  0  0  0  0  0  0  0  0  0  0
    7.8671   -1.4098   -0.4491 H   0  0  0  0  0  0  0  0  0  0  0  0
    6.5581    0.1673    0.9506 H   0  0  0  0  0  0  0  0  0  0  0  0
    3.4457    2.9421    0.8021 H   0  0  0  0  0  0  0  0  0  0  0  0
    5.1356    2.4329    0.8931 H   0  0  0  0  0  0  0  0  0  0  0  0
    4.3493    2.6233   -0.6803 H   0  0  0  0  0  0  0  0  0  0  0  0
    2.6636    1.0062    2.2797 H   0  0  0  0  0  0  0  0  0  0  0  0
    3.0773   -0.6572    1.8610 H   0  0  0  0  0  0  0  0  0  0  0  0
    4.3283    0.4367    2.4671 H   0  0  0  0  0  0  0  0  0  0  0  0
   -4.7918    3.3211   -0.0373 H   0  0  0  0  0  0  0  0  0  0  0  0
   -3.0794    3.4541   -0.4431 H   0  0  0  0  0  0  0  0  0  0  0  0
   -4.0884    2.2428   -1.2461 H   0  0  0  0  0  0  0  0  0  0  0  0
   -4.1634    2.9994    2.4932 H   0  0  0  0  0  0  0  0  0  0  0  0
   -2.4598    3.1539    2.0669 H   0  0  0  0  0  0  0  0  0  0  0  0
   -3.0269    1.7241    2.9421 H   0  0  0  0  0  0  0  0  0  0  0  0
   -6.3585    1.9637    1.6026 H   0  0  0  0  0  0  0  0  0  0  0  0
   -7.9120    0.0308    1.7354 H   0  0  0  0  0  0  0  0  0  0  0  0
   -7.1148   -2.2500    1.1925 H   0  0  0  0  0  0  0  0  0  0  0  0
   -4.7804   -2.6412    0.5178 H   0  0  0  0  0  0  0  0  0  0  0  0
  1  2  1  0
  2  3  1  0
  3  4  1  0
  4  5  2  3
  5  6  1  0
  6  7  2  3
  7  8  1  0
  8  9  2  0
  9 10  1  0
 10 11  1  0
  9 12  1  0
 12 13  2  0
 13 14  1  0
 14 15  2  0
 15 16  1  0
 16 17  2  0
 17 18  1  0
 18 19  1  0
 18 20  1  0
  4 21  1  0
 21 22  1  0
 21 23  1  0
 21 24  1  0
 24 25  2  0
 25 26  1  0
 26 27  2  0
 27 28  1  0
 28 29  2  0
 29  3  1  0
 18  8  1  0
 29 24  1  0
 17 12  1  0
  1 30  1  0
  1 31  1  0
  1 32  1  0
  2 33  1  0
  2 34  1  0
  5 35  1  0
  6 36  1  0
  7 37  1  0
 10 38  1  0
 10 39  1  0
 11 40  1  0
 11 41  1  0
 11 42  1  0
 13 43  1  0
 14 44  1  0
 15 45  1  0
 16 46  1  0
 19 47  1  0
 19 48  1  0
 19 49  1  0
 20 50  1  0
 20 51  1  0
 20 52  1  0
 22 53  1  0
 22 54  1  0
 22 55  1  0
 23 56  1  0
 23 57  1  0
 23 58  1  0
 25 59  1  0
 26 60  1  0
 27 61  1  0
 28 62  1  0
M  CHG  1   9   1
M  END
$$$$
