
     RDKit          3D

 33 34  0  0  0  0  0  0  0  0999 V2000
   -2.0553    3.7528    1.6105 C   0  0  0  0  0  0  0  0  0  0  0  0
   -1.2848    2.5769    1.3619 O   0  0  0  0  0  0  0  0  0  0  0  0
   -0.3005    2.7615    0.4502 C   0  0  0  0  0  0  0  0  0  0  0  0
    0.0568    3.8052   -0.0662 O   0  0  0  0  0  0  0  0  0  0  0  0
    0.4066    1.4872    0.2792 C   0  0  0  0  0  0  0  0  0  0  0  0
    1.7456    1.4683    0.6646 C   0  0  0  0  0  0  0  0  0  0  0  0
    2.4135    0.2694    0.5783 C   0  0  0  0  0  0  0  0  0  0  0  0
    3.7327    0.2699    0.9762 O   0  0  0  0  0  0  0  0  0  0  0  0
    4.3649   -0.9991    0.8397 C   0  0  0  0  0  0  0  0  0  0  0  0
    1.8363   -0.8711    0.1497 N   0  0  0  0  0  0  0  0  0  0  0  0
    0.5358   -0.8320   -0.2399 C   0  0  0  0  0  0  0  0  0  0  0  0
   -0.2086    0.3320   -0.2105 C   0  0  0  0  0  0  0  0  0  0  0  0
   -1.5763    0.2977   -0.7411 C   0  0  0  0  0  0  0  0  0  0  0  0
   -2.1617    1.3452   -0.9965 O   0  0  0  0  0  0  0  0  0  0  0  0
   -2.1197   -0.9554   -0.9798 N   0  0  0  0  0  0  0  0  0  0  0  0
   -3.4994   -1.0132   -1.4294 C   0  0  0  0  0  0  0  0  0  0  0  0
   -1.3768   -2.1257   -1.0566 C   0  0  0  0  0  0  0  0  0  0  0  0
   -1.8745   -3.1825   -1.4494 O   0  0  0  0  0  0  0  0  0  0  0  0
   -0.0489   -2.0341   -0.6872 N   0  0  0  0  0  0  0  0  0  0  0  0
    0.7971   -3.2186   -0.7250 C   0  0  0  0  0  0  0  0  0  0  0  0
   -1.4349    4.5212    2.0822 H   0  0  0  0  0  0  0  0  0  0  0  0
   -2.8637    3.4891    2.2980 H   0  0  0  0  0  0  0  0  0  0  0  0
   -2.4990    4.1281    0.6828 H   0  0  0  0  0  0  0  0  0  0  0  0
    2.2457    2.3590    1.0308 H   0  0  0  0  0  0  0  0  0  0  0  0
    4.3777   -1.3255   -0.2060 H   0  0  0  0  0  0  0  0  0  0  0  0
    5.4032   -0.8913    1.1679 H   0  0  0  0  0  0  0  0  0  0  0  0
    3.8887   -1.7496    1.4802 H   0  0  0  0  0  0  0  0  0  0  0  0
   -3.9690   -1.9493   -1.1119 H   0  0  0  0  0  0  0  0  0  0  0  0
   -3.5095   -0.9645   -2.5230 H   0  0  0  0  0  0  0  0  0  0  0  0
   -4.0796   -0.1765   -1.0292 H   0  0  0  0  0  0  0  0  0  0  0  0
    1.6538   -3.0342   -1.3816 H   0  0  0  0  0  0  0  0  0  0  0  0
    1.1433   -3.4494    0.2879 H   0  0  0  0  0  0  0  0  0  0  0  0
    0.2603   -4.0914   -1.1067 H   0  0  0  0  0  0  0  0  0  0  0  0
  1  2  1  0
  2  3  1  0
  3  4  2  0
  3  5  1  0
  5  6  2  0
  6  7  1  0
  7  8  1  0
  8  9  1  0
  7 10  2  0
 10 11  1  0
 11 12  2  0
 12 13  1  0
 13 14  2  0
 13 15  1  0
 15 16  1  0
 15 17  1  0
 17 18  2  0
 17 19  1  0
 19 20  1  0
 12  5  1  0
 19 11  1  0
  1 21  1  0
  1 22  1  0
  1 23  1  0
  6 24  1  0
  9 25  1  0
  9 26  1  0
  9 27  1  0
 16 28  1  0
 16 29  1  0
 16 30  1  0
 20 31  1  0
 20 32  1  0
 20 33  1  0
M  END
$$$$
