
     RDKit          3D

 59 62  0  0  0  0  0  0  0  0999 V2000
   -6.6485    2.0554   -2.8929 C   0  0  0  0  0  0  0  0  0  0  0  0
   -5.6038    2.9750   -2.5943 O   0  0  0  0  0  0  0  0  0  0  0  0
   -4.6473    2.4584   -1.7665 C   0  0  0  0  0  0  0  0  0  0  0  0
   -4.2120    3.2867   -0.7355 C   0  0  0  0  0  0  0  0  0  0  0  0
   -3.2495    2.8327    0.1637 C   0  0  0  0  0  0  0  0  0  0  0  0
   -2.7052    1.5511    0.0343 C   0  0  0  0  0  0  0  0  0  0  0  0
   -1.7342    1.0770    1.0084 C   0  0  0  0  0  0  0  0  0  0  0  0
   -0.4528    1.5171    1.2671 C   0  0  0  0  0  0  0  0  0  0  0  0
    0.1088    0.8353    2.3112 N   0  0  0  0  0  0  0  0  0  0  0  0
   -0.8119   -0.0204    2.6963 C   0  0  0  0  0  0  0  0  0  0  0  0
   -0.6251   -1.1460    3.9987 S   0  0  0  0  0  0  0  0  0  0  0  0
    1.1653   -1.1057    4.2243 C   0  0  0  0  0  0  0  0  0  0  0  0
    1.8712   -1.7807    3.0540 C   0  0  0  0  0  0  0  0  0  0  0  0
    1.9444   -3.0046    2.9898 O   0  0  0  0  0  0  0  0  0  0  0  0
    2.3932   -0.8768    2.1668 N   0  0  0  0  0  0  0  0  0  0  0  0
    3.1738   -1.1207    1.0745 C   0  0  0  0  0  0  0  0  0  0  0  0
    3.6851   -0.1336    0.3786 N   0  0  0  0  0  0  0  0  0  0  0  0
    4.4990   -0.6230   -0.6331 C   0  0  0  0  0  0  0  0  0  0  0  0
    5.2766    0.3486   -1.5046 C   0  0  0  0  0  0  0  0  0  0  0  0
    6.7842    0.0682   -1.3803 C   0  0  0  0  0  0  0  0  0  0  0  0
    5.0332    1.8091   -1.0726 C   0  0  0  0  0  0  0  0  0  0  0  0
    4.8629    0.2018   -2.9785 C   0  0  0  0  0  0  0  0  0  0  0  0
    4.5258   -2.0068   -0.7039 C   0  0  0  0  0  0  0  0  0  0  0  0
    3.5652   -2.6843    0.5385 S   0  0  0  0  0  0  0  0  0  0  0  0
   -1.9372    0.0502    1.9202 N   0  0  0  0  0  0  0  0  0  0  0  0
   -3.1355   -0.7707    2.0427 C   0  0  0  0  0  0  0  0  0  0  0  0
   -3.0818   -1.9497    1.1369 C   0  0  0  0  0  0  0  0  0  0  0  0
   -2.0888   -2.8181    0.7372 C   0  0  0  0  0  0  0  0  0  0  0  0
   -2.6862   -3.7146   -0.1852 C   0  0  0  0  0  0  0  0  0  0  0  0
   -4.0092   -3.3534   -0.2662 C   0  0  0  0  0  0  0  0  0  0  0  0
   -4.2637   -2.2921    0.5419 O   0  0  0  0  0  0  0  0  0  0  0  0
   -3.1040    0.7480   -1.0365 C   0  0  0  0  0  0  0  0  0  0  0  0
   -4.0740    1.1986   -1.9360 C   0  0  0  0  0  0  0  0  0  0  0  0
   -6.3224    1.3138   -3.6240 H   0  0  0  0  0  0  0  0  0  0  0  0
   -7.4740    2.6207   -3.3374 H   0  0  0  0  0  0  0  0  0  0  0  0
   -7.0246    1.5724   -1.9881 H   0  0  0  0  0  0  0  0  0  0  0  0
   -4.6351    4.2800   -0.6227 H   0  0  0  0  0  0  0  0  0  0  0  0
   -2.9355    3.4822    0.9653 H   0  0  0  0  0  0  0  0  0  0  0  0
    0.0871    2.2965    0.7386 H   0  0  0  0  0  0  0  0  0  0  0  0
    1.4251   -1.6510    5.1346 H   0  0  0  0  0  0  0  0  0  0  0  0
    1.5174   -0.0771    4.3667 H   0  0  0  0  0  0  0  0  0  0  0  0
    2.1454    0.1043    2.2759 H   0  0  0  0  0  0  0  0  0  0  0  0
    7.0415   -0.9296   -1.7562 H   0  0  0  0  0  0  0  0  0  0  0  0
    7.3720    0.7954   -1.9483 H   0  0  0  0  0  0  0  0  0  0  0  0
    7.1124    0.1213   -0.3353 H   0  0  0  0  0  0  0  0  0  0  0  0
    3.9759    2.0849   -1.1696 H   0  0  0  0  0  0  0  0  0  0  0  0
    5.3180    1.9618   -0.0254 H   0  0  0  0  0  0  0  0  0  0  0  0
    5.6217    2.5085   -1.6840 H   0  0  0  0  0  0  0  0  0  0  0  0
    5.4117    0.9053   -3.6129 H   0  0  0  0  0  0  0  0  0  0  0  0
    5.0653   -0.8097   -3.3555 H   0  0  0  0  0  0  0  0  0  0  0  0
    3.7924    0.3920   -3.1123 H   0  0  0  0  0  0  0  0  0  0  0  0
    5.0696   -2.6364   -1.3909 H   0  0  0  0  0  0  0  0  0  0  0  0
   -3.2513   -1.0881    3.0790 H   0  0  0  0  0  0  0  0  0  0  0  0
   -3.9954   -0.1321    1.8157 H   0  0  0  0  0  0  0  0  0  0  0  0
   -1.0544   -2.8020    1.0520 H   0  0  0  0  0  0  0  0  0  0  0  0
   -2.2092   -4.5167   -0.7215 H   0  0  0  0  0  0  0  0  0  0  0  0
   -4.8560   -3.7326   -0.8214 H   0  0  0  0  0  0  0  0  0  0  0  0
   -2.6608   -0.2336   -1.1884 H   0  0  0  0  0  0  0  0  0  0  0  0
   -4.3550    0.5576   -2.7627 H   0  0  0  0  0  0  0  0  0  0  0  0
  1  2  1  0
  2  3  1  0
  3  4  2  0
  4  5  1  0
  5  6  2  0
  6  7  1  0
  7  8  2  0
  8  9  1  0
  9 10  2  0
 10 11  1  0
 11 12  1  0
 12 13  1  0
 13 14  2  0
 13 15  1  0
 15 16  1  0
 16 17  2  0
 17 18  1  0
 18 19  1  0
 19 20  1  0
 19 21  1  0
 19 22  1  0
 18 23  2  0
 23 24  1  0
 10 25  1  0
 25 26  1  0
 26 27  1  0
 27 28  2  0
 28 29  1  0
 29 30  2  0
 30 31  1  0
  6 32  1  0
 32 33  2  0
 33  3  1  0
 25  7  1  0
 31 27  1  0
 24 16  1  0
  1 34  1  0
  1 35  1  0
  1 36  1  0
  4 37  1  0
  5 38  1  0
  8 39  1  0
 12 40  1  0
 12 41  1  0
 15 42  1  0
 20 43  1  0
 20 44  1  0
 20 45  1  0
 21 46  1  0
 21 47  1  0
 21 48  1  0
 22 49  1  0
 22 50  1  0
 22 51  1  0
 23 52  1  0
 26 53  1  0
 26 54  1  0
 28 55  1  0
 29 56  1  0
 30 57  1  0
 32 58  1  0
 33 59  1  0
M  END
$$$$
