
     RDKit          3D

 34 36  0  0  0  0  0  0  0  0999 V2000
    0.3855    1.1805   -2.5351 O   0  0  0  0  0  0  0  0  0  0  0  0
    0.3422    0.5566   -1.4786 C   0  0  0  0  0  0  0  0  0  0  0  0
    1.4716   -0.3320   -1.1900 C   0  0  0  0  0  0  0  0  0  0  0  0
    1.4798   -1.6293   -1.7085 C   0  0  0  0  0  0  0  0  0  0  0  0
    2.5896   -2.4479   -1.4891 C   0  0  0  0  0  0  0  0  0  0  0  0
    3.6868   -1.9547   -0.7802 C   0  0  0  0  0  0  0  0  0  0  0  0
    5.0530   -2.9660   -0.5133 Cl  0  0  0  0  0  0  0  0  0  0  0  0
    3.6916   -0.6447   -0.2973 C   0  0  0  0  0  0  0  0  0  0  0  0
    2.5838    0.1774   -0.5125 C   0  0  0  0  0  0  0  0  0  0  0  0
   -0.6918    0.6746   -0.5792 N   0  0  0  0  0  0  0  0  0  0  0  0
   -1.7514    1.6579   -0.8367 C   0  0  0  0  0  0  0  0  0  0  0  0
   -1.5462    2.7447    0.1919 C   0  0  0  0  0  0  0  0  0  0  0  0
   -1.9165    2.2551    1.3873 C   0  0  0  0  0  0  0  0  0  0  0  0
   -2.2914    0.8009    1.1538 C   0  0  0  0  0  0  0  0  0  0  0  0
   -2.9774    0.9988   -0.2103 C   0  0  0  0  0  0  0  0  0  0  0  0
   -1.0007   -0.0210    0.7574 C   0  0  0  0  0  0  0  0  0  0  0  0
    0.0484    0.0722    1.8630 C   0  0  0  0  0  0  0  0  0  0  0  0
    0.6182    1.2982    1.9389 F   0  0  0  0  0  0  0  0  0  0  0  0
   -0.5002   -0.1753    3.0773 F   0  0  0  0  0  0  0  0  0  0  0  0
    1.0622   -0.8044    1.7128 F   0  0  0  0  0  0  0  0  0  0  0  0
   -1.3451   -1.5065    0.6752 C   0  0  0  0  0  0  0  0  0  0  0  0
   -1.9023   -1.9481    1.8268 F   0  0  0  0  0  0  0  0  0  0  0  0
   -2.2393   -1.7713   -0.3062 F   0  0  0  0  0  0  0  0  0  0  0  0
   -0.2784   -2.2911    0.4254 F   0  0  0  0  0  0  0  0  0  0  0  0
    0.6338   -2.0020   -2.2805 H   0  0  0  0  0  0  0  0  0  0  0  0
    2.5971   -3.4629   -1.8780 H   0  0  0  0  0  0  0  0  0  0  0  0
    4.5545   -0.2590    0.2394 H   0  0  0  0  0  0  0  0  0  0  0  0
    2.5918    1.2053   -0.1576 H   0  0  0  0  0  0  0  0  0  0  0  0
   -1.8598    1.9955   -1.8681 H   0  0  0  0  0  0  0  0  0  0  0  0
   -1.1613    3.7318   -0.0164 H   0  0  0  0  0  0  0  0  0  0  0  0
   -1.8706    2.7653    2.3387 H   0  0  0  0  0  0  0  0  0  0  0  0
   -2.9289    0.3707    1.9282 H   0  0  0  0  0  0  0  0  0  0  0  0
   -3.2724    0.0744   -0.7102 H   0  0  0  0  0  0  0  0  0  0  0  0
   -3.8564    1.6563   -0.1682 H   0  0  0  0  0  0  0  0  0  0  0  0
  1  2  2  0
  2  3  1  0
  3  4  2  0
  4  5  1  0
  5  6  2  0
  6  7  1  0
  6  8  1  0
  8  9  2  0
  2 10  1  0
 10 11  1  0
 11 12  1  0
 12 13  2  0
 13 14  1  0
 14 15  1  0
 14 16  1  0
 16 17  1  0
 17 18  1  0
 17 19  1  0
 17 20  1  0
 16 21  1  0
 21 22  1  0
 21 23  1  0
 21 24  1  0
  9  3  1  0
 16 10  1  0
 15 11  1  0
  4 25  1  0
  5 26  1  0
  8 27  1  0
  9 28  1  0
 11 29  1  0
 12 30  1  0
 13 31  1  0
 14 32  1  0
 15 33  1  0
 15 34  1  0
M  END
$$$$
