
     RDKit          3D

 73 75  0  0  0  0  0  0  0  0999 V2000
   -4.7057    0.6176   -2.1873 C   0  0  0  0  0  0  0  0  0  0  0  0
   -3.3146    1.2019   -2.4111 C   0  0  0  0  0  0  0  0  0  0  0  0
   -2.1379    0.3998   -1.8421 C   0  0  0  0  0  0  0  0  0  0  0  0
   -2.2398    0.1375   -0.0263 S   0  0  0  0  0  0  0  0  0  0  0  0
   -1.2497    1.4770    0.4992 C   0  0  0  0  0  0  0  0  0  0  0  0
   -1.7483    2.6564    0.3317 N   0  0  0  0  0  0  0  0  0  0  0  0
   -1.0129    3.7597    0.7716 C   0  0  0  0  0  0  0  0  0  0  0  0
   -1.5497    5.0372    0.5993 C   0  0  0  0  0  0  0  0  0  0  0  0
   -0.8521    6.1711    1.0333 C   0  0  0  0  0  0  0  0  0  0  0  0
   -1.3020    7.4597    0.8875 O   0  0  0  0  0  0  0  0  0  0  0  0
   -2.4927    7.6576    0.1351 C   0  0  0  0  0  0  0  0  0  0  0  0
    0.3974    6.0214    1.6695 C   0  0  0  0  0  0  0  0  0  0  0  0
    1.0068    7.1803    2.0806 O   0  0  0  0  0  0  0  0  0  0  0  0
    2.2423    7.0669    2.7753 C   0  0  0  0  0  0  0  0  0  0  0  0
    0.9381    4.7439    1.8329 C   0  0  0  0  0  0  0  0  0  0  0  0
    0.2284    3.6266    1.3781 C   0  0  0  0  0  0  0  0  0  0  0  0
    0.7813    2.2687    1.5136 C   0  0  0  0  0  0  0  0  0  0  0  0
    1.9106    2.1263    1.9780 O   0  0  0  0  0  0  0  0  0  0  0  0
   -0.0194    1.2152    1.0750 N   0  0  0  0  0  0  0  0  0  0  0  0
    0.5869   -0.1230    1.1519 C   0  0  0  0  0  0  0  0  0  0  0  0
    1.4406   -0.4174   -0.0902 C   0  0  0  0  0  0  0  0  0  0  0  0
    2.0679   -1.7874   -0.0415 C   0  0  0  0  0  0  0  0  0  0  0  0
    1.5283   -2.8392   -0.7849 C   0  0  0  0  0  0  0  0  0  0  0  0
    2.1095   -4.1093   -0.7418 C   0  0  0  0  0  0  0  0  0  0  0  0
    3.2406   -4.3455    0.0449 C   0  0  0  0  0  0  0  0  0  0  0  0
    3.8698   -5.5632    0.1505 O   0  0  0  0  0  0  0  0  0  0  0  0
    3.4962   -6.5701   -0.7782 C   0  0  0  0  0  0  0  0  0  0  0  0
    3.7838   -3.2953    0.8111 C   0  0  0  0  0  0  0  0  0  0  0  0
    4.8919   -3.6051    1.5624 O   0  0  0  0  0  0  0  0  0  0  0  0
    5.3598   -2.6275    2.4779 C   0  0  0  0  0  0  0  0  0  0  0  0
    3.1977   -2.0243    0.7569 C   0  0  0  0  0  0  0  0  0  0  0  0
   -1.9757   -0.9419   -2.5650 C   0  0  0  0  0  0  0  0  0  0  0  0
   -1.3270   -1.0368   -3.6064 O   0  0  0  0  0  0  0  0  0  0  0  0
   -2.6394   -2.0081   -2.0055 N   0  0  0  0  0  0  0  0  0  0  0  0
   -2.5309   -3.3618   -2.5201 C   0  0  0  0  0  0  0  0  0  0  0  0
   -2.6442   -4.4035   -1.4060 C   0  0  0  0  0  0  0  0  0  0  0  0
   -1.5319   -4.2504   -0.5212 O   0  0  0  0  0  0  0  0  0  0  0  0
   -1.5592   -5.1916    0.5413 C   0  0  0  0  0  0  0  0  0  0  0  0
   -5.4552    1.2802   -2.6347 H   0  0  0  0  0  0  0  0  0  0  0  0
   -4.9465    0.5217   -1.1248 H   0  0  0  0  0  0  0  0  0  0  0  0
   -4.8107   -0.3628   -2.6620 H   0  0  0  0  0  0  0  0  0  0  0  0
   -3.1684    1.3144   -3.4938 H   0  0  0  0  0  0  0  0  0  0  0  0
   -3.2951    2.2182   -1.9994 H   0  0  0  0  0  0  0  0  0  0  0  0
   -1.2123    0.9531   -2.0438 H   0  0  0  0  0  0  0  0  0  0  0  0
   -2.5210    5.1120    0.1225 H   0  0  0  0  0  0  0  0  0  0  0  0
   -2.3927    7.2559   -0.8782 H   0  0  0  0  0  0  0  0  0  0  0  0
   -3.3575    7.2281    0.6490 H   0  0  0  0  0  0  0  0  0  0  0  0
   -2.6585    8.7340    0.0489 H   0  0  0  0  0  0  0  0  0  0  0  0
    2.1250    6.4850    3.6963 H   0  0  0  0  0  0  0  0  0  0  0  0
    3.0187    6.6383    2.1314 H   0  0  0  0  0  0  0  0  0  0  0  0
    2.5621    8.0764    3.0551 H   0  0  0  0  0  0  0  0  0  0  0  0
    1.9031    4.5871    2.3024 H   0  0  0  0  0  0  0  0  0  0  0  0
    1.2120   -0.1776    2.0526 H   0  0  0  0  0  0  0  0  0  0  0  0
   -0.1819   -0.8906    1.2836 H   0  0  0  0  0  0  0  0  0  0  0  0
    2.2339    0.3348   -0.1990 H   0  0  0  0  0  0  0  0  0  0  0  0
    0.8319   -0.3227   -0.9976 H   0  0  0  0  0  0  0  0  0  0  0  0
    0.6460   -2.6866   -1.4061 H   0  0  0  0  0  0  0  0  0  0  0  0
    1.6442   -4.8956   -1.3272 H   0  0  0  0  0  0  0  0  0  0  0  0
    2.4774   -6.9238   -0.5873 H   0  0  0  0  0  0  0  0  0  0  0  0
    3.6050   -6.2230   -1.8116 H   0  0  0  0  0  0  0  0  0  0  0  0
    4.1728   -7.4188   -0.6423 H   0  0  0  0  0  0  0  0  0  0  0  0
    5.7730   -1.7631    1.9493 H   0  0  0  0  0  0  0  0  0  0  0  0
    4.5720   -2.3248    3.1757 H   0  0  0  0  0  0  0  0  0  0  0  0
    6.1686   -3.0783    3.0604 H   0  0  0  0  0  0  0  0  0  0  0  0
    3.6115   -1.1951    1.3220 H   0  0  0  0  0  0  0  0  0  0  0  0
   -3.0366   -1.8722   -1.0785 H   0  0  0  0  0  0  0  0  0  0  0  0
   -1.5719   -3.4696   -3.0408 H   0  0  0  0  0  0  0  0  0  0  0  0
   -3.3389   -3.4949   -3.2457 H   0  0  0  0  0  0  0  0  0  0  0  0
   -3.5754   -4.2652   -0.8443 H   0  0  0  0  0  0  0  0  0  0  0  0
   -2.6286   -5.4091   -1.8395 H   0  0  0  0  0  0  0  0  0  0  0  0
   -2.4608   -5.0631    1.1486 H   0  0  0  0  0  0  0  0  0  0  0  0
   -0.6869   -5.0139    1.1756 H   0  0  0  0  0  0  0  0  0  0  0  0
   -1.5029   -6.2120    0.1532 H   0  0  0  0  0  0  0  0  0  0  0  0
  1  2  1  0
  2  3  1  0
  3  4  1  0
  4  5  1  0
  5  6  2  0
  6  7  1  0
  7  8  2  0
  8  9  1  0
  9 10  1  0
 10 11  1  0
  9 12  2  0
 12 13  1  0
 13 14  1  0
 12 15  1  0
 15 16  2  0
 16 17  1  0
 17 18  2  0
 17 19  1  0
 19 20  1  0
 20 21  1  0
 21 22  1  0
 22 23  2  0
 23 24  1  0
 24 25  2  0
 25 26  1  0
 26 27  1  0
 25 28  1  0
 28 29  1  0
 29 30  1  0
 28 31  2  0
  3 32  1  0
 32 33  2  0
 32 34  1  0
 34 35  1  0
 35 36  1  0
 36 37  1  0
 37 38  1  0
 19  5  1  0
 31 22  1  0
 16  7  1  0
  1 39  1  0
  1 40  1  0
  1 41  1  0
  2 42  1  0
  2 43  1  0
  3 44  1  0
  8 45  1  0
 11 46  1  0
 11 47  1  0
 11 48  1  0
 14 49  1  0
 14 50  1  0
 14 51  1  0
 15 52  1  0
 20 53  1  0
 20 54  1  0
 21 55  1  0
 21 56  1  0
 23 57  1  0
 24 58  1  0
 27 59  1  0
 27 60  1  0
 27 61  1  0
 30 62  1  0
 30 63  1  0
 30 64  1  0
 31 65  1  0
 34 66  1  0
 35 67  1  0
 35 68  1  0
 36 69  1  0
 36 70  1  0
 38 71  1  0
 38 72  1  0
 38 73  1  0
M  END
$$$$
