
     RDKit          3D

 43 45  0  0  0  0  0  0  0  0999 V2000
    7.3470    1.8620    1.5098 C   0  0  0  0  0  0  0  0  0  0  0  0
    6.0544    1.4098    1.1039 O   0  0  0  0  0  0  0  0  0  0  0  0
    5.9559    0.0615    0.9864 C   0  0  0  0  0  0  0  0  0  0  0  0
    6.8531   -0.7399    1.1948 O   0  0  0  0  0  0  0  0  0  0  0  0
    4.5842   -0.3299    0.5608 C   0  0  0  0  0  0  0  0  0  0  0  0
    4.3082   -1.6901    0.3834 C   0  0  0  0  0  0  0  0  0  0  0  0
    3.0336   -2.1017   -0.0149 C   0  0  0  0  0  0  0  0  0  0  0  0
    2.0206   -1.1670   -0.2421 C   0  0  0  0  0  0  0  0  0  0  0  0
    0.8250   -1.7071   -0.6244 O   0  0  0  0  0  0  0  0  0  0  0  0
   -0.2353   -0.8000   -0.9259 C   0  0  0  0  0  0  0  0  0  0  0  0
   -1.4826   -1.5778   -1.3681 C   0  0  0  0  0  0  0  0  0  0  0  0
   -1.3689   -2.7018   -1.8728 O   0  0  0  0  0  0  0  0  0  0  0  0
   -2.7518   -1.0380   -1.0962 N   0  0  0  0  0  0  0  0  0  0  0  0
   -3.8222   -2.0365   -1.0116 C   0  0  0  0  0  0  0  0  0  0  0  0
   -5.2105   -1.4916   -0.7199 C   0  0  0  0  0  0  0  0  0  0  0  0
   -5.1323   -0.4966    0.4221 C   0  0  0  0  0  0  0  0  0  0  0  0
   -4.1959    0.6075    0.0144 C   0  0  0  0  0  0  0  0  0  0  0  0
   -4.4725    1.9251    0.4134 C   0  0  0  0  0  0  0  0  0  0  0  0
   -3.6551    2.9720    0.0001 C   0  0  0  0  0  0  0  0  0  0  0  0
   -2.5709    2.7102   -0.8284 C   0  0  0  0  0  0  0  0  0  0  0  0
   -2.2797    1.3964   -1.2103 C   0  0  0  0  0  0  0  0  0  0  0  0
   -3.0504    0.3192   -0.7541 C   0  0  0  0  0  0  0  0  0  0  0  0
    2.2915    0.1904   -0.0650 C   0  0  0  0  0  0  0  0  0  0  0  0
    3.5681    0.6081    0.3345 C   0  0  0  0  0  0  0  0  0  0  0  0
    7.3192    2.9532    1.5735 H   0  0  0  0  0  0  0  0  0  0  0  0
    8.1025    1.5774    0.7706 H   0  0  0  0  0  0  0  0  0  0  0  0
    7.6001    1.4637    2.4974 H   0  0  0  0  0  0  0  0  0  0  0  0
    5.0815   -2.4370    0.5533 H   0  0  0  0  0  0  0  0  0  0  0  0
    2.8282   -3.1615   -0.1514 H   0  0  0  0  0  0  0  0  0  0  0  0
   -0.4678   -0.2251   -0.0244 H   0  0  0  0  0  0  0  0  0  0  0  0
    0.0729   -0.1644   -1.7614 H   0  0  0  0  0  0  0  0  0  0  0  0
   -3.8490   -2.5995   -1.9529 H   0  0  0  0  0  0  0  0  0  0  0  0
   -3.5363   -2.7488   -0.2258 H   0  0  0  0  0  0  0  0  0  0  0  0
   -5.6108   -1.0034   -1.6182 H   0  0  0  0  0  0  0  0  0  0  0  0
   -5.8910   -2.3127   -0.4692 H   0  0  0  0  0  0  0  0  0  0  0  0
   -6.1349   -0.1021    0.6230 H   0  0  0  0  0  0  0  0  0  0  0  0
   -4.7644   -0.9697    1.3399 H   0  0  0  0  0  0  0  0  0  0  0  0
   -5.3400    2.1414    1.0334 H   0  0  0  0  0  0  0  0  0  0  0  0
   -3.8818    3.9922    0.2991 H   0  0  0  0  0  0  0  0  0  0  0  0
   -1.9580    3.5305   -1.1940 H   0  0  0  0  0  0  0  0  0  0  0  0
   -1.4724    1.2576   -1.9198 H   0  0  0  0  0  0  0  0  0  0  0  0
    1.5358    0.9523   -0.2249 H   0  0  0  0  0  0  0  0  0  0  0  0
    3.7530    1.6716    0.4662 H   0  0  0  0  0  0  0  0  0  0  0  0
  1  2  1  0
  2  3  1  0
  3  4  2  0
  3  5  1  0
  5  6  2  0
  6  7  1  0
  7  8  2  0
  8  9  1  0
  9 10  1  0
 10 11  1  0
 11 12  2  0
 11 13  1  0
 13 14  1  0
 14 15  1  0
 15 16  1  0
 16 17  1  0
 17 18  2  0
 18 19  1  0
 19 20  2  0
 20 21  1  0
 21 22  2  0
  8 23  1  0
 23 24  2  0
 24  5  1  0
 22 13  1  0
 22 17  1  0
  1 25  1  0
  1 26  1  0
  1 27  1  0
  6 28  1  0
  7 29  1  0
 10 30  1  0
 10 31  1  0
 14 32  1  0
 14 33  1  0
 15 34  1  0
 15 35  1  0
 16 36  1  0
 16 37  1  0
 18 38  1  0
 19 39  1  0
 20 40  1  0
 21 41  1  0
 23 42  1  0
 24 43  1  0
M  END
$$$$
