
     RDKit          3D

 36 37  0  0  0  0  0  0  0  0999 V2000
   -0.1634   -1.5164    0.1745 O   0  0  0  0  0  0  0  0  0  0  0  0
   -0.3178   -0.3551   -0.1968 C   0  0  0  0  0  0  0  0  0  0  0  0
    0.7290    0.4076   -1.0145 C   0  0  0  0  0  0  0  0  0  0  0  0
    2.0502   -0.0953   -0.8223 O   0  0  0  0  0  0  0  0  0  0  0  0
    2.5833    0.2181    0.3844 C   0  0  0  0  0  0  0  0  0  0  0  0
    2.0716    0.9438    1.2228 O   0  0  0  0  0  0  0  0  0  0  0  0
    3.9133   -0.4243    0.5553 C   0  0  0  0  0  0  0  0  0  0  0  0
    4.4189   -1.3586   -0.3609 C   0  0  0  0  0  0  0  0  0  0  0  0
    5.6738   -1.9368   -0.1549 C   0  0  0  0  0  0  0  0  0  0  0  0
    6.4270   -1.5864    0.9656 C   0  0  0  0  0  0  0  0  0  0  0  0
    5.9227   -0.6610    1.8784 C   0  0  0  0  0  0  0  0  0  0  0  0
    6.8553   -0.2339    3.2602 Cl  0  0  0  0  0  0  0  0  0  0  0  0
    4.6718   -0.0794    1.6816 C   0  0  0  0  0  0  0  0  0  0  0  0
   -1.4612    0.3676    0.0686 N   0  0  0  0  0  0  0  0  0  0  0  0
   -2.5167   -0.1845    0.8973 C   0  0  0  0  0  0  0  0  0  0  0  0
   -3.7107    0.7639    1.0641 C   0  0  0  0  0  0  0  0  0  0  0  0
   -4.3906    1.0477   -0.1900 N   0  0  0  0  0  0  0  0  0  0  0  0
   -5.4338    0.3243   -0.7196 C   0  0  0  0  0  0  0  0  0  0  0  0
   -6.0515   -0.6650   -0.0169 O   0  0  0  0  0  0  0  0  0  0  0  0
   -5.7808    0.6708   -1.9625 C   0  0  0  0  0  0  0  0  0  0  0  0
   -4.7946    1.9650   -2.5628 S   0  0  0  0  0  0  0  0  0  0  0  0
   -3.8470    1.9817   -1.0694 C   0  0  0  0  0  0  0  0  0  0  0  0
   -2.8599    2.6808   -0.8931 O   0  0  0  0  0  0  0  0  0  0  0  0
    0.6921    1.4827   -0.8027 H   0  0  0  0  0  0  0  0  0  0  0  0
    0.4777    0.2730   -2.0719 H   0  0  0  0  0  0  0  0  0  0  0  0
    3.8423   -1.6513   -1.2357 H   0  0  0  0  0  0  0  0  0  0  0  0
    6.0614   -2.6626   -0.8662 H   0  0  0  0  0  0  0  0  0  0  0  0
    7.4026   -2.0394    1.1232 H   0  0  0  0  0  0  0  0  0  0  0  0
    4.2864    0.6394    2.4015 H   0  0  0  0  0  0  0  0  0  0  0  0
   -1.4672    1.3680   -0.1297 H   0  0  0  0  0  0  0  0  0  0  0  0
   -2.8341   -1.1349    0.4530 H   0  0  0  0  0  0  0  0  0  0  0  0
   -2.0823   -0.4046    1.8791 H   0  0  0  0  0  0  0  0  0  0  0  0
   -4.4176    0.3550    1.7918 H   0  0  0  0  0  0  0  0  0  0  0  0
   -3.3541    1.7172    1.4746 H   0  0  0  0  0  0  0  0  0  0  0  0
   -6.0232   -0.4304    0.9226 H   0  0  0  0  0  0  0  0  0  0  0  0
   -6.5728    0.2132   -2.5383 H   0  0  0  0  0  0  0  0  0  0  0  0
  1  2  2  0
  2  3  1  0
  3  4  1  0
  4  5  1  0
  5  6  2  0
  5  7  1  0
  7  8  2  0
  8  9  1  0
  9 10  2  0
 10 11  1  0
 11 12  1  0
 11 13  2  0
  2 14  1  0
 14 15  1  0
 15 16  1  0
 16 17  1  0
 17 18  1  0
 18 19  1  0
 18 20  2  0
 20 21  1  0
 21 22  1  0
 22 23  2  0
 13  7  1  0
 22 17  1  0
  3 24  1  0
  3 25  1  0
  8 26  1  0
  9 27  1  0
 10 28  1  0
 13 29  1  0
 14 30  1  0
 15 31  1  0
 15 32  1  0
 16 33  1  0
 16 34  1  0
 19 35  1  0
 20 36  1  0
M  END
$$$$
