
     RDKit          3D

 57 60  0  0  0  0  0  0  0  0999 V2000
   -7.8092    1.6647    3.1370 C   0  0  0  0  0  0  0  0  0  0  0  0
   -7.5431    0.2439    2.6635 C   0  0  0  0  0  0  0  0  0  0  0  0
   -6.3559    0.1750    1.7382 C   0  0  0  0  0  0  0  0  0  0  0  0
   -6.5187    0.3327    0.3597 C   0  0  0  0  0  0  0  0  0  0  0  0
   -5.4118    0.2849   -0.4951 C   0  0  0  0  0  0  0  0  0  0  0  0
   -4.1073    0.0882   -0.0063 C   0  0  0  0  0  0  0  0  0  0  0  0
   -2.9543    0.0487   -0.9327 C   0  0  0  0  0  0  0  0  0  0  0  0
   -1.6745    0.4294   -0.5673 C   0  0  0  0  0  0  0  0  0  0  0  0
   -0.6597    0.3548   -1.5238 C   0  0  0  0  0  0  0  0  0  0  0  0
    0.7031    0.7467   -1.1005 C   0  0  0  0  0  0  0  0  0  0  0  0
    1.2185    1.7247   -1.6215 O   0  0  0  0  0  0  0  0  0  0  0  0
    1.2377   -0.0885   -0.1377 N   0  0  0  0  0  0  0  0  0  0  0  0
    2.4942    0.0283    0.4908 C   0  0  0  0  0  0  0  0  0  0  0  0
    2.8504   -0.9800    1.3982 C   0  0  0  0  0  0  0  0  0  0  0  0
    4.0770   -0.9389    2.0680 C   0  0  0  0  0  0  0  0  0  0  0  0
    4.9593    0.1155    1.8246 C   0  0  0  0  0  0  0  0  0  0  0  0
    6.4947    0.1998    2.7095 S   0  0  0  0  0  6  0  0  0  0  0  0
    6.3425   -0.5954    3.9121 O   0  0  0  0  0  0  0  0  0  0  0  0
    6.9320    1.5744    2.7858 O   0  0  0  0  0  0  0  0  0  0  0  0
    7.5411   -0.6662    1.7543 N   0  0  0  0  0  0  0  0  0  0  0  0
    7.9842   -0.2824    0.4842 C   0  0  0  0  0  0  0  0  0  0  0  0
    9.0172   -1.2013   -0.1041 C   0  0  0  0  0  0  0  0  0  0  0  0
    7.5598    0.6944   -0.1135 O   0  0  0  0  0  0  0  0  0  0  0  0
    4.6088    1.1356    0.9400 C   0  0  0  0  0  0  0  0  0  0  0  0
    3.3811    1.0851    0.2699 C   0  0  0  0  0  0  0  0  0  0  0  0
   -0.9193   -0.0747   -2.8398 C   0  0  0  0  0  0  0  0  0  0  0  0
    0.0504   -0.1683   -3.8697 C   0  0  0  0  0  0  0  0  0  0  0  0
   -0.2970   -0.6152   -5.1426 C   0  0  0  0  0  0  0  0  0  0  0  0
   -1.6112   -0.9754   -5.4035 C   0  0  0  0  0  0  0  0  0  0  0  0
   -2.5680   -0.8836   -4.3897 C   0  0  0  0  0  0  0  0  0  0  0  0
   -2.2479   -0.4397   -3.1133 C   0  0  0  0  0  0  0  0  0  0  0  0
   -3.2242   -0.3841   -2.1901 N   0  0  0  0  0  0  0  0  0  0  0  0
   -3.9635   -0.0704    1.3841 C   0  0  0  0  0  0  0  0  0  0  0  0
   -5.0682   -0.0236    2.2440 C   0  0  0  0  0  0  0  0  0  0  0  0
   -6.9498    2.0692    3.6824 H   0  0  0  0  0  0  0  0  0  0  0  0
   -8.0163    2.3324    2.2938 H   0  0  0  0  0  0  0  0  0  0  0  0
   -8.6753    1.6845    3.8061 H   0  0  0  0  0  0  0  0  0  0  0  0
   -8.4313   -0.1497    2.1543 H   0  0  0  0  0  0  0  0  0  0  0  0
   -7.3753   -0.4096    3.5283 H   0  0  0  0  0  0  0  0  0  0  0  0
   -7.5073    0.4943   -0.0641 H   0  0  0  0  0  0  0  0  0  0  0  0
   -5.5751    0.4099   -1.5650 H   0  0  0  0  0  0  0  0  0  0  0  0
   -1.4606    0.8114    0.4252 H   0  0  0  0  0  0  0  0  0  0  0  0
    0.6866   -0.8985    0.1194 H   0  0  0  0  0  0  0  0  0  0  0  0
    2.1772   -1.8095    1.6005 H   0  0  0  0  0  0  0  0  0  0  0  0
    4.3277   -1.7233    2.7784 H   0  0  0  0  0  0  0  0  0  0  0  0
    7.8928   -1.5025    2.2080 H   0  0  0  0  0  0  0  0  0  0  0  0
    9.8794   -1.2662    0.5651 H   0  0  0  0  0  0  0  0  0  0  0  0
    8.5858   -2.1955   -0.2487 H   0  0  0  0  0  0  0  0  0  0  0  0
    9.3492   -0.8127   -1.0709 H   0  0  0  0  0  0  0  0  0  0  0  0
    5.2845    1.9700    0.7568 H   0  0  0  0  0  0  0  0  0  0  0  0
    3.1467    1.8951   -0.4149 H   0  0  0  0  0  0  0  0  0  0  0  0
    1.0845    0.1212   -3.6873 H   0  0  0  0  0  0  0  0  0  0  0  0
    0.4553   -0.6746   -5.9251 H   0  0  0  0  0  0  0  0  0  0  0  0
   -1.8991   -1.3234   -6.3921 H   0  0  0  0  0  0  0  0  0  0  0  0
   -3.5968   -1.1663   -4.6029 H   0  0  0  0  0  0  0  0  0  0  0  0
   -2.9869   -0.2485    1.8268 H   0  0  0  0  0  0  0  0  0  0  0  0
   -4.9140   -0.1472    3.3139 H   0  0  0  0  0  0  0  0  0  0  0  0
  1  2  1  0
  2  3  1  0
  3  4  2  0
  4  5  1  0
  5  6  2  0
  6  7  1  0
  7  8  2  0
  8  9  1  0
  9 10  1  0
 10 11  2  0
 10 12  1  0
 12 13  1  0
 13 14  2  0
 14 15  1  0
 15 16  2  0
 16 17  1  0
 17 18  2  0
 17 19  2  0
 17 20  1  0
 20 21  1  0
 21 22  1  0
 21 23  2  0
 16 24  1  0
 24 25  2  0
  9 26  2  0
 26 27  1  0
 27 28  2  0
 28 29  1  0
 29 30  2  0
 30 31  1  0
 31 32  2  0
  6 33  1  0
 33 34  2  0
 34  3  1  0
 32  7  1  0
 25 13  1  0
 31 26  1  0
  1 35  1  0
  1 36  1  0
  1 37  1  0
  2 38  1  0
  2 39  1  0
  4 40  1  0
  5 41  1  0
  8 42  1  0
 12 43  1  0
 14 44  1  0
 15 45  1  0
 20 46  1  0
 22 47  1  0
 22 48  1  0
 22 49  1  0
 24 50  1  0
 25 51  1  0
 27 52  1  0
 28 53  1  0
 29 54  1  0
 30 55  1  0
 33 56  1  0
 34 57  1  0
M  END
$$$$
