
     RDKit          3D

 37 39  0  0  0  0  0  0  0  0999 V2000
    4.2785   -0.2199   -1.1098 N   0  0  0  0  0  0  0  0  0  0  0  0
    3.4444   -0.0129    0.0672 C   0  0  0  0  0  0  0  0  0  0  0  0
    1.9819   -0.3204   -0.2476 C   0  0  0  0  0  0  0  0  0  0  0  0
    1.1106   -0.1433    1.0052 C   0  0  0  0  0  0  0  0  0  0  0  0
   -0.3326   -0.3698    0.7224 N   0  0  0  0  0  0  0  0  0  0  0  0
   -0.6706   -1.7398    0.5294 C   0  0  0  0  0  0  0  0  0  0  0  0
   -0.3332   -2.6967    1.5079 C   0  0  0  0  0  0  0  0  0  0  0  0
   -0.6606   -4.0468    1.3577 C   0  0  0  0  0  0  0  0  0  0  0  0
   -1.3453   -4.4712    0.2271 C   0  0  0  0  0  0  0  0  0  0  0  0
   -1.7122   -3.5419   -0.7438 C   0  0  0  0  0  0  0  0  0  0  0  0
   -1.3914   -2.1819   -0.5961 C   0  0  0  0  0  0  0  0  0  0  0  0
   -1.8928   -1.0873   -1.9088 S   0  0  0  0  0  0  0  0  0  0  0  0
   -1.7157    0.5067   -1.1360 C   0  0  0  0  0  0  0  0  0  0  0  0
   -2.3303    1.5952   -1.7756 C   0  0  0  0  0  0  0  0  0  0  0  0
   -2.2332    2.8827   -1.2493 C   0  0  0  0  0  0  0  0  0  0  0  0
   -1.5304    3.1025   -0.0623 C   0  0  0  0  0  0  0  0  0  0  0  0
   -1.4149    4.4884    0.5209 C   0  0  0  0  0  0  0  0  0  0  0  0
   -1.3099    4.4915    1.8792 F   0  0  0  0  0  0  0  0  0  0  0  0
   -2.4800    5.2852    0.2283 F   0  0  0  0  0  0  0  0  0  0  0  0
   -0.3159    5.1482    0.0612 F   0  0  0  0  0  0  0  0  0  0  0  0
   -0.9048    2.0109    0.5654 C   0  0  0  0  0  0  0  0  0  0  0  0
   -0.9663    0.7045    0.0379 C   0  0  0  0  0  0  0  0  0  0  0  0
    5.2353    0.0683   -0.9095 H   0  0  0  0  0  0  0  0  0  0  0  0
    3.9550    0.3696   -1.8764 H   0  0  0  0  0  0  0  0  0  0  0  0
    3.5472    1.0243    0.4051 H   0  0  0  0  0  0  0  0  0  0  0  0
    3.8018   -0.6628    0.8731 H   0  0  0  0  0  0  0  0  0  0  0  0
    1.6313    0.3428   -1.0482 H   0  0  0  0  0  0  0  0  0  0  0  0
    1.8922   -1.3470   -0.6242 H   0  0  0  0  0  0  0  0  0  0  0  0
    1.4697   -0.8150    1.7935 H   0  0  0  0  0  0  0  0  0  0  0  0
    1.2777    0.8572    1.4204 H   0  0  0  0  0  0  0  0  0  0  0  0
    0.1641   -2.3937    2.4252 H   0  0  0  0  0  0  0  0  0  0  0  0
   -0.3875   -4.7610    2.1303 H   0  0  0  0  0  0  0  0  0  0  0  0
   -1.6028   -5.5196    0.1031 H   0  0  0  0  0  0  0  0  0  0  0  0
   -2.2544   -3.8853   -1.6222 H   0  0  0  0  0  0  0  0  0  0  0  0
   -2.8936    1.4431   -2.6946 H   0  0  0  0  0  0  0  0  0  0  0  0
   -2.7200    3.7091   -1.7652 H   0  0  0  0  0  0  0  0  0  0  0  0
   -0.3911    2.1859    1.5095 H   0  0  0  0  0  0  0  0  0  0  0  0
  1  2  1  0
  2  3  1  0
  3  4  1  0
  4  5  1  0
  5  6  1  0
  6  7  2  0
  7  8  1  0
  8  9  2  0
  9 10  1  0
 10 11  2  0
 11 12  1  0
 12 13  1  0
 13 14  2  0
 14 15  1  0
 15 16  2  0
 16 17  1  0
 17 18  1  0
 17 19  1  0
 17 20  1  0
 16 21  1  0
 21 22  2  0
 22  5  1  0
 11  6  1  0
 22 13  1  0
  1 23  1  0
  1 24  1  0
  2 25  1  0
  2 26  1  0
  3 27  1  0
  3 28  1  0
  4 29  1  0
  4 30  1  0
  7 31  1  0
  8 32  1  0
  9 33  1  0
 10 34  1  0
 14 35  1  0
 15 36  1  0
 21 37  1  0
M  END
$$$$
