
     RDKit          3D

 56 58  0  0  0  0  0  0  0  0999 V2000
    9.3284    1.9446    1.0660 C   0  0  0  0  0  0  0  0  0  0  0  0
    8.6754    0.6912    1.2299 O   0  0  0  0  0  0  0  0  0  0  0  0
    7.7388    0.3553    0.2912 C   0  0  0  0  0  0  0  0  0  0  0  0
    7.0966   -0.8644    0.5174 C   0  0  0  0  0  0  0  0  0  0  0  0
    6.1163   -1.3288   -0.3626 C   0  0  0  0  0  0  0  0  0  0  0  0
    5.7688   -0.5802   -1.4940 C   0  0  0  0  0  0  0  0  0  0  0  0
    4.6952   -1.0689   -2.4307 C   0  0  0  0  0  0  0  0  0  0  0  0
    3.3985   -0.6066   -2.0122 N   0  0  0  0  0  0  0  0  0  0  0  0
    2.5697   -1.3606   -1.2166 C   0  0  0  0  0  0  0  0  0  0  0  0
    2.7406   -2.5249   -0.8835 O   0  0  0  0  0  0  0  0  0  0  0  0
    1.3216   -0.5893   -0.7294 C   0  0  0  0  0  0  0  0  0  0  0  0
    1.1101    0.5498   -1.1197 O   0  0  0  0  0  0  0  0  0  0  0  0
    0.5217   -1.3086    0.1267 N   0  0  0  0  0  0  0  0  0  0  0  0
   -0.7847   -0.8226    0.5374 C   0  0  0  0  0  0  0  0  0  0  0  0
   -1.8418   -0.8813   -0.5865 C   0  0  0  0  0  0  0  0  0  0  0  0
   -1.9256   -2.2459   -1.0703 O   0  0  0  0  0  0  0  0  0  0  0  0
   -3.2169   -2.7479   -0.7205 C   0  0  0  0  0  0  0  0  0  0  0  0
   -4.0979   -1.5238   -0.6611 C   0  0  0  0  0  0  0  0  0  0  0  0
   -3.1867   -0.5353   -0.0685 N   0  0  0  0  0  0  0  0  0  0  0  0
   -3.5890    1.0955   -0.2462 S   0  0  0  0  0  6  0  0  0  0  0  0
   -2.6155    1.8767    0.4828 O   0  0  0  0  0  0  0  0  0  0  0  0
   -3.8528    1.3363   -1.6484 O   0  0  0  0  0  0  0  0  0  0  0  0
   -5.1241    1.2009    0.6391 C   0  0  0  0  0  0  0  0  0  0  0  0
   -6.3264    1.3497   -0.0552 C   0  0  0  0  0  0  0  0  0  0  0  0
   -7.5235    1.4376    0.6582 C   0  0  0  0  0  0  0  0  0  0  0  0
   -7.5218    1.3956    2.0595 C   0  0  0  0  0  0  0  0  0  0  0  0
   -8.8114    1.4669    2.8248 C   0  0  0  0  0  0  0  0  0  0  0  0
   -6.3062    1.2427    2.7414 C   0  0  0  0  0  0  0  0  0  0  0  0
   -5.1061    1.1530    2.0353 C   0  0  0  0  0  0  0  0  0  0  0  0
    6.4083    0.6478   -1.7132 C   0  0  0  0  0  0  0  0  0  0  0  0
    7.3900    1.1107   -0.8287 C   0  0  0  0  0  0  0  0  0  0  0  0
    8.6113    2.7730    1.0981 H   0  0  0  0  0  0  0  0  0  0  0  0
    9.9167    1.9652    0.1413 H   0  0  0  0  0  0  0  0  0  0  0  0
   10.0213    2.0719    1.9033 H   0  0  0  0  0  0  0  0  0  0  0  0
    7.3581   -1.4572    1.3910 H   0  0  0  0  0  0  0  0  0  0  0  0
    5.6208   -2.2767   -0.1569 H   0  0  0  0  0  0  0  0  0  0  0  0
    4.7083   -2.1634   -2.4891 H   0  0  0  0  0  0  0  0  0  0  0  0
    4.8718   -0.6877   -3.4428 H   0  0  0  0  0  0  0  0  0  0  0  0
    3.1638    0.3780   -2.0968 H   0  0  0  0  0  0  0  0  0  0  0  0
    0.7369   -2.2992    0.2094 H   0  0  0  0  0  0  0  0  0  0  0  0
   -0.6677    0.2015    0.9049 H   0  0  0  0  0  0  0  0  0  0  0  0
   -1.0917   -1.4534    1.3793 H   0  0  0  0  0  0  0  0  0  0  0  0
   -1.5534   -0.2637   -1.4435 H   0  0  0  0  0  0  0  0  0  0  0  0
   -3.5506   -3.4803   -1.4601 H   0  0  0  0  0  0  0  0  0  0  0  0
   -3.1399   -3.2379    0.2567 H   0  0  0  0  0  0  0  0  0  0  0  0
   -4.9856   -1.6955   -0.0485 H   0  0  0  0  0  0  0  0  0  0  0  0
   -4.3939   -1.2265   -1.6726 H   0  0  0  0  0  0  0  0  0  0  0  0
   -6.3432    1.4004   -1.1418 H   0  0  0  0  0  0  0  0  0  0  0  0
   -8.4594    1.5484    0.1139 H   0  0  0  0  0  0  0  0  0  0  0  0
   -9.1754    0.4568    3.0392 H   0  0  0  0  0  0  0  0  0  0  0  0
   -8.6727    2.0034    3.7699 H   0  0  0  0  0  0  0  0  0  0  0  0
   -9.5764    2.0049    2.2553 H   0  0  0  0  0  0  0  0  0  0  0  0
   -6.2887    1.2014    3.8288 H   0  0  0  0  0  0  0  0  0  0  0  0
   -4.1665    1.0499    2.5735 H   0  0  0  0  0  0  0  0  0  0  0  0
    6.1467    1.2565   -2.5765 H   0  0  0  0  0  0  0  0  0  0  0  0
    7.8598    2.0652   -1.0433 H   0  0  0  0  0  0  0  0  0  0  0  0
  1  2  1  0
  2  3  1  0
  3  4  2  0
  4  5  1  0
  5  6  2  0
  6  7  1  0
  7  8  1  0
  8  9  1  0
  9 10  2  0
  9 11  1  0
 11 12  2  0
 11 13  1  0
 13 14  1  0
 14 15  1  0
 15 16  1  0
 16 17  1  0
 17 18  1  0
 18 19  1  0
 19 20  1  0
 20 21  2  0
 20 22  2  0
 20 23  1  0
 23 24  2  0
 24 25  1  0
 25 26  2  0
 26 27  1  0
 26 28  1  0
 28 29  2  0
  6 30  1  0
 30 31  2  0
 31  3  1  0
 19 15  1  0
 29 23  1  0
  1 32  1  0
  1 33  1  0
  1 34  1  0
  4 35  1  0
  5 36  1  0
  7 37  1  0
  7 38  1  0
  8 39  1  0
 13 40  1  0
 14 41  1  0
 14 42  1  0
 15 43  1  0
 17 44  1  0
 17 45  1  0
 18 46  1  0
 18 47  1  0
 24 48  1  0
 25 49  1  0
 27 50  1  0
 27 51  1  0
 27 52  1  0
 28 53  1  0
 29 54  1  0
 30 55  1  0
 31 56  1  0
M  END
$$$$
