
     RDKit          3D

 51 55  0  0  0  0  0  0  0  0999 V2000
   -8.3909    2.0450   -0.4472 F   0  0  0  0  0  0  0  0  0  0  0  0
   -7.6180    1.0199   -0.0644 C   0  0  0  0  0  0  0  0  0  0  0  0
   -8.1538   -0.2615   -0.0223 C   0  0  0  0  0  0  0  0  0  0  0  0
   -7.3488   -1.3285    0.3719 C   0  0  0  0  0  0  0  0  0  0  0  0
   -6.0144   -1.1040    0.7216 C   0  0  0  0  0  0  0  0  0  0  0  0
   -5.4744    0.1908    0.6840 C   0  0  0  0  0  0  0  0  0  0  0  0
   -4.0264    0.4295    1.0432 C   0  0  0  0  0  0  0  0  0  0  0  0
   -3.1040    0.2476   -0.1742 C   0  0  0  0  0  0  0  0  0  0  0  0
   -1.6972    0.5949    0.1029 N   0  0  0  0  0  0  0  0  0  0  0  0
   -0.9289    0.6398   -1.1643 C   0  0  0  0  0  0  0  0  0  0  0  0
    0.5669    0.9506   -0.9492 C   0  0  0  0  0  0  0  0  0  0  0  0
    1.1755   -0.0387   -0.0378 N   0  0  0  0  0  0  0  0  0  0  0  0
    2.5671   -0.0994    0.0073 C   0  0  0  0  0  0  0  0  0  0  0  0
    3.1871    0.2115    1.1179 N   0  0  0  0  0  0  0  0  0  0  0  0
    4.5945    0.1885    1.1835 C   0  0  0  0  0  0  0  0  0  0  0  0
    5.2078    0.5459    2.3858 C   0  0  0  0  0  0  0  0  0  0  0  0
    6.6005    0.5492    2.5034 C   0  0  0  0  0  0  0  0  0  0  0  0
    7.3962    0.1935    1.4136 C   0  0  0  0  0  0  0  0  0  0  0  0
    6.8054   -0.1675    0.2022 C   0  0  0  0  0  0  0  0  0  0  0  0
    5.4111   -0.1653    0.0997 C   0  0  0  0  0  0  0  0  0  0  0  0
    4.7345   -0.5252   -1.0768 N   0  0  0  0  0  0  0  0  0  0  0  0
    5.2387   -0.9392   -2.2872 C   0  0  0  0  0  0  0  0  0  0  0  0
    4.1784   -1.2418   -3.1145 C   0  0  0  0  0  0  0  0  0  0  0  0
    2.9931   -0.9904   -2.3853 C   0  0  0  0  0  0  0  0  0  0  0  0
    3.3594   -0.5148   -1.1388 C   0  0  0  0  0  0  0  0  0  0  0  0
    0.4480   -0.0852    1.2471 C   0  0  0  0  0  0  0  0  0  0  0  0
   -1.0516   -0.3773    1.0166 C   0  0  0  0  0  0  0  0  0  0  0  0
   -6.2911    1.2556    0.2815 C   0  0  0  0  0  0  0  0  0  0  0  0
   -9.1917   -0.4195   -0.2967 H   0  0  0  0  0  0  0  0  0  0  0  0
   -7.7586   -2.3348    0.4073 H   0  0  0  0  0  0  0  0  0  0  0  0
   -5.3974   -1.9473    1.0260 H   0  0  0  0  0  0  0  0  0  0  0  0
   -3.7518   -0.2570    1.8527 H   0  0  0  0  0  0  0  0  0  0  0  0
   -3.9161    1.4422    1.4520 H   0  0  0  0  0  0  0  0  0  0  0  0
   -3.4746    0.9057   -0.9719 H   0  0  0  0  0  0  0  0  0  0  0  0
   -3.1825   -0.7783   -0.5587 H   0  0  0  0  0  0  0  0  0  0  0  0
   -1.3461    1.4180   -1.8147 H   0  0  0  0  0  0  0  0  0  0  0  0
   -1.0197   -0.3177   -1.6952 H   0  0  0  0  0  0  0  0  0  0  0  0
    1.0625    0.9525   -1.9248 H   0  0  0  0  0  0  0  0  0  0  0  0
    0.6843    1.9574   -0.5278 H   0  0  0  0  0  0  0  0  0  0  0  0
    4.5908    0.8253    3.2356 H   0  0  0  0  0  0  0  0  0  0  0  0
    7.0619    0.8303    3.4466 H   0  0  0  0  0  0  0  0  0  0  0  0
    8.4793    0.1972    1.5103 H   0  0  0  0  0  0  0  0  0  0  0  0
    7.4442   -0.4423   -0.6304 H   0  0  0  0  0  0  0  0  0  0  0  0
    6.3013   -1.0054   -2.4691 H   0  0  0  0  0  0  0  0  0  0  0  0
    4.2533   -1.6134   -4.1284 H   0  0  0  0  0  0  0  0  0  0  0  0
    1.9786   -1.1414   -2.7294 H   0  0  0  0  0  0  0  0  0  0  0  0
    0.8575   -0.8818    1.8802 H   0  0  0  0  0  0  0  0  0  0  0  0
    0.5656    0.8661    1.7817 H   0  0  0  0  0  0  0  0  0  0  0  0
   -1.5418   -0.3546    1.9955 H   0  0  0  0  0  0  0  0  0  0  0  0
   -1.1564   -1.3951    0.6173 H   0  0  0  0  0  0  0  0  0  0  0  0
   -5.9070    2.2704    0.2334 H   0  0  0  0  0  0  0  0  0  0  0  0
  1  2  1  0
  2  3  2  0
  3  4  1  0
  4  5  2  0
  5  6  1  0
  6  7  1  0
  7  8  1  0
  8  9  1  0
  9 10  1  0
 10 11  1  0
 11 12  1  0
 12 13  1  0
 13 14  2  0
 14 15  1  0
 15 16  2  0
 16 17  1  0
 17 18  2  0
 18 19  1  0
 19 20  2  0
 20 21  1  0
 21 22  1  0
 22 23  2  0
 23 24  1  0
 24 25  2  0
 12 26  1  0
 26 27  1  0
  6 28  2  0
 28  2  1  0
 27  9  1  0
 25 13  1  0
 20 15  1  0
 25 21  1  0
  3 29  1  0
  4 30  1  0
  5 31  1  0
  7 32  1  0
  7 33  1  0
  8 34  1  0
  8 35  1  0
 10 36  1  0
 10 37  1  0
 11 38  1  0
 11 39  1  0
 16 40  1  0
 17 41  1  0
 18 42  1  0
 19 43  1  0
 22 44  1  0
 23 45  1  0
 24 46  1  0
 26 47  1  0
 26 48  1  0
 27 49  1  0
 27 50  1  0
 28 51  1  0
M  END
$$$$
