
     RDKit          3D

 41 42  0  0  0  0  0  0  0  0999 V2000
    6.6107    2.1890   -0.2109 C   0  0  0  0  0  0  0  0  0  0  0  0
    5.2518    1.8499    0.0647 O   0  0  0  0  0  0  0  0  0  0  0  0
    5.0338    0.5128    0.2216 C   0  0  0  0  0  0  0  0  0  0  0  0
    5.9037   -0.3438    0.1343 O   0  0  0  0  0  0  0  0  0  0  0  0
    3.6279    0.2708    0.4949 C   0  0  0  0  0  0  0  0  0  0  0  0
    2.5885    1.1880    0.5362 C   0  0  0  0  0  0  0  0  0  0  0  0
    1.3912    0.4905    0.7903 C   0  0  0  0  0  0  0  0  0  0  0  0
    1.6882   -0.8599    0.8938 C   0  0  0  0  0  0  0  0  0  0  0  0
    0.6223   -2.2651    1.1564 S   0  0  0  0  0  6  0  0  0  0  0  0
    0.7751   -2.5510    2.5627 O   0  0  0  0  0  0  0  0  0  0  0  0
    0.9789   -3.2003    0.1158 O   0  0  0  0  0  0  0  0  0  0  0  0
   -0.9491   -1.7450    0.9089 N   0  0  0  0  0  0  0  0  0  0  0  0
   -1.3412   -1.4884   -0.4797 C   0  0  0  0  0  0  0  0  0  0  0  0
   -2.6679   -0.7708   -0.5396 C   0  0  0  0  0  0  0  0  0  0  0  0
   -3.8372   -1.4129   -0.1134 C   0  0  0  0  0  0  0  0  0  0  0  0
   -5.0638   -0.7466   -0.1541 C   0  0  0  0  0  0  0  0  0  0  0  0
   -5.1464    0.5677   -0.6180 C   0  0  0  0  0  0  0  0  0  0  0  0
   -6.4057    1.1003   -0.6049 O   0  0  0  0  0  0  0  0  0  0  0  0
   -6.5475    2.4307   -1.0861 C   0  0  0  0  0  0  0  0  0  0  0  0
   -3.9852    1.2140   -1.0412 C   0  0  0  0  0  0  0  0  0  0  0  0
   -2.7533    0.5496   -1.0007 C   0  0  0  0  0  0  0  0  0  0  0  0
    3.0655   -0.9690    0.7753 N   0  0  0  0  0  0  0  0  0  0  0  0
    3.8305   -2.1949    0.9230 C   0  0  0  0  0  0  0  0  0  0  0  0
    6.9372    1.7324   -1.1505 H   0  0  0  0  0  0  0  0  0  0  0  0
    7.2585    1.8823    0.6163 H   0  0  0  0  0  0  0  0  0  0  0  0
    6.6741    3.2757   -0.3146 H   0  0  0  0  0  0  0  0  0  0  0  0
    2.6908    2.2560    0.3821 H   0  0  0  0  0  0  0  0  0  0  0  0
    0.4024    0.9228    0.8724 H   0  0  0  0  0  0  0  0  0  0  0  0
   -1.2300   -1.0336    1.5814 H   0  0  0  0  0  0  0  0  0  0  0  0
   -0.5816   -0.8842   -0.9872 H   0  0  0  0  0  0  0  0  0  0  0  0
   -1.4252   -2.4358   -1.0244 H   0  0  0  0  0  0  0  0  0  0  0  0
   -3.7976   -2.4358    0.2569 H   0  0  0  0  0  0  0  0  0  0  0  0
   -5.9642   -1.2571    0.1798 H   0  0  0  0  0  0  0  0  0  0  0  0
   -6.2529    2.5038   -2.1382 H   0  0  0  0  0  0  0  0  0  0  0  0
   -5.9837    3.1362   -0.4670 H   0  0  0  0  0  0  0  0  0  0  0  0
   -7.6059    2.7000   -1.0175 H   0  0  0  0  0  0  0  0  0  0  0  0
   -4.0023    2.2346   -1.4089 H   0  0  0  0  0  0  0  0  0  0  0  0
   -1.8624    1.0757   -1.3376 H   0  0  0  0  0  0  0  0  0  0  0  0
    4.1274   -2.5325   -0.0728 H   0  0  0  0  0  0  0  0  0  0  0  0
    3.2417   -2.9633    1.4235 H   0  0  0  0  0  0  0  0  0  0  0  0
    4.7030   -1.9924    1.5490 H   0  0  0  0  0  0  0  0  0  0  0  0
  1  2  1  0
  2  3  1  0
  3  4  2  0
  3  5  1  0
  5  6  2  0
  6  7  1  0
  7  8  2  0
  8  9  1  0
  9 10  2  0
  9 11  2  0
  9 12  1  0
 12 13  1  0
 13 14  1  0
 14 15  2  0
 15 16  1  0
 16 17  2  0
 17 18  1  0
 18 19  1  0
 17 20  1  0
 20 21  2  0
  8 22  1  0
 22 23  1  0
 22  5  1  0
 21 14  1  0
  1 24  1  0
  1 25  1  0
  1 26  1  0
  6 27  1  0
  7 28  1  0
 12 29  1  0
 13 30  1  0
 13 31  1  0
 15 32  1  0
 16 33  1  0
 19 34  1  0
 19 35  1  0
 19 36  1  0
 20 37  1  0
 21 38  1  0
 23 39  1  0
 23 40  1  0
 23 41  1  0
M  END
$$$$
