
     RDKit          3D

 37 38  0  0  0  0  0  0  0  0999 V2000
    1.3965   -1.6343    0.3760 O   0  0  0  0  0  0  0  0  0  0  0  0
    0.7954   -0.7790   -0.2617 C   0  0  0  0  0  0  0  0  0  0  0  0
   -0.7167   -0.8002   -0.4295 C   0  0  0  0  0  0  0  0  0  0  0  0
   -1.3742   -1.9273    0.3685 C   0  0  0  0  0  0  0  0  0  0  0  0
   -2.8834   -2.0299    0.1259 C   0  0  0  0  0  0  0  0  0  0  0  0
   -3.6566   -0.8075    0.5565 C   0  0  0  0  0  0  0  0  0  0  0  0
   -4.3012   -0.0027   -0.3928 C   0  0  0  0  0  0  0  0  0  0  0  0
   -5.0109    1.1318    0.0051 C   0  0  0  0  0  0  0  0  0  0  0  0
   -5.0850    1.4715    1.3544 C   0  0  0  0  0  0  0  0  0  0  0  0
   -4.4526    0.6759    2.3073 C   0  0  0  0  0  0  0  0  0  0  0  0
   -3.7433   -0.4592    1.9114 C   0  0  0  0  0  0  0  0  0  0  0  0
    1.3614    0.3014   -0.9211 N   0  0  0  0  0  0  0  0  0  0  0  0
    2.7276    0.6431   -1.0009 C   0  0  0  0  0  0  0  0  0  0  0  0
    3.0466    1.8107   -1.7112 C   0  0  0  0  0  0  0  0  0  0  0  0
    4.3717    2.2338   -1.8456 C   0  0  0  0  0  0  0  0  0  0  0  0
    5.3993    1.4916   -1.2702 C   0  0  0  0  0  0  0  0  0  0  0  0
    5.0881    0.3239   -0.5616 C   0  0  0  0  0  0  0  0  0  0  0  0
    6.1732   -0.4601    0.0433 N   0  0  0  0  0  4  0  0  0  0  0  0
    5.8846   -1.5389    0.5781 O   0  0  0  0  0  0  0  0  0  0  0  0
    7.3209    0.0052   -0.0201 O   0  0  0  0  0  1  0  0  0  0  0  0
    3.7579   -0.1037   -0.4244 C   0  0  0  0  0  0  0  0  0  0  0  0
   -0.9371   -0.9215   -1.4967 H   0  0  0  0  0  0  0  0  0  0  0  0
   -1.1060    0.1712   -0.1038 H   0  0  0  0  0  0  0  0  0  0  0  0
   -0.9171   -2.8850    0.0889 H   0  0  0  0  0  0  0  0  0  0  0  0
   -1.1665   -1.7891    1.4369 H   0  0  0  0  0  0  0  0  0  0  0  0
   -3.2790   -2.8958    0.6719 H   0  0  0  0  0  0  0  0  0  0  0  0
   -3.0662   -2.2366   -0.9362 H   0  0  0  0  0  0  0  0  0  0  0  0
   -4.2583   -0.2551   -1.4498 H   0  0  0  0  0  0  0  0  0  0  0  0
   -5.5102    1.7483   -0.7377 H   0  0  0  0  0  0  0  0  0  0  0  0
   -5.6401    2.3530    1.6642 H   0  0  0  0  0  0  0  0  0  0  0  0
   -4.5141    0.9365    3.3608 H   0  0  0  0  0  0  0  0  0  0  0  0
   -3.2601   -1.0729    2.6687 H   0  0  0  0  0  0  0  0  0  0  0  0
    0.7165    0.9291   -1.3861 H   0  0  0  0  0  0  0  0  0  0  0  0
    2.2650    2.4119   -2.1709 H   0  0  0  0  0  0  0  0  0  0  0  0
    4.5998    3.1423   -2.3986 H   0  0  0  0  0  0  0  0  0  0  0  0
    6.4274    1.8305   -1.3816 H   0  0  0  0  0  0  0  0  0  0  0  0
    3.5469   -1.0132    0.1304 H   0  0  0  0  0  0  0  0  0  0  0  0
  1  2  2  0
  2  3  1  0
  3  4  1  0
  4  5  1  0
  5  6  1  0
  6  7  2  0
  7  8  1  0
  8  9  2  0
  9 10  1  0
 10 11  2  0
  2 12  1  0
 12 13  1  0
 13 14  2  0
 14 15  1  0
 15 16  2  0
 16 17  1  0
 17 18  1  0
 18 19  2  0
 18 20  1  0
 17 21  2  0
 11  6  1  0
 21 13  1  0
  3 22  1  0
  3 23  1  0
  4 24  1  0
  4 25  1  0
  5 26  1  0
  5 27  1  0
  7 28  1  0
  8 29  1  0
  9 30  1  0
 10 31  1  0
 11 32  1  0
 12 33  1  0
 14 34  1  0
 15 35  1  0
 16 36  1  0
 21 37  1  0
M  CHG  2  18   1  20  -1
M  END
$$$$
