
     RDKit          3D

 53 56  0  0  0  0  0  0  0  0999 V2000
   -6.7844    2.8320   -2.1298 C   0  0  0  0  0  0  0  0  0  0  0  0
   -7.0921    1.4874   -2.4798 O   0  0  0  0  0  0  0  0  0  0  0  0
   -6.4672    0.5030   -1.7655 C   0  0  0  0  0  0  0  0  0  0  0  0
   -6.7977   -0.7969   -2.1528 C   0  0  0  0  0  0  0  0  0  0  0  0
   -6.2341   -1.8970   -1.5070 C   0  0  0  0  0  0  0  0  0  0  0  0
   -5.3284   -1.7055   -0.4630 C   0  0  0  0  0  0  0  0  0  0  0  0
   -4.9848   -0.4075   -0.0656 C   0  0  0  0  0  0  0  0  0  0  0  0
   -4.0182   -0.1391    1.0442 C   0  0  0  0  0  0  0  0  0  0  0  0
   -3.8548    1.0200    1.4225 O   0  0  0  0  0  0  0  0  0  0  0  0
   -3.2682   -1.3241    1.6580 C   0  0  0  0  0  0  0  0  0  0  0  0
   -2.3153   -0.9870    2.6564 O   0  0  0  0  0  0  0  0  0  0  0  0
   -1.0866   -0.5429    2.2584 C   0  0  0  0  0  0  0  0  0  0  0  0
   -0.1809   -0.3284    3.2982 C   0  0  0  0  0  0  0  0  0  0  0  0
    1.1198    0.1269    3.0416 C   0  0  0  0  0  0  0  0  0  0  0  0
    1.5479    0.3827    1.7329 C   0  0  0  0  0  0  0  0  0  0  0  0
    2.9046    0.8535    1.3836 C   0  0  0  0  0  0  0  0  0  0  0  0
    3.8626    1.0633    2.5292 C   0  0  0  0  0  0  0  0  0  0  0  0
    3.2175    1.0537    0.0821 C   0  0  0  0  0  0  0  0  0  0  0  0
    4.5648    1.5165   -0.4375 C   0  0  0  0  0  0  0  0  0  0  0  0
    5.4631    0.3766   -0.8738 C   0  0  0  0  0  0  0  0  0  0  0  0
    6.3193   -0.2569    0.0384 C   0  0  0  0  0  0  0  0  0  0  0  0
    7.1331   -1.3169   -0.3673 C   0  0  0  0  0  0  0  0  0  0  0  0
    7.0998   -1.7577   -1.6882 C   0  0  0  0  0  0  0  0  0  0  0  0
    6.2534   -1.1387   -2.6047 C   0  0  0  0  0  0  0  0  0  0  0  0
    5.4400   -0.0786   -2.2005 C   0  0  0  0  0  0  0  0  0  0  0  0
    2.1982    0.8783   -0.9943 C   0  0  0  0  0  0  0  0  0  0  0  0
    2.4311    1.1532   -2.1675 O   0  0  0  0  0  0  0  0  0  0  0  0
    0.9540    0.3995   -0.6262 O   0  0  0  0  0  0  0  0  0  0  0  0
    0.6243    0.1645    0.7163 C   0  0  0  0  0  0  0  0  0  0  0  0
   -0.6791   -0.2888    0.9546 C   0  0  0  0  0  0  0  0  0  0  0  0
   -5.5616    0.6943   -0.7214 C   0  0  0  0  0  0  0  0  0  0  0  0
   -7.0857    3.0502   -1.0999 H   0  0  0  0  0  0  0  0  0  0  0  0
   -5.7223    3.0475   -2.2867 H   0  0  0  0  0  0  0  0  0  0  0  0
   -7.3584    3.4886   -2.7907 H   0  0  0  0  0  0  0  0  0  0  0  0
   -7.5034   -0.9516   -2.9662 H   0  0  0  0  0  0  0  0  0  0  0  0
   -6.5052   -2.9027   -1.8198 H   0  0  0  0  0  0  0  0  0  0  0  0
   -4.9170   -2.5865    0.0199 H   0  0  0  0  0  0  0  0  0  0  0  0
   -4.0182   -1.9425    2.1648 H   0  0  0  0  0  0  0  0  0  0  0  0
   -2.8087   -1.9429    0.8789 H   0  0  0  0  0  0  0  0  0  0  0  0
   -0.4898   -0.5145    4.3248 H   0  0  0  0  0  0  0  0  0  0  0  0
    1.7765    0.2722    3.8947 H   0  0  0  0  0  0  0  0  0  0  0  0
    3.4607    1.7968    3.2372 H   0  0  0  0  0  0  0  0  0  0  0  0
    4.0417    0.1205    3.0581 H   0  0  0  0  0  0  0  0  0  0  0  0
    4.8400    1.4414    2.2276 H   0  0  0  0  0  0  0  0  0  0  0  0
    5.0958    2.1239    0.3039 H   0  0  0  0  0  0  0  0  0  0  0  0
    4.4370    2.2174   -1.2737 H   0  0  0  0  0  0  0  0  0  0  0  0
    6.3663    0.0704    1.0732 H   0  0  0  0  0  0  0  0  0  0  0  0
    7.7940   -1.7989    0.3484 H   0  0  0  0  0  0  0  0  0  0  0  0
    7.7325   -2.5828   -2.0038 H   0  0  0  0  0  0  0  0  0  0  0  0
    6.2232   -1.4803   -3.6361 H   0  0  0  0  0  0  0  0  0  0  0  0
    4.7841    0.3907   -2.9322 H   0  0  0  0  0  0  0  0  0  0  0  0
   -1.3380   -0.4133    0.1037 H   0  0  0  0  0  0  0  0  0  0  0  0
   -5.2855    1.6940   -0.3977 H   0  0  0  0  0  0  0  0  0  0  0  0
  1  2  1  0
  2  3  1  0
  3  4  2  0
  4  5  1  0
  5  6  2  0
  6  7  1  0
  7  8  1  0
  8  9  2  0
  8 10  1  0
 10 11  1  0
 11 12  1  0
 12 13  2  0
 13 14  1  0
 14 15  2  0
 15 16  1  0
 16 17  1  0
 16 18  2  0
 18 19  1  0
 19 20  1  0
 20 21  2  0
 21 22  1  0
 22 23  2  0
 23 24  1  0
 24 25  2  0
 18 26  1  0
 26 27  2  0
 26 28  1  0
 28 29  1  0
 29 30  2  0
  7 31  2  0
 31  3  1  0
 30 12  1  0
 29 15  1  0
 25 20  1  0
  1 32  1  0
  1 33  1  0
  1 34  1  0
  4 35  1  0
  5 36  1  0
  6 37  1  0
 10 38  1  0
 10 39  1  0
 13 40  1  0
 14 41  1  0
 17 42  1  0
 17 43  1  0
 17 44  1  0
 19 45  1  0
 19 46  1  0
 21 47  1  0
 22 48  1  0
 23 49  1  0
 24 50  1  0
 25 51  1  0
 30 52  1  0
 31 53  1  0
M  END
$$$$
