
     RDKit          3D

 53 58  0  0  0  0  0  0  0  0999 V2000
   -0.9220    0.0459   -2.0513 O   0  0  0  0  0  0  0  0  0  0  0  0
   -1.4403    0.4736   -1.0150 C   0  0  0  0  0  0  0  0  0  0  0  0
   -0.6281    1.4777   -0.1677 C   0  0  0  0  0  0  0  0  0  0  0  0
    0.7968    1.0913   -0.1351 N   0  0  0  0  0  4  0  0  0  0  0  0
    1.4644    0.4558    0.9105 C   0  0  0  0  0  0  0  0  0  0  0  0
    2.7755    0.2030    0.5219 C   0  0  0  0  0  0  0  0  0  0  0  0
    3.8800   -0.5215    1.3772 C   0  0  0  0  0  0  0  0  0  0  0  0
    5.1431   -0.7804    0.8435 C   0  0  0  0  0  0  0  0  0  0  0  0
    6.1159   -1.4259    1.6167 C   0  0  0  0  0  0  0  0  0  0  0  0
    5.8346   -1.8196    2.9269 C   0  0  0  0  0  0  0  0  0  0  0  0
    7.0825   -2.6083    3.8187 Cl  0  0  0  0  0  0  0  0  0  0  0  0
    4.5699   -1.5665    3.4629 C   0  0  0  0  0  0  0  0  0  0  0  0
    4.1369   -2.0195    5.0723 Cl  0  0  0  0  0  0  0  0  0  0  0  0
    3.5951   -0.9206    2.6893 C   0  0  0  0  0  0  0  0  0  0  0  0
    2.8352    0.7297   -0.7556 N   0  0  0  0  0  0  0  0  0  0  0  0
    1.6541    1.2059   -1.1454 C   0  0  0  0  0  0  0  0  0  0  0  0
    1.6691    1.7440   -2.5264 C   0  0  0  0  0  0  0  0  0  0  0  0
    3.1802    1.8429   -2.8125 C   0  0  0  0  0  0  0  0  0  0  0  0
    3.8412    0.8683   -1.8005 C   0  0  0  0  0  0  0  0  0  0  0  0
   -2.6516    0.0338   -0.4537 N   0  0  0  0  0  0  0  0  0  0  0  0
   -3.1709   -1.2892   -0.7196 C   0  0  0  0  0  0  0  0  0  0  0  0
   -2.9359   -1.9337   -1.9474 C   0  0  0  0  0  0  0  0  0  0  0  0
   -3.4258   -3.2186   -2.2082 C   0  0  0  0  0  0  0  0  0  0  0  0
   -4.1594   -3.8946   -1.2436 C   0  0  0  0  0  0  0  0  0  0  0  0
   -4.4035   -3.2844   -0.0179 C   0  0  0  0  0  0  0  0  0  0  0  0
   -3.9197   -1.9928    0.2458 C   0  0  0  0  0  0  0  0  0  0  0  0
   -4.2102   -1.3368    1.8738 S   0  0  0  0  0  0  0  0  0  0  0  0
   -4.2066    0.3855    1.4637 C   0  0  0  0  0  0  0  0  0  0  0  0
   -4.9545    1.2563    2.2690 C   0  0  0  0  0  0  0  0  0  0  0  0
   -4.9920    2.6213    1.9937 C   0  0  0  0  0  0  0  0  0  0  0  0
   -4.2932    3.1226    0.9031 C   0  0  0  0  0  0  0  0  0  0  0  0
   -3.5377    2.2611    0.1036 C   0  0  0  0  0  0  0  0  0  0  0  0
   -3.4543    0.8830    0.3885 C   0  0  0  0  0  0  0  0  0  0  0  0
   -0.9722    1.5197    0.8689 H   0  0  0  0  0  0  0  0  0  0  0  0
   -0.6977    2.4720   -0.6186 H   0  0  0  0  0  0  0  0  0  0  0  0
    0.9072    0.2463    1.8082 H   0  0  0  0  0  0  0  0  0  0  0  0
    5.4076   -0.5090   -0.1711 H   0  0  0  0  0  0  0  0  0  0  0  0
    7.0979   -1.6233    1.1891 H   0  0  0  0  0  0  0  0  0  0  0  0
    2.6234   -0.7385    3.1405 H   0  0  0  0  0  0  0  0  0  0  0  0
    1.1810    1.0064   -3.1652 H   0  0  0  0  0  0  0  0  0  0  0  0
    1.1577    2.7068   -2.5416 H   0  0  0  0  0  0  0  0  0  0  0  0
    3.5193    2.8630   -2.5962 H   0  0  0  0  0  0  0  0  0  0  0  0
    3.4353    1.6155   -3.8510 H   0  0  0  0  0  0  0  0  0  0  0  0
    4.0171   -0.1123   -2.2522 H   0  0  0  0  0  0  0  0  0  0  0  0
    4.7671    1.2876   -1.4008 H   0  0  0  0  0  0  0  0  0  0  0  0
   -2.4083   -1.4445   -2.7607 H   0  0  0  0  0  0  0  0  0  0  0  0
   -3.2400   -3.6843   -3.1740 H   0  0  0  0  0  0  0  0  0  0  0  0
   -4.5422   -4.8926   -1.4440 H   0  0  0  0  0  0  0  0  0  0  0  0
   -4.9731   -3.8270    0.7349 H   0  0  0  0  0  0  0  0  0  0  0  0
   -5.5269    0.8734    3.1129 H   0  0  0  0  0  0  0  0  0  0  0  0
   -5.5895    3.2850    2.6156 H   0  0  0  0  0  0  0  0  0  0  0  0
   -4.3594    4.1817    0.6607 H   0  0  0  0  0  0  0  0  0  0  0  0
   -3.0730    2.6851   -0.7835 H   0  0  0  0  0  0  0  0  0  0  0  0
  1  2  2  0
  2  3  1  0
  3  4  1  0
  4  5  1  0
  5  6  2  0
  6  7  1  0
  7  8  2  0
  8  9  1  0
  9 10  2  0
 10 11  1  0
 10 12  1  0
 12 13  1  0
 12 14  2  0
  6 15  1  0
 15 16  1  0
 16 17  1  0
 17 18  1  0
 18 19  1  0
  2 20  1  0
 20 21  1  0
 21 22  2  0
 22 23  1  0
 23 24  2  0
 24 25  1  0
 25 26  2  0
 26 27  1  0
 27 28  1  0
 28 29  2  0
 29 30  1  0
 30 31  2  0
 31 32  1  0
 32 33  2  0
 16  4  2  0
 33 20  1  0
 14  7  1  0
 19 15  1  0
 26 21  1  0
 33 28  1  0
  3 34  1  0
  3 35  1  0
  5 36  1  0
  8 37  1  0
  9 38  1  0
 14 39  1  0
 17 40  1  0
 17 41  1  0
 18 42  1  0
 18 43  1  0
 19 44  1  0
 19 45  1  0
 22 46  1  0
 23 47  1  0
 24 48  1  0
 25 49  1  0
 29 50  1  0
 30 51  1  0
 31 52  1  0
 32 53  1  0
M  CHG  1   4   1
M  END
$$$$
