
     RDKit          3D

 33 35  0  0  0  0  0  0  0  0999 V2000
    0.7092    1.4837    1.3269 O   0  0  0  0  0  0  0  0  0  0  0  0
    0.4878    0.3271    0.9867 C   0  0  0  0  0  0  0  0  0  0  0  0
   -0.8515   -0.1268    0.4943 C   0  0  0  0  0  0  0  0  0  0  0  0
   -1.6068    0.8290   -0.0776 C   0  0  0  0  0  0  0  0  0  0  0  0
   -2.8953    0.6104   -0.6405 C   0  0  0  0  0  0  0  0  0  0  0  0
   -3.8228    1.5666   -1.0440 C   0  0  0  0  0  0  0  0  0  0  0  0
   -4.9542    0.8935   -1.5613 C   0  0  0  0  0  0  0  0  0  0  0  0
   -4.6688   -0.4428   -1.4607 C   0  0  0  0  0  0  0  0  0  0  0  0
   -3.4419   -0.6241   -0.9172 O   0  0  0  0  0  0  0  0  0  0  0  0
   -1.2111   -1.5651    0.7436 C   0  0  0  0  0  0  0  0  0  0  0  0
   -0.4748   -2.1108    1.9657 C   0  0  0  0  0  0  0  0  0  0  0  0
    1.0397   -2.0310    1.7865 C   0  0  0  0  0  0  0  0  0  0  0  0
    1.5033   -0.7573    1.1328 C   0  0  0  0  0  0  0  0  0  0  0  0
    2.7727   -0.6226    0.7063 C   0  0  0  0  0  0  0  0  0  0  0  0
    3.2643    0.4819   -0.0416 C   0  0  0  0  0  0  0  0  0  0  0  0
    4.5538    1.0017   -0.0692 C   0  0  0  0  0  0  0  0  0  0  0  0
    4.5712    2.0798   -0.9856 C   0  0  0  0  0  0  0  0  0  0  0  0
    3.2997    2.1591   -1.4910 C   0  0  0  0  0  0  0  0  0  0  0  0
    2.5148    1.1985   -0.9485 O   0  0  0  0  0  0  0  0  0  0  0  0
   -1.2203    1.8451   -0.1454 H   0  0  0  0  0  0  0  0  0  0  0  0
   -3.6868    2.6370   -0.9660 H   0  0  0  0  0  0  0  0  0  0  0  0
   -5.8595    1.3291   -1.9592 H   0  0  0  0  0  0  0  0  0  0  0  0
   -5.2035   -1.3457   -1.7196 H   0  0  0  0  0  0  0  0  0  0  0  0
   -0.9633   -2.1642   -0.1408 H   0  0  0  0  0  0  0  0  0  0  0  0
   -2.2828   -1.6769    0.9362 H   0  0  0  0  0  0  0  0  0  0  0  0
   -0.7682   -3.1515    2.1464 H   0  0  0  0  0  0  0  0  0  0  0  0
   -0.7696   -1.5431    2.8585 H   0  0  0  0  0  0  0  0  0  0  0  0
    1.5210   -2.1445    2.7653 H   0  0  0  0  0  0  0  0  0  0  0  0
    1.3585   -2.8818    1.1699 H   0  0  0  0  0  0  0  0  0  0  0  0
    3.4814   -1.4232    0.9001 H   0  0  0  0  0  0  0  0  0  0  0  0
    5.3844    0.6441    0.5236 H   0  0  0  0  0  0  0  0  0  0  0  0
    5.4042    2.7180   -1.2426 H   0  0  0  0  0  0  0  0  0  0  0  0
    2.8152    2.8067   -2.2078 H   0  0  0  0  0  0  0  0  0  0  0  0
  1  2  2  0
  2  3  1  0
  3  4  2  3
  4  5  1  0
  5  6  2  0
  6  7  1  0
  7  8  2  0
  8  9  1  0
  3 10  1  0
 10 11  1  0
 11 12  1  0
 12 13  1  0
 13 14  2  3
 14 15  1  0
 15 16  2  0
 16 17  1  0
 17 18  2  0
 18 19  1  0
 13  2  1  0
 19 15  1  0
  9  5  1  0
  4 20  1  0
  6 21  1  0
  7 22  1  0
  8 23  1  0
 10 24  1  0
 10 25  1  0
 11 26  1  0
 11 27  1  0
 12 28  1  0
 12 29  1  0
 14 30  1  0
 16 31  1  0
 17 32  1  0
 18 33  1  0
M  END
$$$$
