
     RDKit          3D

 51 54  0  0  0  0  0  0  0  0999 V2000
   -3.5457   -4.4727    2.1322 C   0  0  0  0  0  0  0  0  0  0  0  0
   -2.2691   -4.4830    1.5031 O   0  0  0  0  0  0  0  0  0  0  0  0
   -1.7515   -3.2774    1.1162 C   0  0  0  0  0  0  0  0  0  0  0  0
   -2.3172   -2.0341    1.3845 C   0  0  0  0  0  0  0  0  0  0  0  0
   -1.6947   -0.8554    0.9285 C   0  0  0  0  0  0  0  0  0  0  0  0
   -2.3027    0.4442    1.2571 C   0  0  0  0  0  0  0  0  0  0  0  0
   -3.3232    0.4639    1.9416 O   0  0  0  0  0  0  0  0  0  0  0  0
   -1.6551    1.5752    0.7878 N   0  0  0  0  0  0  0  0  0  0  0  0
   -2.2512    2.8678    1.0925 C   0  0  0  0  0  0  0  0  0  0  0  0
   -3.0531    3.3355   -0.0729 C   0  0  0  0  0  0  0  0  0  0  0  0
   -2.7573    4.1165   -1.1714 C   0  0  0  0  0  0  0  0  0  0  0  0
   -3.9471    4.2052   -1.9309 C   0  0  0  0  0  0  0  0  0  0  0  0
   -4.8921    3.4763   -1.2491 C   0  0  0  0  0  0  0  0  0  0  0  0
   -4.3593    2.9455   -0.1204 O   0  0  0  0  0  0  0  0  0  0  0  0
   -0.4706    1.5692    0.0674 C   0  0  0  0  0  0  0  0  0  0  0  0
    0.0960    2.6143   -0.2681 O   0  0  0  0  0  0  0  0  0  0  0  0
    0.0593    0.3278   -0.2709 N   0  0  0  0  0  0  0  0  0  0  0  0
    1.3079    0.3374   -1.0390 C   0  0  0  0  0  0  0  0  0  0  0  0
    2.5282    0.3630   -0.1179 C   0  0  0  0  0  0  0  0  0  0  0  0
    2.4919   -0.0411    1.0458 O   0  0  0  0  0  0  0  0  0  0  0  0
    3.8260    0.8611   -0.6656 C   0  0  0  0  0  0  0  0  0  0  0  0
    4.8541    1.1689    0.2396 C   0  0  0  0  0  0  0  0  0  0  0  0
    6.0880    1.6358   -0.2195 C   0  0  0  0  0  0  0  0  0  0  0  0
    6.3066    1.7933   -1.5870 C   0  0  0  0  0  0  0  0  0  0  0  0
    5.2896    1.4803   -2.4878 C   0  0  0  0  0  0  0  0  0  0  0  0
    5.5909    1.6860   -4.3443 Br  0  0  0  0  0  0  0  0  0  0  0  0
    4.0511    1.0132   -2.0391 C   0  0  0  0  0  0  0  0  0  0  0  0
   -0.5145   -0.8904    0.1856 C   0  0  0  0  0  0  0  0  0  0  0  0
    0.0577   -2.1428   -0.0697 C   0  0  0  0  0  0  0  0  0  0  0  0
   -0.5459   -3.3131    0.4069 C   0  0  0  0  0  0  0  0  0  0  0  0
    0.0531   -4.5094    0.0941 O   0  0  0  0  0  0  0  0  0  0  0  0
    0.9049   -4.9202    1.1650 C   0  0  0  0  0  0  0  0  0  0  0  0
   -3.5058   -3.9522    3.0955 H   0  0  0  0  0  0  0  0  0  0  0  0
   -3.8298   -5.5116    2.3282 H   0  0  0  0  0  0  0  0  0  0  0  0
   -4.3077   -4.0372    1.4761 H   0  0  0  0  0  0  0  0  0  0  0  0
   -3.2407   -1.9455    1.9493 H   0  0  0  0  0  0  0  0  0  0  0  0
   -1.4635    3.5966    1.3159 H   0  0  0  0  0  0  0  0  0  0  0  0
   -2.8870    2.8059    1.9823 H   0  0  0  0  0  0  0  0  0  0  0  0
   -1.7953    4.5586   -1.3923 H   0  0  0  0  0  0  0  0  0  0  0  0
   -4.0987    4.7338   -2.8601 H   0  0  0  0  0  0  0  0  0  0  0  0
   -5.9344    3.2489   -1.4234 H   0  0  0  0  0  0  0  0  0  0  0  0
    1.3179    1.2331   -1.6699 H   0  0  0  0  0  0  0  0  0  0  0  0
    1.3611   -0.5204   -1.7153 H   0  0  0  0  0  0  0  0  0  0  0  0
    4.6966    1.0503    1.3113 H   0  0  0  0  0  0  0  0  0  0  0  0
    6.8764    1.8754    0.4908 H   0  0  0  0  0  0  0  0  0  0  0  0
    7.2686    2.1580   -1.9391 H   0  0  0  0  0  0  0  0  0  0  0  0
    3.2880    0.7684   -2.7718 H   0  0  0  0  0  0  0  0  0  0  0  0
    0.9857   -2.2583   -0.6179 H   0  0  0  0  0  0  0  0  0  0  0  0
    1.2226   -5.9477    0.9605 H   0  0  0  0  0  0  0  0  0  0  0  0
    0.3918   -4.9109    2.1354 H   0  0  0  0  0  0  0  0  0  0  0  0
    1.7991   -4.2863    1.2032 H   0  0  0  0  0  0  0  0  0  0  0  0
  1  2  1  0
  2  3  1  0
  3  4  2  0
  4  5  1  0
  5  6  1  0
  6  7  2  0
  6  8  1  0
  8  9  1  0
  9 10  1  0
 10 11  2  0
 11 12  1  0
 12 13  2  0
 13 14  1  0
  8 15  1  0
 15 16  2  0
 15 17  1  0
 17 18  1  0
 18 19  1  0
 19 20  2  0
 19 21  1  0
 21 22  2  0
 22 23  1  0
 23 24  2  0
 24 25  1  0
 25 26  1  0
 25 27  2  0
 17 28  1  0
 28 29  1  0
 29 30  2  0
 30 31  1  0
 31 32  1  0
 30  3  1  0
 28  5  2  0
 14 10  1  0
 27 21  1  0
  1 33  1  0
  1 34  1  0
  1 35  1  0
  4 36  1  0
  9 37  1  0
  9 38  1  0
 11 39  1  0
 12 40  1  0
 13 41  1  0
 18 42  1  0
 18 43  1  0
 22 44  1  0
 23 45  1  0
 24 46  1  0
 27 47  1  0
 29 48  1  0
 32 49  1  0
 32 50  1  0
 32 51  1  0
M  END
$$$$
