
     RDKit          3D

 58 62  0  0  0  0  0  0  0  0999 V2000
    8.2146    1.1999    0.8991 C   0  0  0  0  0  0  0  0  0  0  0  0
    7.2167    2.2044    0.7585 O   0  0  0  0  0  0  0  0  0  0  0  0
    5.9156    1.7895    0.7891 C   0  0  0  0  0  0  0  0  0  0  0  0
    4.9738    2.8132    0.6608 C   0  0  0  0  0  0  0  0  0  0  0  0
    3.6044    2.5341    0.6872 C   0  0  0  0  0  0  0  0  0  0  0  0
    3.1610    1.2204    0.8443 C   0  0  0  0  0  0  0  0  0  0  0  0
    1.6897    0.8951    0.8801 C   0  0  0  0  0  0  0  0  0  0  0  0
    1.1569    0.4481   -0.4904 C   0  0  0  0  0  0  0  0  0  0  0  0
   -0.2044   -0.1163   -0.3433 N   0  0  0  0  0  0  0  0  0  0  0  0
   -1.3392    0.7120   -0.3266 C   0  0  0  0  0  0  0  0  0  0  0  0
   -1.3082    2.0014   -0.5328 N   0  0  0  0  0  0  0  0  0  0  0  0
   -2.6968    0.1125   -0.0482 C   0  0  0  0  0  0  0  0  0  0  0  0
   -4.0010    0.8470   -0.0154 C   0  0  0  0  0  0  0  0  0  0  0  0
   -5.0386    0.3052    0.3591 O   0  0  0  0  0  0  0  0  0  0  0  0
   -3.9455    2.1519   -0.4222 N   0  0  0  0  0  0  0  0  0  0  0  0
   -5.0670    3.0548   -0.3159 C   0  0  0  0  0  0  0  0  0  0  0  0
   -5.9576    2.9583   -1.5042 C   0  0  0  0  0  0  0  0  0  0  0  0
   -6.0048    2.1595   -2.6315 C   0  0  0  0  0  0  0  0  0  0  0  0
   -7.1455    2.5611   -3.3712 C   0  0  0  0  0  0  0  0  0  0  0  0
   -7.7279    3.5846   -2.6565 C   0  0  0  0  0  0  0  0  0  0  0  0
   -7.0110    3.8384   -1.5290 O   0  0  0  0  0  0  0  0  0  0  0  0
   -2.7174   -1.2079    0.2137 C   0  0  0  0  0  0  0  0  0  0  0  0
   -1.5205   -2.0293    0.2262 C   0  0  0  0  0  0  0  0  0  0  0  0
   -1.6258   -3.4754    0.5849 C   0  0  0  0  0  0  0  0  0  0  0  0
   -2.7191   -3.9658    0.8750 O   0  0  0  0  0  0  0  0  0  0  0  0
   -0.4386   -4.1878    0.5822 N   0  0  0  0  0  0  0  0  0  0  0  0
   -0.4442   -5.5373    0.9228 C   0  0  0  0  0  0  0  0  0  0  0  0
    0.6793   -6.2664    0.9296 C   0  0  0  0  0  0  0  0  0  0  0  0
    1.9312   -5.6587    0.5713 C   0  0  0  0  0  0  0  0  0  0  0  0
    1.9819   -4.3646    0.2426 C   0  0  0  0  0  0  0  0  0  0  0  0
    0.7371   -3.5446    0.2533 C   0  0  0  0  0  0  0  0  0  0  0  0
    0.8255   -2.2891   -0.0394 N   0  0  0  0  0  0  0  0  0  0  0  0
   -0.3073   -1.5068   -0.0498 C   0  0  0  0  0  0  0  0  0  0  0  0
    4.1077    0.1939    0.9617 C   0  0  0  0  0  0  0  0  0  0  0  0
    5.4768    0.4756    0.9360 C   0  0  0  0  0  0  0  0  0  0  0  0
    9.1882    1.7033    0.8931 H   0  0  0  0  0  0  0  0  0  0  0  0
    8.1173    0.6681    1.8571 H   0  0  0  0  0  0  0  0  0  0  0  0
    8.1922    0.5004    0.0517 H   0  0  0  0  0  0  0  0  0  0  0  0
    5.3102    3.8397    0.5465 H   0  0  0  0  0  0  0  0  0  0  0  0
    2.8949    3.3518    0.5944 H   0  0  0  0  0  0  0  0  0  0  0  0
    1.5228    0.1144    1.6372 H   0  0  0  0  0  0  0  0  0  0  0  0
    1.1260    1.7662    1.2390 H   0  0  0  0  0  0  0  0  0  0  0  0
    1.8312   -0.2870   -0.9491 H   0  0  0  0  0  0  0  0  0  0  0  0
    1.1719    1.2819   -1.2060 H   0  0  0  0  0  0  0  0  0  0  0  0
   -0.3596    2.3301   -0.7059 H   0  0  0  0  0  0  0  0  0  0  0  0
   -3.0192    2.5352   -0.6109 H   0  0  0  0  0  0  0  0  0  0  0  0
   -4.6624    4.0712   -0.2389 H   0  0  0  0  0  0  0  0  0  0  0  0
   -5.6297    2.8351    0.6023 H   0  0  0  0  0  0  0  0  0  0  0  0
   -5.3035    1.3672   -2.8739 H   0  0  0  0  0  0  0  0  0  0  0  0
   -7.5062    2.1507   -4.3057 H   0  0  0  0  0  0  0  0  0  0  0  0
   -8.6030    4.1966   -2.8035 H   0  0  0  0  0  0  0  0  0  0  0  0
   -3.6617   -1.7116    0.4294 H   0  0  0  0  0  0  0  0  0  0  0  0
   -1.4026   -5.9781    1.1854 H   0  0  0  0  0  0  0  0  0  0  0  0
    0.6630   -7.3148    1.1892 H   0  0  0  0  0  0  0  0  0  0  0  0
    2.8257   -6.2741    0.5688 H   0  0  0  0  0  0  0  0  0  0  0  0
    2.9014   -3.8702   -0.0367 H   0  0  0  0  0  0  0  0  0  0  0  0
    3.7805   -0.8353    1.0785 H   0  0  0  0  0  0  0  0  0  0  0  0
    6.1710   -0.3520    1.0367 H   0  0  0  0  0  0  0  0  0  0  0  0
  1  2  1  0
  2  3  1  0
  3  4  2  0
  4  5  1  0
  5  6  2  0
  6  7  1  0
  7  8  1  0
  8  9  1  0
  9 10  1  0
 10 11  2  3
 10 12  1  0
 12 13  1  0
 13 14  2  0
 13 15  1  0
 15 16  1  0
 16 17  1  0
 17 18  2  0
 18 19  1  0
 19 20  2  0
 20 21  1  0
 12 22  2  0
 22 23  1  0
 23 24  1  0
 24 25  2  0
 24 26  1  0
 26 27  1  0
 27 28  2  0
 28 29  1  0
 29 30  2  0
 30 31  1  0
 31 32  2  0
 32 33  1  0
  6 34  1  0
 34 35  2  0
 35  3  1  0
 33  9  1  0
 21 17  1  0
 33 23  2  0
 31 26  1  0
  1 36  1  0
  1 37  1  0
  1 38  1  0
  4 39  1  0
  5 40  1  0
  7 41  1  0
  7 42  1  0
  8 43  1  0
  8 44  1  0
 11 45  1  0
 15 46  1  0
 16 47  1  0
 16 48  1  0
 18 49  1  0
 19 50  1  0
 20 51  1  0
 22 52  1  0
 27 53  1  0
 28 54  1  0
 29 55  1  0
 30 56  1  0
 34 57  1  0
 35 58  1  0
M  END
$$$$
