
     RDKit          3D

 53 58  0  0  0  0  0  0  0  0999 V2000
   -1.2580    2.0342    0.1066 O   0  0  0  0  0  0  0  0  0  0  0  0
   -1.6049    0.9796   -0.4347 C   0  0  0  0  0  0  0  0  0  0  0  0
   -0.7222    0.4304   -1.5778 C   0  0  0  0  0  0  0  0  0  0  0  0
    0.6974    0.5019   -1.1867 N   0  0  0  0  0  4  0  0  0  0  0  0
    1.4515   -0.5152   -0.6034 C   0  0  0  0  0  0  0  0  0  0  0  0
    2.7136   -0.0213   -0.2953 C   0  0  0  0  0  0  0  0  0  0  0  0
    3.8950   -0.8281    0.3568 C   0  0  0  0  0  0  0  0  0  0  0  0
    5.1450   -0.2354    0.5493 C   0  0  0  0  0  0  0  0  0  0  0  0
    6.1877   -0.9656    1.1334 C   0  0  0  0  0  0  0  0  0  0  0  0
    5.9822   -2.2870    1.5220 C   0  0  0  0  0  0  0  0  0  0  0  0
    7.2653   -3.1814    2.2377 Cl  0  0  0  0  0  0  0  0  0  0  0  0
    4.7419   -2.8880    1.3285 C   0  0  0  0  0  0  0  0  0  0  0  0
    3.6977   -2.1608    0.7456 C   0  0  0  0  0  0  0  0  0  0  0  0
    2.6434    1.3006   -0.6944 N   0  0  0  0  0  0  0  0  0  0  0  0
    1.4527    1.5945   -1.2105 C   0  0  0  0  0  0  0  0  0  0  0  0
    1.3378    3.0059   -1.6479 C   0  0  0  0  0  0  0  0  0  0  0  0
    2.5676    3.6489   -0.9779 C   0  0  0  0  0  0  0  0  0  0  0  0
    3.5208    2.4633   -0.6642 C   0  0  0  0  0  0  0  0  0  0  0  0
   -2.6451    0.1313   -0.0195 N   0  0  0  0  0  0  0  0  0  0  0  0
   -3.0448    0.0437    1.3670 C   0  0  0  0  0  0  0  0  0  0  0  0
   -2.9083    1.1379    2.2413 C   0  0  0  0  0  0  0  0  0  0  0  0
   -3.2786    1.0540    3.5892 C   0  0  0  0  0  0  0  0  0  0  0  0
   -3.7871   -0.1311    4.1004 C   0  0  0  0  0  0  0  0  0  0  0  0
   -3.9265   -1.2328    3.2616 C   0  0  0  0  0  0  0  0  0  0  0  0
   -3.5625   -1.1515    1.9072 C   0  0  0  0  0  0  0  0  0  0  0  0
   -3.6862   -2.6447    0.9485 S   0  0  0  0  0  0  0  0  0  0  0  0
   -3.9232   -1.9158   -0.6468 C   0  0  0  0  0  0  0  0  0  0  0  0
   -4.6260   -2.6535   -1.6106 C   0  0  0  0  0  0  0  0  0  0  0  0
   -4.8398   -2.1345   -2.8851 C   0  0  0  0  0  0  0  0  0  0  0  0
   -4.3590   -0.8700   -3.2020 C   0  0  0  0  0  0  0  0  0  0  0  0
   -3.6461   -0.1361   -2.2503 C   0  0  0  0  0  0  0  0  0  0  0  0
   -3.3920   -0.6575   -0.9650 C   0  0  0  0  0  0  0  0  0  0  0  0
   -0.8687    1.0396   -2.4744 H   0  0  0  0  0  0  0  0  0  0  0  0
   -0.9356   -0.6149   -1.8118 H   0  0  0  0  0  0  0  0  0  0  0  0
    0.9853   -1.4787   -0.4829 H   0  0  0  0  0  0  0  0  0  0  0  0
    5.3531    0.7830    0.2494 H   0  0  0  0  0  0  0  0  0  0  0  0
    7.1599   -0.5005    1.2813 H   0  0  0  0  0  0  0  0  0  0  0  0
    4.5823   -3.9212    1.6318 H   0  0  0  0  0  0  0  0  0  0  0  0
    2.7449   -2.6663    0.6178 H   0  0  0  0  0  0  0  0  0  0  0  0
    0.3924    3.4253   -1.3077 H   0  0  0  0  0  0  0  0  0  0  0  0
    1.4111    2.9982   -2.7385 H   0  0  0  0  0  0  0  0  0  0  0  0
    2.2594    4.1137   -0.0333 H   0  0  0  0  0  0  0  0  0  0  0  0
    3.0366    4.4199   -1.5960 H   0  0  0  0  0  0  0  0  0  0  0  0
    3.9817    2.5829    0.3192 H   0  0  0  0  0  0  0  0  0  0  0  0
    4.2811    2.3501   -1.4432 H   0  0  0  0  0  0  0  0  0  0  0  0
   -2.5586    2.1074    1.8995 H   0  0  0  0  0  0  0  0  0  0  0  0
   -3.1767    1.9240    4.2354 H   0  0  0  0  0  0  0  0  0  0  0  0
   -4.0771   -0.1978    5.1468 H   0  0  0  0  0  0  0  0  0  0  0  0
   -4.3175   -2.1611    3.6750 H   0  0  0  0  0  0  0  0  0  0  0  0
   -5.0229   -3.6393   -1.3693 H   0  0  0  0  0  0  0  0  0  0  0  0
   -5.4019   -2.7086   -3.6201 H   0  0  0  0  0  0  0  0  0  0  0  0
   -4.5642   -0.4469   -4.1831 H   0  0  0  0  0  0  0  0  0  0  0  0
   -3.3540    0.8752   -2.5190 H   0  0  0  0  0  0  0  0  0  0  0  0
  1  2  2  0
  2  3  1  0
  3  4  1  0
  4  5  1  0
  5  6  2  0
  6  7  1  0
  7  8  2  0
  8  9  1  0
  9 10  2  0
 10 11  1  0
 10 12  1  0
 12 13  2  0
  6 14  1  0
 14 15  1  0
 15 16  1  0
 16 17  1  0
 17 18  1  0
  2 19  1  0
 19 20  1  0
 20 21  2  0
 21 22  1  0
 22 23  2  0
 23 24  1  0
 24 25  2  0
 25 26  1  0
 26 27  1  0
 27 28  2  0
 28 29  1  0
 29 30  2  0
 30 31  1  0
 31 32  2  0
 15  4  2  0
 32 19  1  0
 13  7  1  0
 18 14  1  0
 25 20  1  0
 32 27  1  0
  3 33  1  0
  3 34  1  0
  5 35  1  0
  8 36  1  0
  9 37  1  0
 12 38  1  0
 13 39  1  0
 16 40  1  0
 16 41  1  0
 17 42  1  0
 17 43  1  0
 18 44  1  0
 18 45  1  0
 21 46  1  0
 22 47  1  0
 23 48  1  0
 24 49  1  0
 28 50  1  0
 29 51  1  0
 30 52  1  0
 31 53  1  0
M  CHG  1   4   1
M  END
$$$$
