
     RDKit          3D

 44 44  0  0  0  0  0  0  0  0999 V2000
   -4.7381   -1.3683    0.0801 C   0  0  0  0  0  0  0  0  0  0  0  0
   -4.3820   -0.3239   -0.9684 C   0  0  0  0  0  0  0  0  0  0  0  0
   -3.8346    0.8887   -0.3457 N   0  0  0  0  0  0  0  0  0  0  0  0
   -4.8143    1.9241    0.0066 C   0  0  0  0  0  0  0  0  0  0  0  0
   -4.9484    2.9482   -1.1113 C   0  0  0  0  0  0  0  0  0  0  0  0
   -2.4802    1.0199   -0.0500 C   0  0  0  0  0  0  0  0  0  0  0  0
   -1.9349    2.2110    0.4602 C   0  0  0  0  0  0  0  0  0  0  0  0
   -0.5744    2.3447    0.7691 C   0  0  0  0  0  0  0  0  0  0  0  0
    0.2996    1.2843    0.5630 C   0  0  0  0  0  0  0  0  0  0  0  0
   -0.1899    0.0974    0.0358 C   0  0  0  0  0  0  0  0  0  0  0  0
    0.5604   -1.0222   -0.2050 O   0  0  0  0  0  0  0  0  0  0  0  0
    1.9091   -0.8071   -0.5997 C   0  0  0  0  0  0  0  0  0  0  0  0
    2.9505   -0.8554    0.5330 C   0  0  0  0  0  0  0  0  0  0  0  0
    2.6175   -0.9381    1.7162 O   0  0  0  0  0  0  0  0  0  0  0  0
    4.3000   -0.7846    0.1642 N   0  0  0  0  0  0  0  0  0  0  0  0
    4.7641   -0.7439   -1.2168 C   0  0  0  0  0  0  0  0  0  0  0  0
    5.3156   -0.9519    1.2129 C   0  0  0  0  0  0  0  0  0  0  0  0
    6.0564   -2.2885    1.1761 C   0  0  0  0  0  0  0  0  0  0  0  0
    5.1716   -3.4369    1.3995 C   0  0  0  0  0  0  0  0  0  0  0  0
    4.5117   -4.3797    1.5469 N   0  0  0  0  0  0  0  0  0  0  0  0
   -1.5600   -0.0275   -0.2441 C   0  0  0  0  0  0  0  0  0  0  0  0
   -5.1643   -2.2547   -0.4000 H   0  0  0  0  0  0  0  0  0  0  0  0
   -3.8619   -1.6827    0.6549 H   0  0  0  0  0  0  0  0  0  0  0  0
   -5.4765   -0.9788    0.7887 H   0  0  0  0  0  0  0  0  0  0  0  0
   -5.2924   -0.0701   -1.5266 H   0  0  0  0  0  0  0  0  0  0  0  0
   -3.7020   -0.7383   -1.7210 H   0  0  0  0  0  0  0  0  0  0  0  0
   -4.5723    2.4103    0.9583 H   0  0  0  0  0  0  0  0  0  0  0  0
   -5.7969    1.4636    0.1711 H   0  0  0  0  0  0  0  0  0  0  0  0
   -5.2639    2.4710   -2.0450 H   0  0  0  0  0  0  0  0  0  0  0  0
   -4.0028    3.4632   -1.3057 H   0  0  0  0  0  0  0  0  0  0  0  0
   -5.6966    3.7015   -0.8457 H   0  0  0  0  0  0  0  0  0  0  0  0
   -2.5586    3.0812    0.6373 H   0  0  0  0  0  0  0  0  0  0  0  0
   -0.2060    3.2795    1.1830 H   0  0  0  0  0  0  0  0  0  0  0  0
    1.3389    1.4003    0.8482 H   0  0  0  0  0  0  0  0  0  0  0  0
    2.1486   -1.6257   -1.2883 H   0  0  0  0  0  0  0  0  0  0  0  0
    2.0127    0.1298   -1.1604 H   0  0  0  0  0  0  0  0  0  0  0  0
    4.0379   -0.2654   -1.8754 H   0  0  0  0  0  0  0  0  0  0  0  0
    5.6991   -0.1786   -1.2694 H   0  0  0  0  0  0  0  0  0  0  0  0
    4.9323   -1.7688   -1.5592 H   0  0  0  0  0  0  0  0  0  0  0  0
    6.0383   -0.1366    1.0852 H   0  0  0  0  0  0  0  0  0  0  0  0
    4.8681   -0.8110    2.2033 H   0  0  0  0  0  0  0  0  0  0  0  0
    6.5704   -2.4079    0.2156 H   0  0  0  0  0  0  0  0  0  0  0  0
    6.8351   -2.2802    1.9478 H   0  0  0  0  0  0  0  0  0  0  0  0
   -1.8869   -0.9919   -0.6193 H   0  0  0  0  0  0  0  0  0  0  0  0
  1  2  1  0
  2  3  1  0
  3  4  1  0
  4  5  1  0
  3  6  1  0
  6  7  2  0
  7  8  1  0
  8  9  2  0
  9 10  1  0
 10 11  1  0
 11 12  1  0
 12 13  1  0
 13 14  2  0
 13 15  1  0
 15 16  1  0
 15 17  1  0
 17 18  1  0
 18 19  1  0
 19 20  3  0
 10 21  2  0
 21  6  1  0
  1 22  1  0
  1 23  1  0
  1 24  1  0
  2 25  1  0
  2 26  1  0
  4 27  1  0
  4 28  1  0
  5 29  1  0
  5 30  1  0
  5 31  1  0
  7 32  1  0
  8 33  1  0
  9 34  1  0
 12 35  1  0
 12 36  1  0
 16 37  1  0
 16 38  1  0
 16 39  1  0
 17 40  1  0
 17 41  1  0
 18 42  1  0
 18 43  1  0
 21 44  1  0
M  END
$$$$
