
     RDKit          3D

 47 49  0  0  0  0  0  0  0  0999 V2000
   -2.6067    1.1185   -0.6227 O   0  0  0  0  0  0  0  0  0  0  0  0
   -2.8924   -0.0147   -0.2502 C   0  0  0  0  0  0  0  0  0  0  0  0
   -4.3375   -0.4554    0.0268 C   0  0  0  0  0  0  0  0  0  0  0  0
   -5.2621    0.5850   -0.2498 O   0  0  0  0  0  0  0  0  0  0  0  0
   -6.5878    0.3170   -0.0568 C   0  0  0  0  0  0  0  0  0  0  0  0
   -7.1249   -0.8779    0.4254 C   0  0  0  0  0  0  0  0  0  0  0  0
   -8.5098   -1.0154    0.5743 C   0  0  0  0  0  0  0  0  0  0  0  0
   -9.3544    0.0418    0.2408 C   0  0  0  0  0  0  0  0  0  0  0  0
  -11.2234   -0.1498    0.4430 Br  0  0  0  0  0  0  0  0  0  0  0  0
   -8.8285    1.2368   -0.2406 C   0  0  0  0  0  0  0  0  0  0  0  0
   -7.4462    1.3701   -0.3867 C   0  0  0  0  0  0  0  0  0  0  0  0
   -1.9883   -1.0475   -0.0189 N   0  0  0  0  0  0  0  0  0  0  0  0
   -0.5869   -1.0121   -0.1750 C   0  0  0  0  0  0  0  0  0  0  0  0
    0.1222    0.1004   -0.6327 C   0  0  0  0  0  0  0  0  0  0  0  0
    1.5170    0.0566   -0.7612 C   0  0  0  0  0  0  0  0  0  0  0  0
    2.2198   -1.1041   -0.4217 C   0  0  0  0  0  0  0  0  0  0  0  0
    3.7039   -1.1979   -0.5428 C   0  0  0  0  0  0  0  0  0  0  0  0
    4.1932   -2.2878   -0.8146 O   0  0  0  0  0  0  0  0  0  0  0  0
    4.3846   -0.0241   -0.2901 N   0  0  0  0  0  0  0  0  0  0  0  0
    5.7774    0.2245   -0.3564 C   0  0  0  0  0  0  0  0  0  0  0  0
    6.6783   -0.7466   -0.8154 C   0  0  0  0  0  0  0  0  0  0  0  0
    8.0516   -0.4887   -0.8798 C   0  0  0  0  0  0  0  0  0  0  0  0
    8.5509    0.7466   -0.4883 C   0  0  0  0  0  0  0  0  0  0  0  0
    7.6741    1.7289   -0.0343 C   0  0  0  0  0  0  0  0  0  0  0  0
    6.2890    1.4838    0.0346 C   0  0  0  0  0  0  0  0  0  0  0  0
    5.4665    2.6220    0.5364 C   0  0  0  0  0  0  0  0  0  0  0  0
    5.8979    3.7012    0.9019 O   0  0  0  0  0  0  0  0  0  0  0  0
    4.1384    2.3877    0.5643 O   0  0  0  0  0  0  0  0  0  0  0  0
    1.5128   -2.2268    0.0199 C   0  0  0  0  0  0  0  0  0  0  0  0
    0.1205   -2.1785    0.1451 C   0  0  0  0  0  0  0  0  0  0  0  0
   -4.5444   -1.3213   -0.6138 H   0  0  0  0  0  0  0  0  0  0  0  0
   -4.3934   -0.7361    1.0859 H   0  0  0  0  0  0  0  0  0  0  0  0
   -6.5006   -1.7225    0.6959 H   0  0  0  0  0  0  0  0  0  0  0  0
   -8.9182   -1.9497    0.9506 H   0  0  0  0  0  0  0  0  0  0  0  0
   -9.4778    2.0670   -0.5042 H   0  0  0  0  0  0  0  0  0  0  0  0
   -7.0318    2.3032   -0.7628 H   0  0  0  0  0  0  0  0  0  0  0  0
   -2.3704   -1.9271    0.3059 H   0  0  0  0  0  0  0  0  0  0  0  0
   -0.3794    1.0219   -0.9131 H   0  0  0  0  0  0  0  0  0  0  0  0
    2.0279    0.9316   -1.1549 H   0  0  0  0  0  0  0  0  0  0  0  0
    3.8414    0.7654    0.0568 H   0  0  0  0  0  0  0  0  0  0  0  0
    6.3420   -1.7266   -1.1407 H   0  0  0  0  0  0  0  0  0  0  0  0
    8.7275   -1.2618   -1.2390 H   0  0  0  0  0  0  0  0  0  0  0  0
    9.6185    0.9462   -0.5379 H   0  0  0  0  0  0  0  0  0  0  0  0
    8.0776    2.6943    0.2676 H   0  0  0  0  0  0  0  0  0  0  0  0
    3.7808    3.2340    0.9176 H   0  0  0  0  0  0  0  0  0  0  0  0
    2.0461   -3.1427    0.2705 H   0  0  0  0  0  0  0  0  0  0  0  0
   -0.3952   -3.0694    0.4945 H   0  0  0  0  0  0  0  0  0  0  0  0
  1  2  2  0
  2  3  1  0
  3  4  1  0
  4  5  1  0
  5  6  2  0
  6  7  1  0
  7  8  2  0
  8  9  1  0
  8 10  1  0
 10 11  2  0
  2 12  1  0
 12 13  1  0
 13 14  2  0
 14 15  1  0
 15 16  2  0
 16 17  1  0
 17 18  2  0
 17 19  1  0
 19 20  1  0
 20 21  2  0
 21 22  1  0
 22 23  2  0
 23 24  1  0
 24 25  2  0
 25 26  1  0
 26 27  2  0
 26 28  1  0
 16 29  1  0
 29 30  2  0
 11  5  1  0
 30 13  1  0
 25 20  1  0
  3 31  1  0
  3 32  1  0
  6 33  1  0
  7 34  1  0
 10 35  1  0
 11 36  1  0
 12 37  1  0
 14 38  1  0
 15 39  1  0
 19 40  1  0
 21 41  1  0
 22 42  1  0
 23 43  1  0
 24 44  1  0
 28 45  1  0
 29 46  1  0
 30 47  1  0
M  END
$$$$
