
     RDKit          3D

 59 62  0  0  0  0  0  0  0  0999 V2000
   -8.0019    1.3815   -3.4567 C   0  0  0  0  0  0  0  0  0  0  0  0
   -7.4402    1.6647   -2.1806 O   0  0  0  0  0  0  0  0  0  0  0  0
   -6.2249    1.0955   -1.8978 C   0  0  0  0  0  0  0  0  0  0  0  0
   -5.5553    0.1544   -2.6806 C   0  0  0  0  0  0  0  0  0  0  0  0
   -4.3138   -0.3490   -2.2675 C   0  0  0  0  0  0  0  0  0  0  0  0
   -3.7338    0.0767   -1.0668 C   0  0  0  0  0  0  0  0  0  0  0  0
   -2.4368   -0.4524   -0.6641 C   0  0  0  0  0  0  0  0  0  0  0  0
   -1.2105   -0.3465   -1.3023 C   0  0  0  0  0  0  0  0  0  0  0  0
   -0.2370   -1.0264   -0.6295 N   0  0  0  0  0  0  0  0  0  0  0  0
   -0.8432   -1.5543    0.4109 C   0  0  0  0  0  0  0  0  0  0  0  0
   -0.0459   -2.5399    1.5938 S   0  0  0  0  0  0  0  0  0  0  0  0
    1.3049   -3.2523    0.6102 C   0  0  0  0  0  0  0  0  0  0  0  0
    2.5451   -2.3715    0.6341 C   0  0  0  0  0  0  0  0  0  0  0  0
    3.5266   -2.7009    1.2940 O   0  0  0  0  0  0  0  0  0  0  0  0
    2.4260   -1.2596   -0.1668 N   0  0  0  0  0  0  0  0  0  0  0  0
    3.4413   -0.3675   -0.3558 C   0  0  0  0  0  0  0  0  0  0  0  0
    4.6867   -0.4231    0.0376 N   0  0  0  0  0  0  0  0  0  0  0  0
    5.3738    0.7008   -0.3984 C   0  0  0  0  0  0  0  0  0  0  0  0
    6.8456    0.8577   -0.0422 C   0  0  0  0  0  0  0  0  0  0  0  0
    7.4184   -0.4248    0.5995 C   0  0  0  0  0  0  0  0  0  0  0  0
    7.0126    2.0171    0.9642 C   0  0  0  0  0  0  0  0  0  0  0  0
    7.6762    1.1603   -1.3078 C   0  0  0  0  0  0  0  0  0  0  0  0
    4.5971    1.5916   -1.1206 C   0  0  0  0  0  0  0  0  0  0  0  0
    2.9952    1.0033   -1.2642 S   0  0  0  0  0  0  0  0  0  0  0  0
   -2.1789   -1.2344    0.4518 N   0  0  0  0  0  0  0  0  0  0  0  0
   -3.1662   -1.7185    1.4110 C   0  0  0  0  0  0  0  0  0  0  0  0
   -3.3568   -0.7695    2.5389 C   0  0  0  0  0  0  0  0  0  0  0  0
   -2.5095   -0.0788    3.3844 C   0  0  0  0  0  0  0  0  0  0  0  0
   -3.3355    0.6617    4.2608 C   0  0  0  0  0  0  0  0  0  0  0  0
   -4.6315    0.3727    3.9044 C   0  0  0  0  0  0  0  0  0  0  0  0
   -4.6537   -0.4911    2.8618 O   0  0  0  0  0  0  0  0  0  0  0  0
   -4.4043    1.0245   -0.2887 C   0  0  0  0  0  0  0  0  0  0  0  0
   -5.6453    1.5219   -0.7000 C   0  0  0  0  0  0  0  0  0  0  0  0
   -8.2763    0.3224   -3.5425 H   0  0  0  0  0  0  0  0  0  0  0  0
   -7.3228    1.6747   -4.2668 H   0  0  0  0  0  0  0  0  0  0  0  0
   -8.9188    1.9716   -3.5548 H   0  0  0  0  0  0  0  0  0  0  0  0
   -5.9716   -0.2154   -3.6124 H   0  0  0  0  0  0  0  0  0  0  0  0
   -3.8070   -1.0834   -2.8879 H   0  0  0  0  0  0  0  0  0  0  0  0
   -0.9930    0.1891   -2.2209 H   0  0  0  0  0  0  0  0  0  0  0  0
    1.5698   -4.2186    1.0516 H   0  0  0  0  0  0  0  0  0  0  0  0
    1.0013   -3.4509   -0.4244 H   0  0  0  0  0  0  0  0  0  0  0  0
    1.5113   -1.0042   -0.5392 H   0  0  0  0  0  0  0  0  0  0  0  0
    6.8932   -0.6874    1.5214 H   0  0  0  0  0  0  0  0  0  0  0  0
    8.4749   -0.3006    0.8508 H   0  0  0  0  0  0  0  0  0  0  0  0
    7.3431   -1.2845   -0.0806 H   0  0  0  0  0  0  0  0  0  0  0  0
    8.0613    2.1391    1.2602 H   0  0  0  0  0  0  0  0  0  0  0  0
    6.4230    1.8423    1.8735 H   0  0  0  0  0  0  0  0  0  0  0  0
    6.6769    2.9719    0.5367 H   0  0  0  0  0  0  0  0  0  0  0  0
    8.7438    1.2172   -1.0782 H   0  0  0  0  0  0  0  0  0  0  0  0
    7.5372    0.3805   -2.0646 H   0  0  0  0  0  0  0  0  0  0  0  0
    7.3859    2.1142   -1.7666 H   0  0  0  0  0  0  0  0  0  0  0  0
    4.8851    2.5355   -1.5587 H   0  0  0  0  0  0  0  0  0  0  0  0
   -4.1015   -1.8828    0.8654 H   0  0  0  0  0  0  0  0  0  0  0  0
   -2.8533   -2.6973    1.7819 H   0  0  0  0  0  0  0  0  0  0  0  0
   -1.4286   -0.1048    3.3723 H   0  0  0  0  0  0  0  0  0  0  0  0
   -3.0257    1.3223    5.0574 H   0  0  0  0  0  0  0  0  0  0  0  0
   -5.5983    0.6843    4.2725 H   0  0  0  0  0  0  0  0  0  0  0  0
   -3.9702    1.3897    0.6402 H   0  0  0  0  0  0  0  0  0  0  0  0
   -6.1644    2.2512   -0.0829 H   0  0  0  0  0  0  0  0  0  0  0  0
  1  2  1  0
  2  3  1  0
  3  4  2  0
  4  5  1  0
  5  6  2  0
  6  7  1  0
  7  8  2  0
  8  9  1  0
  9 10  2  0
 10 11  1  0
 11 12  1  0
 12 13  1  0
 13 14  2  0
 13 15  1  0
 15 16  1  0
 16 17  2  0
 17 18  1  0
 18 19  1  0
 19 20  1  0
 19 21  1  0
 19 22  1  0
 18 23  2  0
 23 24  1  0
 10 25  1  0
 25 26  1  0
 26 27  1  0
 27 28  2  0
 28 29  1  0
 29 30  2  0
 30 31  1  0
  6 32  1  0
 32 33  2  0
 33  3  1  0
 25  7  1  0
 31 27  1  0
 24 16  1  0
  1 34  1  0
  1 35  1  0
  1 36  1  0
  4 37  1  0
  5 38  1  0
  8 39  1  0
 12 40  1  0
 12 41  1  0
 15 42  1  0
 20 43  1  0
 20 44  1  0
 20 45  1  0
 21 46  1  0
 21 47  1  0
 21 48  1  0
 22 49  1  0
 22 50  1  0
 22 51  1  0
 23 52  1  0
 26 53  1  0
 26 54  1  0
 28 55  1  0
 29 56  1  0
 30 57  1  0
 32 58  1  0
 33 59  1  0
M  END
$$$$
