
     RDKit          3D

 50 53  0  0  0  0  0  0  0  0999 V2000
    7.6804   -0.8217    2.6230 C   0  0  0  0  0  0  0  0  0  0  0  0
    7.3338    0.5170    1.9961 C   0  0  0  0  0  0  0  0  0  0  0  0
    6.7442    0.3237    0.7093 O   0  0  0  0  0  0  0  0  0  0  0  0
    5.3852    0.3650    0.5894 C   0  0  0  0  0  0  0  0  0  0  0  0
    4.4878    0.1736    1.6417 C   0  0  0  0  0  0  0  0  0  0  0  0
    3.1045    0.1916    1.4100 C   0  0  0  0  0  0  0  0  0  0  0  0
    2.5919    0.4004    0.1218 C   0  0  0  0  0  0  0  0  0  0  0  0
    1.1130    0.3948   -0.0653 C   0  0  0  0  0  0  0  0  0  0  0  0
    0.4442   -0.3169    0.6741 O   0  0  0  0  0  0  0  0  0  0  0  0
    0.6410    1.2501   -1.0440 N   0  0  0  0  0  0  0  0  0  0  0  0
   -0.6970    1.3962   -1.4717 C   0  0  0  0  0  0  0  0  0  0  0  0
   -0.9725    2.4352   -2.3679 C   0  0  0  0  0  0  0  0  0  0  0  0
   -2.2698    2.6420   -2.8382 C   0  0  0  0  0  0  0  0  0  0  0  0
   -3.3058    1.8087   -2.4184 C   0  0  0  0  0  0  0  0  0  0  0  0
   -3.0543    0.7569   -1.5289 C   0  0  0  0  0  0  0  0  0  0  0  0
   -4.1530   -0.1313   -1.0860 C   0  0  0  0  0  0  0  0  0  0  0  0
   -4.3551   -0.3009    0.2321 C   0  0  0  0  0  0  0  0  0  0  0  0
   -5.4207   -1.1592    0.7205 C   0  0  0  0  0  0  0  0  0  0  0  0
   -5.6466   -1.3619    2.0838 C   0  0  0  0  0  0  0  0  0  0  0  0
   -6.6851   -2.1991    2.5043 C   0  0  0  0  0  0  0  0  0  0  0  0
   -7.5003   -2.8356    1.5658 C   0  0  0  0  0  0  0  0  0  0  0  0
   -7.2794   -2.6375    0.2043 C   0  0  0  0  0  0  0  0  0  0  0  0
   -6.2414   -1.8008   -0.1988 C   0  0  0  0  0  0  0  0  0  0  0  0
   -6.0491   -1.6238   -1.5790 O   0  0  0  0  0  0  0  0  0  0  0  0
   -5.0368   -0.8105   -2.0816 C   0  0  0  0  0  0  0  0  0  0  0  0
   -4.8947   -0.6673   -3.2923 O   0  0  0  0  0  0  0  0  0  0  0  0
   -1.7397    0.5579   -1.0669 C   0  0  0  0  0  0  0  0  0  0  0  0
    3.4718    0.5655   -0.9485 C   0  0  0  0  0  0  0  0  0  0  0  0
    4.8513    0.5503   -0.6932 C   0  0  0  0  0  0  0  0  0  0  0  0
    5.7397    0.7494   -1.8205 N   0  0  0  0  0  4  0  0  0  0  0  0
    5.7050   -0.1057   -2.7158 O   0  0  0  0  0  0  0  0  0  0  0  0
    6.4048    1.7934   -1.8411 O   0  0  0  0  0  1  0  0  0  0  0  0
    6.7853   -1.4284    2.7907 H   0  0  0  0  0  0  0  0  0  0  0  0
    8.1907   -0.6797    3.5804 H   0  0  0  0  0  0  0  0  0  0  0  0
    8.3330   -1.3978    1.9584 H   0  0  0  0  0  0  0  0  0  0  0  0
    6.7198    1.1388    2.6572 H   0  0  0  0  0  0  0  0  0  0  0  0
    8.2624    1.0756    1.8315 H   0  0  0  0  0  0  0  0  0  0  0  0
    4.8251   -0.0166    2.6566 H   0  0  0  0  0  0  0  0  0  0  0  0
    2.4222    0.0304    2.2448 H   0  0  0  0  0  0  0  0  0  0  0  0
    1.2966    1.9052   -1.4491 H   0  0  0  0  0  0  0  0  0  0  0  0
   -0.1856    3.1007   -2.7132 H   0  0  0  0  0  0  0  0  0  0  0  0
   -2.4752    3.4501   -3.5362 H   0  0  0  0  0  0  0  0  0  0  0  0
   -4.3097    1.9820   -2.8022 H   0  0  0  0  0  0  0  0  0  0  0  0
   -3.7340    0.1955    0.9723 H   0  0  0  0  0  0  0  0  0  0  0  0
   -5.0207   -0.8772    2.8291 H   0  0  0  0  0  0  0  0  0  0  0  0
   -6.8570   -2.3572    3.5665 H   0  0  0  0  0  0  0  0  0  0  0  0
   -8.3054   -3.4869    1.8969 H   0  0  0  0  0  0  0  0  0  0  0  0
   -7.9068   -3.1291   -0.5332 H   0  0  0  0  0  0  0  0  0  0  0  0
   -1.5471   -0.2783   -0.4010 H   0  0  0  0  0  0  0  0  0  0  0  0
    3.1092    0.6735   -1.9675 H   0  0  0  0  0  0  0  0  0  0  0  0
  1  2  1  0
  2  3  1  0
  3  4  1  0
  4  5  2  0
  5  6  1  0
  6  7  2  0
  7  8  1  0
  8  9  2  0
  8 10  1  0
 10 11  1  0
 11 12  2  0
 12 13  1  0
 13 14  2  0
 14 15  1  0
 15 16  1  0
 16 17  2  0
 17 18  1  0
 18 19  2  0
 19 20  1  0
 20 21  2  0
 21 22  1  0
 22 23  2  0
 23 24  1  0
 24 25  1  0
 25 26  2  0
 15 27  2  0
  7 28  1  0
 28 29  2  0
 29 30  1  0
 30 31  2  0
 30 32  1  0
 29  4  1  0
 27 11  1  0
 25 16  1  0
 23 18  1  0
  1 33  1  0
  1 34  1  0
  1 35  1  0
  2 36  1  0
  2 37  1  0
  5 38  1  0
  6 39  1  0
 10 40  1  0
 12 41  1  0
 13 42  1  0
 14 43  1  0
 17 44  1  0
 19 45  1  0
 20 46  1  0
 21 47  1  0
 22 48  1  0
 27 49  1  0
 28 50  1  0
M  CHG  2  30   1  32  -1
M  END
$$$$
