
     RDKit          3D

 72 77  0  0  0  0  0  0  0  0999 V2000
   -4.0625    0.2978    1.8783 O   0  0  0  0  0  0  0  0  0  0  0  0
   -3.9055   -0.2960    0.8051 C   0  0  0  0  0  0  0  0  0  0  0  0
   -5.1079   -0.6868   -0.0885 C   0  0  0  0  0  0  0  0  0  0  0  0
   -6.4261   -0.7841    0.6905 C   0  0  0  0  0  0  0  0  0  0  0  0
   -7.1331    0.3608    1.0924 C   0  0  0  0  0  0  0  0  0  0  0  0
   -8.3409    0.2475    1.7846 C   0  0  0  0  0  0  0  0  0  0  0  0
   -8.8568   -1.0108    2.0919 C   0  0  0  0  0  0  0  0  0  0  0  0
   -8.1624   -2.1571    1.7133 C   0  0  0  0  0  0  0  0  0  0  0  0
   -6.9544   -2.0462    1.0202 C   0  0  0  0  0  0  0  0  0  0  0  0
   -5.2389    0.1781   -1.3464 C   0  0  0  0  0  0  0  0  0  0  0  0
   -4.7980    1.5113   -1.3889 C   0  0  0  0  0  0  0  0  0  0  0  0
   -4.9524    2.2756   -2.5474 C   0  0  0  0  0  0  0  0  0  0  0  0
   -5.5566    1.7247   -3.6749 C   0  0  0  0  0  0  0  0  0  0  0  0
   -6.0120    0.4088   -3.6455 C   0  0  0  0  0  0  0  0  0  0  0  0
   -5.8575   -0.3589   -2.4893 C   0  0  0  0  0  0  0  0  0  0  0  0
   -2.6200   -0.6145    0.3641 N   0  0  0  0  0  0  0  0  0  0  0  0
   -1.4884   -0.1874    1.1917 C   0  0  0  0  0  0  0  0  0  0  0  0
   -0.1383   -0.2277    0.4507 C   0  0  0  0  0  0  0  0  0  0  0  0
    0.1541   -1.5556   -0.1213 N   0  0  0  0  0  0  0  0  0  0  0  0
    1.3518   -1.5649   -0.9882 C   0  0  0  0  0  0  0  0  0  0  0  0
    2.6567   -1.0730   -0.3115 C   0  0  0  0  0  0  0  0  0  0  0  0
    2.6674    0.3643   -0.3305 O   0  0  0  0  0  0  0  0  0  0  0  0
    3.8963   -1.6210   -1.0552 C   0  0  0  0  0  0  0  0  0  0  0  0
    5.0835   -1.6065   -0.2068 N   0  0  0  0  0  0  0  0  0  0  0  0
    5.7736   -0.4743    0.1551 C   0  0  0  0  0  0  0  0  0  0  0  0
    5.4406    0.6749   -0.3717 N   0  0  0  0  0  0  0  0  0  0  0  0
    6.1378    1.8483   -0.0126 C   0  0  0  0  0  0  0  0  0  0  0  0
    5.7607    3.0516   -0.6115 C   0  0  0  0  0  0  0  0  0  0  0  0
    6.4133    4.2438   -0.2878 C   0  0  0  0  0  0  0  0  0  0  0  0
    7.4528    4.2428    0.6433 C   0  0  0  0  0  0  0  0  0  0  0  0
    7.8468    3.0520    1.2548 C   0  0  0  0  0  0  0  0  0  0  0  0
    7.1860    1.8669    0.9200 C   0  0  0  0  0  0  0  0  0  0  0  0
    7.5192    0.6244    1.4845 N   0  0  0  0  0  0  0  0  0  0  0  0
    8.4787    0.3122    2.4179 C   0  0  0  0  0  0  0  0  0  0  0  0
    8.4285   -1.0458    2.6493 C   0  0  0  0  0  0  0  0  0  0  0  0
    7.4029   -1.5756    1.8305 C   0  0  0  0  0  0  0  0  0  0  0  0
    6.8492   -0.5234    1.1236 C   0  0  0  0  0  0  0  0  0  0  0  0
   -1.0199   -2.1388   -0.8035 C   0  0  0  0  0  0  0  0  0  0  0  0
   -2.2651   -1.2323   -0.9160 C   0  0  0  0  0  0  0  0  0  0  0  0
   -4.8987   -1.7084   -0.4298 H   0  0  0  0  0  0  0  0  0  0  0  0
   -6.7442    1.3540    0.8738 H   0  0  0  0  0  0  0  0  0  0  0  0
   -8.8757    1.1442    2.0849 H   0  0  0  0  0  0  0  0  0  0  0  0
   -9.7955   -1.0961    2.6327 H   0  0  0  0  0  0  0  0  0  0  0  0
   -8.5596   -3.1398    1.9596 H   0  0  0  0  0  0  0  0  0  0  0  0
   -6.4278   -2.9561    0.7419 H   0  0  0  0  0  0  0  0  0  0  0  0
   -4.3385    1.9773   -0.5187 H   0  0  0  0  0  0  0  0  0  0  0  0
   -4.6086    3.3069   -2.5643 H   0  0  0  0  0  0  0  0  0  0  0  0
   -5.6840    2.3260   -4.5718 H   0  0  0  0  0  0  0  0  0  0  0  0
   -6.4997   -0.0173   -4.5187 H   0  0  0  0  0  0  0  0  0  0  0  0
   -6.2385   -1.3786   -2.4793 H   0  0  0  0  0  0  0  0  0  0  0  0
   -1.4591   -0.8505    2.0661 H   0  0  0  0  0  0  0  0  0  0  0  0
   -1.6714    0.8314    1.5555 H   0  0  0  0  0  0  0  0  0  0  0  0
   -0.1479    0.5327   -0.3414 H   0  0  0  0  0  0  0  0  0  0  0  0
    0.6366    0.0478    1.1734 H   0  0  0  0  0  0  0  0  0  0  0  0
    1.1599   -0.9634   -1.8865 H   0  0  0  0  0  0  0  0  0  0  0  0
    1.5035   -2.6042   -1.3053 H   0  0  0  0  0  0  0  0  0  0  0  0
    2.6820   -1.3981    0.7354 H   0  0  0  0  0  0  0  0  0  0  0  0
    3.6044    0.6424   -0.2315 H   0  0  0  0  0  0  0  0  0  0  0  0
    4.0859   -1.0492   -1.9714 H   0  0  0  0  0  0  0  0  0  0  0  0
    3.7323   -2.6639   -1.3465 H   0  0  0  0  0  0  0  0  0  0  0  0
    5.2014   -2.4152    0.3916 H   0  0  0  0  0  0  0  0  0  0  0  0
    4.9507    3.0571   -1.3362 H   0  0  0  0  0  0  0  0  0  0  0  0
    6.1082    5.1722   -0.7639 H   0  0  0  0  0  0  0  0  0  0  0  0
    7.9569    5.1744    0.8907 H   0  0  0  0  0  0  0  0  0  0  0  0
    8.6584    3.0762    1.9740 H   0  0  0  0  0  0  0  0  0  0  0  0
    9.1236    1.0655    2.8469 H   0  0  0  0  0  0  0  0  0  0  0  0
    9.0642   -1.5939    3.3328 H   0  0  0  0  0  0  0  0  0  0  0  0
    7.1082   -2.6143    1.7691 H   0  0  0  0  0  0  0  0  0  0  0  0
   -0.7684   -2.5012   -1.8084 H   0  0  0  0  0  0  0  0  0  0  0  0
   -1.3011   -3.0267   -0.2234 H   0  0  0  0  0  0  0  0  0  0  0  0
   -2.0705   -0.4156   -1.6221 H   0  0  0  0  0  0  0  0  0  0  0  0
   -3.0903   -1.8208   -1.3182 H   0  0  0  0  0  0  0  0  0  0  0  0
  1  2  2  0
  2  3  1  0
  3  4  1  0
  4  5  2  0
  5  6  1  0
  6  7  2  0
  7  8  1  0
  8  9  2  0
  3 10  1  0
 10 11  2  0
 11 12  1  0
 12 13  2  0
 13 14  1  0
 14 15  2  0
  2 16  1  0
 16 17  1  0
 17 18  1  0
 18 19  1  0
 19 20  1  0
 20 21  1  0
 21 22  1  0
 21 23  1  0
 23 24  1  0
 24 25  1  0
 25 26  2  0
 26 27  1  0
 27 28  2  0
 28 29  1  0
 29 30  2  0
 30 31  1  0
 31 32  2  0
 32 33  1  0
 33 34  1  0
 34 35  2  0
 35 36  1  0
 36 37  2  0
 19 38  1  0
 38 39  1  0
  9  4  1  0
 15 10  1  0
 39 16  1  0
 37 25  1  0
 32 27  1  0
 37 33  1  0
  3 40  1  0
  5 41  1  0
  6 42  1  0
  7 43  1  0
  8 44  1  0
  9 45  1  0
 11 46  1  0
 12 47  1  0
 13 48  1  0
 14 49  1  0
 15 50  1  0
 17 51  1  0
 17 52  1  0
 18 53  1  0
 18 54  1  0
 20 55  1  0
 20 56  1  0
 21 57  1  0
 22 58  1  0
 23 59  1  0
 23 60  1  0
 24 61  1  0
 28 62  1  0
 29 63  1  0
 30 64  1  0
 31 65  1  0
 34 66  1  0
 35 67  1  0
 36 68  1  0
 38 69  1  0
 38 70  1  0
 39 71  1  0
 39 72  1  0
M  END
$$$$
