
     RDKit          3D

 58 62  0  0  0  0  0  0  0  0999 V2000
    7.1913    0.1927    1.6735 C   0  0  0  0  0  0  0  0  0  0  0  0
    6.1423    1.1202    1.1229 C   0  0  0  0  0  0  0  0  0  0  0  0
    6.0881    2.4596    1.8070 C   0  0  0  0  0  0  0  0  0  0  0  0
    5.3241    0.7833    0.1093 C   0  0  0  0  0  0  0  0  0  0  0  0
    5.2010   -0.5152   -0.7030 C   0  0  0  0  0  0  0  0  0  0  0  0
    5.4945    0.1210   -2.0851 C   0  0  0  0  0  0  0  0  0  0  0  0
    4.8104    1.5311   -2.0036 C   0  0  0  0  0  0  0  0  0  0  0  0
    4.1894    1.5601   -0.5847 C   0  0  0  0  0  0  0  0  0  0  0  0
    3.1128    0.5245   -0.5342 C   0  0  0  0  0  0  0  0  0  0  0  0
    3.7241   -0.7398   -0.6014 C   0  0  0  0  0  0  0  0  0  0  0  0
    2.7573   -1.7030   -0.5550 C   0  0  0  0  0  0  0  0  0  0  0  0
    2.8788   -3.0265   -0.5871 O   0  0  0  0  0  0  0  0  0  0  0  0
    1.5093   -1.0373   -0.4608 N   0  0  0  0  0  0  0  0  0  0  0  0
    0.2067   -1.5716   -0.3793 C   0  0  0  0  0  0  0  0  0  0  0  0
   -0.8518   -0.7892   -0.2876 N   0  0  0  0  0  0  0  0  0  0  0  0
   -1.9988   -1.5693   -0.2315 C   0  0  0  0  0  0  0  0  0  0  0  0
   -3.3038   -0.9322   -0.1255 C   0  0  0  0  0  0  0  0  0  0  0  0
   -3.4837    0.1159    0.7840 C   0  0  0  0  0  0  0  0  0  0  0  0
   -4.7237    0.7513    0.9017 C   0  0  0  0  0  0  0  0  0  0  0  0
   -5.8098    0.3550    0.1086 C   0  0  0  0  0  0  0  0  0  0  0  0
   -7.1649    1.0323    0.2126 C   0  0  0  0  0  0  0  0  0  0  0  0
   -7.7291    0.9725    1.6351 C   0  0  0  0  0  0  0  0  0  0  0  0
   -7.0995    2.4776   -0.2878 C   0  0  0  0  0  0  0  0  0  0  0  0
   -5.6185   -0.6815   -0.8163 C   0  0  0  0  0  0  0  0  0  0  0  0
   -4.3771   -1.3154   -0.9362 C   0  0  0  0  0  0  0  0  0  0  0  0
   -1.7792   -2.9391   -0.2419 C   0  0  0  0  0  0  0  0  0  0  0  0
   -2.7297   -4.0806   -0.1393 C   0  0  0  0  0  0  0  0  0  0  0  0
   -0.0917   -3.2408   -0.3898 S   0  0  0  0  0  0  0  0  0  0  0  0
    1.7637    0.3610   -0.4587 C   0  0  0  0  0  0  0  0  0  0  0  0
    0.8076    1.2897   -0.3938 O   0  0  0  0  0  0  0  0  0  0  0  0
    7.2261   -0.7707    1.1588 H   0  0  0  0  0  0  0  0  0  0  0  0
    7.0002   -0.0074    2.7332 H   0  0  0  0  0  0  0  0  0  0  0  0
    8.1828    0.6479    1.5801 H   0  0  0  0  0  0  0  0  0  0  0  0
    5.3603    3.1403    1.3589 H   0  0  0  0  0  0  0  0  0  0  0  0
    7.0663    2.9492    1.7535 H   0  0  0  0  0  0  0  0  0  0  0  0
    5.8215    2.3337    2.8618 H   0  0  0  0  0  0  0  0  0  0  0  0
    5.8282   -1.3596   -0.4251 H   0  0  0  0  0  0  0  0  0  0  0  0
    5.0819   -0.4684   -2.9119 H   0  0  0  0  0  0  0  0  0  0  0  0
    6.5723    0.2389   -2.2496 H   0  0  0  0  0  0  0  0  0  0  0  0
    5.5640    2.3185   -2.1254 H   0  0  0  0  0  0  0  0  0  0  0  0
    4.0591    1.6476   -2.7923 H   0  0  0  0  0  0  0  0  0  0  0  0
    3.9256    2.5422   -0.1974 H   0  0  0  0  0  0  0  0  0  0  0  0
    3.8303   -3.2307   -0.6128 H   0  0  0  0  0  0  0  0  0  0  0  0
   -2.6559    0.4455    1.4094 H   0  0  0  0  0  0  0  0  0  0  0  0
   -4.8273    1.5635    1.6174 H   0  0  0  0  0  0  0  0  0  0  0  0
   -7.8732    0.4948   -0.4329 H   0  0  0  0  0  0  0  0  0  0  0  0
   -7.1280    1.5576    2.3408 H   0  0  0  0  0  0  0  0  0  0  0  0
   -7.7646   -0.0606    2.0006 H   0  0  0  0  0  0  0  0  0  0  0  0
   -8.7488    1.3720    1.6600 H   0  0  0  0  0  0  0  0  0  0  0  0
   -6.7191    2.5193   -1.3155 H   0  0  0  0  0  0  0  0  0  0  0  0
   -8.0958    2.9331   -0.2806 H   0  0  0  0  0  0  0  0  0  0  0  0
   -6.4443    3.0974    0.3355 H   0  0  0  0  0  0  0  0  0  0  0  0
   -6.4348   -1.0009   -1.4614 H   0  0  0  0  0  0  0  0  0  0  0  0
   -4.2586   -2.0958   -1.6829 H   0  0  0  0  0  0  0  0  0  0  0  0
   -2.2341   -4.9981    0.1948 H   0  0  0  0  0  0  0  0  0  0  0  0
   -3.1876   -4.2820   -1.1130 H   0  0  0  0  0  0  0  0  0  0  0  0
   -3.5254   -3.8620    0.5807 H   0  0  0  0  0  0  0  0  0  0  0  0
   -0.0613    0.8283   -0.3565 H   0  0  0  0  0  0  0  0  0  0  0  0
  1  2  1  0
  2  3  1  0
  2  4  2  3
  4  5  1  0
  5  6  1  0
  6  7  1  0
  7  8  1  0
  8  9  1  0
  9 10  1  0
 10 11  2  0
 11 12  1  0
 11 13  1  0
 13 14  1  0
 14 15  2  0
 15 16  1  0
 16 17  1  0
 17 18  2  0
 18 19  1  0
 19 20  2  0
 20 21  1  0
 21 22  1  0
 21 23  1  0
 20 24  1  0
 24 25  2  0
 16 26  2  0
 26 27  1  0
 26 28  1  0
 13 29  1  0
 29 30  1  0
  8  4  1  0
 29  9  2  0
 10  5  1  0
 28 14  1  0
 25 17  1  0
  1 31  1  0
  1 32  1  0
  1 33  1  0
  3 34  1  0
  3 35  1  0
  3 36  1  0
  5 37  1  0
  6 38  1  0
  6 39  1  0
  7 40  1  0
  7 41  1  0
  8 42  1  0
 12 43  1  0
 18 44  1  0
 19 45  1  0
 21 46  1  0
 22 47  1  0
 22 48  1  0
 22 49  1  0
 23 50  1  0
 23 51  1  0
 23 52  1  0
 24 53  1  0
 25 54  1  0
 27 55  1  0
 27 56  1  0
 27 57  1  0
 30 58  1  0
M  END
$$$$
