
     RDKit          3D

 48 50  0  0  0  0  0  0  0  0999 V2000
   -4.5207   -2.9276   -1.8375 C   0  0  0  0  0  0  0  0  0  0  0  0
   -4.9893   -1.6201   -1.5392 O   0  0  0  0  0  0  0  0  0  0  0  0
   -4.0634   -0.6104   -1.4894 C   0  0  0  0  0  0  0  0  0  0  0  0
   -2.6808   -0.7911   -1.5592 C   0  0  0  0  0  0  0  0  0  0  0  0
   -1.8209    0.3137   -1.4982 C   0  0  0  0  0  0  0  0  0  0  0  0
   -0.3690    0.1099   -1.5558 C   0  0  0  0  0  0  0  0  0  0  0  0
    0.4219   -0.0566   -0.4768 C   0  0  0  0  0  0  0  0  0  0  0  0
   -0.0885   -0.0501    0.8493 C   0  0  0  0  0  0  0  0  0  0  0  0
   -0.4147   -0.0590    1.9628 N   0  0  0  0  0  0  0  0  0  0  0  0
    1.8976   -0.2558   -0.7196 C   0  0  0  0  0  0  0  0  0  0  0  0
    2.3238   -0.2574   -1.8710 O   0  0  0  0  0  0  0  0  0  0  0  0
    2.6621   -0.4247    0.4247 N   0  0  0  0  0  0  0  0  0  0  0  0
    4.0691   -0.6311    0.5219 C   0  0  0  0  0  0  0  0  0  0  0  0
    4.8825   -0.6870   -0.6148 C   0  0  0  0  0  0  0  0  0  0  0  0
    6.2533   -0.8892   -0.4970 C   0  0  0  0  0  0  0  0  0  0  0  0
    6.8257   -1.0380    0.7613 C   0  0  0  0  0  0  0  0  0  0  0  0
    6.0657   -0.9906    1.9159 C   0  0  0  0  0  0  0  0  0  0  0  0
    6.7170   -1.1457    3.0815 N   0  0  0  0  0  0  0  0  0  0  0  0
    6.0072   -1.1050    4.2252 C   0  0  0  0  0  0  0  0  0  0  0  0
    4.6454   -0.9123    4.2655 C   0  0  0  0  0  0  0  0  0  0  0  0
    3.9736   -0.7519    3.0567 C   0  0  0  0  0  0  0  0  0  0  0  0
    4.6666   -0.7853    1.8189 C   0  0  0  0  0  0  0  0  0  0  0  0
   -2.3392    1.6096   -1.3730 C   0  0  0  0  0  0  0  0  0  0  0  0
   -3.7189    1.8110   -1.3018 C   0  0  0  0  0  0  0  0  0  0  0  0
   -4.3273    3.0333   -1.1793 O   0  0  0  0  0  0  0  0  0  0  0  0
   -3.5083    4.1890   -1.2875 C   0  0  0  0  0  0  0  0  0  0  0  0
   -4.5703    0.6926   -1.3405 C   0  0  0  0  0  0  0  0  0  0  0  0
   -5.9349    0.8844   -1.3109 O   0  0  0  0  0  0  0  0  0  0  0  0
   -6.3980    0.8467    0.0380 C   0  0  0  0  0  0  0  0  0  0  0  0
   -4.0004   -2.9536   -2.8008 H   0  0  0  0  0  0  0  0  0  0  0  0
   -3.8835   -3.3087   -1.0329 H   0  0  0  0  0  0  0  0  0  0  0  0
   -5.3913   -3.5863   -1.9117 H   0  0  0  0  0  0  0  0  0  0  0  0
   -2.2506   -1.7824   -1.6606 H   0  0  0  0  0  0  0  0  0  0  0  0
    0.0438    0.0997   -2.5639 H   0  0  0  0  0  0  0  0  0  0  0  0
    2.1826   -0.4026    1.3125 H   0  0  0  0  0  0  0  0  0  0  0  0
    4.4877   -0.5771   -1.6190 H   0  0  0  0  0  0  0  0  0  0  0  0
    6.8765   -0.9311   -1.3868 H   0  0  0  0  0  0  0  0  0  0  0  0
    7.8990   -1.1959    0.8436 H   0  0  0  0  0  0  0  0  0  0  0  0
    6.5853   -1.2361    5.1353 H   0  0  0  0  0  0  0  0  0  0  0  0
    4.1153   -0.8866    5.2110 H   0  0  0  0  0  0  0  0  0  0  0  0
    2.9007   -0.6014    3.1132 H   0  0  0  0  0  0  0  0  0  0  0  0
   -1.6491    2.4464   -1.3331 H   0  0  0  0  0  0  0  0  0  0  0  0
   -2.9802    4.2139   -2.2466 H   0  0  0  0  0  0  0  0  0  0  0  0
   -2.8084    4.2534   -0.4482 H   0  0  0  0  0  0  0  0  0  0  0  0
   -4.1606    5.0666   -1.2442 H   0  0  0  0  0  0  0  0  0  0  0  0
   -7.4810    1.0013    0.0240 H   0  0  0  0  0  0  0  0  0  0  0  0
   -6.2022   -0.1265    0.5012 H   0  0  0  0  0  0  0  0  0  0  0  0
   -5.9509    1.6476    0.6370 H   0  0  0  0  0  0  0  0  0  0  0  0
  1  2  1  0
  2  3  1  0
  3  4  2  0
  4  5  1  0
  5  6  1  0
  6  7  2  3
  7  8  1  0
  8  9  3  0
  7 10  1  0
 10 11  2  0
 10 12  1  0
 12 13  1  0
 13 14  2  0
 14 15  1  0
 15 16  2  0
 16 17  1  0
 17 18  2  0
 18 19  1  0
 19 20  2  0
 20 21  1  0
 21 22  2  0
  5 23  2  0
 23 24  1  0
 24 25  1  0
 25 26  1  0
 24 27  2  0
 27 28  1  0
 28 29  1  0
 27  3  1  0
 22 13  1  0
 22 17  1  0
  1 30  1  0
  1 31  1  0
  1 32  1  0
  4 33  1  0
  6 34  1  0
 12 35  1  0
 14 36  1  0
 15 37  1  0
 16 38  1  0
 19 39  1  0
 20 40  1  0
 21 41  1  0
 23 42  1  0
 26 43  1  0
 26 44  1  0
 26 45  1  0
 29 46  1  0
 29 47  1  0
 29 48  1  0
M  END
$$$$
