
     RDKit          3D

 42 44  0  0  0  0  0  0  0  0999 V2000
   -3.6764   -2.9411   -1.4830 C   0  0  0  0  0  0  0  0  0  0  0  0
   -4.1162   -1.7382   -0.8638 O   0  0  0  0  0  0  0  0  0  0  0  0
   -3.1855   -0.7488   -0.7053 C   0  0  0  0  0  0  0  0  0  0  0  0
   -1.8671   -0.7826   -1.1639 C   0  0  0  0  0  0  0  0  0  0  0  0
   -1.0151    0.3011   -0.9305 C   0  0  0  0  0  0  0  0  0  0  0  0
   -1.4779    1.4101   -0.2181 C   0  0  0  0  0  0  0  0  0  0  0  0
   -0.3874    2.7834    0.0828 S   0  0  0  0  0  6  0  0  0  0  0  0
    0.5656    2.8457   -1.0041 O   0  0  0  0  0  0  0  0  0  0  0  0
   -1.2120    3.9280    0.4146 O   0  0  0  0  0  0  0  0  0  0  0  0
    0.3965    2.3562    1.5175 N   0  0  0  0  0  0  0  0  0  0  0  0
    1.0909    1.1144    1.6109 C   0  0  0  0  0  0  0  0  0  0  0  0
    2.2092    0.8905    0.8010 C   0  0  0  0  0  0  0  0  0  0  0  0
    2.8847   -0.3369    0.8291 C   0  0  0  0  0  0  0  0  0  0  0  0
    4.3195   -0.5836   -0.2062 S   0  0  0  0  0  0  0  0  0  0  0  0
    3.6505   -0.4659   -1.8140 C   0  0  0  0  0  0  0  0  0  0  0  0
    2.3266   -0.6616   -2.1214 N   0  0  0  0  0  0  0  0  0  0  0  0
    2.2849   -0.4306   -3.4127 C   0  0  0  0  0  0  0  0  0  0  0  0
    3.5310   -0.1285   -3.8603 N   0  0  0  0  0  0  0  0  0  0  0  0
    4.4252   -0.1597   -2.8629 N   0  0  0  0  0  0  0  0  0  0  0  0
    2.4351   -1.3302    1.7064 C   0  0  0  0  0  0  0  0  0  0  0  0
    3.0860   -2.5335    1.7655 O   0  0  0  0  0  0  0  0  0  0  0  0
    1.3294   -1.1090    2.5314 C   0  0  0  0  0  0  0  0  0  0  0  0
    0.6441    0.1161    2.4934 C   0  0  0  0  0  0  0  0  0  0  0  0
   -0.5379    0.3206    3.3996 C   0  0  0  0  0  0  0  0  0  0  0  0
   -2.8016    1.4654    0.2219 C   0  0  0  0  0  0  0  0  0  0  0  0
   -3.6478    0.3816   -0.0217 C   0  0  0  0  0  0  0  0  0  0  0  0
   -3.3668   -2.7621   -2.5177 H   0  0  0  0  0  0  0  0  0  0  0  0
   -4.5223   -3.6348   -1.5050 H   0  0  0  0  0  0  0  0  0  0  0  0
   -2.8750   -3.4118   -0.9040 H   0  0  0  0  0  0  0  0  0  0  0  0
   -1.4675   -1.6328   -1.7080 H   0  0  0  0  0  0  0  0  0  0  0  0
    0.0091    0.2648   -1.2963 H   0  0  0  0  0  0  0  0  0  0  0  0
   -0.0934    2.7035    2.3389 H   0  0  0  0  0  0  0  0  0  0  0  0
    2.5600    1.6799    0.1386 H   0  0  0  0  0  0  0  0  0  0  0  0
    1.4143   -0.4631   -4.0515 H   0  0  0  0  0  0  0  0  0  0  0  0
    3.8391    0.1051   -4.7978 H   0  0  0  0  0  0  0  0  0  0  0  0
    2.6428   -3.1128    2.4051 H   0  0  0  0  0  0  0  0  0  0  0  0
    0.9946   -1.8892    3.2107 H   0  0  0  0  0  0  0  0  0  0  0  0
   -1.4342    0.5538    2.8179 H   0  0  0  0  0  0  0  0  0  0  0  0
   -0.3378    1.1349    4.1038 H   0  0  0  0  0  0  0  0  0  0  0  0
   -0.7554   -0.5780    3.9874 H   0  0  0  0  0  0  0  0  0  0  0  0
   -3.1824    2.3363    0.7497 H   0  0  0  0  0  0  0  0  0  0  0  0
   -4.6794    0.4160    0.3222 H   0  0  0  0  0  0  0  0  0  0  0  0
  1  2  1  0
  2  3  1  0
  3  4  2  0
  4  5  1  0
  5  6  2  0
  6  7  1  0
  7  8  2  0
  7  9  2  0
  7 10  1  0
 10 11  1  0
 11 12  2  0
 12 13  1  0
 13 14  1  0
 14 15  1  0
 15 16  1  0
 16 17  2  0
 17 18  1  0
 18 19  1  0
 13 20  2  0
 20 21  1  0
 20 22  1  0
 22 23  2  0
 23 24  1  0
  6 25  1  0
 25 26  2  0
 26  3  1  0
 23 11  1  0
 19 15  2  0
  1 27  1  0
  1 28  1  0
  1 29  1  0
  4 30  1  0
  5 31  1  0
 10 32  1  0
 12 33  1  0
 17 34  1  0
 18 35  1  0
 21 36  1  0
 22 37  1  0
 24 38  1  0
 24 39  1  0
 24 40  1  0
 25 41  1  0
 26 42  1  0
M  END
$$$$
