
     RDKit          3D

 59 62  0  0  0  0  0  0  0  0999 V2000
    6.8225    1.1615    2.1907 C   0  0  0  0  0  0  0  0  0  0  0  0
    6.3363    1.2802    0.8565 O   0  0  0  0  0  0  0  0  0  0  0  0
    5.0118    1.0052    0.6477 C   0  0  0  0  0  0  0  0  0  0  0  0
    4.1056    0.5456    1.6075 C   0  0  0  0  0  0  0  0  0  0  0  0
    2.7695    0.2942    1.2579 C   0  0  0  0  0  0  0  0  0  0  0  0
    2.3347    0.5078   -0.0516 C   0  0  0  0  0  0  0  0  0  0  0  0
    0.9515    0.2519   -0.4556 C   0  0  0  0  0  0  0  0  0  0  0  0
    0.5441    0.4692   -1.7207 C   0  0  0  0  0  0  0  0  0  0  0  0
   -0.8493    0.2354   -2.2398 C   0  0  0  0  0  0  0  0  0  0  0  0
   -1.4912   -0.9297   -1.5459 N   0  0  0  0  0  0  0  0  0  0  0  0
   -1.1246   -2.2355   -2.1999 C   0  0  0  0  0  0  0  0  0  0  0  0
   -0.2894   -3.1105   -1.2615 C   0  0  0  0  0  0  0  0  0  0  0  0
   -1.0487   -3.6831   -0.0758 C   0  0  0  0  0  0  0  0  0  0  0  0
   -0.1980   -4.8803    0.2720 C   0  0  0  0  0  0  0  0  0  0  0  0
    0.2048   -5.3874   -1.0976 C   0  0  0  0  0  0  0  0  0  0  0  0
    0.2276   -4.2526   -1.9763 O   0  0  0  0  0  0  0  0  0  0  0  0
   -3.1789   -0.7458   -1.3145 S   0  0  0  0  0  6  0  0  0  0  0  0
   -3.6815   -1.9237   -0.6405 O   0  0  0  0  0  0  0  0  0  0  0  0
   -3.7415   -0.2923   -2.5677 O   0  0  0  0  0  0  0  0  0  0  0  0
   -3.2655    0.5873   -0.1385 C   0  0  0  0  0  0  0  0  0  0  0  0
   -3.8299    1.8129   -0.5011 C   0  0  0  0  0  0  0  0  0  0  0  0
   -3.9006    2.8477    0.4396 C   0  0  0  0  0  0  0  0  0  0  0  0
   -3.4181    2.6519    1.7416 C   0  0  0  0  0  0  0  0  0  0  0  0
   -3.4851    3.7202    2.7844 C   0  0  0  0  0  0  0  0  0  0  0  0
   -4.0274    5.0744    2.4101 C   0  0  0  0  0  0  0  0  0  0  0  0
   -3.1026    3.4817    3.9283 O   0  0  0  0  0  0  0  0  0  0  0  0
   -2.8644    1.4111    2.0932 C   0  0  0  0  0  0  0  0  0  0  0  0
   -2.7875    0.3769    1.1571 C   0  0  0  0  0  0  0  0  0  0  0  0
    1.5134    1.0088   -2.7263 C   0  0  0  0  0  0  0  0  0  0  0  0
    1.1659    1.2721   -3.8742 O   0  0  0  0  0  0  0  0  0  0  0  0
    2.8058    1.2048   -2.3129 N   0  0  0  0  0  0  0  0  0  0  0  0
    3.2461    0.9743   -1.0053 C   0  0  0  0  0  0  0  0  0  0  0  0
    4.5766    1.2178   -0.6639 C   0  0  0  0  0  0  0  0  0  0  0  0
    6.7372    0.1294    2.5540 H   0  0  0  0  0  0  0  0  0  0  0  0
    6.3131    1.8622    2.8615 H   0  0  0  0  0  0  0  0  0  0  0  0
    7.8850    1.4209    2.1804 H   0  0  0  0  0  0  0  0  0  0  0  0
    4.4053    0.3718    2.6366 H   0  0  0  0  0  0  0  0  0  0  0  0
    2.0803   -0.0656    2.0202 H   0  0  0  0  0  0  0  0  0  0  0  0
    0.2674   -0.1245    0.2978 H   0  0  0  0  0  0  0  0  0  0  0  0
   -1.4117    1.1610   -2.0693 H   0  0  0  0  0  0  0  0  0  0  0  0
   -0.8696    0.0574   -3.3213 H   0  0  0  0  0  0  0  0  0  0  0  0
   -0.5570   -2.0641   -3.1217 H   0  0  0  0  0  0  0  0  0  0  0  0
   -2.0146   -2.7847   -2.5275 H   0  0  0  0  0  0  0  0  0  0  0  0
    0.5850   -2.5514   -0.9059 H   0  0  0  0  0  0  0  0  0  0  0  0
   -2.0448   -4.0291   -0.3775 H   0  0  0  0  0  0  0  0  0  0  0  0
   -1.1582   -2.9718    0.7489 H   0  0  0  0  0  0  0  0  0  0  0  0
   -0.7179   -5.6343    0.8670 H   0  0  0  0  0  0  0  0  0  0  0  0
    0.6891   -4.5583    0.8293 H   0  0  0  0  0  0  0  0  0  0  0  0
    1.1867   -5.8724   -1.0941 H   0  0  0  0  0  0  0  0  0  0  0  0
   -0.5331   -6.0950   -1.4904 H   0  0  0  0  0  0  0  0  0  0  0  0
   -4.2197    1.9710   -1.5054 H   0  0  0  0  0  0  0  0  0  0  0  0
   -4.3444    3.7901    0.1325 H   0  0  0  0  0  0  0  0  0  0  0  0
   -3.4283    5.5114    1.6033 H   0  0  0  0  0  0  0  0  0  0  0  0
   -5.0796    4.9919    2.1182 H   0  0  0  0  0  0  0  0  0  0  0  0
   -3.9644    5.7425    3.2775 H   0  0  0  0  0  0  0  0  0  0  0  0
   -2.4999    1.2425    3.1052 H   0  0  0  0  0  0  0  0  0  0  0  0
   -2.3719   -0.5857    1.4440 H   0  0  0  0  0  0  0  0  0  0  0  0
    3.4473    1.5552   -3.0112 H   0  0  0  0  0  0  0  0  0  0  0  0
    5.2870    1.5777   -1.4066 H   0  0  0  0  0  0  0  0  0  0  0  0
  1  2  1  0
  2  3  1  0
  3  4  2  0
  4  5  1  0
  5  6  2  0
  6  7  1  0
  7  8  2  0
  8  9  1  0
  9 10  1  0
 10 11  1  0
 11 12  1  0
 12 13  1  0
 13 14  1  0
 14 15  1  0
 15 16  1  0
 10 17  1  0
 17 18  2  0
 17 19  2  0
 17 20  1  0
 20 21  2  0
 21 22  1  0
 22 23  2  0
 23 24  1  0
 24 25  1  0
 24 26  2  0
 23 27  1  0
 27 28  2  0
  8 29  1  0
 29 30  2  0
 29 31  1  0
 31 32  1  0
 32 33  2  0
 33  3  1  0
 32  6  1  0
 16 12  1  0
 28 20  1  0
  1 34  1  0
  1 35  1  0
  1 36  1  0
  4 37  1  0
  5 38  1  0
  7 39  1  0
  9 40  1  0
  9 41  1  0
 11 42  1  0
 11 43  1  0
 12 44  1  0
 13 45  1  0
 13 46  1  0
 14 47  1  0
 14 48  1  0
 15 49  1  0
 15 50  1  0
 21 51  1  0
 22 52  1  0
 25 53  1  0
 25 54  1  0
 25 55  1  0
 27 56  1  0
 28 57  1  0
 31 58  1  0
 33 59  1  0
M  END
$$$$
