
     RDKit          3D

 51 54  0  0  0  0  0  0  0  0999 V2000
   -6.8214   -1.0814   -1.7901 C   0  0  0  0  0  0  0  0  0  0  0  0
   -6.6275    0.3205   -1.2300 C   0  0  0  0  0  0  0  0  0  0  0  0
   -5.7953    0.2951   -0.0185 N   0  0  0  0  0  0  0  0  0  0  0  0
   -6.5246    0.1744    1.2514 C   0  0  0  0  0  0  0  0  0  0  0  0
   -6.8300    1.5452    1.8380 C   0  0  0  0  0  0  0  0  0  0  0  0
   -4.4073    0.3682   -0.0736 C   0  0  0  0  0  0  0  0  0  0  0  0
   -3.6125    0.4684    1.0865 C   0  0  0  0  0  0  0  0  0  0  0  0
   -2.2092    0.5441    1.0463 C   0  0  0  0  0  0  0  0  0  0  0  0
   -1.5467    0.5205   -0.1730 C   0  0  0  0  0  0  0  0  0  0  0  0
   -0.1022    0.6064   -0.2833 C   0  0  0  0  0  0  0  0  0  0  0  0
    0.4988    0.5834   -1.4855 C   0  0  0  0  0  0  0  0  0  0  0  0
    1.9251    0.6763   -1.5234 C   0  0  0  0  0  0  0  0  0  0  0  0
    2.7523    0.1010   -0.6652 N   0  0  0  0  0  0  0  0  0  0  0  0
    4.0779    0.4001   -0.9499 C   0  0  0  0  0  0  0  0  0  0  0  0
    5.1629   -0.1586   -0.1447 C   0  0  0  0  0  0  0  0  0  0  0  0
    6.4973   -0.1556   -0.5747 C   0  0  0  0  0  0  0  0  0  0  0  0
    7.5144   -0.6999    0.2236 C   0  0  0  0  0  0  0  0  0  0  0  0
    7.2122   -1.2590    1.4641 C   0  0  0  0  0  0  0  0  0  0  0  0
    8.1044   -1.8189    2.3352 O   0  0  0  0  0  0  0  0  0  0  0  0
    9.4679   -1.8442    1.9325 C   0  0  0  0  0  0  0  0  0  0  0  0
    5.8861   -1.2720    1.8962 C   0  0  0  0  0  0  0  0  0  0  0  0
    4.8711   -0.7306    1.1007 C   0  0  0  0  0  0  0  0  0  0  0  0
    4.2470    1.2660   -2.0095 C   0  0  0  0  0  0  0  0  0  0  0  0
    2.7295    1.7006   -2.6689 S   0  0  0  0  0  0  0  0  0  0  0  0
   -0.2983    0.4156   -2.7312 C   0  0  0  0  0  0  0  0  0  0  0  0
    0.2076    0.3000   -3.8426 O   0  0  0  0  0  0  0  0  0  0  0  0
   -1.6853    0.3828   -2.5870 O   0  0  0  0  0  0  0  0  0  0  0  0
   -2.3052    0.4217   -1.3245 C   0  0  0  0  0  0  0  0  0  0  0  0
   -3.7017    0.3478   -1.2883 C   0  0  0  0  0  0  0  0  0  0  0  0
   -5.8698   -1.5408   -2.0738 H   0  0  0  0  0  0  0  0  0  0  0  0
   -7.4599   -1.0480   -2.6785 H   0  0  0  0  0  0  0  0  0  0  0  0
   -7.2990   -1.7365   -1.0540 H   0  0  0  0  0  0  0  0  0  0  0  0
   -7.6145    0.7365   -0.9901 H   0  0  0  0  0  0  0  0  0  0  0  0
   -6.2191    0.9946   -1.9911 H   0  0  0  0  0  0  0  0  0  0  0  0
   -5.9869   -0.4508    1.9729 H   0  0  0  0  0  0  0  0  0  0  0  0
   -7.4748   -0.3486    1.0831 H   0  0  0  0  0  0  0  0  0  0  0  0
   -5.9165    2.1079    2.0527 H   0  0  0  0  0  0  0  0  0  0  0  0
   -7.3909    1.4398    2.7719 H   0  0  0  0  0  0  0  0  0  0  0  0
   -7.4325    2.1434    1.1463 H   0  0  0  0  0  0  0  0  0  0  0  0
   -4.0676    0.5027    2.0719 H   0  0  0  0  0  0  0  0  0  0  0  0
   -1.6586    0.6233    1.9805 H   0  0  0  0  0  0  0  0  0  0  0  0
    0.4722    0.7006    0.6347 H   0  0  0  0  0  0  0  0  0  0  0  0
    6.7751    0.2556   -1.5414 H   0  0  0  0  0  0  0  0  0  0  0  0
    8.5296   -0.6729   -0.1583 H   0  0  0  0  0  0  0  0  0  0  0  0
    9.8599   -0.8300    1.8029 H   0  0  0  0  0  0  0  0  0  0  0  0
   10.0432   -2.3239    2.7302 H   0  0  0  0  0  0  0  0  0  0  0  0
    9.6000   -2.4391    1.0227 H   0  0  0  0  0  0  0  0  0  0  0  0
    5.6365   -1.7094    2.8598 H   0  0  0  0  0  0  0  0  0  0  0  0
    3.8460   -0.7598    1.4650 H   0  0  0  0  0  0  0  0  0  0  0  0
    5.1553    1.6769   -2.4236 H   0  0  0  0  0  0  0  0  0  0  0  0
   -4.2149    0.2608   -2.2398 H   0  0  0  0  0  0  0  0  0  0  0  0
  1  2  1  0
  2  3  1  0
  3  4  1  0
  4  5  1  0
  3  6  1  0
  6  7  2  0
  7  8  1  0
  8  9  2  0
  9 10  1  0
 10 11  2  0
 11 12  1  0
 12 13  2  0
 13 14  1  0
 14 15  1  0
 15 16  2  0
 16 17  1  0
 17 18  2  0
 18 19  1  0
 19 20  1  0
 18 21  1  0
 21 22  2  0
 14 23  2  0
 23 24  1  0
 11 25  1  0
 25 26  2  0
 25 27  1  0
 27 28  1  0
 28 29  2  0
 29  6  1  0
 28  9  1  0
 24 12  1  0
 22 15  1  0
  1 30  1  0
  1 31  1  0
  1 32  1  0
  2 33  1  0
  2 34  1  0
  4 35  1  0
  4 36  1  0
  5 37  1  0
  5 38  1  0
  5 39  1  0
  7 40  1  0
  8 41  1  0
 10 42  1  0
 16 43  1  0
 17 44  1  0
 20 45  1  0
 20 46  1  0
 20 47  1  0
 21 48  1  0
 22 49  1  0
 23 50  1  0
 29 51  1  0
M  END
$$$$
