
     RDKit          3D

 44 46  0  0  0  0  0  0  0  0999 V2000
   -1.8846    2.9343    0.9810 C   0  0  0  0  0  0  0  0  0  0  0  0
   -1.9135    1.4854    0.5755 C   0  0  0  0  0  0  0  0  0  0  0  0
   -1.6070    1.1374   -0.7514 C   0  0  0  0  0  0  0  0  0  0  0  0
   -1.5948   -0.1988   -1.1920 C   0  0  0  0  0  0  0  0  0  0  0  0
   -1.2650   -0.4608   -2.6335 C   0  0  0  0  0  0  0  0  0  0  0  0
   -1.8909   -1.2008   -0.2548 C   0  0  0  0  0  0  0  0  0  0  0  0
   -1.8239   -2.9554   -0.6151 S   0  0  0  0  0  6  0  0  0  0  0  0
   -2.8912   -3.5854    0.1360 O   0  0  0  0  0  0  0  0  0  0  0  0
   -1.6968   -3.1723   -2.0387 O   0  0  0  0  0  0  0  0  0  0  0  0
   -0.3806   -3.4325    0.1443 N   0  0  0  0  0  0  0  0  0  0  0  0
    0.8173   -2.7493   -0.2073 C   0  0  0  0  0  0  0  0  0  0  0  0
    1.4339   -3.0089   -1.4284 C   0  0  0  0  0  0  0  0  0  0  0  0
    2.5608   -2.2793   -1.8029 C   0  0  0  0  0  0  0  0  0  0  0  0
    3.0487   -1.2762   -0.9669 C   0  0  0  0  0  0  0  0  0  0  0  0
    4.1375   -0.5880   -1.4280 O   0  0  0  0  0  0  0  0  0  0  0  0
    2.4369   -1.0023    0.2649 C   0  0  0  0  0  0  0  0  0  0  0  0
    3.0301    0.2280    1.4164 S   0  0  0  0  0  0  0  0  0  0  0  0
    2.7582    1.7048    0.5364 C   0  0  0  0  0  0  0  0  0  0  0  0
    1.8513    2.6556    0.9103 N   0  0  0  0  0  0  0  0  0  0  0  0
    1.9996    3.5816   -0.0073 C   0  0  0  0  0  0  0  0  0  0  0  0
    2.9637    3.2009   -0.8861 N   0  0  0  0  0  0  0  0  0  0  0  0
    3.4747    2.0016   -0.5560 N   0  0  0  0  0  0  0  0  0  0  0  0
    1.3205   -1.7608    0.6421 C   0  0  0  0  0  0  0  0  0  0  0  0
   -2.2392   -0.8586    1.0656 C   0  0  0  0  0  0  0  0  0  0  0  0
   -2.2523    0.4763    1.4915 C   0  0  0  0  0  0  0  0  0  0  0  0
   -2.6022    0.7941    2.9193 C   0  0  0  0  0  0  0  0  0  0  0  0
   -1.2126    3.0797    1.8328 H   0  0  0  0  0  0  0  0  0  0  0  0
   -1.5217    3.5726    0.1684 H   0  0  0  0  0  0  0  0  0  0  0  0
   -2.8908    3.2731    1.2465 H   0  0  0  0  0  0  0  0  0  0  0  0
   -1.3654    1.9308   -1.4581 H   0  0  0  0  0  0  0  0  0  0  0  0
   -1.0530    0.4702   -3.1716 H   0  0  0  0  0  0  0  0  0  0  0  0
   -2.1134   -0.9300   -3.1406 H   0  0  0  0  0  0  0  0  0  0  0  0
   -0.3719   -1.0828   -2.7249 H   0  0  0  0  0  0  0  0  0  0  0  0
   -0.5345   -3.6343    1.1308 H   0  0  0  0  0  0  0  0  0  0  0  0
    1.0387   -3.7717   -2.0952 H   0  0  0  0  0  0  0  0  0  0  0  0
    3.0477   -2.4781   -2.7539 H   0  0  0  0  0  0  0  0  0  0  0  0
    4.1557    0.2825   -0.9747 H   0  0  0  0  0  0  0  0  0  0  0  0
    1.4596    4.5148   -0.0815 H   0  0  0  0  0  0  0  0  0  0  0  0
    3.3172    3.6895   -1.7020 H   0  0  0  0  0  0  0  0  0  0  0  0
    0.8293   -1.5600    1.5908 H   0  0  0  0  0  0  0  0  0  0  0  0
   -2.4940   -1.6448    1.7754 H   0  0  0  0  0  0  0  0  0  0  0  0
   -3.4251    1.5147    2.9611 H   0  0  0  0  0  0  0  0  0  0  0  0
   -1.7306    1.2032    3.4398 H   0  0  0  0  0  0  0  0  0  0  0  0
   -2.9258   -0.1002    3.4624 H   0  0  0  0  0  0  0  0  0  0  0  0
  1  2  1  0
  2  3  2  0
  3  4  1  0
  4  5  1  0
  4  6  2  0
  6  7  1  0
  7  8  2  0
  7  9  2  0
  7 10  1  0
 10 11  1  0
 11 12  2  0
 12 13  1  0
 13 14  2  0
 14 15  1  0
 14 16  1  0
 16 17  1  0
 17 18  1  0
 18 19  1  0
 19 20  2  0
 20 21  1  0
 21 22  1  0
 16 23  2  0
  6 24  1  0
 24 25  2  0
 25 26  1  0
 25  2  1  0
 23 11  1  0
 22 18  2  0
  1 27  1  0
  1 28  1  0
  1 29  1  0
  3 30  1  0
  5 31  1  0
  5 32  1  0
  5 33  1  0
 10 34  1  0
 12 35  1  0
 13 36  1  0
 15 37  1  0
 20 38  1  0
 21 39  1  0
 23 40  1  0
 24 41  1  0
 26 42  1  0
 26 43  1  0
 26 44  1  0
M  END
$$$$
