
     RDKit          3D

 38 39  0  0  0  0  0  0  0  0999 V2000
   -4.1799    1.8549    2.1226 C   0  0  0  0  0  0  0  0  0  0  0  0
   -3.5574    0.8351    1.3494 O   0  0  0  0  0  0  0  0  0  0  0  0
   -4.3148    0.1675    0.4268 C   0  0  0  0  0  0  0  0  0  0  0  0
   -5.6831    0.4058    0.2306 C   0  0  0  0  0  0  0  0  0  0  0  0
   -6.4144   -0.3351   -0.7023 C   0  0  0  0  0  0  0  0  0  0  0  0
   -5.7915   -1.3280   -1.4483 C   0  0  0  0  0  0  0  0  0  0  0  0
   -4.4325   -1.5750   -1.2667 C   0  0  0  0  0  0  0  0  0  0  0  0
   -3.6813   -0.8281   -0.3403 C   0  0  0  0  0  0  0  0  0  0  0  0
   -2.2261   -1.1664   -0.2417 C   0  0  0  0  0  0  0  0  0  0  0  0
   -1.8589   -2.2889   -0.5963 O   0  0  0  0  0  0  0  0  0  0  0  0
   -1.2451   -0.1088    0.2469 C   0  0  0  0  0  0  0  0  0  0  0  0
    0.0833   -0.4690   -0.1483 O   0  0  0  0  0  0  0  0  0  0  0  0
    1.0276    0.4179    0.2405 C   0  0  0  0  0  0  0  0  0  0  0  0
    0.8402    1.4554    0.8542 O   0  0  0  0  0  0  0  0  0  0  0  0
    2.3390   -0.0849   -0.2146 C   0  0  0  0  0  0  0  0  0  0  0  0
    3.4481    0.6346    0.0136 C   0  0  0  0  0  0  0  0  0  0  0  0
    4.7990    0.2166   -0.3857 C   0  0  0  0  0  0  0  0  0  0  0  0
    5.8848    0.5908    0.4174 C   0  0  0  0  0  0  0  0  0  0  0  0
    7.1894    0.2372    0.0631 C   0  0  0  0  0  0  0  0  0  0  0  0
    7.4234   -0.4851   -1.1045 C   0  0  0  0  0  0  0  0  0  0  0  0
    6.3546   -0.8493   -1.9204 C   0  0  0  0  0  0  0  0  0  0  0  0
    5.0495   -0.4961   -1.5660 C   0  0  0  0  0  0  0  0  0  0  0  0
   -3.4200    2.2810    2.7847 H   0  0  0  0  0  0  0  0  0  0  0  0
   -4.9753    1.4420    2.7513 H   0  0  0  0  0  0  0  0  0  0  0  0
   -4.5545    2.6612    1.4837 H   0  0  0  0  0  0  0  0  0  0  0  0
   -6.2201    1.1611    0.7962 H   0  0  0  0  0  0  0  0  0  0  0  0
   -7.4756   -0.1392   -0.8392 H   0  0  0  0  0  0  0  0  0  0  0  0
   -6.3593   -1.9111   -2.1692 H   0  0  0  0  0  0  0  0  0  0  0  0
   -3.9543   -2.3558   -1.8570 H   0  0  0  0  0  0  0  0  0  0  0  0
   -1.2854   -0.0756    1.3404 H   0  0  0  0  0  0  0  0  0  0  0  0
   -1.4973    0.8558   -0.2062 H   0  0  0  0  0  0  0  0  0  0  0  0
    2.3491   -1.0459   -0.7138 H   0  0  0  0  0  0  0  0  0  0  0  0
    3.3827    1.5831    0.5449 H   0  0  0  0  0  0  0  0  0  0  0  0
    5.7243    1.1555    1.3334 H   0  0  0  0  0  0  0  0  0  0  0  0
    8.0215    0.5275    0.6993 H   0  0  0  0  0  0  0  0  0  0  0  0
    8.4380   -0.7596   -1.3811 H   0  0  0  0  0  0  0  0  0  0  0  0
    6.5356   -1.4046   -2.8371 H   0  0  0  0  0  0  0  0  0  0  0  0
    4.2370   -0.7765   -2.2315 H   0  0  0  0  0  0  0  0  0  0  0  0
  1  2  1  0
  2  3  1  0
  3  4  2  0
  4  5  1  0
  5  6  2  0
  6  7  1  0
  7  8  2  0
  8  9  1  0
  9 10  2  0
  9 11  1  0
 11 12  1  0
 12 13  1  0
 13 14  2  0
 13 15  1  0
 15 16  2  3
 16 17  1  0
 17 18  2  0
 18 19  1  0
 19 20  2  0
 20 21  1  0
 21 22  2  0
  8  3  1  0
 22 17  1  0
  1 23  1  0
  1 24  1  0
  1 25  1  0
  4 26  1  0
  5 27  1  0
  6 28  1  0
  7 29  1  0
 11 30  1  0
 11 31  1  0
 15 32  1  0
 16 33  1  0
 18 34  1  0
 19 35  1  0
 20 36  1  0
 21 37  1  0
 22 38  1  0
M  END
$$$$
