
     RDKit          3D

 57 60  0  0  0  0  0  0  0  0999 V2000
   -7.7266    3.7422    1.1569 C   0  0  0  0  0  0  0  0  0  0  0  0
   -7.4107    2.4779    1.9413 C   0  0  0  0  0  0  0  0  0  0  0  0
   -6.2724    1.7063    1.3257 C   0  0  0  0  0  0  0  0  0  0  0  0
   -6.5163    0.7313    0.3555 C   0  0  0  0  0  0  0  0  0  0  0  0
   -5.4552    0.0275   -0.2249 C   0  0  0  0  0  0  0  0  0  0  0  0
   -4.1176    0.2769    0.1336 C   0  0  0  0  0  0  0  0  0  0  0  0
   -3.0143   -0.4789   -0.4993 C   0  0  0  0  0  0  0  0  0  0  0  0
   -1.7382    0.0313   -0.6589 C   0  0  0  0  0  0  0  0  0  0  0  0
   -0.7670   -0.7738   -1.2564 C   0  0  0  0  0  0  0  0  0  0  0  0
    0.5962   -0.2008   -1.3379 C   0  0  0  0  0  0  0  0  0  0  0  0
    0.7398    0.8664   -1.9183 O   0  0  0  0  0  0  0  0  0  0  0  0
    1.5544   -0.9382   -0.6693 N   0  0  0  0  0  0  0  0  0  0  0  0
    2.9339   -0.6650   -0.5788 C   0  0  0  0  0  0  0  0  0  0  0  0
    3.5622    0.3961   -1.2368 C   0  0  0  0  0  0  0  0  0  0  0  0
    4.9398    0.6012   -1.1015 C   0  0  0  0  0  0  0  0  0  0  0  0
    5.6910   -0.2549   -0.2941 C   0  0  0  0  0  0  0  0  0  0  0  0
    7.4415   -0.0123   -0.1453 S   0  0  0  0  0  6  0  0  0  0  0  0
    8.0597   -1.2431    0.2923 O   0  0  0  0  0  0  0  0  0  0  0  0
    7.8918    0.6543   -1.3504 O   0  0  0  0  0  0  0  0  0  0  0  0
    7.5700    1.1270    1.0556 N   0  0  0  0  0  0  0  0  0  0  0  0
    7.1926    0.9419    2.3895 C   0  0  0  0  0  0  0  0  0  0  0  0
    7.4854    2.1202    3.2747 C   0  0  0  0  0  0  0  0  0  0  0  0
    6.6484   -0.0705    2.8039 O   0  0  0  0  0  0  0  0  0  0  0  0
    5.0813   -1.3303    0.3521 C   0  0  0  0  0  0  0  0  0  0  0  0
    3.7052   -1.5288    0.2114 C   0  0  0  0  0  0  0  0  0  0  0  0
   -1.0772   -2.0621   -1.7407 C   0  0  0  0  0  0  0  0  0  0  0  0
   -0.1761   -2.9189   -2.4254 C   0  0  0  0  0  0  0  0  0  0  0  0
   -0.5743   -4.1819   -2.8582 C   0  0  0  0  0  0  0  0  0  0  0  0
   -1.8744   -4.6041   -2.6234 C   0  0  0  0  0  0  0  0  0  0  0  0
   -2.7693   -3.7553   -1.9682 C   0  0  0  0  0  0  0  0  0  0  0  0
   -2.3989   -2.4908   -1.5302 C   0  0  0  0  0  0  0  0  0  0  0  0
   -3.3258   -1.7298   -0.9243 N   0  0  0  0  0  0  0  0  0  0  0  0
   -3.8921    1.2612    1.1129 C   0  0  0  0  0  0  0  0  0  0  0  0
   -4.9507    1.9683    1.6973 C   0  0  0  0  0  0  0  0  0  0  0  0
   -8.0143    3.5089    0.1262 H   0  0  0  0  0  0  0  0  0  0  0  0
   -8.5553    4.2816    1.6264 H   0  0  0  0  0  0  0  0  0  0  0  0
   -6.8620    4.4137    1.1204 H   0  0  0  0  0  0  0  0  0  0  0  0
   -8.3027    1.8417    1.9933 H   0  0  0  0  0  0  0  0  0  0  0  0
   -7.1629    2.7369    2.9778 H   0  0  0  0  0  0  0  0  0  0  0  0
   -7.5333    0.5082    0.0409 H   0  0  0  0  0  0  0  0  0  0  0  0
   -5.6811   -0.7279   -0.9767 H   0  0  0  0  0  0  0  0  0  0  0  0
   -1.4837    1.0366   -0.3392 H   0  0  0  0  0  0  0  0  0  0  0  0
    1.2301   -1.7538   -0.1618 H   0  0  0  0  0  0  0  0  0  0  0  0
    3.0080    1.0788   -1.8742 H   0  0  0  0  0  0  0  0  0  0  0  0
    5.4105    1.4242   -1.6346 H   0  0  0  0  0  0  0  0  0  0  0  0
    7.9726    2.0008    0.7333 H   0  0  0  0  0  0  0  0  0  0  0  0
    6.8997    2.9821    2.9447 H   0  0  0  0  0  0  0  0  0  0  0  0
    8.5517    2.3592    3.2330 H   0  0  0  0  0  0  0  0  0  0  0  0
    7.2176    1.8813    4.3076 H   0  0  0  0  0  0  0  0  0  0  0  0
    5.6644   -2.0060    0.9757 H   0  0  0  0  0  0  0  0  0  0  0  0
    3.2488   -2.3666    0.7333 H   0  0  0  0  0  0  0  0  0  0  0  0
    0.8410   -2.6003   -2.6470 H   0  0  0  0  0  0  0  0  0  0  0  0
    0.1253   -4.8271   -3.3840 H   0  0  0  0  0  0  0  0  0  0  0  0
   -2.2024   -5.5853   -2.9571 H   0  0  0  0  0  0  0  0  0  0  0  0
   -3.7913   -4.0888   -1.7995 H   0  0  0  0  0  0  0  0  0  0  0  0
   -2.8844    1.4877    1.4529 H   0  0  0  0  0  0  0  0  0  0  0  0
   -4.7327    2.7238    2.4491 H   0  0  0  0  0  0  0  0  0  0  0  0
  1  2  1  0
  2  3  1  0
  3  4  2  0
  4  5  1  0
  5  6  2  0
  6  7  1  0
  7  8  2  0
  8  9  1  0
  9 10  1  0
 10 11  2  0
 10 12  1  0
 12 13  1  0
 13 14  2  0
 14 15  1  0
 15 16  2  0
 16 17  1  0
 17 18  2  0
 17 19  2  0
 17 20  1  0
 20 21  1  0
 21 22  1  0
 21 23  2  0
 16 24  1  0
 24 25  2  0
  9 26  2  0
 26 27  1  0
 27 28  2  0
 28 29  1  0
 29 30  2  0
 30 31  1  0
 31 32  2  0
  6 33  1  0
 33 34  2  0
 34  3  1  0
 32  7  1  0
 25 13  1  0
 31 26  1  0
  1 35  1  0
  1 36  1  0
  1 37  1  0
  2 38  1  0
  2 39  1  0
  4 40  1  0
  5 41  1  0
  8 42  1  0
 12 43  1  0
 14 44  1  0
 15 45  1  0
 20 46  1  0
 22 47  1  0
 22 48  1  0
 22 49  1  0
 24 50  1  0
 25 51  1  0
 27 52  1  0
 28 53  1  0
 29 54  1  0
 30 55  1  0
 33 56  1  0
 34 57  1  0
M  END
$$$$
