
     RDKit          3D

 37 39  0  0  0  0  0  0  0  0999 V2000
    6.4299   -0.2453    0.3820 C   0  0  0  0  0  0  0  0  0  0  0  0
    5.3348    0.0107   -0.4897 O   0  0  0  0  0  0  0  0  0  0  0  0
    4.0774   -0.0778    0.0445 C   0  0  0  0  0  0  0  0  0  0  0  0
    3.7740   -0.4145    1.3705 C   0  0  0  0  0  0  0  0  0  0  0  0
    2.4454   -0.4715    1.7995 C   0  0  0  0  0  0  0  0  0  0  0  0
    1.4404   -0.1906    0.8860 C   0  0  0  0  0  0  0  0  0  0  0  0
    1.7187    0.1493   -0.4534 C   0  0  0  0  0  0  0  0  0  0  0  0
    3.0462    0.2036   -0.8647 C   0  0  0  0  0  0  0  0  0  0  0  0
    0.5668    0.3959   -1.2338 N   0  0  0  0  0  0  0  0  0  0  0  0
    0.7339    0.9450   -2.5693 C   0  0  0  0  0  0  0  0  0  0  0  0
   -0.6006    0.3094   -0.4731 C   0  0  0  0  0  0  0  0  0  0  0  0
   -1.8558    0.5383   -0.9031 C   0  0  0  0  0  0  0  0  0  0  0  0
   -3.0668    0.4388   -0.0834 C   0  0  0  0  0  0  0  0  0  0  0  0
   -3.5505    1.5795    0.5683 C   0  0  0  0  0  0  0  0  0  0  0  0
   -4.6874    1.4975    1.3610 C   0  0  0  0  0  0  0  0  0  0  0  0
   -5.3277    0.2764    1.4976 C   0  0  0  0  0  0  0  0  0  0  0  0
   -4.8231   -0.8366    0.8368 C   0  0  0  0  0  0  0  0  0  0  0  0
   -3.7203   -0.7480    0.0550 N   0  0  0  0  0  4  0  0  0  0  0  0
   -3.2304   -1.9686   -0.6181 C   0  0  0  0  0  0  0  0  0  0  0  0
   -0.3136   -0.1839    1.2247 S   0  0  0  0  0  0  0  0  0  0  0  0
    6.4023   -1.2735    0.7574 H   0  0  0  0  0  0  0  0  0  0  0  0
    6.4560    0.4766    1.2049 H   0  0  0  0  0  0  0  0  0  0  0  0
    7.3516   -0.1260   -0.1955 H   0  0  0  0  0  0  0  0  0  0  0  0
    4.5528   -0.6354    2.0941 H   0  0  0  0  0  0  0  0  0  0  0  0
    2.2130   -0.7264    2.8287 H   0  0  0  0  0  0  0  0  0  0  0  0
    3.3152    0.4602   -1.8842 H   0  0  0  0  0  0  0  0  0  0  0  0
    1.1439    1.9598   -2.5219 H   0  0  0  0  0  0  0  0  0  0  0  0
    1.3990    0.3187   -3.1742 H   0  0  0  0  0  0  0  0  0  0  0  0
   -0.2132    0.9959   -3.1146 H   0  0  0  0  0  0  0  0  0  0  0  0
   -2.0412    0.8404   -1.9286 H   0  0  0  0  0  0  0  0  0  0  0  0
   -3.0337    2.5332    0.4698 H   0  0  0  0  0  0  0  0  0  0  0  0
   -5.0645    2.3801    1.8758 H   0  0  0  0  0  0  0  0  0  0  0  0
   -6.2150    0.1896    2.1216 H   0  0  0  0  0  0  0  0  0  0  0  0
   -5.3002   -1.8084    0.9320 H   0  0  0  0  0  0  0  0  0  0  0  0
   -3.9878   -2.7545   -0.5554 H   0  0  0  0  0  0  0  0  0  0  0  0
   -3.0498   -1.7421   -1.6719 H   0  0  0  0  0  0  0  0  0  0  0  0
   -2.3198   -2.2957   -0.1119 H   0  0  0  0  0  0  0  0  0  0  0  0
  1  2  1  0
  2  3  1  0
  3  4  2  0
  4  5  1  0
  5  6  2  0
  6  7  1  0
  7  8  2  0
  7  9  1  0
  9 10  1  0
  9 11  1  0
 11 12  2  3
 12 13  1  0
 13 14  2  0
 14 15  1  0
 15 16  2  0
 16 17  1  0
 17 18  2  0
 18 19  1  0
 11 20  1  0
  8  3  1  0
 18 13  1  0
 20  6  1  0
  1 21  1  0
  1 22  1  0
  1 23  1  0
  4 24  1  0
  5 25  1  0
  8 26  1  0
 10 27  1  0
 10 28  1  0
 10 29  1  0
 12 30  1  0
 14 31  1  0
 15 32  1  0
 16 33  1  0
 17 34  1  0
 19 35  1  0
 19 36  1  0
 19 37  1  0
M  CHG  1  18   1
M  END
$$$$
