
     RDKit          3D

 54 58  0  0  0  0  0  0  0  0999 V2000
    4.5232   -0.7389   -2.2164 O   0  0  0  0  0  0  0  0  0  0  0  0
    3.4790   -0.1035   -2.0778 C   0  0  0  0  0  0  0  0  0  0  0  0
    2.3655   -0.1416   -3.1076 C   0  0  0  0  0  0  0  0  0  0  0  0
    1.0763   -1.3105   -2.5895 S   0  0  0  0  0  0  0  0  0  0  0  0
   -0.1046   -0.2214   -1.8675 C   0  0  0  0  0  0  0  0  0  0  0  0
    0.3678    0.7992   -1.2117 N   0  0  0  0  0  0  0  0  0  0  0  0
   -0.6054    1.6390   -0.6516 C   0  0  0  0  0  0  0  0  0  0  0  0
   -1.9350    1.4425   -0.8628 C   0  0  0  0  0  0  0  0  0  0  0  0
   -2.8915    2.6158   -0.1156 S   0  0  0  0  0  0  0  0  0  0  0  0
   -1.5099    3.4090    0.5494 C   0  0  0  0  0  0  0  0  0  0  0  0
   -1.5093    4.5549    1.3687 C   0  0  0  0  0  0  0  0  0  0  0  0
   -0.2918    5.0568    1.8251 C   0  0  0  0  0  0  0  0  0  0  0  0
    0.9036    4.4422    1.4716 C   0  0  0  0  0  0  0  0  0  0  0  0
    0.8989    3.3086    0.6544 C   0  0  0  0  0  0  0  0  0  0  0  0
   -0.3193    2.7680    0.1765 C   0  0  0  0  0  0  0  0  0  0  0  0
   -2.4524    0.3466   -1.6241 C   0  0  0  0  0  0  0  0  0  0  0  0
   -3.6442    0.1989   -1.8881 O   0  0  0  0  0  0  0  0  0  0  0  0
   -1.4533   -0.5339   -2.0632 N   0  0  0  0  0  0  0  0  0  0  0  0
   -1.9294   -1.8068   -2.6336 C   0  0  0  0  0  0  0  0  0  0  0  0
   -1.8086   -2.9990   -1.6596 C   0  0  0  0  0  0  0  0  0  0  0  0
   -2.3234   -2.7109   -0.2694 C   0  0  0  0  0  0  0  0  0  0  0  0
   -3.6997   -2.6019   -0.0283 C   0  0  0  0  0  0  0  0  0  0  0  0
   -4.1700   -2.2721    1.2456 C   0  0  0  0  0  0  0  0  0  0  0  0
   -3.2731   -2.0569    2.2901 C   0  0  0  0  0  0  0  0  0  0  0  0
   -1.9013   -2.1705    2.0636 C   0  0  0  0  0  0  0  0  0  0  0  0
   -1.4279   -2.4964    0.7901 C   0  0  0  0  0  0  0  0  0  0  0  0
    3.2196    0.6969   -0.9888 N   0  0  0  0  0  0  0  0  0  0  0  0
    4.0511    0.6487    0.1906 C   0  0  0  0  0  0  0  0  0  0  0  0
    3.3880   -0.2458    1.1793 C   0  0  0  0  0  0  0  0  0  0  0  0
    3.4142   -1.6100    1.3911 C   0  0  0  0  0  0  0  0  0  0  0  0
    2.5415   -1.8636    2.4838 C   0  0  0  0  0  0  0  0  0  0  0  0
    2.0286   -0.6425    2.8564 C   0  0  0  0  0  0  0  0  0  0  0  0
    2.5316    0.3448    2.0688 O   0  0  0  0  0  0  0  0  0  0  0  0
    2.7946   -0.4917   -4.0579 H   0  0  0  0  0  0  0  0  0  0  0  0
    1.9704    0.8612   -3.2928 H   0  0  0  0  0  0  0  0  0  0  0  0
   -2.4412    5.0401    1.6442 H   0  0  0  0  0  0  0  0  0  0  0  0
   -0.2782    5.9374    2.4621 H   0  0  0  0  0  0  0  0  0  0  0  0
    1.8518    4.8407    1.8322 H   0  0  0  0  0  0  0  0  0  0  0  0
    1.8432    2.8375    0.3967 H   0  0  0  0  0  0  0  0  0  0  0  0
   -2.9794   -1.7141   -2.9339 H   0  0  0  0  0  0  0  0  0  0  0  0
   -1.3833   -2.0223   -3.5592 H   0  0  0  0  0  0  0  0  0  0  0  0
   -0.7643   -3.3287   -1.5951 H   0  0  0  0  0  0  0  0  0  0  0  0
   -2.3559   -3.8576   -2.0710 H   0  0  0  0  0  0  0  0  0  0  0  0
   -4.4198   -2.7492   -0.8344 H   0  0  0  0  0  0  0  0  0  0  0  0
   -5.2398   -2.1714    1.4157 H   0  0  0  0  0  0  0  0  0  0  0  0
   -3.6439   -1.7952    3.2781 H   0  0  0  0  0  0  0  0  0  0  0  0
   -1.1981   -1.9974    2.8773 H   0  0  0  0  0  0  0  0  0  0  0  0
   -0.3530   -2.5690    0.6317 H   0  0  0  0  0  0  0  0  0  0  0  0
    2.2433    0.9415   -0.8370 H   0  0  0  0  0  0  0  0  0  0  0  0
    5.0613    0.2909   -0.0503 H   0  0  0  0  0  0  0  0  0  0  0  0
    4.1282    1.6684    0.5783 H   0  0  0  0  0  0  0  0  0  0  0  0
    3.9901   -2.3268    0.8166 H   0  0  0  0  0  0  0  0  0  0  0  0
    2.3077   -2.8179    2.9347 H   0  0  0  0  0  0  0  0  0  0  0  0
    1.3275   -0.3218    3.6148 H   0  0  0  0  0  0  0  0  0  0  0  0
  1  2  2  0
  2  3  1  0
  3  4  1  0
  4  5  1  0
  5  6  2  0
  6  7  1  0
  7  8  2  0
  8  9  1  0
  9 10  1  0
 10 11  2  0
 11 12  1  0
 12 13  2  0
 13 14  1  0
 14 15  2  0
  8 16  1  0
 16 17  2  0
 16 18  1  0
 18 19  1  0
 19 20  1  0
 20 21  1  0
 21 22  2  0
 22 23  1  0
 23 24  2  0
 24 25  1  0
 25 26  2  0
  2 27  1  0
 27 28  1  0
 28 29  1  0
 29 30  2  0
 30 31  1  0
 31 32  2  0
 32 33  1  0
 18  5  1  0
 26 21  1  0
 33 29  1  0
 15  7  1  0
 15 10  1  0
  3 34  1  0
  3 35  1  0
 11 36  1  0
 12 37  1  0
 13 38  1  0
 14 39  1  0
 19 40  1  0
 19 41  1  0
 20 42  1  0
 20 43  1  0
 22 44  1  0
 23 45  1  0
 24 46  1  0
 25 47  1  0
 26 48  1  0
 27 49  1  0
 28 50  1  0
 28 51  1  0
 30 52  1  0
 31 53  1  0
 32 54  1  0
M  END
$$$$
