
     RDKit          3D

 73 75  0  0  0  0  0  0  0  0999 V2000
   -1.0800   -3.8750    0.5597 C   0  0  0  0  0  0  0  0  0  0  0  0
   -2.2497   -2.8996    0.5302 C   0  0  0  0  0  0  0  0  0  0  0  0
   -1.8309   -1.4224    0.5762 C   0  0  0  0  0  0  0  0  0  0  0  0
   -0.9560   -0.9293   -0.9615 S   0  0  0  0  0  0  0  0  0  0  0  0
   -0.3675    0.6382   -0.4419 C   0  0  0  0  0  0  0  0  0  0  0  0
   -1.2579    1.5510   -0.2455 N   0  0  0  0  0  0  0  0  0  0  0  0
   -0.8447    2.8115    0.1895 C   0  0  0  0  0  0  0  0  0  0  0  0
   -1.8110    3.7947    0.4121 C   0  0  0  0  0  0  0  0  0  0  0  0
   -1.4435    5.0711    0.8543 C   0  0  0  0  0  0  0  0  0  0  0  0
   -2.3288    6.0932    1.0944 O   0  0  0  0  0  0  0  0  0  0  0  0
   -3.7161    5.8022    0.9841 C   0  0  0  0  0  0  0  0  0  0  0  0
   -0.0811    5.3687    1.0757 C   0  0  0  0  0  0  0  0  0  0  0  0
    0.1960    6.6435    1.5032 O   0  0  0  0  0  0  0  0  0  0  0  0
    1.5527    6.9744    1.7631 C   0  0  0  0  0  0  0  0  0  0  0  0
    0.8846    4.3821    0.8620 C   0  0  0  0  0  0  0  0  0  0  0  0
    0.4907    3.1129    0.4229 C   0  0  0  0  0  0  0  0  0  0  0  0
    1.4785    2.0434    0.1994 C   0  0  0  0  0  0  0  0  0  0  0  0
    2.6610    2.2593    0.4570 O   0  0  0  0  0  0  0  0  0  0  0  0
    0.9942    0.8264   -0.2812 N   0  0  0  0  0  0  0  0  0  0  0  0
    2.0036   -0.2134   -0.5201 C   0  0  0  0  0  0  0  0  0  0  0  0
    2.2828   -1.0378    0.7422 C   0  0  0  0  0  0  0  0  0  0  0  0
    3.3290   -2.0951    0.4943 C   0  0  0  0  0  0  0  0  0  0  0  0
    4.6683   -1.8510    0.8075 C   0  0  0  0  0  0  0  0  0  0  0  0
    5.6429   -2.8185    0.5521 C   0  0  0  0  0  0  0  0  0  0  0  0
    5.2929   -4.0435   -0.0251 C   0  0  0  0  0  0  0  0  0  0  0  0
    6.1837   -5.0487   -0.3128 O   0  0  0  0  0  0  0  0  0  0  0  0
    7.5634   -4.7816   -0.1072 C   0  0  0  0  0  0  0  0  0  0  0  0
    3.9441   -4.3021   -0.3381 C   0  0  0  0  0  0  0  0  0  0  0  0
    3.6766   -5.5256   -0.9034 O   0  0  0  0  0  0  0  0  0  0  0  0
    2.3148   -5.8863   -1.0798 C   0  0  0  0  0  0  0  0  0  0  0  0
    2.9756   -3.3231   -0.0837 C   0  0  0  0  0  0  0  0  0  0  0  0
   -3.0648   -0.5502    0.8251 C   0  0  0  0  0  0  0  0  0  0  0  0
   -3.2814   -0.0517    1.9295 O   0  0  0  0  0  0  0  0  0  0  0  0
   -3.9358   -0.4346   -0.2308 N   0  0  0  0  0  0  0  0  0  0  0  0
   -5.1689    0.3263   -0.1631 C   0  0  0  0  0  0  0  0  0  0  0  0
   -5.4018    1.1068   -1.4576 C   0  0  0  0  0  0  0  0  0  0  0  0
   -5.5339    0.1790   -2.5431 O   0  0  0  0  0  0  0  0  0  0  0  0
   -5.7582    0.8482   -3.7790 C   0  0  0  0  0  0  0  0  0  0  0  0
   -0.4795   -3.8094   -0.3528 H   0  0  0  0  0  0  0  0  0  0  0  0
   -0.4304   -3.6872    1.4210 H   0  0  0  0  0  0  0  0  0  0  0  0
   -1.4519   -4.9024    0.6353 H   0  0  0  0  0  0  0  0  0  0  0  0
   -2.8686   -3.1045   -0.3527 H   0  0  0  0  0  0  0  0  0  0  0  0
   -2.8858   -3.1129    1.3995 H   0  0  0  0  0  0  0  0  0  0  0  0
   -1.1430   -1.2652    1.4157 H   0  0  0  0  0  0  0  0  0  0  0  0
   -2.8463    3.5259    0.2335 H   0  0  0  0  0  0  0  0  0  0  0  0
   -4.2721    6.7041    1.2594 H   0  0  0  0  0  0  0  0  0  0  0  0
   -3.9830    5.5481   -0.0472 H   0  0  0  0  0  0  0  0  0  0  0  0
   -4.0107    5.0059    1.6760 H   0  0  0  0  0  0  0  0  0  0  0  0
    1.5840    8.0147    2.1023 H   0  0  0  0  0  0  0  0  0  0  0  0
    2.1591    6.9018    0.8539 H   0  0  0  0  0  0  0  0  0  0  0  0
    1.9637    6.3536    2.5666 H   0  0  0  0  0  0  0  0  0  0  0  0
    1.9407    4.5704    1.0267 H   0  0  0  0  0  0  0  0  0  0  0  0
    2.9326    0.2637   -0.8583 H   0  0  0  0  0  0  0  0  0  0  0  0
    1.6922   -0.8593   -1.3466 H   0  0  0  0  0  0  0  0  0  0  0  0
    1.3664   -1.5188    1.1036 H   0  0  0  0  0  0  0  0  0  0  0  0
    2.6073   -0.3824    1.5607 H   0  0  0  0  0  0  0  0  0  0  0  0
    4.9669   -0.9010    1.2483 H   0  0  0  0  0  0  0  0  0  0  0  0
    6.6672   -2.5832    0.8176 H   0  0  0  0  0  0  0  0  0  0  0  0
    8.1256   -5.6641   -0.4294 H   0  0  0  0  0  0  0  0  0  0  0  0
    7.8970   -3.9341   -0.7154 H   0  0  0  0  0  0  0  0  0  0  0  0
    7.7802   -4.6178    0.9537 H   0  0  0  0  0  0  0  0  0  0  0  0
    1.7708   -5.8599   -0.1293 H   0  0  0  0  0  0  0  0  0  0  0  0
    2.2874   -6.9154   -1.4506 H   0  0  0  0  0  0  0  0  0  0  0  0
    1.8323   -5.2504   -1.8294 H   0  0  0  0  0  0  0  0  0  0  0  0
    1.9352   -3.4934   -0.3366 H   0  0  0  0  0  0  0  0  0  0  0  0
   -3.7182   -0.8773   -1.1188 H   0  0  0  0  0  0  0  0  0  0  0  0
   -5.9724   -0.4026   -0.0082 H   0  0  0  0  0  0  0  0  0  0  0  0
   -5.1439    1.0094    0.6915 H   0  0  0  0  0  0  0  0  0  0  0  0
   -4.5566    1.7785   -1.6557 H   0  0  0  0  0  0  0  0  0  0  0  0
   -6.3211    1.6971   -1.3697 H   0  0  0  0  0  0  0  0  0  0  0  0
   -4.9014    1.4826   -4.0314 H   0  0  0  0  0  0  0  0  0  0  0  0
   -5.8749    0.0954   -4.5641 H   0  0  0  0  0  0  0  0  0  0  0  0
   -6.6720    1.4464   -3.7295 H   0  0  0  0  0  0  0  0  0  0  0  0
  1  2  1  0
  2  3  1  0
  3  4  1  0
  4  5  1  0
  5  6  2  0
  6  7  1  0
  7  8  2  0
  8  9  1  0
  9 10  1  0
 10 11  1  0
  9 12  2  0
 12 13  1  0
 13 14  1  0
 12 15  1  0
 15 16  2  0
 16 17  1  0
 17 18  2  0
 17 19  1  0
 19 20  1  0
 20 21  1  0
 21 22  1  0
 22 23  2  0
 23 24  1  0
 24 25  2  0
 25 26  1  0
 26 27  1  0
 25 28  1  0
 28 29  1  0
 29 30  1  0
 28 31  2  0
  3 32  1  0
 32 33  2  0
 32 34  1  0
 34 35  1  0
 35 36  1  0
 36 37  1  0
 37 38  1  0
 19  5  1  0
 31 22  1  0
 16  7  1  0
  1 39  1  0
  1 40  1  0
  1 41  1  0
  2 42  1  0
  2 43  1  0
  3 44  1  0
  8 45  1  0
 11 46  1  0
 11 47  1  0
 11 48  1  0
 14 49  1  0
 14 50  1  0
 14 51  1  0
 15 52  1  0
 20 53  1  0
 20 54  1  0
 21 55  1  0
 21 56  1  0
 23 57  1  0
 24 58  1  0
 27 59  1  0
 27 60  1  0
 27 61  1  0
 30 62  1  0
 30 63  1  0
 30 64  1  0
 31 65  1  0
 34 66  1  0
 35 67  1  0
 35 68  1  0
 36 69  1  0
 36 70  1  0
 38 71  1  0
 38 72  1  0
 38 73  1  0
M  END
$$$$
