
     RDKit          3D

 28 30  0  0  0  0  0  0  0  0999 V2000
    0.5207   -3.4498   -0.4049 O   0  0  0  0  0  0  0  0  0  0  0  0
    0.5503   -2.2144   -0.4355 C   0  0  0  0  0  0  0  0  0  0  0  0
   -0.6149   -1.4537   -0.9751 C   0  0  0  0  0  0  0  0  0  0  0  0
   -1.0528   -0.3866    0.0035 C   0  0  0  0  0  0  0  0  0  0  0  0
   -2.5393   -0.2034    0.0073 C   0  0  0  0  0  0  0  0  0  0  0  0
   -3.4609   -0.0306    1.0216 C   0  0  0  0  0  0  0  0  0  0  0  0
   -4.7268    0.0865    0.3989 C   0  0  0  0  0  0  0  0  0  0  0  0
   -4.5008   -0.0219   -0.9525 C   0  0  0  0  0  0  0  0  0  0  0  0
   -3.1787   -0.1998   -1.2009 O   0  0  0  0  0  0  0  0  0  0  0  0
   -0.2716    1.1801   -0.4831 S   0  0  0  0  0  0  0  0  0  0  0  0
    1.4437    0.9101   -0.0779 C   0  0  0  0  0  0  0  0  0  0  0  0
    2.1451    2.1306    0.0682 C   0  0  0  0  0  0  0  0  0  0  0  0
    3.4921    2.1777    0.4237 C   0  0  0  0  0  0  0  0  0  0  0  0
    4.1752    0.9965    0.6438 C   0  0  0  0  0  0  0  0  0  0  0  0
    3.5069   -0.2184    0.4938 C   0  0  0  0  0  0  0  0  0  0  0  0
    2.1444   -0.2916    0.1201 C   0  0  0  0  0  0  0  0  0  0  0  0
    1.6838   -1.6174   -0.0018 N   0  0  0  0  0  0  0  0  0  0  0  0
   -0.3706   -1.0828   -1.9779 H   0  0  0  0  0  0  0  0  0  0  0  0
   -1.4168   -2.1928   -1.1136 H   0  0  0  0  0  0  0  0  0  0  0  0
   -0.7478   -0.6245    1.0304 H   0  0  0  0  0  0  0  0  0  0  0  0
   -3.2432    0.0101    2.0799 H   0  0  0  0  0  0  0  0  0  0  0  0
   -5.6859    0.2345    0.8745 H   0  0  0  0  0  0  0  0  0  0  0  0
   -5.1398    0.0058   -1.8241 H   0  0  0  0  0  0  0  0  0  0  0  0
    1.6321    3.0801   -0.0893 H   0  0  0  0  0  0  0  0  0  0  0  0
    3.9957    3.1349    0.5300 H   0  0  0  0  0  0  0  0  0  0  0  0
    5.2251    1.0132    0.9247 H   0  0  0  0  0  0  0  0  0  0  0  0
    4.0832   -1.1271    0.6638 H   0  0  0  0  0  0  0  0  0  0  0  0
    2.3517   -2.3386    0.2522 H   0  0  0  0  0  0  0  0  0  0  0  0
  1  2  2  0
  2  3  1  0
  3  4  1  0
  4  5  1  0
  5  6  2  0
  6  7  1  0
  7  8  2  0
  8  9  1  0
  4 10  1  0
 10 11  1  0
 11 12  2  0
 12 13  1  0
 13 14  2  0
 14 15  1  0
 15 16  2  0
 16 17  1  0
 17  2  1  0
  9  5  1  0
 16 11  1  0
  3 18  1  0
  3 19  1  0
  4 20  1  0
  6 21  1  0
  7 22  1  0
  8 23  1  0
 12 24  1  0
 13 25  1  0
 14 26  1  0
 15 27  1  0
 17 28  1  0
M  END
$$$$
