
     RDKit          3D

 21 21  0  0  0  0  0  0  0  0999 V2000
    3.0610   -0.3127   -0.4797 C   0  0  0  0  0  0  0  0  0  0  0  0
    1.5973   -0.0279   -0.2796 C   0  0  0  0  0  0  0  0  0  0  0  0
    1.1249    1.2679   -0.5059 C   0  0  0  0  0  0  0  0  0  0  0  0
   -0.2234    1.5427   -0.3404 C   0  0  0  0  0  0  0  0  0  0  0  0
   -0.6383    2.8408   -0.4788 O   0  0  0  0  0  0  0  0  0  0  0  0
   -1.1585    0.5500   -0.0054 C   0  0  0  0  0  0  0  0  0  0  0  0
   -2.5143    0.9361    0.1311 N   0  0  0  0  0  0  0  0  0  0  0  0
   -0.6871   -0.7281    0.3486 C   0  0  0  0  0  0  0  0  0  0  0  0
   -1.6366   -1.7892    0.8456 C   0  0  0  0  0  0  0  0  0  0  0  0
    0.6890   -1.0172    0.1572 C   0  0  0  0  0  0  0  0  0  0  0  0
    1.2873   -2.6256    0.4490 Cl  0  0  0  0  0  0  0  0  0  0  0  0
    3.5247   -0.6116    0.4658 H   0  0  0  0  0  0  0  0  0  0  0  0
    3.5960    0.5721   -0.8417 H   0  0  0  0  0  0  0  0  0  0  0  0
    3.1997   -1.1017   -1.2257 H   0  0  0  0  0  0  0  0  0  0  0  0
    1.7989    2.0699   -0.7945 H   0  0  0  0  0  0  0  0  0  0  0  0
   -1.4300    2.9009    0.0894 H   0  0  0  0  0  0  0  0  0  0  0  0
   -3.1510    0.1440    0.1207 H   0  0  0  0  0  0  0  0  0  0  0  0
   -2.7804    1.5820   -0.6122 H   0  0  0  0  0  0  0  0  0  0  0  0
   -1.1592   -2.4612    1.5651 H   0  0  0  0  0  0  0  0  0  0  0  0
   -2.4827   -1.3560    1.3879 H   0  0  0  0  0  0  0  0  0  0  0  0
   -2.0173   -2.3751    0.0034 H   0  0  0  0  0  0  0  0  0  0  0  0
  1  2  1  0
  2  3  2  0
  3  4  1  0
  4  5  1  0
  4  6  2  0
  6  7  1  0
  6  8  1  0
  8  9  1  0
  8 10  2  0
 10 11  1  0
 10  2  1  0
  1 12  1  0
  1 13  1  0
  1 14  1  0
  3 15  1  0
  5 16  1  0
  7 17  1  0
  7 18  1  0
  9 19  1  0
  9 20  1  0
  9 21  1  0
M  END
$$$$
