
     RDKit          3D

 36 37  0  0  0  0  0  0  0  0999 V2000
   -1.5485   -1.6242    0.9947 C   0  0  0  0  0  0  0  0  0  0  0  0
   -2.5325   -0.4767    0.7943 C   0  0  0  0  0  0  0  0  0  0  0  0
   -2.1922    0.4493   -0.3078 N   0  0  0  0  0  0  0  0  0  0  0  0
   -3.2911    1.4248   -0.5288 C   0  0  0  0  0  0  0  0  0  0  0  0
   -4.5318    0.7776   -1.1661 C   0  0  0  0  0  0  0  0  0  0  0  0
   -4.1383   -0.0215   -2.2800 O   0  0  0  0  0  0  0  0  0  0  0  0
   -0.9315    1.1802   -0.0494 C   0  0  0  0  0  0  0  0  0  0  0  0
    0.2373    0.4489   -0.6600 C   0  0  0  0  0  0  0  0  0  0  0  0
    0.2444   -0.0660   -1.9442 C   0  0  0  0  0  0  0  0  0  0  0  0
    1.7070   -0.8284   -2.3526 S   0  0  0  0  0  0  0  0  0  0  0  0
    2.4086   -0.4597   -0.8271 C   0  0  0  0  0  0  0  0  0  0  0  0
    3.7123   -0.7895   -0.4008 C   0  0  0  0  0  0  0  0  0  0  0  0
    4.1427   -0.4007    0.8743 C   0  0  0  0  0  0  0  0  0  0  0  0
    5.5163   -0.7737    1.3505 C   0  0  0  0  0  0  0  0  0  0  0  0
    3.2673    0.2831    1.7125 C   0  0  0  0  0  0  0  0  0  0  0  0
    1.9739    0.6062    1.2855 C   0  0  0  0  0  0  0  0  0  0  0  0
    1.5168    0.2362   -0.0059 C   0  0  0  0  0  0  0  0  0  0  0  0
   -1.9677   -2.3518    1.6982 H   0  0  0  0  0  0  0  0  0  0  0  0
   -1.3515   -2.1493    0.0545 H   0  0  0  0  0  0  0  0  0  0  0  0
   -0.6018   -1.2799    1.4177 H   0  0  0  0  0  0  0  0  0  0  0  0
   -3.4981   -0.9492    0.5848 H   0  0  0  0  0  0  0  0  0  0  0  0
   -2.6498    0.0697    1.7389 H   0  0  0  0  0  0  0  0  0  0  0  0
   -3.5599    1.9528    0.3939 H   0  0  0  0  0  0  0  0  0  0  0  0
   -2.9464    2.1771   -1.2504 H   0  0  0  0  0  0  0  0  0  0  0  0
   -5.0728    0.1432   -0.4584 H   0  0  0  0  0  0  0  0  0  0  0  0
   -5.2227    1.5473   -1.5233 H   0  0  0  0  0  0  0  0  0  0  0  0
   -3.2755   -0.4048   -2.0190 H   0  0  0  0  0  0  0  0  0  0  0  0
   -0.9396    2.1695   -0.5276 H   0  0  0  0  0  0  0  0  0  0  0  0
   -0.7951    1.3668    1.0216 H   0  0  0  0  0  0  0  0  0  0  0  0
   -0.5640   -0.0372   -2.6626 H   0  0  0  0  0  0  0  0  0  0  0  0
    4.3751   -1.3390   -1.0647 H   0  0  0  0  0  0  0  0  0  0  0  0
    5.4907   -1.7551    1.8340 H   0  0  0  0  0  0  0  0  0  0  0  0
    5.8959   -0.0363    2.0657 H   0  0  0  0  0  0  0  0  0  0  0  0
    6.2233   -0.8085    0.5149 H   0  0  0  0  0  0  0  0  0  0  0  0
    3.5807    0.5753    2.7126 H   0  0  0  0  0  0  0  0  0  0  0  0
    1.3185    1.1436    1.9654 H   0  0  0  0  0  0  0  0  0  0  0  0
  1  2  1  0
  2  3  1  0
  3  4  1  0
  4  5  1  0
  5  6  1  0
  3  7  1  0
  7  8  1  0
  8  9  2  0
  9 10  1  0
 10 11  1  0
 11 12  2  0
 12 13  1  0
 13 14  1  0
 13 15  2  0
 15 16  1  0
 16 17  2  0
 17  8  1  0
 17 11  1  0
  1 18  1  0
  1 19  1  0
  1 20  1  0
  2 21  1  0
  2 22  1  0
  4 23  1  0
  4 24  1  0
  5 25  1  0
  5 26  1  0
  6 27  1  0
  7 28  1  0
  7 29  1  0
  9 30  1  0
 12 31  1  0
 14 32  1  0
 14 33  1  0
 14 34  1  0
 15 35  1  0
 16 36  1  0
M  END
$$$$
