
     RDKit          3D

 59 62  0  0  0  0  0  0  0  0999 V2000
   -2.3999    1.5210   -3.0177 C   0  0  0  0  0  0  0  0  0  0  0  0
   -2.4830    0.4181   -2.1074 O   0  0  0  0  0  0  0  0  0  0  0  0
   -3.7642    0.2795   -1.6353 C   0  0  0  0  0  0  0  0  0  0  0  0
   -4.5885   -0.6808   -2.2504 C   0  0  0  0  0  0  0  0  0  0  0  0
   -4.0933   -1.5039   -3.4028 C   0  0  0  0  0  0  0  0  0  0  0  0
   -5.9069   -0.8343   -1.7988 C   0  0  0  0  0  0  0  0  0  0  0  0
   -6.3808   -0.0598   -0.7425 C   0  0  0  0  0  0  0  0  0  0  0  0
   -8.1698   -0.2678   -0.1579 Br  0  0  0  0  0  0  0  0  0  0  0  0
   -5.5523    0.8633   -0.1102 C   0  0  0  0  0  0  0  0  0  0  0  0
   -4.2275    1.0282   -0.5379 C   0  0  0  0  0  0  0  0  0  0  0  0
   -3.3933    2.0174    0.2110 C   0  0  0  0  0  0  0  0  0  0  0  0
   -3.9617    2.9541    0.7632 O   0  0  0  0  0  0  0  0  0  0  0  0
   -2.0417    1.7616    0.2324 N   0  0  0  0  0  0  0  0  0  0  0  0
   -1.0016    2.5380    0.7873 C   0  0  0  0  0  0  0  0  0  0  0  0
   -1.1978    3.7674    1.4209 C   0  0  0  0  0  0  0  0  0  0  0  0
   -0.1047    4.4819    1.9195 C   0  0  0  0  0  0  0  0  0  0  0  0
    1.1860    3.9727    1.7862 C   0  0  0  0  0  0  0  0  0  0  0  0
    1.3908    2.7424    1.1568 C   0  0  0  0  0  0  0  0  0  0  0  0
    0.3072    2.0084    0.6485 C   0  0  0  0  0  0  0  0  0  0  0  0
    0.4607    0.7307    0.0546 N   0  0  0  0  0  0  0  0  0  0  0  0
    0.6289   -0.3398    1.0672 C   0  0  0  0  0  0  0  0  0  0  0  0
    2.0896   -0.8145    1.1889 C   0  0  0  0  0  0  0  0  0  0  0  0
    2.6757   -1.2054   -0.1001 N   0  0  0  0  0  0  0  0  0  0  0  0
    3.6721   -2.1629   -0.2493 C   0  0  0  0  0  0  0  0  0  0  0  0
    3.9432   -2.6884   -1.3230 O   0  0  0  0  0  0  0  0  0  0  0  0
    4.4552   -2.5698    0.9407 C   0  0  0  0  0  0  0  0  0  0  0  0
    4.5578   -3.9286    1.2521 C   0  0  0  0  0  0  0  0  0  0  0  0
    5.2965   -4.3297    2.3690 C   0  0  0  0  0  0  0  0  0  0  0  0
    5.9462   -3.3766    3.1602 C   0  0  0  0  0  0  0  0  0  0  0  0
    5.8684   -2.0225    2.8303 C   0  0  0  0  0  0  0  0  0  0  0  0
    5.1278   -1.6157    1.7164 C   0  0  0  0  0  0  0  0  0  0  0  0
    1.9719   -0.7289   -1.2966 C   0  0  0  0  0  0  0  0  0  0  0  0
    1.3969    0.6840   -1.0938 C   0  0  0  0  0  0  0  0  0  0  0  0
   -1.3541    1.6212   -3.3245 H   0  0  0  0  0  0  0  0  0  0  0  0
   -2.9994    1.3350   -3.9184 H   0  0  0  0  0  0  0  0  0  0  0  0
   -2.7056    2.4612   -2.5461 H   0  0  0  0  0  0  0  0  0  0  0  0
   -4.0146   -0.8799   -4.2951 H   0  0  0  0  0  0  0  0  0  0  0  0
   -3.1153   -1.9383   -3.1764 H   0  0  0  0  0  0  0  0  0  0  0  0
   -4.7702   -2.3333   -3.6289 H   0  0  0  0  0  0  0  0  0  0  0  0
   -6.5650   -1.5578   -2.2764 H   0  0  0  0  0  0  0  0  0  0  0  0
   -5.9295    1.4575    0.7198 H   0  0  0  0  0  0  0  0  0  0  0  0
   -1.6927    0.9284   -0.2449 H   0  0  0  0  0  0  0  0  0  0  0  0
   -2.1886    4.1959    1.5372 H   0  0  0  0  0  0  0  0  0  0  0  0
   -0.2651    5.4386    2.4129 H   0  0  0  0  0  0  0  0  0  0  0  0
    2.0329    4.5325    2.1780 H   0  0  0  0  0  0  0  0  0  0  0  0
    2.4046    2.3605    1.0799 H   0  0  0  0  0  0  0  0  0  0  0  0
    0.0090   -1.1863    0.7451 H   0  0  0  0  0  0  0  0  0  0  0  0
    0.2467   -0.0397    2.0526 H   0  0  0  0  0  0  0  0  0  0  0  0
    2.1459   -1.6504    1.8883 H   0  0  0  0  0  0  0  0  0  0  0  0
    2.7070   -0.0060    1.5882 H   0  0  0  0  0  0  0  0  0  0  0  0
    4.0587   -4.6715    0.6262 H   0  0  0  0  0  0  0  0  0  0  0  0
    5.3742   -5.3845    2.6189 H   0  0  0  0  0  0  0  0  0  0  0  0
    6.5282   -3.6919    4.0270 H   0  0  0  0  0  0  0  0  0  0  0  0
    6.3923   -1.2868    3.4354 H   0  0  0  0  0  0  0  0  0  0  0  0
    5.0912   -0.5632    1.4480 H   0  0  0  0  0  0  0  0  0  0  0  0
    1.1659   -1.4418   -1.5021 H   0  0  0  0  0  0  0  0  0  0  0  0
    2.6471   -0.7415   -2.1596 H   0  0  0  0  0  0  0  0  0  0  0  0
    0.8537    0.9846   -1.9992 H   0  0  0  0  0  0  0  0  0  0  0  0
    2.2348    1.3821   -0.9676 H   0  0  0  0  0  0  0  0  0  0  0  0
  1  2  1  0
  2  3  1  0
  3  4  2  0
  4  5  1  0
  4  6  1  0
  6  7  2  0
  7  8  1  0
  7  9  1  0
  9 10  2  0
 10 11  1  0
 11 12  2  0
 11 13  1  0
 13 14  1  0
 14 15  2  0
 15 16  1  0
 16 17  2  0
 17 18  1  0
 18 19  2  0
 19 20  1  0
 20 21  1  0
 21 22  1  0
 22 23  1  0
 23 24  1  0
 24 25  2  0
 24 26  1  0
 26 27  2  0
 27 28  1  0
 28 29  2  0
 29 30  1  0
 30 31  2  0
 23 32  1  0
 32 33  1  0
 10  3  1  0
 19 14  1  0
 33 20  1  0
 31 26  1  0
  1 34  1  0
  1 35  1  0
  1 36  1  0
  5 37  1  0
  5 38  1  0
  5 39  1  0
  6 40  1  0
  9 41  1  0
 13 42  1  0
 15 43  1  0
 16 44  1  0
 17 45  1  0
 18 46  1  0
 21 47  1  0
 21 48  1  0
 22 49  1  0
 22 50  1  0
 27 51  1  0
 28 52  1  0
 29 53  1  0
 30 54  1  0
 31 55  1  0
 32 56  1  0
 32 57  1  0
 33 58  1  0
 33 59  1  0
M  END
$$$$
