
     RDKit          3D

 68 69  0  0  0  0  0  0  0  0999 V2000
    1.6512    3.6045    1.2304 C   0  0  0  0  0  0  0  0  0  0  0  0
    0.8482    2.5818    1.8078 O   0  0  0  0  0  0  0  0  0  0  0  0
   -0.4710    2.5317    1.2600 C   0  0  0  0  0  0  0  0  0  0  0  0
   -0.5570    1.6624   -0.0069 C   0  0  0  0  0  0  0  0  0  0  0  0
   -0.4689    0.2084    0.2504 N   0  0  0  0  0  0  0  0  0  0  0  0
    0.6978   -0.5383    0.1084 C   0  0  0  0  0  0  0  0  0  0  0  0
    0.6843   -1.7713    0.1744 O   0  0  0  0  0  0  0  0  0  0  0  0
    2.0023    0.1969   -0.1313 C   0  0  0  0  0  0  0  0  0  0  0  0
    3.1681   -0.7745   -0.2941 C   0  0  0  0  0  0  0  0  0  0  0  0
    4.4814   -0.0485   -0.5067 C   0  0  0  0  0  0  0  0  0  0  0  0
    4.5706    1.1748   -0.4919 O   0  0  0  0  0  0  0  0  0  0  0  0
    5.5197   -0.9294   -0.7073 N   0  0  0  0  0  0  0  0  0  0  0  0
    6.8355   -0.5789   -0.9083 C   0  0  0  0  0  0  0  0  0  0  0  0
    7.4326    0.7001   -0.9320 C   0  0  0  0  0  0  0  0  0  0  0  0
    8.7637    0.4558   -1.1591 C   0  0  0  0  0  0  0  0  0  0  0  0
    9.9565    1.3081   -1.3018 C   0  0  0  0  0  0  0  0  0  0  0  0
    8.9554   -0.8843   -1.2779 O   0  0  0  0  0  0  0  0  0  0  0  0
    7.7471   -1.5359   -1.1151 N   0  0  0  0  0  0  0  0  0  0  0  0
   -1.7232   -0.5740    0.3311 C   0  0  0  0  0  0  0  0  0  0  0  0
   -2.2421   -0.9021   -1.1029 C   0  0  0  0  0  0  0  0  0  0  0  0
   -2.0725   -0.1497   -2.0612 O   0  0  0  0  0  0  0  0  0  0  0  0
   -2.9572   -2.0865   -1.1865 N   0  0  0  0  0  0  0  0  0  0  0  0
   -3.5087   -2.6514   -2.4268 C   0  0  0  0  0  0  0  0  0  0  0  0
   -4.2423   -3.9572   -2.0685 C   0  0  0  0  0  0  0  0  0  0  0  0
   -4.5239   -1.6928   -3.0697 C   0  0  0  0  0  0  0  0  0  0  0  0
   -2.3857   -2.9804   -3.4221 C   0  0  0  0  0  0  0  0  0  0  0  0
   -2.7882    0.0414    1.2334 C   0  0  0  0  0  0  0  0  0  0  0  0
   -2.6927   -0.1453    2.6236 C   0  0  0  0  0  0  0  0  0  0  0  0
   -3.6386    0.4081    3.4944 C   0  0  0  0  0  0  0  0  0  0  0  0
   -4.6976    1.1606    2.9903 C   0  0  0  0  0  0  0  0  0  0  0  0
   -5.6853    1.7557    3.7247 O   0  0  0  0  0  0  0  0  0  0  0  0
   -5.6376    1.5714    5.1336 C   0  0  0  0  0  0  0  0  0  0  0  0
   -4.7969    1.3561    1.6115 C   0  0  0  0  0  0  0  0  0  0  0  0
   -3.8540    0.8062    0.7387 C   0  0  0  0  0  0  0  0  0  0  0  0
    2.6483    3.5499    1.6761 H   0  0  0  0  0  0  0  0  0  0  0  0
    1.7455    3.4692    0.1500 H   0  0  0  0  0  0  0  0  0  0  0  0
    1.2270    4.5882    1.4512 H   0  0  0  0  0  0  0  0  0  0  0  0
   -1.1185    2.1379    2.0454 H   0  0  0  0  0  0  0  0  0  0  0  0
   -0.8208    3.5476    1.0402 H   0  0  0  0  0  0  0  0  0  0  0  0
    0.2269    1.9522   -0.7089 H   0  0  0  0  0  0  0  0  0  0  0  0
   -1.5047    1.8665   -0.5148 H   0  0  0  0  0  0  0  0  0  0  0  0
    1.9210    0.7997   -1.0412 H   0  0  0  0  0  0  0  0  0  0  0  0
    2.1999    0.8495    0.7209 H   0  0  0  0  0  0  0  0  0  0  0  0
    2.9904   -1.4310   -1.1542 H   0  0  0  0  0  0  0  0  0  0  0  0
    3.2658   -1.4029    0.5992 H   0  0  0  0  0  0  0  0  0  0  0  0
    5.3516   -1.9268   -0.7354 H   0  0  0  0  0  0  0  0  0  0  0  0
    6.9658    1.6640   -0.7984 H   0  0  0  0  0  0  0  0  0  0  0  0
   10.8238    0.8510   -0.8148 H   0  0  0  0  0  0  0  0  0  0  0  0
    9.7914    2.2887   -0.8440 H   0  0  0  0  0  0  0  0  0  0  0  0
   10.1933    1.4584   -2.3596 H   0  0  0  0  0  0  0  0  0  0  0  0
   -1.4866   -1.5488    0.7801 H   0  0  0  0  0  0  0  0  0  0  0  0
   -2.9363   -2.6919   -0.3739 H   0  0  0  0  0  0  0  0  0  0  0  0
   -4.6800   -4.4272   -2.9562 H   0  0  0  0  0  0  0  0  0  0  0  0
   -3.5604   -4.6816   -1.6076 H   0  0  0  0  0  0  0  0  0  0  0  0
   -5.0505   -3.7716   -1.3516 H   0  0  0  0  0  0  0  0  0  0  0  0
   -4.0520   -0.7742   -3.4335 H   0  0  0  0  0  0  0  0  0  0  0  0
   -5.0204   -2.1604   -3.9278 H   0  0  0  0  0  0  0  0  0  0  0  0
   -5.2978   -1.4001   -2.3501 H   0  0  0  0  0  0  0  0  0  0  0  0
   -2.7818   -3.4737   -4.3168 H   0  0  0  0  0  0  0  0  0  0  0  0
   -1.6433   -3.6484   -2.9700 H   0  0  0  0  0  0  0  0  0  0  0  0
   -1.8559   -2.0811   -3.7524 H   0  0  0  0  0  0  0  0  0  0  0  0
   -1.8645   -0.7167    3.0416 H   0  0  0  0  0  0  0  0  0  0  0  0
   -3.5129    0.2369    4.5585 H   0  0  0  0  0  0  0  0  0  0  0  0
   -5.7226    0.5118    5.3965 H   0  0  0  0  0  0  0  0  0  0  0  0
   -4.7304    2.0133    5.5589 H   0  0  0  0  0  0  0  0  0  0  0  0
   -6.4968    2.0914    5.5676 H   0  0  0  0  0  0  0  0  0  0  0  0
   -5.6184    1.9459    1.2109 H   0  0  0  0  0  0  0  0  0  0  0  0
   -3.9674    0.9909   -0.3283 H   0  0  0  0  0  0  0  0  0  0  0  0
  1  2  1  0
  2  3  1  0
  3  4  1  0
  4  5  1  0
  5  6  1  0
  6  7  2  0
  6  8  1  0
  8  9  1  0
  9 10  1  0
 10 11  2  0
 10 12  1  0
 12 13  1  0
 13 14  1  0
 14 15  2  0
 15 16  1  0
 15 17  1  0
 17 18  1  0
  5 19  1  0
 19 20  1  0
 20 21  2  0
 20 22  1  0
 22 23  1  0
 23 24  1  0
 23 25  1  0
 23 26  1  0
 19 27  1  0
 27 28  2  0
 28 29  1  0
 29 30  2  0
 30 31  1  0
 31 32  1  0
 30 33  1  0
 33 34  2  0
 18 13  2  0
 34 27  1  0
  1 35  1  0
  1 36  1  0
  1 37  1  0
  3 38  1  0
  3 39  1  0
  4 40  1  0
  4 41  1  0
  8 42  1  0
  8 43  1  0
  9 44  1  0
  9 45  1  0
 12 46  1  0
 14 47  1  0
 16 48  1  0
 16 49  1  0
 16 50  1  0
 19 51  1  0
 22 52  1  0
 24 53  1  0
 24 54  1  0
 24 55  1  0
 25 56  1  0
 25 57  1  0
 25 58  1  0
 26 59  1  0
 26 60  1  0
 26 61  1  0
 28 62  1  0
 29 63  1  0
 32 64  1  0
 32 65  1  0
 32 66  1  0
 33 67  1  0
 34 68  1  0
M  END
$$$$
