
     RDKit          3D

 39 41  0  0  0  0  0  0  0  0999 V2000
    2.6368   -1.0432    0.5978 O   0  0  0  0  0  0  0  0  0  0  0  0
    2.0257    0.0186    0.5945 C   0  0  0  0  0  0  0  0  0  0  0  0
    2.7080    1.3386    0.7193 C   0  0  0  0  0  0  0  0  0  0  0  0
    3.9743    1.6085    0.3640 C   0  0  0  0  0  0  0  0  0  0  0  0
    4.9383    0.7141   -0.2857 C   0  0  0  0  0  0  0  0  0  0  0  0
    6.1968    0.5269    0.2998 C   0  0  0  0  0  0  0  0  0  0  0  0
    7.1518   -0.2861   -0.3170 C   0  0  0  0  0  0  0  0  0  0  0  0
    6.8519   -0.9063   -1.5279 C   0  0  0  0  0  0  0  0  0  0  0  0
    8.1424   -2.0062   -2.3637 Br  0  0  0  0  0  0  0  0  0  0  0  0
    5.6092   -0.7187   -2.1287 C   0  0  0  0  0  0  0  0  0  0  0  0
    4.6564    0.0956   -1.5102 C   0  0  0  0  0  0  0  0  0  0  0  0
    0.5376    0.0145    0.5327 C   0  0  0  0  0  0  0  0  0  0  0  0
   -0.1392   -1.1393    0.9421 C   0  0  0  0  0  0  0  0  0  0  0  0
   -1.5360   -1.1941    0.8951 C   0  0  0  0  0  0  0  0  0  0  0  0
   -2.2784   -0.1019    0.4309 C   0  0  0  0  0  0  0  0  0  0  0  0
   -3.6778   -0.2384    0.4171 N   0  0  0  0  0  0  0  0  0  0  0  0
   -4.6300    0.6839    0.0192 C   0  0  0  0  0  0  0  0  0  0  0  0
   -4.3962    1.8138   -0.3969 O   0  0  0  0  0  0  0  0  0  0  0  0
   -5.9845    0.1742    0.1461 C   0  0  0  0  0  0  0  0  0  0  0  0
   -7.2064    0.7551   -0.1370 C   0  0  0  0  0  0  0  0  0  0  0  0
   -8.1980   -0.2037    0.1796 C   0  0  0  0  0  0  0  0  0  0  0  0
   -7.5264   -1.3123    0.6369 C   0  0  0  0  0  0  0  0  0  0  0  0
   -6.1853   -1.0980    0.6225 O   0  0  0  0  0  0  0  0  0  0  0  0
   -1.5998    1.0422    0.0069 C   0  0  0  0  0  0  0  0  0  0  0  0
   -0.2000    1.1013    0.0518 C   0  0  0  0  0  0  0  0  0  0  0  0
    2.1235    2.1296    1.1789 H   0  0  0  0  0  0  0  0  0  0  0  0
    4.3629    2.6057    0.5638 H   0  0  0  0  0  0  0  0  0  0  0  0
    6.4393    1.0024    1.2473 H   0  0  0  0  0  0  0  0  0  0  0  0
    8.1191   -0.4300    0.1560 H   0  0  0  0  0  0  0  0  0  0  0  0
    5.3685   -1.2019   -3.0714 H   0  0  0  0  0  0  0  0  0  0  0  0
    3.6898    0.2326   -1.9882 H   0  0  0  0  0  0  0  0  0  0  0  0
    0.4192   -2.0025    1.3011 H   0  0  0  0  0  0  0  0  0  0  0  0
   -2.0297   -2.1052    1.2248 H   0  0  0  0  0  0  0  0  0  0  0  0
   -4.0601   -1.1219    0.7390 H   0  0  0  0  0  0  0  0  0  0  0  0
   -7.3493    1.7545   -0.5263 H   0  0  0  0  0  0  0  0  0  0  0  0
   -9.2701   -0.0997    0.0858 H   0  0  0  0  0  0  0  0  0  0  0  0
   -7.8421   -2.2838    0.9921 H   0  0  0  0  0  0  0  0  0  0  0  0
   -2.1291    1.9098   -0.3760 H   0  0  0  0  0  0  0  0  0  0  0  0
    0.2870    2.0003   -0.3160 H   0  0  0  0  0  0  0  0  0  0  0  0
  1  2  2  0
  2  3  1  0
  3  4  2  3
  4  5  1  0
  5  6  2  0
  6  7  1  0
  7  8  2  0
  8  9  1  0
  8 10  1  0
 10 11  2  0
  2 12  1  0
 12 13  2  0
 13 14  1  0
 14 15  2  0
 15 16  1  0
 16 17  1  0
 17 18  2  0
 17 19  1  0
 19 20  2  0
 20 21  1  0
 21 22  2  0
 22 23  1  0
 15 24  1  0
 24 25  2  0
 11  5  1  0
 25 12  1  0
 23 19  1  0
  3 26  1  0
  4 27  1  0
  6 28  1  0
  7 29  1  0
 10 30  1  0
 11 31  1  0
 13 32  1  0
 14 33  1  0
 16 34  1  0
 20 35  1  0
 21 36  1  0
 22 37  1  0
 24 38  1  0
 25 39  1  0
M  END
$$$$
