
     RDKit          3D

 34 36  0  0  0  0  0  0  0  0999 V2000
    0.5461    1.3219   -2.4338 O   0  0  0  0  0  0  0  0  0  0  0  0
    0.4323    0.6360   -1.4219 C   0  0  0  0  0  0  0  0  0  0  0  0
    1.5225   -0.3003   -1.1331 C   0  0  0  0  0  0  0  0  0  0  0  0
    1.5248   -1.5631   -1.7306 C   0  0  0  0  0  0  0  0  0  0  0  0
    2.6007   -2.4248   -1.5074 C   0  0  0  0  0  0  0  0  0  0  0  0
    3.6718   -2.0073   -0.7149 C   0  0  0  0  0  0  0  0  0  0  0  0
    4.9963   -3.0714   -0.4436 Cl  0  0  0  0  0  0  0  0  0  0  0  0
    3.6846   -0.7300   -0.1515 C   0  0  0  0  0  0  0  0  0  0  0  0
    2.6106    0.1350   -0.3702 C   0  0  0  0  0  0  0  0  0  0  0  0
   -0.6436    0.7281   -0.5699 N   0  0  0  0  0  0  0  0  0  0  0  0
   -1.6633    1.7550   -0.8182 C   0  0  0  0  0  0  0  0  0  0  0  0
   -1.4843    2.7706    0.2853 C   0  0  0  0  0  0  0  0  0  0  0  0
   -1.9282    2.2196    1.4276 C   0  0  0  0  0  0  0  0  0  0  0  0
   -2.3272    0.7936    1.0852 C   0  0  0  0  0  0  0  0  0  0  0  0
   -2.9363    1.0939   -0.2966 C   0  0  0  0  0  0  0  0  0  0  0  0
   -1.0388   -0.0388    0.7035 C   0  0  0  0  0  0  0  0  0  0  0  0
   -1.4159   -1.5062    0.5113 C   0  0  0  0  0  0  0  0  0  0  0  0
   -0.3578   -2.3040    0.2668 F   0  0  0  0  0  0  0  0  0  0  0  0
   -2.0430   -2.0014    1.6037 F   0  0  0  0  0  0  0  0  0  0  0  0
   -2.2645   -1.6849   -0.5282 F   0  0  0  0  0  0  0  0  0  0  0  0
   -0.0464   -0.0432    1.8639 C   0  0  0  0  0  0  0  0  0  0  0  0
    0.5495    1.1592    2.0448 F   0  0  0  0  0  0  0  0  0  0  0  0
   -0.6632   -0.3489    3.0314 F   0  0  0  0  0  0  0  0  0  0  0  0
    0.9513   -0.9375    1.7103 F   0  0  0  0  0  0  0  0  0  0  0  0
    0.7004   -1.8760   -2.3664 H   0  0  0  0  0  0  0  0  0  0  0  0
    2.6027   -3.4139   -1.9581 H   0  0  0  0  0  0  0  0  0  0  0  0
    4.5280   -0.4024    0.4508 H   0  0  0  0  0  0  0  0  0  0  0  0
    2.6262    1.1386    0.0483 H   0  0  0  0  0  0  0  0  0  0  0  0
   -1.7095    2.1580   -1.8306 H   0  0  0  0  0  0  0  0  0  0  0  0
   -1.0643    3.7573    0.1587 H   0  0  0  0  0  0  0  0  0  0  0  0
   -1.9189    2.6691    2.4102 H   0  0  0  0  0  0  0  0  0  0  0  0
   -3.0146    0.3351    1.7982 H   0  0  0  0  0  0  0  0  0  0  0  0
   -3.2283    0.2107   -0.8674 H   0  0  0  0  0  0  0  0  0  0  0  0
   -3.7995    1.7723   -0.2576 H   0  0  0  0  0  0  0  0  0  0  0  0
  1  2  2  0
  2  3  1  0
  3  4  2  0
  4  5  1  0
  5  6  2  0
  6  7  1  0
  6  8  1  0
  8  9  2  0
  2 10  1  0
 10 11  1  0
 11 12  1  0
 12 13  2  0
 13 14  1  0
 14 15  1  0
 14 16  1  0
 16 17  1  0
 17 18  1  0
 17 19  1  0
 17 20  1  0
 16 21  1  0
 21 22  1  0
 21 23  1  0
 21 24  1  0
  9  3  1  0
 16 10  1  0
 15 11  1  0
  4 25  1  0
  5 26  1  0
  8 27  1  0
  9 28  1  0
 11 29  1  0
 12 30  1  0
 13 31  1  0
 14 32  1  0
 15 33  1  0
 15 34  1  0
M  END
$$$$
