
     RDKit          3D

 57 59  0  0  0  0  0  0  0  0999 V2000
    7.7846   -1.9848   -3.1617 C   0  0  0  0  0  0  0  0  0  0  0  0
    7.4445   -1.0869   -2.1131 O   0  0  0  0  0  0  0  0  0  0  0  0
    6.7593   -1.6089   -1.0506 C   0  0  0  0  0  0  0  0  0  0  0  0
    6.4371   -0.6861   -0.0535 C   0  0  0  0  0  0  0  0  0  0  0  0
    5.7375   -1.0842    1.0880 C   0  0  0  0  0  0  0  0  0  0  0  0
    5.3547   -2.4207    1.2536 C   0  0  0  0  0  0  0  0  0  0  0  0
    4.5774   -2.8452    2.4718 C   0  0  0  0  0  0  0  0  0  0  0  0
    3.1652   -2.6539    2.2710 N   0  0  0  0  0  0  0  0  0  0  0  0
    2.5104   -1.5206    2.6897 C   0  0  0  0  0  0  0  0  0  0  0  0
    2.9727   -0.6271    3.3852 O   0  0  0  0  0  0  0  0  0  0  0  0
    1.0546   -1.4303    2.1779 C   0  0  0  0  0  0  0  0  0  0  0  0
    0.6165   -2.2779    1.4134 O   0  0  0  0  0  0  0  0  0  0  0  0
    0.3702   -0.3312    2.6401 N   0  0  0  0  0  0  0  0  0  0  0  0
   -0.9333    0.0306    2.1093 C   0  0  0  0  0  0  0  0  0  0  0  0
   -0.8828    0.5564    0.6582 C   0  0  0  0  0  0  0  0  0  0  0  0
    0.0465    1.6682    0.6024 O   0  0  0  0  0  0  0  0  0  0  0  0
   -0.6987    2.8392    0.2631 C   0  0  0  0  0  0  0  0  0  0  0  0
   -1.8973    2.3255   -0.4969 C   0  0  0  0  0  0  0  0  0  0  0  0
   -2.2003    1.0895    0.2370 N   0  0  0  0  0  0  0  0  0  0  0  0
   -3.1862   -0.0466   -0.5306 S   0  0  0  0  0  6  0  0  0  0  0  0
   -3.4299   -1.1298    0.3950 O   0  0  0  0  0  0  0  0  0  0  0  0
   -2.6395   -0.2867   -1.8487 O   0  0  0  0  0  0  0  0  0  0  0  0
   -4.7116    0.8439   -0.7132 C   0  0  0  0  0  0  0  0  0  0  0  0
   -5.4548    1.1563    0.4264 C   0  0  0  0  0  0  0  0  0  0  0  0
   -6.6520    1.8600    0.2881 C   0  0  0  0  0  0  0  0  0  0  0  0
   -7.1136    2.2439   -0.9761 C   0  0  0  0  0  0  0  0  0  0  0  0
   -8.2980    2.9274   -0.9648 O   0  0  0  0  0  0  0  0  0  0  0  0
   -8.8477    3.2862   -2.2265 C   0  0  0  0  0  0  0  0  0  0  0  0
   -6.3654    1.9174   -2.1103 C   0  0  0  0  0  0  0  0  0  0  0  0
   -5.1630    1.2140   -1.9821 C   0  0  0  0  0  0  0  0  0  0  0  0
    5.6707   -3.3422    0.2466 C   0  0  0  0  0  0  0  0  0  0  0  0
    6.3718   -2.9399   -0.8965 C   0  0  0  0  0  0  0  0  0  0  0  0
    8.4551   -2.7733   -2.8042 H   0  0  0  0  0  0  0  0  0  0  0  0
    6.8877   -2.4079   -3.6261 H   0  0  0  0  0  0  0  0  0  0  0  0
    8.3195   -1.4160   -3.9284 H   0  0  0  0  0  0  0  0  0  0  0  0
    6.7297    0.3548   -0.1681 H   0  0  0  0  0  0  0  0  0  0  0  0
    5.4883   -0.3434    1.8460 H   0  0  0  0  0  0  0  0  0  0  0  0
    4.7401   -3.9091    2.6761 H   0  0  0  0  0  0  0  0  0  0  0  0
    4.9170   -2.2890    3.3530 H   0  0  0  0  0  0  0  0  0  0  0  0
    2.6735   -3.2273    1.5914 H   0  0  0  0  0  0  0  0  0  0  0  0
    0.9344    0.3770    3.1035 H   0  0  0  0  0  0  0  0  0  0  0  0
   -1.5838   -0.8463    2.1808 H   0  0  0  0  0  0  0  0  0  0  0  0
   -1.3289    0.8032    2.7782 H   0  0  0  0  0  0  0  0  0  0  0  0
   -0.5024   -0.2026   -0.0335 H   0  0  0  0  0  0  0  0  0  0  0  0
   -0.0807    3.5234   -0.3241 H   0  0  0  0  0  0  0  0  0  0  0  0
   -0.9943    3.3359    1.1939 H   0  0  0  0  0  0  0  0  0  0  0  0
   -1.6185    2.1074   -1.5332 H   0  0  0  0  0  0  0  0  0  0  0  0
   -2.7237    3.0393   -0.4759 H   0  0  0  0  0  0  0  0  0  0  0  0
   -5.1121    0.8552    1.4137 H   0  0  0  0  0  0  0  0  0  0  0  0
   -7.2370    2.1073    1.1714 H   0  0  0  0  0  0  0  0  0  0  0  0
   -9.7993    3.7948   -2.0442 H   0  0  0  0  0  0  0  0  0  0  0  0
   -8.1925    3.9854   -2.7566 H   0  0  0  0  0  0  0  0  0  0  0  0
   -9.0551    2.3993   -2.8344 H   0  0  0  0  0  0  0  0  0  0  0  0
   -6.6912    2.1924   -3.1084 H   0  0  0  0  0  0  0  0  0  0  0  0
   -4.5933    0.9583   -2.8731 H   0  0  0  0  0  0  0  0  0  0  0  0
    5.3723   -4.3839    0.3430 H   0  0  0  0  0  0  0  0  0  0  0  0
    6.5956   -3.6905   -1.6469 H   0  0  0  0  0  0  0  0  0  0  0  0
  1  2  1  0
  2  3  1  0
  3  4  2  0
  4  5  1  0
  5  6  2  0
  6  7  1  0
  7  8  1  0
  8  9  1  0
  9 10  2  0
  9 11  1  0
 11 12  2  0
 11 13  1  0
 13 14  1  0
 14 15  1  0
 15 16  1  0
 16 17  1  0
 17 18  1  0
 18 19  1  0
 19 20  1  0
 20 21  2  0
 20 22  2  0
 20 23  1  0
 23 24  2  0
 24 25  1  0
 25 26  2  0
 26 27  1  0
 27 28  1  0
 26 29  1  0
 29 30  2  0
  6 31  1  0
 31 32  2  0
 32  3  1  0
 19 15  1  0
 30 23  1  0
  1 33  1  0
  1 34  1  0
  1 35  1  0
  4 36  1  0
  5 37  1  0
  7 38  1  0
  7 39  1  0
  8 40  1  0
 13 41  1  0
 14 42  1  0
 14 43  1  0
 15 44  1  0
 17 45  1  0
 17 46  1  0
 18 47  1  0
 18 48  1  0
 24 49  1  0
 25 50  1  0
 28 51  1  0
 28 52  1  0
 28 53  1  0
 29 54  1  0
 30 55  1  0
 31 56  1  0
 32 57  1  0
M  END
$$$$
