
     RDKit          3D

 57 60  0  0  0  0  0  0  0  0999 V2000
   -0.8388   -0.2721    3.5521 C   0  0  0  0  0  0  0  0  0  0  0  0
    0.6277   -0.6478    3.4131 C   0  0  0  0  0  0  0  0  0  0  0  0
    1.2368   -0.5616    2.0011 C   0  0  0  0  0  0  0  0  0  0  0  0
    0.5671   -1.8821    0.9097 S   0  0  0  0  0  0  0  0  0  0  0  0
   -0.5548   -0.9845   -0.1097 C   0  0  0  0  0  0  0  0  0  0  0  0
   -1.4969   -0.3528    0.5278 N   0  0  0  0  0  0  0  0  0  0  0  0
   -2.3787    0.3571   -0.2830 C   0  0  0  0  0  0  0  0  0  0  0  0
   -3.4705    1.1149    0.2071 C   0  0  0  0  0  0  0  0  0  0  0  0
   -4.1649    1.6955   -0.8336 C   0  0  0  0  0  0  0  0  0  0  0  0
   -3.4717    1.3212   -2.3669 S   0  0  0  0  0  0  0  0  0  0  0  0
   -2.2577    0.3898   -1.6387 C   0  0  0  0  0  0  0  0  0  0  0  0
   -1.2141   -0.2989   -2.3424 C   0  0  0  0  0  0  0  0  0  0  0  0
   -1.0757   -0.2598   -3.5644 O   0  0  0  0  0  0  0  0  0  0  0  0
   -0.3678   -1.0275   -1.4954 N   0  0  0  0  0  0  0  0  0  0  0  0
    0.7348   -1.7396   -2.1493 C   0  0  0  0  0  0  0  0  0  0  0  0
    0.4228   -3.2027   -2.4100 C   0  0  0  0  0  0  0  0  0  0  0  0
   -0.5702   -3.5730   -3.3293 C   0  0  0  0  0  0  0  0  0  0  0  0
   -0.8643   -4.9207   -3.5603 C   0  0  0  0  0  0  0  0  0  0  0  0
   -0.1641   -5.9208   -2.8788 C   0  0  0  0  0  0  0  0  0  0  0  0
   -0.5185   -7.3373   -3.1457 C   0  0  0  0  0  0  0  0  0  0  0  0
   -1.3444   -7.7282   -3.9465 O   0  0  0  0  0  0  0  0  0  0  0  0
    0.1724   -8.2052   -2.3872 O   0  0  0  0  0  0  0  0  0  0  0  0
    0.8410   -5.5625   -1.9735 C   0  0  0  0  0  0  0  0  0  0  0  0
    1.1348   -4.2138   -1.7464 C   0  0  0  0  0  0  0  0  0  0  0  0
    1.3004    0.8210    1.3057 C   0  0  0  0  0  0  0  0  0  0  0  0
    1.4233    0.9121    0.0821 O   0  0  0  0  0  0  0  0  0  0  0  0
    1.3389    1.9068    2.1674 N   0  0  0  0  0  0  0  0  0  0  0  0
    1.3304    3.2736    1.8130 C   0  0  0  0  0  0  0  0  0  0  0  0
    1.0471    3.7443    0.5305 C   0  0  0  0  0  0  0  0  0  0  0  0
    1.0447    5.1203    0.2638 C   0  0  0  0  0  0  0  0  0  0  0  0
    1.3275    6.0548    1.2736 C   0  0  0  0  0  0  0  0  0  0  0  0
    1.3211    7.5227    0.9511 C   0  0  0  0  0  0  0  0  0  0  0  0
    1.6089    5.5751    2.5590 C   0  0  0  0  0  0  0  0  0  0  0  0
    1.9780    6.6497    3.8633 Cl  0  0  0  0  0  0  0  0  0  0  0  0
    1.6006    4.2000    2.8278 C   0  0  0  0  0  0  0  0  0  0  0  0
   -1.0488    0.7122    3.1257 H   0  0  0  0  0  0  0  0  0  0  0  0
   -1.1141   -0.2376    4.6126 H   0  0  0  0  0  0  0  0  0  0  0  0
   -1.4880   -1.0129    3.0798 H   0  0  0  0  0  0  0  0  0  0  0  0
    0.7606   -1.6648    3.8016 H   0  0  0  0  0  0  0  0  0  0  0  0
    1.2039   -0.0154    4.0958 H   0  0  0  0  0  0  0  0  0  0  0  0
    2.2942   -0.8343    2.1215 H   0  0  0  0  0  0  0  0  0  0  0  0
   -3.7379    1.2263    1.2513 H   0  0  0  0  0  0  0  0  0  0  0  0
   -5.0412    2.3220   -0.7761 H   0  0  0  0  0  0  0  0  0  0  0  0
    1.6469   -1.6410   -1.5512 H   0  0  0  0  0  0  0  0  0  0  0  0
    0.9816   -1.2710   -3.1109 H   0  0  0  0  0  0  0  0  0  0  0  0
   -1.1243   -2.8165   -3.8829 H   0  0  0  0  0  0  0  0  0  0  0  0
   -1.6414   -5.1845   -4.2754 H   0  0  0  0  0  0  0  0  0  0  0  0
   -0.1805   -9.0808   -2.6523 H   0  0  0  0  0  0  0  0  0  0  0  0
    1.4025   -6.3245   -1.4386 H   0  0  0  0  0  0  0  0  0  0  0  0
    1.9249   -3.9630   -1.0393 H   0  0  0  0  0  0  0  0  0  0  0  0
    1.4651    1.7267    3.1577 H   0  0  0  0  0  0  0  0  0  0  0  0
    0.8029    3.0687   -0.2878 H   0  0  0  0  0  0  0  0  0  0  0  0
    0.8150    5.4526   -0.7473 H   0  0  0  0  0  0  0  0  0  0  0  0
    1.0350    7.7048   -0.0900 H   0  0  0  0  0  0  0  0  0  0  0  0
    2.3149    7.9509    1.0987 H   0  0  0  0  0  0  0  0  0  0  0  0
    0.6028    8.0514    1.5827 H   0  0  0  0  0  0  0  0  0  0  0  0
    1.8207    3.8629    3.8371 H   0  0  0  0  0  0  0  0  0  0  0  0
  1  2  1  0
  2  3  1  0
  3  4  1  0
  4  5  1  0
  5  6  2  0
  6  7  1  0
  7  8  1  0
  8  9  2  0
  9 10  1  0
 10 11  1  0
 11 12  1  0
 12 13  2  0
 12 14  1  0
 14 15  1  0
 15 16  1  0
 16 17  2  0
 17 18  1  0
 18 19  2  0
 19 20  1  0
 20 21  2  0
 20 22  1  0
 19 23  1  0
 23 24  2  0
  3 25  1  0
 25 26  2  0
 25 27  1  0
 27 28  1  0
 28 29  2  0
 29 30  1  0
 30 31  2  0
 31 32  1  0
 31 33  1  0
 33 34  1  0
 33 35  2  0
 14  5  1  0
 24 16  1  0
 35 28  1  0
 11  7  2  0
  1 36  1  0
  1 37  1  0
  1 38  1  0
  2 39  1  0
  2 40  1  0
  3 41  1  0
  8 42  1  0
  9 43  1  0
 15 44  1  0
 15 45  1  0
 17 46  1  0
 18 47  1  0
 22 48  1  0
 23 49  1  0
 24 50  1  0
 27 51  1  0
 29 52  1  0
 30 53  1  0
 32 54  1  0
 32 55  1  0
 32 56  1  0
 35 57  1  0
M  END
$$$$
