
     RDKit          3D

 58 61  0  0  0  0  0  0  0  0999 V2000
   -1.7797    5.6951    0.2882 C   0  0  0  0  0  0  0  0  0  0  0  0
   -3.1595    5.3510    0.2684 O   0  0  0  0  0  0  0  0  0  0  0  0
   -3.4676    4.0227    0.3837 C   0  0  0  0  0  0  0  0  0  0  0  0
   -4.8269    3.7364    0.3424 C   0  0  0  0  0  0  0  0  0  0  0  0
   -5.2933    2.4234    0.4451 C   0  0  0  0  0  0  0  0  0  0  0  0
   -4.3604    1.3810    0.5954 C   0  0  0  0  0  0  0  0  0  0  0  0
   -4.7048   -0.2963    0.7385 S   0  0  0  0  0  0  0  0  0  0  0  0
   -3.0522   -0.7133    0.8635 C   0  0  0  0  0  0  0  0  0  0  0  0
   -2.7016   -2.1291    1.0376 C   0  0  0  0  0  0  0  0  0  0  0  0
   -2.4823   -2.6119    2.3382 C   0  0  0  0  0  0  0  0  0  0  0  0
   -2.1385   -3.9456    2.5503 C   0  0  0  0  0  0  0  0  0  0  0  0
   -2.0082   -4.8064    1.4647 C   0  0  0  0  0  0  0  0  0  0  0  0
   -2.2187   -4.3380    0.1643 C   0  0  0  0  0  0  0  0  0  0  0  0
   -2.5659   -3.0009   -0.0627 C   0  0  0  0  0  0  0  0  0  0  0  0
   -2.7712   -2.4543   -1.3051 O   0  0  0  0  0  0  0  0  0  0  0  0
   -2.7596   -3.3347   -2.4199 C   0  0  0  0  0  0  0  0  0  0  0  0
   -2.2359    0.4039    0.8068 C   0  0  0  0  0  0  0  0  0  0  0  0
   -0.7855    0.2974    0.9124 C   0  0  0  0  0  0  0  0  0  0  0  0
   -0.0351   -0.2329   -0.1415 C   0  0  0  0  0  0  0  0  0  0  0  0
    1.3576   -0.3284   -0.0419 C   0  0  0  0  0  0  0  0  0  0  0  0
    2.0101    0.1076    1.1116 C   0  0  0  0  0  0  0  0  0  0  0  0
    3.3577    0.0815    1.3393 O   0  0  0  0  0  0  0  0  0  0  0  0
    4.1945   -0.6119    0.4076 C   0  0  0  0  0  0  0  0  0  0  0  0
    4.6797    0.3388   -0.7007 C   0  0  0  0  0  0  0  0  0  0  0  0
    5.4435   -0.3278   -1.7738 N   0  0  0  0  0  0  0  0  0  0  0  0
    6.7296   -0.8371   -1.2924 C   0  0  0  0  0  0  0  0  0  0  0  0
    5.6674    0.6082   -2.8798 C   0  0  0  0  0  0  0  0  0  0  0  0
    1.2574    0.6487    2.1582 C   0  0  0  0  0  0  0  0  0  0  0  0
   -0.1331    0.7438    2.0642 C   0  0  0  0  0  0  0  0  0  0  0  0
   -2.9877    1.6296    0.6462 C   0  0  0  0  0  0  0  0  0  0  0  0
   -2.5495    2.9793    0.5337 C   0  0  0  0  0  0  0  0  0  0  0  0
   -1.3187    5.4229    1.2435 H   0  0  0  0  0  0  0  0  0  0  0  0
   -1.2468    5.2400   -0.5533 H   0  0  0  0  0  0  0  0  0  0  0  0
   -1.7049    6.7815    0.1806 H   0  0  0  0  0  0  0  0  0  0  0  0
   -5.5428    4.5471    0.2254 H   0  0  0  0  0  0  0  0  0  0  0  0
   -6.3584    2.2141    0.4079 H   0  0  0  0  0  0  0  0  0  0  0  0
   -2.5788   -1.9438    3.1911 H   0  0  0  0  0  0  0  0  0  0  0  0
   -1.9706   -4.3099    3.5603 H   0  0  0  0  0  0  0  0  0  0  0  0
   -1.7371   -5.8466    1.6281 H   0  0  0  0  0  0  0  0  0  0  0  0
   -2.0962   -5.0432   -0.6508 H   0  0  0  0  0  0  0  0  0  0  0  0
   -3.5218   -4.1144   -2.3187 H   0  0  0  0  0  0  0  0  0  0  0  0
   -1.7651   -3.7680   -2.5676 H   0  0  0  0  0  0  0  0  0  0  0  0
   -3.0012   -2.7478   -3.3113 H   0  0  0  0  0  0  0  0  0  0  0  0
   -0.5306   -0.5767   -1.0474 H   0  0  0  0  0  0  0  0  0  0  0  0
    1.8960   -0.7412   -0.8885 H   0  0  0  0  0  0  0  0  0  0  0  0
    3.7140   -1.5145    0.0122 H   0  0  0  0  0  0  0  0  0  0  0  0
    5.0556   -0.9612    0.9881 H   0  0  0  0  0  0  0  0  0  0  0  0
    5.2613    1.1538   -0.2485 H   0  0  0  0  0  0  0  0  0  0  0  0
    3.7981    0.8223   -1.1398 H   0  0  0  0  0  0  0  0  0  0  0  0
    6.5882   -1.6225   -0.5434 H   0  0  0  0  0  0  0  0  0  0  0  0
    7.3507   -0.0464   -0.8564 H   0  0  0  0  0  0  0  0  0  0  0  0
    7.2906   -1.3001   -2.1124 H   0  0  0  0  0  0  0  0  0  0  0  0
    4.7127    0.9554   -3.2904 H   0  0  0  0  0  0  0  0  0  0  0  0
    6.2497    1.4835   -2.5694 H   0  0  0  0  0  0  0  0  0  0  0  0
    6.1974    0.1139   -3.7017 H   0  0  0  0  0  0  0  0  0  0  0  0
    1.7591    0.9944    3.0587 H   0  0  0  0  0  0  0  0  0  0  0  0
   -0.6988    1.1610    2.8935 H   0  0  0  0  0  0  0  0  0  0  0  0
   -1.4819    3.1669    0.5650 H   0  0  0  0  0  0  0  0  0  0  0  0
  1  2  1  0
  2  3  1  0
  3  4  2  0
  4  5  1  0
  5  6  2  0
  6  7  1  0
  7  8  1  0
  8  9  1  0
  9 10  2  0
 10 11  1  0
 11 12  2  0
 12 13  1  0
 13 14  2  0
 14 15  1  0
 15 16  1  0
  8 17  2  0
 17 18  1  0
 18 19  2  0
 19 20  1  0
 20 21  2  0
 21 22  1  0
 22 23  1  0
 23 24  1  0
 24 25  1  0
 25 26  1  0
 25 27  1  0
 21 28  1  0
 28 29  2  0
 17 30  1  0
 30 31  2  0
 31  3  1  0
 30  6  1  0
 14  9  1  0
 29 18  1  0
  1 32  1  0
  1 33  1  0
  1 34  1  0
  4 35  1  0
  5 36  1  0
 10 37  1  0
 11 38  1  0
 12 39  1  0
 13 40  1  0
 16 41  1  0
 16 42  1  0
 16 43  1  0
 19 44  1  0
 20 45  1  0
 23 46  1  0
 23 47  1  0
 24 48  1  0
 24 49  1  0
 26 50  1  0
 26 51  1  0
 26 52  1  0
 27 53  1  0
 27 54  1  0
 27 55  1  0
 28 56  1  0
 29 57  1  0
 31 58  1  0
M  END
$$$$
