
     RDKit          3D

 33 34  0  0  0  0  0  0  0  0999 V2000
   -1.9753    0.5410    2.4445 C   0  0  0  0  0  0  0  0  0  0  0  0
   -1.4926    1.3878    1.2735 C   0  0  0  0  0  0  0  0  0  0  0  0
   -1.4471    0.6089    0.0254 N   0  0  0  0  0  0  0  0  0  0  0  0
   -2.7215    0.5325   -0.7062 C   0  0  0  0  0  0  0  0  0  0  0  0
   -2.8803    1.7053   -1.6651 C   0  0  0  0  0  0  0  0  0  0  0  0
   -0.2729   -0.0319   -0.4259 C   0  0  0  0  0  0  0  0  0  0  0  0
   -0.2367   -0.4974   -1.7642 C   0  0  0  0  0  0  0  0  0  0  0  0
    0.8680   -1.1351   -2.3093 C   0  0  0  0  0  0  0  0  0  0  0  0
    1.9821   -1.3268   -1.5064 C   0  0  0  0  0  0  0  0  0  0  0  0
    3.1070   -2.0077   -2.1191 N   0  0  0  0  0  4  0  0  0  0  0  0
    3.6671   -1.4309   -3.0605 O   0  0  0  0  0  0  0  0  0  0  0  0
    3.4102   -3.1216   -1.6717 O   0  0  0  0  0  1  0  0  0  0  0  0
    2.0397   -0.8901   -0.1663 C   0  0  0  0  0  0  0  0  0  0  0  0
    3.1842   -1.0640    0.6559 C   0  0  0  0  0  0  0  0  0  0  0  0
    3.1964   -0.6299    1.9697 C   0  0  0  0  0  0  0  0  0  0  0  0
    2.0597   -0.0259    2.4353 C   0  0  0  0  0  0  0  0  0  0  0  0
    0.9582    0.1648    1.6801 N   0  0  0  0  0  0  0  0  0  0  0  0
    0.9018   -0.2379    0.3855 C   0  0  0  0  0  0  0  0  0  0  0  0
   -1.3771   -0.3637    2.5821 H   0  0  0  0  0  0  0  0  0  0  0  0
   -3.0120    0.2216    2.2953 H   0  0  0  0  0  0  0  0  0  0  0  0
   -1.9368    1.1230    3.3707 H   0  0  0  0  0  0  0  0  0  0  0  0
   -2.2043    2.2152    1.1518 H   0  0  0  0  0  0  0  0  0  0  0  0
   -0.5476    1.8960    1.4864 H   0  0  0  0  0  0  0  0  0  0  0  0
   -2.8369   -0.4235   -1.2294 H   0  0  0  0  0  0  0  0  0  0  0  0
   -3.5572    0.5589    0.0044 H   0  0  0  0  0  0  0  0  0  0  0  0
   -2.0750    1.7433   -2.4043 H   0  0  0  0  0  0  0  0  0  0  0  0
   -3.8308    1.6262   -2.2022 H   0  0  0  0  0  0  0  0  0  0  0  0
   -2.8768    2.6586   -1.1266 H   0  0  0  0  0  0  0  0  0  0  0  0
   -1.0800   -0.3525   -2.4323 H   0  0  0  0  0  0  0  0  0  0  0  0
    0.8481   -1.4686   -3.3442 H   0  0  0  0  0  0  0  0  0  0  0  0
    4.0851   -1.5484    0.2830 H   0  0  0  0  0  0  0  0  0  0  0  0
    4.0639   -0.7648    2.6047 H   0  0  0  0  0  0  0  0  0  0  0  0
    1.9893    0.3373    3.4562 H   0  0  0  0  0  0  0  0  0  0  0  0
  1  2  1  0
  2  3  1  0
  3  4  1  0
  4  5  1  0
  3  6  1  0
  6  7  2  0
  7  8  1  0
  8  9  2  0
  9 10  1  0
 10 11  2  0
 10 12  1  0
  9 13  1  0
 13 14  2  0
 14 15  1  0
 15 16  2  0
 16 17  1  0
 17 18  2  0
 18  6  1  0
 18 13  1  0
  1 19  1  0
  1 20  1  0
  1 21  1  0
  2 22  1  0
  2 23  1  0
  4 24  1  0
  4 25  1  0
  5 26  1  0
  5 27  1  0
  5 28  1  0
  7 29  1  0
  8 30  1  0
 14 31  1  0
 15 32  1  0
 16 33  1  0
M  CHG  2  10   1  12  -1
M  END
$$$$
