
     RDKit          3D

 24 24  0  0  0  0  0  0  0  0999 V2000
   -4.7641   -0.4982   -0.4366 C   0  0  0  0  0  0  0  0  0  0  0  0
   -3.4217   -0.7460    0.0564 N   0  0  0  0  0  0  0  0  0  0  0  0
   -2.2530   -0.2417   -0.5111 C   0  0  0  0  0  0  0  0  0  0  0  0
   -2.2189    0.6441   -1.9282 S   0  0  0  0  0  0  0  0  0  0  0  0
   -1.1707   -0.6593    0.2539 N   0  0  0  0  0  0  0  0  0  0  0  0
    0.1739   -0.2287    0.2836 C   0  0  0  0  0  0  0  0  0  0  0  0
    1.1094   -1.1039    0.8503 C   0  0  0  0  0  0  0  0  0  0  0  0
    2.4593   -0.7502    0.9452 C   0  0  0  0  0  0  0  0  0  0  0  0
    2.8986    0.4913    0.4797 C   0  0  0  0  0  0  0  0  0  0  0  0
    4.3386    0.8893    0.6068 C   0  0  0  0  0  0  0  0  0  0  0  0
    1.9597    1.3821   -0.0482 C   0  0  0  0  0  0  0  0  0  0  0  0
    0.6087    1.0253   -0.1426 C   0  0  0  0  0  0  0  0  0  0  0  0
   -5.0051    0.5603   -0.3067 H   0  0  0  0  0  0  0  0  0  0  0  0
   -5.4593   -1.1070    0.1468 H   0  0  0  0  0  0  0  0  0  0  0  0
   -4.8364   -0.7738   -1.4916 H   0  0  0  0  0  0  0  0  0  0  0  0
   -3.3588   -0.9248    1.0496 H   0  0  0  0  0  0  0  0  0  0  0  0
   -1.3440   -1.5342    0.7308 H   0  0  0  0  0  0  0  0  0  0  0  0
    0.8057   -2.0815    1.2152 H   0  0  0  0  0  0  0  0  0  0  0  0
    3.1641   -1.4531    1.3835 H   0  0  0  0  0  0  0  0  0  0  0  0
    4.9933    0.0142    0.5374 H   0  0  0  0  0  0  0  0  0  0  0  0
    4.6268    1.5745   -0.1974 H   0  0  0  0  0  0  0  0  0  0  0  0
    4.5073    1.3821    1.5693 H   0  0  0  0  0  0  0  0  0  0  0  0
    2.2680    2.3691   -0.3867 H   0  0  0  0  0  0  0  0  0  0  0  0
   -0.0816    1.7700   -0.5226 H   0  0  0  0  0  0  0  0  0  0  0  0
  1  2  1  0
  2  3  1  0
  3  4  2  0
  3  5  1  0
  5  6  1  0
  6  7  2  0
  7  8  1  0
  8  9  2  0
  9 10  1  0
  9 11  1  0
 11 12  2  0
 12  6  1  0
  1 13  1  0
  1 14  1  0
  1 15  1  0
  2 16  1  0
  5 17  1  0
  7 18  1  0
  8 19  1  0
 10 20  1  0
 10 21  1  0
 10 22  1  0
 11 23  1  0
 12 24  1  0
M  END
$$$$
