
     RDKit          3D

 57 60  0  0  0  0  0  0  0  0999 V2000
   -6.4186   -2.1503    0.6213 C   0  0  0  0  0  0  0  0  0  0  0  0
   -5.1546   -1.7532   -0.1436 C   0  0  0  0  0  0  0  0  0  0  0  0
   -4.7796   -2.8516   -1.1382 C   0  0  0  0  0  0  0  0  0  0  0  0
   -3.9929   -1.5140    0.8232 C   0  0  0  0  0  0  0  0  0  0  0  0
   -3.9555   -2.0907    1.9124 O   0  0  0  0  0  0  0  0  0  0  0  0
   -2.9684   -0.6707    0.4157 N   0  0  0  0  0  0  0  0  0  0  0  0
   -1.8609   -0.4192    1.3494 C   0  0  0  0  0  0  0  0  0  0  0  0
   -1.2760    0.9947    1.1979 C   0  0  0  0  0  0  0  0  0  0  0  0
   -0.7705    1.2159   -0.1805 N   0  0  0  0  0  0  0  0  0  0  0  0
   -0.4986    2.5915   -0.4101 C   0  0  0  0  0  0  0  0  0  0  0  0
   -1.5105    3.5273   -0.6690 C   0  0  0  0  0  0  0  0  0  0  0  0
   -1.1975    4.8737   -0.8639 C   0  0  0  0  0  0  0  0  0  0  0  0
    0.1277    5.2992   -0.8005 C   0  0  0  0  0  0  0  0  0  0  0  0
    1.1495    4.3834   -0.5417 C   0  0  0  0  0  0  0  0  0  0  0  0
    0.8453    3.0365   -0.3454 C   0  0  0  0  0  0  0  0  0  0  0  0
    1.8082    2.0364   -0.0968 N   0  0  0  0  0  0  0  0  0  0  0  0
    3.1653    2.1792    0.0819 C   0  0  0  0  0  0  0  0  0  0  0  0
    3.7953    3.2299    0.1119 O   0  0  0  0  0  0  0  0  0  0  0  0
    3.9074    0.9035    0.2920 C   0  0  0  0  0  0  0  0  0  0  0  0
    5.0300    0.9160    1.1330 C   0  0  0  0  0  0  0  0  0  0  0  0
    5.7593   -0.2551    1.3503 C   0  0  0  0  0  0  0  0  0  0  0  0
    5.3777   -1.4354    0.7161 C   0  0  0  0  0  0  0  0  0  0  0  0
    4.2511   -1.4545   -0.1139 C   0  0  0  0  0  0  0  0  0  0  0  0
    3.5250   -0.2857   -0.3419 C   0  0  0  0  0  0  0  0  0  0  0  0
    3.8075   -2.5856   -0.7523 O   0  0  0  0  0  0  0  0  0  0  0  0
    4.4096   -3.7661   -0.2069 C   0  0  0  0  0  0  0  0  0  0  0  0
    5.9039   -3.5686   -0.0125 C   0  0  0  0  0  0  0  0  0  0  0  0
    6.1544   -2.5406    0.9527 O   0  0  0  0  0  0  0  0  0  0  0  0
   -1.5458    0.5526   -1.2551 C   0  0  0  0  0  0  0  0  0  0  0  0
   -2.9607    0.1321   -0.8165 C   0  0  0  0  0  0  0  0  0  0  0  0
   -6.6737   -1.3908    1.3680 H   0  0  0  0  0  0  0  0  0  0  0  0
   -7.2696   -2.2506   -0.0617 H   0  0  0  0  0  0  0  0  0  0  0  0
   -6.2920   -3.1030    1.1466 H   0  0  0  0  0  0  0  0  0  0  0  0
   -5.3816   -0.8248   -0.6782 H   0  0  0  0  0  0  0  0  0  0  0  0
   -3.8707   -2.6057   -1.6952 H   0  0  0  0  0  0  0  0  0  0  0  0
   -4.5924   -3.8009   -0.6225 H   0  0  0  0  0  0  0  0  0  0  0  0
   -5.5848   -3.0124   -1.8624 H   0  0  0  0  0  0  0  0  0  0  0  0
   -2.1909   -0.5688    2.3827 H   0  0  0  0  0  0  0  0  0  0  0  0
   -1.0921   -1.1704    1.1331 H   0  0  0  0  0  0  0  0  0  0  0  0
   -0.4523    1.1218    1.9102 H   0  0  0  0  0  0  0  0  0  0  0  0
   -2.0562    1.7246    1.4516 H   0  0  0  0  0  0  0  0  0  0  0  0
   -2.5511    3.2230   -0.7072 H   0  0  0  0  0  0  0  0  0  0  0  0
   -1.9880    5.5933   -1.0606 H   0  0  0  0  0  0  0  0  0  0  0  0
    0.3723    6.3478   -0.9519 H   0  0  0  0  0  0  0  0  0  0  0  0
    2.1717    4.7457   -0.5042 H   0  0  0  0  0  0  0  0  0  0  0  0
    1.3795    1.1208    0.0022 H   0  0  0  0  0  0  0  0  0  0  0  0
    5.3377    1.8407    1.6189 H   0  0  0  0  0  0  0  0  0  0  0  0
    6.6307   -0.2414    1.9997 H   0  0  0  0  0  0  0  0  0  0  0  0
    2.6820   -0.3155   -1.0259 H   0  0  0  0  0  0  0  0  0  0  0  0
    4.2243   -4.5862   -0.9079 H   0  0  0  0  0  0  0  0  0  0  0  0
    3.9099   -4.0051    0.7403 H   0  0  0  0  0  0  0  0  0  0  0  0
    6.3632   -4.4906    0.3577 H   0  0  0  0  0  0  0  0  0  0  0  0
    6.3993   -3.2934   -0.9523 H   0  0  0  0  0  0  0  0  0  0  0  0
   -1.6014    1.1629   -2.1652 H   0  0  0  0  0  0  0  0  0  0  0  0
   -0.9887   -0.3523   -1.5303 H   0  0  0  0  0  0  0  0  0  0  0  0
   -3.4368   -0.4163   -1.6320 H   0  0  0  0  0  0  0  0  0  0  0  0
   -3.5754    1.0173   -0.6156 H   0  0  0  0  0  0  0  0  0  0  0  0
  1  2  1  0
  2  3  1  0
  2  4  1  0
  4  5  2  0
  4  6  1  0
  6  7  1  0
  7  8  1  0
  8  9  1  0
  9 10  1  0
 10 11  2  0
 11 12  1  0
 12 13  2  0
 13 14  1  0
 14 15  2  0
 15 16  1  0
 16 17  1  0
 17 18  2  0
 17 19  1  0
 19 20  2  0
 20 21  1  0
 21 22  2  0
 22 23  1  0
 23 24  2  0
 23 25  1  0
 25 26  1  0
 26 27  1  0
 27 28  1  0
  9 29  1  0
 29 30  1  0
 30  6  1  0
 15 10  1  0
 24 19  1  0
 28 22  1  0
  1 31  1  0
  1 32  1  0
  1 33  1  0
  2 34  1  0
  3 35  1  0
  3 36  1  0
  3 37  1  0
  7 38  1  0
  7 39  1  0
  8 40  1  0
  8 41  1  0
 11 42  1  0
 12 43  1  0
 13 44  1  0
 14 45  1  0
 16 46  1  0
 20 47  1  0
 21 48  1  0
 24 49  1  0
 26 50  1  0
 26 51  1  0
 27 52  1  0
 27 53  1  0
 29 54  1  0
 29 55  1  0
 30 56  1  0
 30 57  1  0
M  END
$$$$
