
     RDKit          3D

 55 60  0  0  0  0  0  0  0  0999 V2000
    4.1808    1.7618    0.8250 O   0  0  0  0  0  0  0  0  0  0  0  0
    3.8396    0.5911    0.9806 C   0  0  0  0  0  0  0  0  0  0  0  0
    4.2419   -0.1368    2.1744 C   0  0  0  0  0  0  0  0  0  0  0  0
    4.5961   -1.5068    2.3588 C   0  0  0  0  0  0  0  0  0  0  0  0
    4.9355   -1.6511    3.6834 C   0  0  0  0  0  0  0  0  0  0  0  0
    4.8381   -0.4615    4.3280 O   0  0  0  0  0  0  0  0  0  0  0  0
    4.4405    0.4532    3.4074 C   0  0  0  0  0  0  0  0  0  0  0  0
    3.0937   -0.0955    0.0120 N   0  0  0  0  0  0  0  0  0  0  0  0
    2.0693   -1.0772    0.3540 C   0  0  0  0  0  0  0  0  0  0  0  0
    0.6900   -0.4099    0.4037 C   0  0  0  0  0  0  0  0  0  0  0  0
    0.3375    0.3209   -0.9239 C   0  0  0  0  0  0  0  0  0  0  0  0
    1.5088    1.3006   -1.2398 C   0  0  0  0  0  0  0  0  0  0  0  0
    2.8567    0.5801   -1.2559 C   0  0  0  0  0  0  0  0  0  0  0  0
    0.2781   -0.7228   -1.9292 O   0  0  0  0  0  0  0  0  0  0  0  0
   -0.2328   -0.3575   -3.1432 C   0  0  0  0  0  0  0  0  0  0  0  0
    0.0554   -1.2082   -4.2113 C   0  0  0  0  0  0  0  0  0  0  0  0
   -0.4109   -0.9009   -5.4905 C   0  0  0  0  0  0  0  0  0  0  0  0
   -1.1656    0.2511   -5.6905 C   0  0  0  0  0  0  0  0  0  0  0  0
   -1.6094    0.5401   -6.9199 F   0  0  0  0  0  0  0  0  0  0  0  0
   -1.4728    1.0993   -4.6347 C   0  0  0  0  0  0  0  0  0  0  0  0
   -1.0097    0.7824   -3.3553 C   0  0  0  0  0  0  0  0  0  0  0  0
   -1.3558    1.6362   -2.2029 C   0  0  0  0  0  0  0  0  0  0  0  0
   -1.9177    2.7096   -2.3919 O   0  0  0  0  0  0  0  0  0  0  0  0
   -1.0325    1.0526   -0.8319 C   0  0  0  0  0  0  0  0  0  0  0  0
   -2.2209    0.1918   -0.4145 C   0  0  0  0  0  0  0  0  0  0  0  0
   -2.3640    0.6469    0.9955 C   0  0  0  0  0  0  0  0  0  0  0  0
   -3.2378   -0.0544    1.9646 C   0  0  0  0  0  0  0  0  0  0  0  0
   -4.0694   -1.1095    1.5705 C   0  0  0  0  0  0  0  0  0  0  0  0
   -4.8776   -1.7530    2.5140 C   0  0  0  0  0  0  0  0  0  0  0  0
   -4.8561   -1.3425    3.8464 C   0  0  0  0  0  0  0  0  0  0  0  0
   -5.8506   -2.1392    5.0011 Cl  0  0  0  0  0  0  0  0  0  0  0  0
   -4.0350   -0.2909    4.2459 C   0  0  0  0  0  0  0  0  0  0  0  0
   -3.2270    0.3538    3.3054 C   0  0  0  0  0  0  0  0  0  0  0  0
   -1.6676    1.6932    1.3006 N   0  0  0  0  0  0  0  0  0  0  0  0
   -0.9790    2.1042    0.1363 O   0  0  0  0  0  0  0  0  0  0  0  0
    4.6143   -2.2871    1.6111 H   0  0  0  0  0  0  0  0  0  0  0  0
    5.2648   -2.4845    4.2884 H   0  0  0  0  0  0  0  0  0  0  0  0
    4.3404    1.4687    3.7671 H   0  0  0  0  0  0  0  0  0  0  0  0
    2.0969   -1.8690   -0.4032 H   0  0  0  0  0  0  0  0  0  0  0  0
    2.2534   -1.5439    1.3222 H   0  0  0  0  0  0  0  0  0  0  0  0
   -0.0435   -1.1950    0.6189 H   0  0  0  0  0  0  0  0  0  0  0  0
    0.6782    0.2996    1.2395 H   0  0  0  0  0  0  0  0  0  0  0  0
    1.3781    1.7819   -2.2147 H   0  0  0  0  0  0  0  0  0  0  0  0
    1.5366    2.0993   -0.4880 H   0  0  0  0  0  0  0  0  0  0  0  0
    2.8857   -0.1769   -2.0482 H   0  0  0  0  0  0  0  0  0  0  0  0
    3.6610    1.2930   -1.4681 H   0  0  0  0  0  0  0  0  0  0  0  0
    0.6521   -2.1035   -4.0535 H   0  0  0  0  0  0  0  0  0  0  0  0
   -0.1883   -1.5490   -6.3332 H   0  0  0  0  0  0  0  0  0  0  0  0
   -2.0718    1.9878   -4.8150 H   0  0  0  0  0  0  0  0  0  0  0  0
   -2.0349   -0.8816   -0.4942 H   0  0  0  0  0  0  0  0  0  0  0  0
   -3.1424    0.4376   -0.9542 H   0  0  0  0  0  0  0  0  0  0  0  0
   -4.1161   -1.4443    0.5385 H   0  0  0  0  0  0  0  0  0  0  0  0
   -5.5242   -2.5703    2.2037 H   0  0  0  0  0  0  0  0  0  0  0  0
   -4.0186    0.0348    5.2830 H   0  0  0  0  0  0  0  0  0  0  0  0
   -2.5916    1.1775    3.6277 H   0  0  0  0  0  0  0  0  0  0  0  0
  1  2  2  0
  2  3  1  0
  3  4  1  0
  4  5  2  0
  5  6  1  0
  6  7  1  0
  2  8  1  0
  8  9  1  0
  9 10  1  0
 10 11  1  0
 11 12  1  0
 12 13  1  0
 11 14  1  0
 14 15  1  0
 15 16  2  0
 16 17  1  0
 17 18  2  0
 18 19  1  0
 18 20  1  0
 20 21  2  0
 21 22  1  0
 22 23  2  0
 22 24  1  0
 24 25  1  0
 25 26  1  0
 26 27  1  0
 27 28  2  0
 28 29  1  0
 29 30  2  0
 30 31  1  0
 30 32  1  0
 32 33  2  0
 26 34  2  0
 34 35  1  0
  7  3  2  0
 13  8  1  0
 21 15  1  0
 35 24  1  0
 24 11  1  0
 33 27  1  0
  4 36  1  0
  5 37  1  0
  7 38  1  0
  9 39  1  0
  9 40  1  0
 10 41  1  0
 10 42  1  0
 12 43  1  0
 12 44  1  0
 13 45  1  0
 13 46  1  0
 16 47  1  0
 17 48  1  0
 20 49  1  0
 25 50  1  0
 25 51  1  0
 28 52  1  0
 29 53  1  0
 32 54  1  0
 33 55  1  0
M  END
$$$$
