
     RDKit          3D

 53 58  0  0  0  0  0  0  0  0999 V2000
   -0.9742   -1.5989   -1.3389 O   0  0  0  0  0  0  0  0  0  0  0  0
   -1.4945   -1.0359   -0.3708 C   0  0  0  0  0  0  0  0  0  0  0  0
   -0.7333   -1.0655    0.9729 C   0  0  0  0  0  0  0  0  0  0  0  0
    0.7137   -0.8765    0.7515 N   0  0  0  0  0  4  0  0  0  0  0  0
    1.4430    0.2938    0.9575 C   0  0  0  0  0  0  0  0  0  0  0  0
    2.7605    0.0799    0.5689 C   0  0  0  0  0  0  0  0  0  0  0  0
    3.9259    1.1354    0.6029 C   0  0  0  0  0  0  0  0  0  0  0  0
    5.1941    0.8153    0.1118 C   0  0  0  0  0  0  0  0  0  0  0  0
    6.2227    1.7639    0.1460 C   0  0  0  0  0  0  0  0  0  0  0  0
    5.9844    3.0323    0.6684 C   0  0  0  0  0  0  0  0  0  0  0  0
    7.2493    4.1940    0.7089 Cl  0  0  0  0  0  0  0  0  0  0  0  0
    4.7229    3.3619    1.1558 C   0  0  0  0  0  0  0  0  0  0  0  0
    3.6925    2.4162    1.1224 C   0  0  0  0  0  0  0  0  0  0  0  0
    2.7602   -1.2419    0.1609 N   0  0  0  0  0  0  0  0  0  0  0  0
    1.5426   -1.7758    0.2289 C   0  0  0  0  0  0  0  0  0  0  0  0
    1.4958   -3.1813   -0.2396 C   0  0  0  0  0  0  0  0  0  0  0  0
    2.9914   -3.5515   -0.2838 C   0  0  0  0  0  0  0  0  0  0  0  0
    3.7363   -2.1908   -0.3568 C   0  0  0  0  0  0  0  0  0  0  0  0
   -2.6599   -0.2500   -0.3983 N   0  0  0  0  0  0  0  0  0  0  0  0
   -3.0902    0.4214   -1.6043 C   0  0  0  0  0  0  0  0  0  0  0  0
   -2.8322   -0.1220   -2.8757 C   0  0  0  0  0  0  0  0  0  0  0  0
   -3.2361    0.5274   -4.0480 C   0  0  0  0  0  0  0  0  0  0  0  0
   -3.9037    1.7418   -3.9783 C   0  0  0  0  0  0  0  0  0  0  0  0
   -4.1680    2.3063   -2.7350 C   0  0  0  0  0  0  0  0  0  0  0  0
   -3.7707    1.6552   -1.5559 C   0  0  0  0  0  0  0  0  0  0  0  0
   -4.0772    2.5027   -0.0220 S   0  0  0  0  0  0  0  0  0  0  0  0
   -4.1989    1.0886    1.0363 C   0  0  0  0  0  0  0  0  0  0  0  0
   -4.9896    1.1946    2.1896 C   0  0  0  0  0  0  0  0  0  0  0  0
   -5.1262    0.1145    3.0583 C   0  0  0  0  0  0  0  0  0  0  0  0
   -4.4836   -1.0832    2.7729 C   0  0  0  0  0  0  0  0  0  0  0  0
   -3.6855   -1.1910    1.6311 C   0  0  0  0  0  0  0  0  0  0  0  0
   -3.5029   -0.0979    0.7598 C   0  0  0  0  0  0  0  0  0  0  0  0
   -0.8775   -2.0397    1.4496 H   0  0  0  0  0  0  0  0  0  0  0  0
   -1.0596   -0.2733    1.6519 H   0  0  0  0  0  0  0  0  0  0  0  0
    0.9195    1.1507    1.3467 H   0  0  0  0  0  0  0  0  0  0  0  0
    5.4194   -0.1528   -0.3167 H   0  0  0  0  0  0  0  0  0  0  0  0
    7.2077    1.5096   -0.2399 H   0  0  0  0  0  0  0  0  0  0  0  0
    4.5365    4.3540    1.5621 H   0  0  0  0  0  0  0  0  0  0  0  0
    2.7239    2.7140    1.5140 H   0  0  0  0  0  0  0  0  0  0  0  0
    1.0483   -3.1746   -1.2347 H   0  0  0  0  0  0  0  0  0  0  0  0
    0.9190   -3.7764    0.4689 H   0  0  0  0  0  0  0  0  0  0  0  0
    3.2428   -4.2191   -1.1123 H   0  0  0  0  0  0  0  0  0  0  0  0
    3.2631   -4.0556    0.6513 H   0  0  0  0  0  0  0  0  0  0  0  0
    4.6371   -2.2039    0.2605 H   0  0  0  0  0  0  0  0  0  0  0  0
    3.9728   -1.9241   -1.3910 H   0  0  0  0  0  0  0  0  0  0  0  0
   -2.3539   -1.0888   -3.0005 H   0  0  0  0  0  0  0  0  0  0  0  0
   -3.0349    0.0734   -5.0163 H   0  0  0  0  0  0  0  0  0  0  0  0
   -4.2194    2.2479   -4.8876 H   0  0  0  0  0  0  0  0  0  0  0  0
   -4.6849    3.2636   -2.6919 H   0  0  0  0  0  0  0  0  0  0  0  0
   -5.5192    2.1199    2.4128 H   0  0  0  0  0  0  0  0  0  0  0  0
   -5.7561    0.2030    3.9412 H   0  0  0  0  0  0  0  0  0  0  0  0
   -4.6266   -1.9414    3.4269 H   0  0  0  0  0  0  0  0  0  0  0  0
   -3.2665   -2.1694    1.4077 H   0  0  0  0  0  0  0  0  0  0  0  0
  1  2  2  0
  2  3  1  0
  3  4  1  0
  4  5  1  0
  5  6  2  0
  6  7  1  0
  7  8  2  0
  8  9  1  0
  9 10  2  0
 10 11  1  0
 10 12  1  0
 12 13  2  0
  6 14  1  0
 14 15  1  0
 15 16  1  0
 16 17  1  0
 17 18  1  0
  2 19  1  0
 19 20  1  0
 20 21  2  0
 21 22  1  0
 22 23  2  0
 23 24  1  0
 24 25  2  0
 25 26  1  0
 26 27  1  0
 27 28  2  0
 28 29  1  0
 29 30  2  0
 30 31  1  0
 31 32  2  0
 15  4  2  0
 32 19  1  0
 13  7  1  0
 18 14  1  0
 25 20  1  0
 32 27  1  0
  3 33  1  0
  3 34  1  0
  5 35  1  0
  8 36  1  0
  9 37  1  0
 12 38  1  0
 13 39  1  0
 16 40  1  0
 16 41  1  0
 17 42  1  0
 17 43  1  0
 18 44  1  0
 18 45  1  0
 21 46  1  0
 22 47  1  0
 23 48  1  0
 24 49  1  0
 28 50  1  0
 29 51  1  0
 30 52  1  0
 31 53  1  0
M  CHG  1   4   1
M  END
$$$$
