
     RDKit          3D

 56 60  0  0  0  0  0  0  0  0999 V2000
   -5.8671   -2.6894    0.4104 C   0  0  0  0  0  0  0  0  0  0  0  0
   -4.4324   -2.2810    0.2271 C   0  0  0  0  0  0  0  0  0  0  0  0
   -3.4899   -3.2740   -0.0852 C   0  0  0  0  0  0  0  0  0  0  0  0
   -2.1379   -2.9593   -0.2564 C   0  0  0  0  0  0  0  0  0  0  0  0
   -1.6800   -1.6434   -0.1068 C   0  0  0  0  0  0  0  0  0  0  0  0
   -0.2642   -1.2955   -0.2918 C   0  0  0  0  0  0  0  0  0  0  0  0
   -0.0395   -0.5191   -1.3782 N   0  0  0  0  0  0  0  0  0  0  0  0
    1.2269   -0.1204   -1.6848 N   0  0  0  0  0  0  0  0  0  0  0  0
    2.2695   -0.4764   -0.9023 C   0  0  0  0  0  0  0  0  0  0  0  0
    3.5304    0.0252   -1.3019 N   0  0  0  0  0  0  0  0  0  0  0  0
    4.3559    0.9028   -0.5471 C   0  0  0  0  0  0  0  0  0  0  0  0
    5.6788    1.1130   -1.0022 C   0  0  0  0  0  0  0  0  0  0  0  0
    6.5449    1.9909   -0.3408 C   0  0  0  0  0  0  0  0  0  0  0  0
    6.0574    2.6589    0.7598 C   0  0  0  0  0  0  0  0  0  0  0  0
    4.7684    2.4777    1.2010 C   0  0  0  0  0  0  0  0  0  0  0  0
    3.8934    1.6156    0.5690 C   0  0  0  0  0  0  0  0  0  0  0  0
    4.4827    3.2375    2.2923 O   0  0  0  0  0  0  0  0  0  0  0  0
    5.7409    3.9172    2.4865 C   0  0  0  0  0  0  0  0  0  0  0  0
    6.7450    3.5540    1.5157 O   0  0  0  0  0  0  0  0  0  0  0  0
    2.0944   -1.3061    0.2276 C   0  0  0  0  0  0  0  0  0  0  0  0
    3.1623   -1.7654    1.0397 C   0  0  0  0  0  0  0  0  0  0  0  0
    2.9441   -2.5613    2.1651 C   0  0  0  0  0  0  0  0  0  0  0  0
    1.6516   -2.9250    2.5092 C   0  0  0  0  0  0  0  0  0  0  0  0
    0.5833   -2.5087    1.7148 C   0  0  0  0  0  0  0  0  0  0  0  0
    0.7802   -1.7138    0.5556 C   0  0  0  0  0  0  0  0  0  0  0  0
   -2.6209   -0.6460    0.1873 C   0  0  0  0  0  0  0  0  0  0  0  0
   -3.9841   -0.9528    0.3374 C   0  0  0  0  0  0  0  0  0  0  0  0
   -5.1027    0.4059    0.6300 S   0  0  0  0  0  6  0  0  0  0  0  0
   -6.3870    0.1256    0.0283 O   0  0  0  0  0  0  0  0  0  0  0  0
   -4.9681    0.7663    2.0238 O   0  0  0  0  0  0  0  0  0  0  0  0
   -4.4227    1.6651   -0.2524 N   0  0  0  0  0  0  0  0  0  0  0  0
   -4.6244    1.6929   -1.7050 C   0  0  0  0  0  0  0  0  0  0  0  0
   -3.4389    2.3832   -2.3822 C   0  0  0  0  0  0  0  0  0  0  0  0
   -3.5532    2.3062   -3.7988 O   0  0  0  0  0  0  0  0  0  0  0  0
   -6.4618   -2.4044   -0.4624 H   0  0  0  0  0  0  0  0  0  0  0  0
   -5.9566   -3.7760    0.5354 H   0  0  0  0  0  0  0  0  0  0  0  0
   -6.2872   -2.2425    1.3188 H   0  0  0  0  0  0  0  0  0  0  0  0
   -3.8031   -4.3111   -0.2017 H   0  0  0  0  0  0  0  0  0  0  0  0
   -1.4400   -3.7558   -0.5122 H   0  0  0  0  0  0  0  0  0  0  0  0
    3.3397    0.4908   -2.1924 H   0  0  0  0  0  0  0  0  0  0  0  0
    6.0392    0.5743   -1.8764 H   0  0  0  0  0  0  0  0  0  0  0  0
    7.5606    2.1442   -0.6840 H   0  0  0  0  0  0  0  0  0  0  0  0
    2.8792    1.5161    0.9392 H   0  0  0  0  0  0  0  0  0  0  0  0
    5.5689    4.9982    2.4264 H   0  0  0  0  0  0  0  0  0  0  0  0
    6.1186    3.6778    3.4874 H   0  0  0  0  0  0  0  0  0  0  0  0
    4.1902   -1.5038    0.7937 H   0  0  0  0  0  0  0  0  0  0  0  0
    3.7858   -2.8887    2.7712 H   0  0  0  0  0  0  0  0  0  0  0  0
    1.4712   -3.5355    3.3918 H   0  0  0  0  0  0  0  0  0  0  0  0
   -0.4176   -2.8130    2.0167 H   0  0  0  0  0  0  0  0  0  0  0  0
   -2.2794    0.3828    0.2959 H   0  0  0  0  0  0  0  0  0  0  0  0
   -4.4092    2.5451    0.2633 H   0  0  0  0  0  0  0  0  0  0  0  0
   -4.7195    0.6791   -2.1086 H   0  0  0  0  0  0  0  0  0  0  0  0
   -5.5519    2.2282   -1.9432 H   0  0  0  0  0  0  0  0  0  0  0  0
   -3.4020    3.4401   -2.0999 H   0  0  0  0  0  0  0  0  0  0  0  0
   -2.4914    1.9276   -2.0762 H   0  0  0  0  0  0  0  0  0  0  0  0
   -3.2309    1.4262   -4.0668 H   0  0  0  0  0  0  0  0  0  0  0  0
  1  2  1  0
  2  3  2  0
  3  4  1  0
  4  5  2  0
  5  6  1  0
  6  7  2  0
  7  8  1  0
  8  9  2  0
  9 10  1  0
 10 11  1  0
 11 12  2  0
 12 13  1  0
 13 14  2  0
 14 15  1  0
 15 16  2  0
 15 17  1  0
 17 18  1  0
 18 19  1  0
  9 20  1  0
 20 21  2  0
 21 22  1  0
 22 23  2  0
 23 24  1  0
 24 25  2  0
  5 26  1  0
 26 27  2  0
 27 28  1  0
 28 29  2  0
 28 30  2  0
 28 31  1  0
 31 32  1  0
 32 33  1  0
 33 34  1  0
 27  2  1  0
 25  6  1  0
 16 11  1  0
 25 20  1  0
 19 14  1  0
  1 35  1  0
  1 36  1  0
  1 37  1  0
  3 38  1  0
  4 39  1  0
 10 40  1  0
 12 41  1  0
 13 42  1  0
 16 43  1  0
 18 44  1  0
 18 45  1  0
 21 46  1  0
 22 47  1  0
 23 48  1  0
 24 49  1  0
 26 50  1  0
 31 51  1  0
 32 52  1  0
 32 53  1  0
 33 54  1  0
 33 55  1  0
 34 56  1  0
M  END
$$$$
