
     RDKit          3D

 39 41  0  0  0  0  0  0  0  0999 V2000
    3.6858   -0.8793   -2.3974 O   0  0  0  0  0  0  0  0  0  0  0  0
    3.3020   -0.5184   -1.2959 C   0  0  0  0  0  0  0  0  0  0  0  0
    2.0125   -0.3611   -0.9184 O   0  0  0  0  0  0  0  0  0  0  0  0
    1.0678   -0.6613   -1.9478 C   0  0  0  0  0  0  0  0  0  0  0  0
   -0.3105   -0.4411   -1.3811 C   0  0  0  0  0  0  0  0  0  0  0  0
   -0.9328    0.8080   -1.4860 C   0  0  0  0  0  0  0  0  0  0  0  0
   -2.2034    1.0163   -0.9394 C   0  0  0  0  0  0  0  0  0  0  0  0
   -2.8824   -0.0127   -0.2680 C   0  0  0  0  0  0  0  0  0  0  0  0
   -4.2197    0.2084    0.3068 C   0  0  0  0  0  0  0  0  0  0  0  0
   -5.2950   -0.6365   -0.0156 C   0  0  0  0  0  0  0  0  0  0  0  0
   -6.5651   -0.4273    0.5290 C   0  0  0  0  0  0  0  0  0  0  0  0
   -6.7811    0.6313    1.4075 C   0  0  0  0  0  0  0  0  0  0  0  0
   -5.7292    1.4804    1.7411 C   0  0  0  0  0  0  0  0  0  0  0  0
   -4.4601    1.2704    1.1946 C   0  0  0  0  0  0  0  0  0  0  0  0
   -2.2440   -1.2581   -0.1576 C   0  0  0  0  0  0  0  0  0  0  0  0
   -0.9731   -1.4700   -0.7019 C   0  0  0  0  0  0  0  0  0  0  0  0
    4.2211   -0.1887   -0.1737 C   0  0  0  0  0  0  0  0  0  0  0  0
    3.7543    0.2204    1.0847 C   0  0  0  0  0  0  0  0  0  0  0  0
    4.6605    0.5182    2.1053 C   0  0  0  0  0  0  0  0  0  0  0  0
    6.0310    0.4092    1.8738 C   0  0  0  0  0  0  0  0  0  0  0  0
    6.4903    0.0035    0.6258 C   0  0  0  0  0  0  0  0  0  0  0  0
    7.8388   -0.0886    0.4463 O   0  0  0  0  0  0  0  0  0  0  0  0
    5.6006   -0.2967   -0.4009 C   0  0  0  0  0  0  0  0  0  0  0  0
    1.1771   -1.7035   -2.2726 H   0  0  0  0  0  0  0  0  0  0  0  0
    1.2279   -0.0066   -2.8134 H   0  0  0  0  0  0  0  0  0  0  0  0
   -0.4335    1.6301   -1.9942 H   0  0  0  0  0  0  0  0  0  0  0  0
   -2.6683    1.9941   -1.0500 H   0  0  0  0  0  0  0  0  0  0  0  0
   -5.1506   -1.4627   -0.7090 H   0  0  0  0  0  0  0  0  0  0  0  0
   -7.3843   -1.0903    0.2637 H   0  0  0  0  0  0  0  0  0  0  0  0
   -7.7684    0.7943    1.8316 H   0  0  0  0  0  0  0  0  0  0  0  0
   -5.8932    2.3059    2.4288 H   0  0  0  0  0  0  0  0  0  0  0  0
   -3.6494    1.9389    1.4776 H   0  0  0  0  0  0  0  0  0  0  0  0
   -2.7309   -2.0748    0.3720 H   0  0  0  0  0  0  0  0  0  0  0  0
   -0.5023   -2.4438   -0.5860 H   0  0  0  0  0  0  0  0  0  0  0  0
    2.6891    0.3115    1.2853 H   0  0  0  0  0  0  0  0  0  0  0  0
    4.2985    0.8350    3.0803 H   0  0  0  0  0  0  0  0  0  0  0  0
    6.7400    0.6397    2.6645 H   0  0  0  0  0  0  0  0  0  0  0  0
    8.0164   -0.3807   -0.4635 H   0  0  0  0  0  0  0  0  0  0  0  0
    5.9636   -0.6135   -1.3749 H   0  0  0  0  0  0  0  0  0  0  0  0
  1  2  2  0
  2  3  1  0
  3  4  1  0
  4  5  1  0
  5  6  2  0
  6  7  1  0
  7  8  2  0
  8  9  1  0
  9 10  2  0
 10 11  1  0
 11 12  2  0
 12 13  1  0
 13 14  2  0
  8 15  1  0
 15 16  2  0
  2 17  1  0
 17 18  2  0
 18 19  1  0
 19 20  2  0
 20 21  1  0
 21 22  1  0
 21 23  2  0
 16  5  1  0
 23 17  1  0
 14  9  1  0
  4 24  1  0
  4 25  1  0
  6 26  1  0
  7 27  1  0
 10 28  1  0
 11 29  1  0
 12 30  1  0
 13 31  1  0
 14 32  1  0
 15 33  1  0
 16 34  1  0
 18 35  1  0
 19 36  1  0
 20 37  1  0
 22 38  1  0
 23 39  1  0
M  END
$$$$
