
     RDKit          3D

 65 68  0  0  0  0  0  0  0  0999 V2000
    7.7800   -0.7901   -2.0520 C   0  0  0  0  0  0  0  0  0  0  0  0
    6.9164   -0.5426   -0.8855 C   0  0  0  0  0  0  0  0  0  0  0  0
    5.5699   -0.3401   -0.7135 C   0  0  0  0  0  0  0  0  0  0  0  0
    5.4120   -0.1625    0.6782 C   0  0  0  0  0  0  0  0  0  0  0  0
    4.2695    0.0786    1.4078 N   0  0  0  0  0  0  0  0  0  0  0  0
    3.0020    0.1948    0.8852 C   0  0  0  0  0  0  0  0  0  0  0  0
    2.7000    0.0818   -0.2987 O   0  0  0  0  0  0  0  0  0  0  0  0
    1.9719    0.4723    1.9618 C   0  0  0  0  0  0  0  0  0  0  0  0
    0.5886    0.7119    1.3621 C   0  0  0  0  0  0  0  0  0  0  0  0
   -0.4546    0.9606    2.4350 C   0  0  0  0  0  0  0  0  0  0  0  0
   -0.1014    1.1106    3.6077 O   0  0  0  0  0  0  0  0  0  0  0  0
   -1.7878    1.0473    2.0562 N   0  0  0  0  0  0  0  0  0  0  0  0
   -2.7530    1.4681    3.0740 C   0  0  0  0  0  0  0  0  0  0  0  0
   -3.4014    0.2719    3.7068 C   0  0  0  0  0  0  0  0  0  0  0  0
   -2.8839   -0.5622    4.6803 C   0  0  0  0  0  0  0  0  0  0  0  0
   -3.7859   -1.6027    5.0424 C   0  0  0  0  0  0  0  0  0  0  0  0
   -4.9683   -1.5242    4.3424 C   0  0  0  0  0  0  0  0  0  0  0  0
   -4.9898   -0.1980    3.2639 S   0  0  0  0  0  0  0  0  0  0  0  0
   -2.3433    0.7145    0.7201 C   0  0  0  0  0  0  0  0  0  0  0  0
   -1.7988    1.6957   -0.3559 C   0  0  0  0  0  0  0  0  0  0  0  0
   -1.9806    2.9113   -0.2581 O   0  0  0  0  0  0  0  0  0  0  0  0
   -1.0519    1.1540   -1.3821 N   0  0  0  0  0  0  0  0  0  0  0  0
   -0.4758    1.9702   -2.4390 C   0  0  0  0  0  0  0  0  0  0  0  0
   -1.5153    2.3379   -3.4964 C   0  0  0  0  0  0  0  0  0  0  0  0
   -1.6105    1.1037   -4.3916 C   0  0  0  0  0  0  0  0  0  0  0  0
   -0.2847    0.3589   -4.2301 C   0  0  0  0  0  0  0  0  0  0  0  0
    0.5485    1.1859   -3.2541 C   0  0  0  0  0  0  0  0  0  0  0  0
   -2.4041   -0.7694    0.3485 C   0  0  0  0  0  0  0  0  0  0  0  0
   -1.8846   -1.7912    1.1580 C   0  0  0  0  0  0  0  0  0  0  0  0
   -1.9885   -3.1328    0.7803 C   0  0  0  0  0  0  0  0  0  0  0  0
   -2.6282   -3.4808   -0.4055 C   0  0  0  0  0  0  0  0  0  0  0  0
   -3.1792   -2.4892   -1.2097 C   0  0  0  0  0  0  0  0  0  0  0  0
   -3.0786   -1.1492   -0.8308 C   0  0  0  0  0  0  0  0  0  0  0  0
    6.5886   -0.2541    1.3080 N   0  0  0  0  0  0  0  0  0  0  0  0
    7.5309   -0.4940    0.3251 O   0  0  0  0  0  0  0  0  0  0  0  0
    8.1295   -1.8269   -2.0560 H   0  0  0  0  0  0  0  0  0  0  0  0
    7.2382   -0.6085   -2.9853 H   0  0  0  0  0  0  0  0  0  0  0  0
    8.6537   -0.1314   -2.0335 H   0  0  0  0  0  0  0  0  0  0  0  0
    4.8155   -0.3218   -1.4851 H   0  0  0  0  0  0  0  0  0  0  0  0
    4.4302    0.1779    2.4014 H   0  0  0  0  0  0  0  0  0  0  0  0
    1.9455   -0.3874    2.6422 H   0  0  0  0  0  0  0  0  0  0  0  0
    2.2929    1.3507    2.5348 H   0  0  0  0  0  0  0  0  0  0  0  0
    0.3101   -0.1514    0.7557 H   0  0  0  0  0  0  0  0  0  0  0  0
    0.6379    1.5993    0.7232 H   0  0  0  0  0  0  0  0  0  0  0  0
   -3.4837    2.1446    2.6154 H   0  0  0  0  0  0  0  0  0  0  0  0
   -2.2514    2.0546    3.8531 H   0  0  0  0  0  0  0  0  0  0  0  0
   -1.8952   -0.4302    5.1061 H   0  0  0  0  0  0  0  0  0  0  0  0
   -3.5779   -2.3679    5.7799 H   0  0  0  0  0  0  0  0  0  0  0  0
   -5.8255   -2.1792    4.4144 H   0  0  0  0  0  0  0  0  0  0  0  0
   -3.4068    0.9961    0.7637 H   0  0  0  0  0  0  0  0  0  0  0  0
   -0.8486    0.1605   -1.3831 H   0  0  0  0  0  0  0  0  0  0  0  0
   -0.0333    2.8621   -1.9835 H   0  0  0  0  0  0  0  0  0  0  0  0
   -2.4890    2.6154   -3.0805 H   0  0  0  0  0  0  0  0  0  0  0  0
   -1.1508    3.1854   -4.0904 H   0  0  0  0  0  0  0  0  0  0  0  0
   -1.7972    1.3842   -5.4331 H   0  0  0  0  0  0  0  0  0  0  0  0
   -2.4389    0.4600   -4.0725 H   0  0  0  0  0  0  0  0  0  0  0  0
   -0.4688   -0.6420   -3.8218 H   0  0  0  0  0  0  0  0  0  0  0  0
    0.2340    0.2316   -5.1862 H   0  0  0  0  0  0  0  0  0  0  0  0
    1.2025    0.5572   -2.6423 H   0  0  0  0  0  0  0  0  0  0  0  0
    1.1806    1.8799   -3.8211 H   0  0  0  0  0  0  0  0  0  0  0  0
   -1.4050   -1.5708    2.1081 H   0  0  0  0  0  0  0  0  0  0  0  0
   -1.5796   -3.9086    1.4229 H   0  0  0  0  0  0  0  0  0  0  0  0
   -2.7099   -4.5261   -0.6918 H   0  0  0  0  0  0  0  0  0  0  0  0
   -3.6978   -2.7579   -2.1270 H   0  0  0  0  0  0  0  0  0  0  0  0
   -3.5389   -0.3962   -1.4704 H   0  0  0  0  0  0  0  0  0  0  0  0
  1  2  1  0
  2  3  2  0
  3  4  1  0
  4  5  1  0
  5  6  1  0
  6  7  2  0
  6  8  1  0
  8  9  1  0
  9 10  1  0
 10 11  2  0
 10 12  1  0
 12 13  1  0
 13 14  1  0
 14 15  2  0
 15 16  1  0
 16 17  2  0
 17 18  1  0
 12 19  1  0
 19 20  1  0
 20 21  2  0
 20 22  1  0
 22 23  1  0
 23 24  1  0
 24 25  1  0
 25 26  1  0
 26 27  1  0
 19 28  1  0
 28 29  2  0
 29 30  1  0
 30 31  2  0
 31 32  1  0
 32 33  2  0
  4 34  2  0
 34 35  1  0
 35  2  1  0
 18 14  1  0
 27 23  1  0
 33 28  1  0
  1 36  1  0
  1 37  1  0
  1 38  1  0
  3 39  1  0
  5 40  1  0
  8 41  1  0
  8 42  1  0
  9 43  1  0
  9 44  1  0
 13 45  1  0
 13 46  1  0
 15 47  1  0
 16 48  1  0
 17 49  1  0
 19 50  1  0
 22 51  1  0
 23 52  1  0
 24 53  1  0
 24 54  1  0
 25 55  1  0
 25 56  1  0
 26 57  1  0
 26 58  1  0
 27 59  1  0
 27 60  1  0
 29 61  1  0
 30 62  1  0
 31 63  1  0
 32 64  1  0
 33 65  1  0
M  END
$$$$
