
     RDKit          3D

 54 57  0  0  0  0  0  0  0  0999 V2000
    6.5373    0.2352    3.3567 C   0  0  0  0  0  0  0  0  0  0  0  0
    7.0031    0.2727    1.8991 C   0  0  0  0  0  0  0  0  0  0  0  0
    8.0685   -0.7953    1.6395 C   0  0  0  0  0  0  0  0  0  0  0  0
    5.8363    0.1416    0.9371 C   0  0  0  0  0  0  0  0  0  0  0  0
    5.5442    1.1844    0.0480 C   0  0  0  0  0  0  0  0  0  0  0  0
    4.4734    1.0893   -0.8498 C   0  0  0  0  0  0  0  0  0  0  0  0
    3.6722   -0.0504   -0.8759 C   0  0  0  0  0  0  0  0  0  0  0  0
    2.5791   -0.2288   -1.7452 N   0  0  0  0  0  0  0  0  0  0  0  0
    2.0663    0.6689   -2.6649 C   0  0  0  0  0  0  0  0  0  0  0  0
    2.4783    1.8039   -2.8880 O   0  0  0  0  0  0  0  0  0  0  0  0
    0.8747    0.1029   -3.4482 C   0  0  0  0  0  0  0  0  0  0  0  0
   -0.3462    0.0618   -2.7060 O   0  0  0  0  0  0  0  0  0  0  0  0
   -0.4735   -0.9782   -1.8507 C   0  0  0  0  0  0  0  0  0  0  0  0
    0.3708   -1.8396   -1.6547 O   0  0  0  0  0  0  0  0  0  0  0  0
   -1.7873   -0.9343   -1.1538 C   0  0  0  0  0  0  0  0  0  0  0  0
   -2.0773   -1.9368   -0.2209 C   0  0  0  0  0  0  0  0  0  0  0  0
   -3.3009   -1.9385    0.4599 C   0  0  0  0  0  0  0  0  0  0  0  0
   -4.2595   -0.9404    0.2226 C   0  0  0  0  0  0  0  0  0  0  0  0
   -3.9597    0.0463   -0.7055 C   0  0  0  0  0  0  0  0  0  0  0  0
   -2.7362    0.0640   -1.3958 C   0  0  0  0  0  0  0  0  0  0  0  0
   -5.1138    1.3134   -1.0545 S   0  0  0  0  0  6  0  0  0  0  0  0
   -4.4918    2.5520   -0.6328 O   0  0  0  0  0  0  0  0  0  0  0  0
   -5.5448    1.0981   -2.4210 O   0  0  0  0  0  0  0  0  0  0  0  0
   -6.5224    1.0931   -0.0450 C   0  0  0  0  0  0  0  0  0  0  0  0
   -7.5593    2.0310   -0.1464 C   0  0  0  0  0  0  0  0  0  0  0  0
   -8.6988    1.8874    0.6412 C   0  0  0  0  0  0  0  0  0  0  0  0
   -8.7983    0.8136    1.5225 C   0  0  0  0  0  0  0  0  0  0  0  0
   -7.7576   -0.1153    1.6156 C   0  0  0  0  0  0  0  0  0  0  0  0
   -6.6021    0.0173    0.8283 C   0  0  0  0  0  0  0  0  0  0  0  0
   -5.5345   -0.9997    0.9756 C   0  0  0  0  0  0  0  0  0  0  0  0
   -5.7094   -1.9317    1.7563 O   0  0  0  0  0  0  0  0  0  0  0  0
    3.9596   -1.0959    0.0082 C   0  0  0  0  0  0  0  0  0  0  0  0
    5.0288   -1.0021    0.9053 C   0  0  0  0  0  0  0  0  0  0  0  0
    6.0980   -0.7326    3.6220 H   0  0  0  0  0  0  0  0  0  0  0  0
    7.3790    0.4149    4.0343 H   0  0  0  0  0  0  0  0  0  0  0  0
    5.7833    1.0073    3.5467 H   0  0  0  0  0  0  0  0  0  0  0  0
    7.4800    1.2488    1.7386 H   0  0  0  0  0  0  0  0  0  0  0  0
    8.9389   -0.6354    2.2851 H   0  0  0  0  0  0  0  0  0  0  0  0
    8.4118   -0.7611    0.5995 H   0  0  0  0  0  0  0  0  0  0  0  0
    7.6921   -1.8056    1.8336 H   0  0  0  0  0  0  0  0  0  0  0  0
    6.1485    2.0893    0.0412 H   0  0  0  0  0  0  0  0  0  0  0  0
    4.2963    1.9273   -1.5164 H   0  0  0  0  0  0  0  0  0  0  0  0
    2.0701   -1.1083   -1.6461 H   0  0  0  0  0  0  0  0  0  0  0  0
    0.7044    0.7529   -4.3138 H   0  0  0  0  0  0  0  0  0  0  0  0
    1.1267   -0.8856   -3.8525 H   0  0  0  0  0  0  0  0  0  0  0  0
   -1.3543   -2.7254   -0.0147 H   0  0  0  0  0  0  0  0  0  0  0  0
   -3.4985   -2.7320    1.1815 H   0  0  0  0  0  0  0  0  0  0  0  0
   -2.5402    0.8587   -2.1150 H   0  0  0  0  0  0  0  0  0  0  0  0
   -7.4809    2.8704   -0.8359 H   0  0  0  0  0  0  0  0  0  0  0  0
   -9.5082    2.6107    0.5688 H   0  0  0  0  0  0  0  0  0  0  0  0
   -9.6863    0.6962    2.1402 H   0  0  0  0  0  0  0  0  0  0  0  0
   -7.8575   -0.9472    2.3126 H   0  0  0  0  0  0  0  0  0  0  0  0
    3.3548   -1.9995    0.0135 H   0  0  0  0  0  0  0  0  0  0  0  0
    5.2226   -1.8339    1.5784 H   0  0  0  0  0  0  0  0  0  0  0  0
  1  2  1  0
  2  3  1  0
  2  4  1  0
  4  5  2  0
  5  6  1  0
  6  7  2  0
  7  8  1  0
  8  9  1  0
  9 10  2  0
  9 11  1  0
 11 12  1  0
 12 13  1  0
 13 14  2  0
 13 15  1  0
 15 16  2  0
 16 17  1  0
 17 18  2  0
 18 19  1  0
 19 20  2  0
 19 21  1  0
 21 22  2  0
 21 23  2  0
 21 24  1  0
 24 25  2  0
 25 26  1  0
 26 27  2  0
 27 28  1  0
 28 29  2  0
 29 30  1  0
 30 31  2  0
  7 32  1  0
 32 33  2  0
 33  4  1  0
 20 15  1  0
 29 24  1  0
 30 18  1  0
  1 34  1  0
  1 35  1  0
  1 36  1  0
  2 37  1  0
  3 38  1  0
  3 39  1  0
  3 40  1  0
  5 41  1  0
  6 42  1  0
  8 43  1  0
 11 44  1  0
 11 45  1  0
 16 46  1  0
 17 47  1  0
 20 48  1  0
 25 49  1  0
 26 50  1  0
 27 51  1  0
 28 52  1  0
 32 53  1  0
 33 54  1  0
M  END
$$$$
