
     RDKit          3D

 60 62  0  0  0  0  0  0  0  0999 V2000
   -2.1050    4.4558    0.9240 C   0  0  0  0  0  0  0  0  0  0  0  0
   -2.4528    2.9980    0.9921 C   0  0  0  0  0  0  0  0  0  0  0  0
   -1.6648    2.1164    1.7315 C   0  0  0  0  0  0  0  0  0  0  0  0
   -2.0109    0.7698    1.8156 C   0  0  0  0  0  0  0  0  0  0  0  0
   -3.1486    0.2807    1.1520 C   0  0  0  0  0  0  0  0  0  0  0  0
   -3.4552   -1.4773    1.2787 S   0  0  0  0  0  6  0  0  0  0  0  0
   -2.5391   -2.0402    2.2530 O   0  0  0  0  0  0  0  0  0  0  0  0
   -4.8794   -1.6953    1.4187 O   0  0  0  0  0  0  0  0  0  0  0  0
   -3.0098   -2.0562   -0.2535 N   0  0  0  0  0  0  0  0  0  0  0  0
   -1.7279   -1.7061   -0.7937 C   0  0  0  0  0  0  0  0  0  0  0  0
   -0.5825   -2.0899   -0.0835 C   0  0  0  0  0  0  0  0  0  0  0  0
    0.6969   -1.7106   -0.5026 C   0  0  0  0  0  0  0  0  0  0  0  0
    1.8938   -2.0020    0.3967 C   0  0  0  0  0  0  0  0  0  0  0  0
    2.4536   -0.7144    0.9738 C   0  0  0  0  0  0  0  0  0  0  0  0
    1.8425    0.0044    1.7576 O   0  0  0  0  0  0  0  0  0  0  0  0
    3.6961   -0.4515    0.4884 O   0  0  0  0  0  0  0  0  0  0  0  0
    4.2898    0.7996    0.8881 C   0  0  0  0  0  0  0  0  0  0  0  0
    4.9857    0.6235    2.2326 C   0  0  0  0  0  0  0  0  0  0  0  0
    5.2953    1.1763   -0.1948 C   0  0  0  0  0  0  0  0  0  0  0  0
    2.9610   -2.8689   -0.2484 C   0  0  0  0  0  0  0  0  0  0  0  0
    3.0436   -3.0144   -1.4747 O   0  0  0  0  0  0  0  0  0  0  0  0
    3.8853   -3.5704    0.7310 C   0  0  0  0  0  0  0  0  0  0  0  0
    3.4311   -4.8182    1.0241 F   0  0  0  0  0  0  0  0  0  0  0  0
    5.1492   -3.7113    0.2591 F   0  0  0  0  0  0  0  0  0  0  0  0
    3.9858   -2.9174    1.9199 F   0  0  0  0  0  0  0  0  0  0  0  0
    0.8023   -0.9883   -1.6973 C   0  0  0  0  0  0  0  0  0  0  0  0
    2.0496   -0.6541   -2.1632 O   0  0  0  0  0  0  0  0  0  0  0  0
   -0.3248   -0.5891   -2.4437 C   0  0  0  0  0  0  0  0  0  0  0  0
   -0.1922    0.1672   -3.6274 C   0  0  0  0  0  0  0  0  0  0  0  0
   -1.3033    0.5784   -4.3581 C   0  0  0  0  0  0  0  0  0  0  0  0
   -2.5730    0.2329   -3.9237 C   0  0  0  0  0  0  0  0  0  0  0  0
   -2.7280   -0.5261   -2.7614 C   0  0  0  0  0  0  0  0  0  0  0  0
   -1.6187   -0.9507   -1.9910 C   0  0  0  0  0  0  0  0  0  0  0  0
   -3.9711    1.1541    0.4161 C   0  0  0  0  0  0  0  0  0  0  0  0
   -5.2114    0.7760   -0.3422 C   0  0  0  0  0  0  0  0  0  0  0  0
   -3.6051    2.5129    0.3588 C   0  0  0  0  0  0  0  0  0  0  0  0
   -1.0211    4.6038    0.9988 H   0  0  0  0  0  0  0  0  0  0  0  0
   -2.5927    4.9901    1.7475 H   0  0  0  0  0  0  0  0  0  0  0  0
   -2.4317    4.8912   -0.0257 H   0  0  0  0  0  0  0  0  0  0  0  0
   -0.7690    2.4655    2.2407 H   0  0  0  0  0  0  0  0  0  0  0  0
   -1.3660    0.1051    2.3892 H   0  0  0  0  0  0  0  0  0  0  0  0
   -3.8046   -2.1481   -0.8823 H   0  0  0  0  0  0  0  0  0  0  0  0
   -0.6943   -2.6747    0.8272 H   0  0  0  0  0  0  0  0  0  0  0  0
    1.5398   -2.5876    1.2573 H   0  0  0  0  0  0  0  0  0  0  0  0
    3.5269    1.5859    0.9428 H   0  0  0  0  0  0  0  0  0  0  0  0
    4.2656    0.3507    3.0068 H   0  0  0  0  0  0  0  0  0  0  0  0
    5.4910    1.5445    2.5413 H   0  0  0  0  0  0  0  0  0  0  0  0
    5.7228   -0.1854    2.1840 H   0  0  0  0  0  0  0  0  0  0  0  0
    6.0782    0.4134   -0.2820 H   0  0  0  0  0  0  0  0  0  0  0  0
    4.8049    1.2304   -1.1715 H   0  0  0  0  0  0  0  0  0  0  0  0
    5.7685    2.1410    0.0153 H   0  0  0  0  0  0  0  0  0  0  0  0
    2.5237   -1.5034   -2.3112 H   0  0  0  0  0  0  0  0  0  0  0  0
    0.7964    0.4541   -3.9831 H   0  0  0  0  0  0  0  0  0  0  0  0
   -1.1728    1.1683   -5.2613 H   0  0  0  0  0  0  0  0  0  0  0  0
   -3.4453    0.5536   -4.4873 H   0  0  0  0  0  0  0  0  0  0  0  0
   -3.7414   -0.7762   -2.4656 H   0  0  0  0  0  0  0  0  0  0  0  0
   -6.0818    1.2952    0.0795 H   0  0  0  0  0  0  0  0  0  0  0  0
   -5.4244   -0.2933   -0.3519 H   0  0  0  0  0  0  0  0  0  0  0  0
   -5.1010    1.0766   -1.3927 H   0  0  0  0  0  0  0  0  0  0  0  0
   -4.2296    3.2060   -0.2051 H   0  0  0  0  0  0  0  0  0  0  0  0
  1  2  1  0
  2  3  2  0
  3  4  1  0
  4  5  2  0
  5  6  1  0
  6  7  2  0
  6  8  2  0
  6  9  1  0
  9 10  1  0
 10 11  2  0
 11 12  1  0
 12 13  1  0
 13 14  1  0
 14 15  2  0
 14 16  1  0
 16 17  1  0
 17 18  1  0
 17 19  1  0
 13 20  1  0
 20 21  2  0
 20 22  1  0
 22 23  1  0
 22 24  1  0
 22 25  1  0
 12 26  2  0
 26 27  1  0
 26 28  1  0
 28 29  2  0
 29 30  1  0
 30 31  2  0
 31 32  1  0
 32 33  2  0
  5 34  1  0
 34 35  1  0
 34 36  2  0
 36  2  1  0
 33 10  1  0
 33 28  1  0
  1 37  1  0
  1 38  1  0
  1 39  1  0
  3 40  1  0
  4 41  1  0
  9 42  1  0
 11 43  1  0
 13 44  1  0
 17 45  1  0
 18 46  1  0
 18 47  1  0
 18 48  1  0
 19 49  1  0
 19 50  1  0
 19 51  1  0
 27 52  1  0
 29 53  1  0
 30 54  1  0
 31 55  1  0
 32 56  1  0
 35 57  1  0
 35 58  1  0
 35 59  1  0
 36 60  1  0
M  END
$$$$
