
     RDKit          3D

 44 46  0  0  0  0  0  0  0  0999 V2000
   -5.4594   -0.2576   -3.5225 C   0  0  0  0  0  0  0  0  0  0  0  0
   -4.7629   -0.6902   -2.2653 C   0  0  0  0  0  0  0  0  0  0  0  0
   -5.1940   -0.2151   -1.0187 C   0  0  0  0  0  0  0  0  0  0  0  0
   -4.5303   -0.5918    0.1498 C   0  0  0  0  0  0  0  0  0  0  0  0
   -3.4183   -1.4333    0.0677 C   0  0  0  0  0  0  0  0  0  0  0  0
   -2.5806   -1.9174    1.5541 S   0  0  0  0  0  6  0  0  0  0  0  0
   -3.5791   -2.0276    2.5978 O   0  0  0  0  0  0  0  0  0  0  0  0
   -1.6906   -3.0191    1.2591 O   0  0  0  0  0  0  0  0  0  0  0  0
   -1.6663   -0.5432    1.9327 N   0  0  0  0  0  0  0  0  0  0  0  0
   -0.4484   -0.3414    1.2267 C   0  0  0  0  0  0  0  0  0  0  0  0
   -0.4625    0.3599    0.0227 C   0  0  0  0  0  0  0  0  0  0  0  0
    0.7186    0.5308   -0.7093 C   0  0  0  0  0  0  0  0  0  0  0  0
    0.6990    1.2819   -2.0098 C   0  0  0  0  0  0  0  0  0  0  0  0
    1.9113   -0.0135   -0.2088 C   0  0  0  0  0  0  0  0  0  0  0  0
    3.0423    0.1878   -0.9575 O   0  0  0  0  0  0  0  0  0  0  0  0
    1.9334   -0.7350    0.9979 C   0  0  0  0  0  0  0  0  0  0  0  0
    3.3862   -1.5511    1.6476 S   0  0  0  0  0  0  0  0  0  0  0  0
    4.4291   -0.2083    2.0090 C   0  0  0  0  0  0  0  0  0  0  0  0
    4.9093    0.0261    3.2311 N   0  0  0  0  0  0  0  0  0  0  0  0
    5.6653    1.1137    3.0181 N   0  0  0  0  0  0  0  0  0  0  0  0
    5.6273    1.4977    1.7069 C   0  0  0  0  0  0  0  0  0  0  0  0
    6.3654    2.6644    1.1795 C   0  0  0  0  0  0  0  0  0  0  0  0
    4.8531    0.6663    1.0415 N   0  0  0  0  0  0  0  0  0  0  0  0
    0.7360   -0.8980    1.7077 C   0  0  0  0  0  0  0  0  0  0  0  0
   -2.9772   -1.9153   -1.1669 C   0  0  0  0  0  0  0  0  0  0  0  0
   -3.6448   -1.5332   -2.3312 C   0  0  0  0  0  0  0  0  0  0  0  0
   -6.5238   -0.0786   -3.3375 H   0  0  0  0  0  0  0  0  0  0  0  0
   -5.0059    0.6628   -3.9029 H   0  0  0  0  0  0  0  0  0  0  0  0
   -5.3901   -1.0318   -4.2939 H   0  0  0  0  0  0  0  0  0  0  0  0
   -6.0545    0.4475   -0.9521 H   0  0  0  0  0  0  0  0  0  0  0  0
   -4.8805   -0.2274    1.1127 H   0  0  0  0  0  0  0  0  0  0  0  0
   -1.6566   -0.3924    2.9410 H   0  0  0  0  0  0  0  0  0  0  0  0
   -1.3939    0.7832   -0.3458 H   0  0  0  0  0  0  0  0  0  0  0  0
   -0.3000    1.6705   -2.2335 H   0  0  0  0  0  0  0  0  0  0  0  0
    0.9921    0.6219   -2.8325 H   0  0  0  0  0  0  0  0  0  0  0  0
    1.3827    2.1359   -1.9665 H   0  0  0  0  0  0  0  0  0  0  0  0
    3.8134    0.1641   -0.3521 H   0  0  0  0  0  0  0  0  0  0  0  0
    6.1687    1.5301    3.7939 H   0  0  0  0  0  0  0  0  0  0  0  0
    5.6835    3.3315    0.6431 H   0  0  0  0  0  0  0  0  0  0  0  0
    6.8427    3.2377    1.9806 H   0  0  0  0  0  0  0  0  0  0  0  0
    7.1431    2.3354    0.4836 H   0  0  0  0  0  0  0  0  0  0  0  0
    0.7224   -1.4807    2.6259 H   0  0  0  0  0  0  0  0  0  0  0  0
   -2.1153   -2.5763   -1.2318 H   0  0  0  0  0  0  0  0  0  0  0  0
   -3.2899   -1.9011   -3.2919 H   0  0  0  0  0  0  0  0  0  0  0  0
  1  2  1  0
  2  3  2  0
  3  4  1  0
  4  5  2  0
  5  6  1  0
  6  7  2  0
  6  8  2  0
  6  9  1  0
  9 10  1  0
 10 11  2  0
 11 12  1  0
 12 13  1  0
 12 14  2  0
 14 15  1  0
 14 16  1  0
 16 17  1  0
 17 18  1  0
 18 19  2  0
 19 20  1  0
 20 21  1  0
 21 22  1  0
 21 23  2  0
 16 24  2  0
  5 25  1  0
 25 26  2  0
 26  2  1  0
 24 10  1  0
 23 18  1  0
  1 27  1  0
  1 28  1  0
  1 29  1  0
  3 30  1  0
  4 31  1  0
  9 32  1  0
 11 33  1  0
 13 34  1  0
 13 35  1  0
 13 36  1  0
 15 37  1  0
 20 38  1  0
 22 39  1  0
 22 40  1  0
 22 41  1  0
 24 42  1  0
 25 43  1  0
 26 44  1  0
M  END
$$$$
