
     RDKit          3D

 88 93  0  0  0  0  0  0  0  0999 V2000
    2.1998    0.2783   -2.3500 C   0  0  0  0  0  0  0  0  0  0  0  0
    2.2109   -0.6855   -1.2033 C   0  0  0  0  0  0  0  0  0  0  0  0
    2.5494   -1.8564   -1.2883 O   0  0  0  0  0  0  0  0  0  0  0  0
    1.7902   -0.0583   -0.0719 O   0  0  0  0  0  0  0  0  0  0  0  0
    1.7992   -0.8389    1.1364 C   0  0  1  0  0  0  0  0  0  0  0  0
    2.0456    0.0807    2.3483 C   0  0  1  0  0  0  0  0  0  0  0  0
    2.9781    1.2603    2.0768 C   0  0  0  0  0  0  0  0  0  0  0  0
    4.2134    0.8118    1.4966 O   0  0  0  0  0  0  0  0  0  0  0  0
    5.1828    0.4409    2.3704 C   0  0  0  0  0  0  0  0  0  0  0  0
    5.0880    0.4420    3.5871 O   0  0  0  0  0  0  0  0  0  0  0  0
    6.4139    0.0427    1.6355 C   0  0  0  0  0  0  0  0  0  0  0  0
    6.4321   -0.1412    0.2456 C   0  0  0  0  0  0  0  0  0  0  0  0
    7.6155   -0.5123   -0.3964 C   0  0  0  0  0  0  0  0  0  0  0  0
    8.7825   -0.7014    0.3426 C   0  0  0  0  0  0  0  0  0  0  0  0
    8.7704   -0.5264    1.7260 C   0  0  0  0  0  0  0  0  0  0  0  0
    7.5889   -0.1575    2.3719 C   0  0  0  0  0  0  0  0  0  0  0  0
    0.6476    0.5268    2.8485 C   0  0  0  0  0  0  0  0  0  0  0  0
   -0.4063   -0.1671    1.9355 C   0  0  2  0  0  0  0  0  0  0  0  0
   -0.6716    0.6969    0.8184 O   0  0  0  0  0  0  0  0  0  0  0  0
   -1.3369    1.8555    1.0441 C   0  0  0  0  0  0  0  0  0  0  0  0
   -1.7555    2.2634    2.1122 O   0  0  0  0  0  0  0  0  0  0  0  0
   -1.4712    2.5445   -0.2543 C   0  0  0  0  0  0  0  0  0  0  0  0
   -2.2000    3.6651   -0.3556 C   0  0  0  0  0  0  0  0  0  0  0  0
   -2.3733    4.4000   -1.6153 C   0  0  0  0  0  0  0  0  0  0  0  0
   -2.3974    5.8004   -1.5860 C   0  0  0  0  0  0  0  0  0  0  0  0
   -2.5740    6.5334   -2.7620 C   0  0  0  0  0  0  0  0  0  0  0  0
   -2.7387    5.8715   -3.9778 C   0  0  0  0  0  0  0  0  0  0  0  0
   -2.7362    4.4784   -4.0182 C   0  0  0  0  0  0  0  0  0  0  0  0
   -2.5616    3.7453   -2.8421 C   0  0  0  0  0  0  0  0  0  0  0  0
   -1.6309   -0.7066    2.7282 C   0  0  0  0  0  0  0  0  0  0  0  0
   -1.4508   -1.2619    3.8203 O   0  0  0  0  0  0  0  0  0  0  0  0
   -3.0652   -0.5580    2.2503 C   0  0  0  0  0  0  0  0  0  0  0  0
   -3.9626   -0.2461    3.4339 C   0  0  0  0  0  0  0  0  0  0  0  0
   -3.6386   -0.6738    1.0305 C   0  0  0  0  0  0  0  0  0  0  0  0
   -3.1524   -0.9840   -0.3285 C   0  0  0  0  0  0  0  0  0  0  0  0
   -3.1881   -2.3928   -0.9116 C   0  0  2  0  0  0  0  0  0  0  0  0
   -2.1181   -2.9230   -1.8480 C   0  0  0  0  0  0  0  0  0  0  0  0
   -1.1876   -3.9979   -1.2468 C   0  0  0  0  0  0  0  0  0  0  0  0
   -0.3643   -3.5777   -0.0439 C   0  0  2  0  0  0  0  0  0  0  0  0
    0.6417   -4.5596    0.4618 C   0  0  0  0  0  0  0  0  0  0  0  0
   -1.2107   -3.0358    0.9556 O   0  0  0  0  0  0  0  0  0  0  0  0
   -0.2730   -2.1123    0.3610 C   0  0  1  0  0  0  0  0  0  0  0  0
    0.4219   -1.4090    1.4662 C   0  0  1  0  0  0  0  0  0  0  0  0
   -4.1759   -1.3525   -1.4123 C   0  0  0  0  0  0  0  0  0  0  0  0
   -3.9889   -0.7011   -2.7640 C   0  0  0  0  0  0  0  0  0  0  0  0
   -5.6303   -1.6303   -1.1016 C   0  0  0  0  0  0  0  0  0  0  0  0
    1.1950    0.6863   -2.4844 H   0  0  0  0  0  0  0  0  0  0  0  0
    2.4886   -0.2457   -3.2659 H   0  0  0  0  0  0  0  0  0  0  0  0
    2.9186    1.0793   -2.1638 H   0  0  0  0  0  0  0  0  0  0  0  0
    2.5684   -1.6190    1.0912 H   0  0  0  0  0  0  0  0  0  0  0  0
    2.4918   -0.5398    3.1384 H   0  0  0  0  0  0  0  0  0  0  0  0
    2.5262    1.9566    1.3610 H   0  0  0  0  0  0  0  0  0  0  0  0
    3.1611    1.8388    2.9906 H   0  0  0  0  0  0  0  0  0  0  0  0
    5.5325   -0.0060   -0.3484 H   0  0  0  0  0  0  0  0  0  0  0  0
    7.6264   -0.6551   -1.4745 H   0  0  0  0  0  0  0  0  0  0  0  0
    9.7036   -0.9863   -0.1599 H   0  0  0  0  0  0  0  0  0  0  0  0
    9.6806   -0.6764    2.3019 H   0  0  0  0  0  0  0  0  0  0  0  0
    7.5885   -0.0249    3.4523 H   0  0  0  0  0  0  0  0  0  0  0  0
    0.5389    0.2198    3.8953 H   0  0  0  0  0  0  0  0  0  0  0  0
    0.5654    1.6177    2.8362 H   0  0  0  0  0  0  0  0  0  0  0  0
   -0.9582    2.1040   -1.0999 H   0  0  0  0  0  0  0  0  0  0  0  0
   -2.6819    4.0910    0.5227 H   0  0  0  0  0  0  0  0  0  0  0  0
   -2.2718    6.3352   -0.6467 H   0  0  0  0  0  0  0  0  0  0  0  0
   -2.5837    7.6204   -2.7282 H   0  0  0  0  0  0  0  0  0  0  0  0
   -2.8779    6.4408   -4.8935 H   0  0  0  0  0  0  0  0  0  0  0  0
   -2.8772    3.9607   -4.9647 H   0  0  0  0  0  0  0  0  0  0  0  0
   -2.5861    2.6593   -2.8956 H   0  0  0  0  0  0  0  0  0  0  0  0
   -3.5740    0.6128    3.9911 H   0  0  0  0  0  0  0  0  0  0  0  0
   -4.0260   -1.1061    4.1086 H   0  0  0  0  0  0  0  0  0  0  0  0
   -4.9847    0.0064    3.1339 H   0  0  0  0  0  0  0  0  0  0  0  0
   -4.7117   -0.4774    1.0376 H   0  0  0  0  0  0  0  0  0  0  0  0
   -2.3761   -0.3095   -0.6666 H   0  0  0  0  0  0  0  0  0  0  0  0
   -3.5853   -3.1892   -0.2877 H   0  0  0  0  0  0  0  0  0  0  0  0
   -1.5129   -2.1042   -2.2527 H   0  0  0  0  0  0  0  0  0  0  0  0
   -2.6279   -3.3794   -2.7057 H   0  0  0  0  0  0  0  0  0  0  0  0
   -0.5016   -4.3305   -2.0351 H   0  0  0  0  0  0  0  0  0  0  0  0
   -1.7909   -4.8698   -0.9642 H   0  0  0  0  0  0  0  0  0  0  0  0
    1.1194   -4.2259    1.3896 H   0  0  0  0  0  0  0  0  0  0  0  0
    1.4282   -4.7107   -0.2852 H   0  0  0  0  0  0  0  0  0  0  0  0
    0.1683   -5.5275    0.6608 H   0  0  0  0  0  0  0  0  0  0  0  0
   -0.5514   -1.4205   -0.4179 H   0  0  0  0  0  0  0  0  0  0  0  0
    0.5480   -2.0982    2.3152 H   0  0  0  0  0  0  0  0  0  0  0  0
   -2.9520   -0.4049   -2.9502 H   0  0  0  0  0  0  0  0  0  0  0  0
   -4.6033    0.2026   -2.8351 H   0  0  0  0  0  0  0  0  0  0  0  0
   -4.2963   -1.3854   -3.5612 H   0  0  0  0  0  0  0  0  0  0  0  0
   -6.1896   -0.6915   -1.0220 H   0  0  0  0  0  0  0  0  0  0  0  0
   -5.7629   -2.1911   -0.1696 H   0  0  0  0  0  0  0  0  0  0  0  0
   -6.0782   -2.2269   -1.9050 H   0  0  0  0  0  0  0  0  0  0  0  0
  1  2  1  0
  2  3  2  0
  2  4  1  0
  4  5  1  0
  5  6  1  0
  6  7  1  0
  7  8  1  0
  8  9  1  0
  9 10  2  0
  9 11  1  0
 11 12  2  0
 12 13  1  0
 13 14  2  0
 14 15  1  0
 15 16  2  0
  6 17  1  0
 17 18  1  0
 18 19  1  6
 19 20  1  0
 20 21  2  0
 20 22  1  0
 22 23  2  0
 23 24  1  0
 24 25  2  0
 25 26  1  0
 26 27  2  0
 27 28  1  0
 28 29  2  0
 18 30  1  0
 30 31  2  0
 30 32  1  0
 32 33  1  0
 32 34  2  3
 34 35  1  0
 35 36  1  0
 36 37  1  0
 37 38  1  0
 38 39  1  0
 39 40  1  1
 39 41  1  0
 41 42  1  0
 42 43  1  0
 36 44  1  0
 44 45  1  0
 44 46  1  0
 43  5  1  0
 16 11  1  0
 43 18  1  0
 29 24  1  0
 44 35  1  0
 42 39  1  0
  1 47  1  0
  1 48  1  0
  1 49  1  0
  5 50  1  6
  6 51  1  1
  7 52  1  0
  7 53  1  0
 12 54  1  0
 13 55  1  0
 14 56  1  0
 15 57  1  0
 16 58  1  0
 17 59  1  0
 17 60  1  0
 22 61  1  0
 23 62  1  0
 25 63  1  0
 26 64  1  0
 27 65  1  0
 28 66  1  0
 29 67  1  0
 33 68  1  0
 33 69  1  0
 33 70  1  0
 34 71  1  0
 35 72  1  0
 36 73  1  1
 37 74  1  0
 37 75  1  0
 38 76  1  0
 38 77  1  0
 40 78  1  0
 40 79  1  0
 40 80  1  0
 42 81  1  6
 43 82  1  1
 45 83  1  0
 45 84  1  0
 45 85  1  0
 46 86  1  0
 46 87  1  0
 46 88  1  0
M  END
$$$$
