
     RDKit          3D

 36 37  0  0  0  0  0  0  0  0999 V2000
   -0.1443    1.4801    0.5645 O   0  0  0  0  0  0  0  0  0  0  0  0
   -0.4713    0.6195   -0.2417 C   0  0  0  0  0  0  0  0  0  0  0  0
   -1.8826    0.2254   -0.4695 C   0  0  0  0  0  0  0  0  0  0  0  0
   -2.8443    0.7132    0.3282 C   0  0  0  0  0  0  0  0  0  0  0  0
   -4.2653    0.3890    0.1463 C   0  0  0  0  0  0  0  0  0  0  0  0
   -5.1276    1.4528   -0.1629 C   0  0  0  0  0  0  0  0  0  0  0  0
   -6.4948    1.2346   -0.3487 C   0  0  0  0  0  0  0  0  0  0  0  0
   -7.0199   -0.0487   -0.2219 C   0  0  0  0  0  0  0  0  0  0  0  0
   -6.1785   -1.1150    0.0951 C   0  0  0  0  0  0  0  0  0  0  0  0
   -4.8083   -0.9006    0.2819 C   0  0  0  0  0  0  0  0  0  0  0  0
   -3.8387   -2.2713    0.7018 Cl  0  0  0  0  0  0  0  0  0  0  0  0
    0.4113   -0.0875   -1.0206 N   0  0  0  0  0  0  0  0  0  0  0  0
    1.8442    0.1129   -0.9090 C   0  0  0  0  0  0  0  0  0  0  0  0
    2.4365   -0.6102    0.3028 C   0  0  0  0  0  0  0  0  0  0  0  0
    3.9327   -0.4368    0.3781 C   0  0  0  0  0  0  0  0  0  0  0  0
    4.4808    0.7076    0.9733 C   0  0  0  0  0  0  0  0  0  0  0  0
    5.8641    0.8825    1.0275 C   0  0  0  0  0  0  0  0  0  0  0  0
    6.7112   -0.0821    0.4852 C   0  0  0  0  0  0  0  0  0  0  0  0
    6.1759   -1.2218   -0.1124 C   0  0  0  0  0  0  0  0  0  0  0  0
    4.7924   -1.3987   -0.1681 C   0  0  0  0  0  0  0  0  0  0  0  0
   -2.1052   -0.4475   -1.2874 H   0  0  0  0  0  0  0  0  0  0  0  0
   -2.6093    1.4045    1.1353 H   0  0  0  0  0  0  0  0  0  0  0  0
   -4.7365    2.4638   -0.2663 H   0  0  0  0  0  0  0  0  0  0  0  0
   -7.1488    2.0692   -0.5909 H   0  0  0  0  0  0  0  0  0  0  0  0
   -8.0844   -0.2187   -0.3639 H   0  0  0  0  0  0  0  0  0  0  0  0
   -6.5977   -2.1125    0.2019 H   0  0  0  0  0  0  0  0  0  0  0  0
    0.0785   -0.8415   -1.6053 H   0  0  0  0  0  0  0  0  0  0  0  0
    2.0420    1.1898   -0.8501 H   0  0  0  0  0  0  0  0  0  0  0  0
    2.2912   -0.2571   -1.8384 H   0  0  0  0  0  0  0  0  0  0  0  0
    2.1893   -1.6789    0.2580 H   0  0  0  0  0  0  0  0  0  0  0  0
    1.9814   -0.2444    1.2319 H   0  0  0  0  0  0  0  0  0  0  0  0
    3.8298    1.4693    1.3990 H   0  0  0  0  0  0  0  0  0  0  0  0
    6.2799    1.7720    1.4935 H   0  0  0  0  0  0  0  0  0  0  0  0
    7.7884    0.0546    0.5289 H   0  0  0  0  0  0  0  0  0  0  0  0
    6.8369   -1.9739   -0.5350 H   0  0  0  0  0  0  0  0  0  0  0  0
    4.3910   -2.2933   -0.6383 H   0  0  0  0  0  0  0  0  0  0  0  0
  1  2  2  0
  2  3  1  0
  3  4  2  3
  4  5  1  0
  5  6  2  0
  6  7  1  0
  7  8  2  0
  8  9  1  0
  9 10  2  0
 10 11  1  0
  2 12  1  0
 12 13  1  0
 13 14  1  0
 14 15  1  0
 15 16  2  0
 16 17  1  0
 17 18  2  0
 18 19  1  0
 19 20  2  0
 10  5  1  0
 20 15  1  0
  3 21  1  0
  4 22  1  0
  6 23  1  0
  7 24  1  0
  8 25  1  0
  9 26  1  0
 12 27  1  0
 13 28  1  0
 13 29  1  0
 14 30  1  0
 14 31  1  0
 16 32  1  0
 17 33  1  0
 18 34  1  0
 19 35  1  0
 20 36  1  0
M  END
$$$$
