
     RDKit          3D

 49 50  0  0  0  0  0  0  0  0999 V2000
    5.3091   -0.0283    2.2775 C   0  0  0  0  0  0  0  0  0  0  0  0
    5.0021   -1.3202    1.5352 C   0  0  0  0  0  0  0  0  0  0  0  0
    3.7505   -1.2078    0.8465 O   0  0  0  0  0  0  0  0  0  0  0  0
    3.7991   -0.6641   -0.4045 C   0  0  0  0  0  0  0  0  0  0  0  0
    4.8405   -0.3099   -0.9474 O   0  0  0  0  0  0  0  0  0  0  0  0
    2.4777   -0.5479   -1.0439 C   0  0  0  0  0  0  0  0  0  0  0  0
    2.2303   -0.0990   -2.3890 C   0  0  0  0  0  0  0  0  0  0  0  0
    3.2806    0.2885   -3.3774 C   0  0  0  0  0  0  0  0  0  0  0  0
    0.8568   -0.0815   -2.5844 C   0  0  0  0  0  0  0  0  0  0  0  0
    0.0752    0.3418   -3.7863 C   0  0  0  0  0  0  0  0  0  0  0  0
    0.2606   -0.5486   -1.4273 N   0  0  0  0  0  0  0  0  0  0  0  0
   -1.1855   -0.7510   -1.2484 C   0  0  0  0  0  0  0  0  0  0  0  0
   -1.8466    0.2921   -0.3687 C   0  0  0  0  0  0  0  0  0  0  0  0
   -1.4189    1.6294   -0.3636 C   0  0  0  0  0  0  0  0  0  0  0  0
   -2.0581    2.5796    0.4320 C   0  0  0  0  0  0  0  0  0  0  0  0
   -3.1347    2.2112    1.2411 C   0  0  0  0  0  0  0  0  0  0  0  0
   -3.5921    0.8907    1.2540 C   0  0  0  0  0  0  0  0  0  0  0  0
   -4.6274    0.4536    2.0380 O   0  0  0  0  0  0  0  0  0  0  0  0
   -5.0392    1.2956    3.1090 C   0  0  0  0  0  0  0  0  0  0  0  0
   -2.9704   -0.0573    0.4139 C   0  0  0  0  0  0  0  0  0  0  0  0
   -3.3542   -1.3776    0.3538 O   0  0  0  0  0  0  0  0  0  0  0  0
   -4.7522   -1.5742    0.1414 C   0  0  0  0  0  0  0  0  0  0  0  0
    1.2320   -0.8367   -0.4829 C   0  0  0  0  0  0  0  0  0  0  0  0
    0.9104   -1.3499    0.8862 C   0  0  0  0  0  0  0  0  0  0  0  0
    4.4830    0.2352    2.9465 H   0  0  0  0  0  0  0  0  0  0  0  0
    6.2234   -0.1323    2.8700 H   0  0  0  0  0  0  0  0  0  0  0  0
    5.4372    0.8079    1.5817 H   0  0  0  0  0  0  0  0  0  0  0  0
    4.8932   -2.1330    2.2626 H   0  0  0  0  0  0  0  0  0  0  0  0
    5.8167   -1.5995    0.8550 H   0  0  0  0  0  0  0  0  0  0  0  0
    3.7475    1.2303   -3.0795 H   0  0  0  0  0  0  0  0  0  0  0  0
    2.8751    0.4179   -4.3839 H   0  0  0  0  0  0  0  0  0  0  0  0
    4.0571   -0.4816   -3.4366 H   0  0  0  0  0  0  0  0  0  0  0  0
   -0.3250   -0.5398   -4.3049 H   0  0  0  0  0  0  0  0  0  0  0  0
    0.7014    0.8942   -4.4986 H   0  0  0  0  0  0  0  0  0  0  0  0
   -0.7528    1.0089   -3.5099 H   0  0  0  0  0  0  0  0  0  0  0  0
   -1.2892   -1.7676   -0.8481 H   0  0  0  0  0  0  0  0  0  0  0  0
   -1.6706   -0.7524   -2.2311 H   0  0  0  0  0  0  0  0  0  0  0  0
   -0.5787    1.9482   -0.9776 H   0  0  0  0  0  0  0  0  0  0  0  0
   -1.7175    3.6111    0.4170 H   0  0  0  0  0  0  0  0  0  0  0  0
   -3.5963    2.9849    1.8481 H   0  0  0  0  0  0  0  0  0  0  0  0
   -5.5384    2.1936    2.7301 H   0  0  0  0  0  0  0  0  0  0  0  0
   -5.7672    0.7415    3.7120 H   0  0  0  0  0  0  0  0  0  0  0  0
   -4.1978    1.5533    3.7602 H   0  0  0  0  0  0  0  0  0  0  0  0
   -4.8680   -2.4657   -0.4824 H   0  0  0  0  0  0  0  0  0  0  0  0
   -5.2507   -1.7735    1.0936 H   0  0  0  0  0  0  0  0  0  0  0  0
   -5.2325   -0.7385   -0.3851 H   0  0  0  0  0  0  0  0  0  0  0  0
    1.4287   -2.3005    1.0591 H   0  0  0  0  0  0  0  0  0  0  0  0
    1.2320   -0.6281    1.6473 H   0  0  0  0  0  0  0  0  0  0  0  0
   -0.1560   -1.5429    1.0461 H   0  0  0  0  0  0  0  0  0  0  0  0
  1  2  1  0
  2  3  1  0
  3  4  1  0
  4  5  2  0
  4  6  1  0
  6  7  1  0
  7  8  1  0
  7  9  2  0
  9 10  1  0
  9 11  1  0
 11 12  1  0
 12 13  1  0
 13 14  2  0
 14 15  1  0
 15 16  2  0
 16 17  1  0
 17 18  1  0
 18 19  1  0
 17 20  2  0
 20 21  1  0
 21 22  1  0
 11 23  1  0
 23 24  1  0
 23  6  2  0
 20 13  1  0
  1 25  1  0
  1 26  1  0
  1 27  1  0
  2 28  1  0
  2 29  1  0
  8 30  1  0
  8 31  1  0
  8 32  1  0
 10 33  1  0
 10 34  1  0
 10 35  1  0
 12 36  1  0
 12 37  1  0
 14 38  1  0
 15 39  1  0
 16 40  1  0
 19 41  1  0
 19 42  1  0
 19 43  1  0
 22 44  1  0
 22 45  1  0
 22 46  1  0
 24 47  1  0
 24 48  1  0
 24 49  1  0
M  END
$$$$
