
     RDKit          3D

 60 63  0  0  0  0  0  0  0  0999 V2000
   -1.1136    5.1556    1.8614 C   0  0  0  0  0  0  0  0  0  0  0  0
   -1.1425    4.5367    0.5812 O   0  0  0  0  0  0  0  0  0  0  0  0
   -1.2579    3.1755    0.5631 C   0  0  0  0  0  0  0  0  0  0  0  0
   -1.1242    2.3293    1.6649 C   0  0  0  0  0  0  0  0  0  0  0  0
   -1.2815    0.9455    1.5176 C   0  0  0  0  0  0  0  0  0  0  0  0
   -1.5685    0.4003    0.2606 C   0  0  0  0  0  0  0  0  0  0  0  0
   -1.7398   -0.9997    0.1090 N   0  0  0  0  0  0  0  0  0  0  0  0
   -2.7533   -1.6630   -0.5752 C   0  0  0  0  0  0  0  0  0  0  0  0
   -4.0039   -1.0462   -1.1079 C   0  0  0  0  0  0  0  0  0  0  0  0
   -4.9500   -0.6438   -0.0122 C   0  0  0  0  0  0  0  0  0  0  0  0
   -5.2730    0.6264    0.4408 C   0  0  0  0  0  0  0  0  0  0  0  0
   -6.1962    0.4905    1.5037 C   0  0  0  0  0  0  0  0  0  0  0  0
   -6.4228   -0.8571    1.6729 C   0  0  0  0  0  0  0  0  0  0  0  0
   -5.6697   -1.5424    0.7506 N   0  0  0  0  0  0  0  0  0  0  0  0
   -5.6505   -2.9862    0.6374 C   0  0  0  0  0  0  0  0  0  0  0  0
   -2.5313   -2.9622   -0.5398 N   0  0  0  0  0  0  0  0  0  0  0  0
   -1.4076   -3.1880    0.2067 N   0  0  0  0  0  0  0  0  0  0  0  0
   -0.9504   -2.0256    0.6030 C   0  0  0  0  0  0  0  0  0  0  0  0
    0.5408   -1.8285    1.4711 S   0  0  0  0  0  0  0  0  0  0  0  0
    1.6821   -2.5547    0.2531 C   0  0  0  0  0  0  0  0  0  0  0  0
    1.8777   -1.6043   -0.9210 C   0  0  0  0  0  0  0  0  0  0  0  0
    1.4365   -1.8345   -2.0433 O   0  0  0  0  0  0  0  0  0  0  0  0
    2.6129   -0.4730   -0.6207 N   0  0  0  0  0  0  0  0  0  0  0  0
    3.0536    0.4537   -1.6516 C   0  0  0  0  0  0  0  0  0  0  0  0
    4.3280   -0.0201   -2.3632 C   0  0  0  0  0  0  0  0  0  0  0  0
    5.5014   -0.1623   -1.4190 C   0  0  0  0  0  0  0  0  0  0  0  0
    6.1984    0.9687   -0.9723 C   0  0  0  0  0  0  0  0  0  0  0  0
    7.2600    0.8357   -0.0743 C   0  0  0  0  0  0  0  0  0  0  0  0
    7.6312   -0.4275    0.3866 C   0  0  0  0  0  0  0  0  0  0  0  0
    6.9448   -1.5587   -0.0517 C   0  0  0  0  0  0  0  0  0  0  0  0
    5.8838   -1.4281   -0.9493 C   0  0  0  0  0  0  0  0  0  0  0  0
   -1.6825    1.2433   -0.8492 C   0  0  0  0  0  0  0  0  0  0  0  0
   -1.5245    2.6237   -0.6924 C   0  0  0  0  0  0  0  0  0  0  0  0
   -0.1681    4.9468    2.3698 H   0  0  0  0  0  0  0  0  0  0  0  0
   -1.1863    6.2376    1.7180 H   0  0  0  0  0  0  0  0  0  0  0  0
   -1.9685    4.8455    2.4772 H   0  0  0  0  0  0  0  0  0  0  0  0
   -0.9001    2.7131    2.6542 H   0  0  0  0  0  0  0  0  0  0  0  0
   -1.2162    0.3211    2.4064 H   0  0  0  0  0  0  0  0  0  0  0  0
   -4.5019   -1.7685   -1.7700 H   0  0  0  0  0  0  0  0  0  0  0  0
   -3.7897   -0.1848   -1.7466 H   0  0  0  0  0  0  0  0  0  0  0  0
   -4.8744    1.5607    0.0515 H   0  0  0  0  0  0  0  0  0  0  0  0
   -6.6447    1.2883    2.0820 H   0  0  0  0  0  0  0  0  0  0  0  0
   -7.0566   -1.3815    2.3777 H   0  0  0  0  0  0  0  0  0  0  0  0
   -5.6844   -3.2643   -0.4178 H   0  0  0  0  0  0  0  0  0  0  0  0
   -6.5302   -3.3964    1.1455 H   0  0  0  0  0  0  0  0  0  0  0  0
   -4.7405   -3.3553    1.1141 H   0  0  0  0  0  0  0  0  0  0  0  0
    2.6533   -2.7251    0.7359 H   0  0  0  0  0  0  0  0  0  0  0  0
    1.3220   -3.5255   -0.1075 H   0  0  0  0  0  0  0  0  0  0  0  0
    3.0697   -0.4167    0.2822 H   0  0  0  0  0  0  0  0  0  0  0  0
    2.2492    0.5732   -2.3855 H   0  0  0  0  0  0  0  0  0  0  0  0
    3.2122    1.4234   -1.1633 H   0  0  0  0  0  0  0  0  0  0  0  0
    4.1434   -0.9782   -2.8705 H   0  0  0  0  0  0  0  0  0  0  0  0
    4.5959    0.6926   -3.1519 H   0  0  0  0  0  0  0  0  0  0  0  0
    5.9205    1.9641   -1.3208 H   0  0  0  0  0  0  0  0  0  0  0  0
    7.7924    1.7198    0.2693 H   0  0  0  0  0  0  0  0  0  0  0  0
    8.4569   -0.5309    1.0869 H   0  0  0  0  0  0  0  0  0  0  0  0
    7.2368   -2.5432    0.3020 H   0  0  0  0  0  0  0  0  0  0  0  0
    5.3572   -2.3216   -1.2814 H   0  0  0  0  0  0  0  0  0  0  0  0
   -1.8460    0.8510   -1.8504 H   0  0  0  0  0  0  0  0  0  0  0  0
   -1.6098    3.2760   -1.5582 H   0  0  0  0  0  0  0  0  0  0  0  0
  1  2  1  0
  2  3  1  0
  3  4  2  0
  4  5  1  0
  5  6  2  0
  6  7  1  0
  7  8  1  0
  8  9  1  0
  9 10  1  0
 10 11  2  0
 11 12  1  0
 12 13  2  0
 13 14  1  0
 14 15  1  0
  8 16  2  0
 16 17  1  0
 17 18  2  0
 18 19  1  0
 19 20  1  0
 20 21  1  0
 21 22  2  0
 21 23  1  0
 23 24  1  0
 24 25  1  0
 25 26  1  0
 26 27  2  0
 27 28  1  0
 28 29  2  0
 29 30  1  0
 30 31  2  0
  6 32  1  0
 32 33  2  0
 33  3  1  0
 18  7  1  0
 31 26  1  0
 14 10  1  0
  1 34  1  0
  1 35  1  0
  1 36  1  0
  4 37  1  0
  5 38  1  0
  9 39  1  0
  9 40  1  0
 11 41  1  0
 12 42  1  0
 13 43  1  0
 15 44  1  0
 15 45  1  0
 15 46  1  0
 20 47  1  0
 20 48  1  0
 23 49  1  0
 24 50  1  0
 24 51  1  0
 25 52  1  0
 25 53  1  0
 27 54  1  0
 28 55  1  0
 29 56  1  0
 30 57  1  0
 31 58  1  0
 32 59  1  0
 33 60  1  0
M  END
$$$$
