
     RDKit          3D

 53 58  0  0  0  0  0  0  0  0999 V2000
    0.8459   -1.2614   -1.1169 O   0  0  0  0  0  0  0  0  0  0  0  0
    1.2349   -1.0268    0.0316 C   0  0  0  0  0  0  0  0  0  0  0  0
    0.1673   -0.7073    1.1007 C   0  0  0  0  0  0  0  0  0  0  0  0
   -1.0382   -0.1175    0.4829 N   0  0  0  0  0  4  0  0  0  0  0  0
   -2.3383   -0.6178    0.5290 C   0  0  0  0  0  0  0  0  0  0  0  0
   -3.1577    0.1784   -0.2635 C   0  0  0  0  0  0  0  0  0  0  0  0
   -4.6908   -0.0464   -0.5429 C   0  0  0  0  0  0  0  0  0  0  0  0
   -5.3880    0.7960   -1.4138 C   0  0  0  0  0  0  0  0  0  0  0  0
   -6.7471    0.5778   -1.6637 C   0  0  0  0  0  0  0  0  0  0  0  0
   -7.4019   -0.4786   -1.0451 C   0  0  0  0  0  0  0  0  0  0  0  0
   -8.7013   -0.6861   -1.2904 F   0  0  0  0  0  0  0  0  0  0  0  0
   -6.7233   -1.3238   -0.1787 C   0  0  0  0  0  0  0  0  0  0  0  0
   -5.3648   -1.1109    0.0744 C   0  0  0  0  0  0  0  0  0  0  0  0
   -2.2972    1.1589   -0.7256 N   0  0  0  0  0  0  0  0  0  0  0  0
   -1.0502    0.9477   -0.3140 C   0  0  0  0  0  0  0  0  0  0  0  0
   -0.0839    1.9440   -0.8344 C   0  0  0  0  0  0  0  0  0  0  0  0
   -1.0210    3.0351   -1.3868 C   0  0  0  0  0  0  0  0  0  0  0  0
   -2.3868    2.3251   -1.5918 C   0  0  0  0  0  0  0  0  0  0  0  0
    2.5777   -0.8542    0.4107 N   0  0  0  0  0  0  0  0  0  0  0  0
    3.0155   -0.9108    1.7792 C   0  0  0  0  0  0  0  0  0  0  0  0
    2.4707   -1.8805    2.6430 C   0  0  0  0  0  0  0  0  0  0  0  0
    2.8547   -1.9539    3.9835 C   0  0  0  0  0  0  0  0  0  0  0  0
    3.8057   -1.0727    4.4796 C   0  0  0  0  0  0  0  0  0  0  0  0
    4.3927   -0.1380    3.6288 C   0  0  0  0  0  0  0  0  0  0  0  0
    4.0156   -0.0646    2.2818 C   0  0  0  0  0  0  0  0  0  0  0  0
    4.8087    1.1428    1.2549 S   0  0  0  0  0  0  0  0  0  0  0  0
    4.6740    0.2865   -0.2985 C   0  0  0  0  0  0  0  0  0  0  0  0
    5.6468    0.5560   -1.2737 C   0  0  0  0  0  0  0  0  0  0  0  0
    5.5698   -0.0358   -2.5312 C   0  0  0  0  0  0  0  0  0  0  0  0
    4.5210   -0.8986   -2.8196 C   0  0  0  0  0  0  0  0  0  0  0  0
    3.5457   -1.1649   -1.8523 C   0  0  0  0  0  0  0  0  0  0  0  0
    3.5967   -0.5780   -0.5756 C   0  0  0  0  0  0  0  0  0  0  0  0
    0.5280    0.0276    1.8262 H   0  0  0  0  0  0  0  0  0  0  0  0
   -0.1273   -1.6303    1.6045 H   0  0  0  0  0  0  0  0  0  0  0  0
   -2.5149   -1.5069    1.1109 H   0  0  0  0  0  0  0  0  0  0  0  0
   -4.9107    1.6216   -1.9253 H   0  0  0  0  0  0  0  0  0  0  0  0
   -7.3004    1.2232   -2.3397 H   0  0  0  0  0  0  0  0  0  0  0  0
   -7.2585   -2.1432    0.2922 H   0  0  0  0  0  0  0  0  0  0  0  0
   -4.8663   -1.7926    0.7552 H   0  0  0  0  0  0  0  0  0  0  0  0
    0.5520    2.2873   -0.0164 H   0  0  0  0  0  0  0  0  0  0  0  0
    0.4881    1.4493   -1.6243 H   0  0  0  0  0  0  0  0  0  0  0  0
   -1.1384    3.8225   -0.6332 H   0  0  0  0  0  0  0  0  0  0  0  0
   -0.6423    3.4978   -2.3008 H   0  0  0  0  0  0  0  0  0  0  0  0
   -3.2158    2.9719   -1.2941 H   0  0  0  0  0  0  0  0  0  0  0  0
   -2.5045    1.9873   -2.6256 H   0  0  0  0  0  0  0  0  0  0  0  0
    1.7905   -2.6446    2.2757 H   0  0  0  0  0  0  0  0  0  0  0  0
    2.4342   -2.7172    4.6351 H   0  0  0  0  0  0  0  0  0  0  0  0
    4.1190   -1.1306    5.5195 H   0  0  0  0  0  0  0  0  0  0  0  0
    5.1604    0.5253    4.0260 H   0  0  0  0  0  0  0  0  0  0  0  0
    6.4760    1.2300   -1.0590 H   0  0  0  0  0  0  0  0  0  0  0  0
    6.3323    0.1681   -3.2786 H   0  0  0  0  0  0  0  0  0  0  0  0
    4.4670   -1.3797   -3.7927 H   0  0  0  0  0  0  0  0  0  0  0  0
    2.7786   -1.8867   -2.1168 H   0  0  0  0  0  0  0  0  0  0  0  0
  1  2  2  0
  2  3  1  0
  3  4  1  0
  4  5  1  0
  5  6  2  0
  6  7  1  0
  7  8  2  0
  8  9  1  0
  9 10  2  0
 10 11  1  0
 10 12  1  0
 12 13  2  0
  6 14  1  0
 14 15  1  0
 15 16  1  0
 16 17  1  0
 17 18  1  0
  2 19  1  0
 19 20  1  0
 20 21  2  0
 21 22  1  0
 22 23  2  0
 23 24  1  0
 24 25  2  0
 25 26  1  0
 26 27  1  0
 27 28  2  0
 28 29  1  0
 29 30  2  0
 30 31  1  0
 31 32  2  0
 15  4  2  0
 32 19  1  0
 13  7  1  0
 18 14  1  0
 25 20  1  0
 32 27  1  0
  3 33  1  0
  3 34  1  0
  5 35  1  0
  8 36  1  0
  9 37  1  0
 12 38  1  0
 13 39  1  0
 16 40  1  0
 16 41  1  0
 17 42  1  0
 17 43  1  0
 18 44  1  0
 18 45  1  0
 21 46  1  0
 22 47  1  0
 23 48  1  0
 24 49  1  0
 28 50  1  0
 29 51  1  0
 30 52  1  0
 31 53  1  0
M  CHG  1   4   1
M  END
$$$$
