
     RDKit          3D

 41 42  0  0  0  0  0  0  0  0999 V2000
   -4.7864   -1.9292    0.1018 C   0  0  0  0  0  0  0  0  0  0  0  0
   -4.9316   -0.4797    0.5460 C   0  0  0  0  0  0  0  0  0  0  0  0
   -3.9003    0.3801   -0.0526 N   0  0  0  0  0  0  0  0  0  0  0  0
   -4.3523    1.3213   -1.0860 C   0  0  0  0  0  0  0  0  0  0  0  0
   -4.3576    0.6744   -2.4626 C   0  0  0  0  0  0  0  0  0  0  0  0
   -2.5708    0.3316    0.3553 C   0  0  0  0  0  0  0  0  0  0  0  0
   -2.1710   -0.3128    1.5378 C   0  0  0  0  0  0  0  0  0  0  0  0
   -0.8308   -0.3650    1.9544 C   0  0  0  0  0  0  0  0  0  0  0  0
    0.1768    0.2193    1.1901 C   0  0  0  0  0  0  0  0  0  0  0  0
    1.5625    0.1640    1.6706 C   0  0  0  0  0  0  0  0  0  0  0  0
    2.6264    0.0119    0.8671 C   0  0  0  0  0  0  0  0  0  0  0  0
    3.9882   -0.0655    1.4638 C   0  0  0  0  0  0  0  0  0  0  0  0
    4.1607   -0.1905    2.6721 O   0  0  0  0  0  0  0  0  0  0  0  0
    5.1577   -0.0276    0.5561 C   0  0  0  0  0  0  0  0  0  0  0  0
    6.3550   -0.6249    0.9595 C   0  0  0  0  0  0  0  0  0  0  0  0
    7.4630   -0.5871    0.1159 C   0  0  0  0  0  0  0  0  0  0  0  0
    7.3373    0.0566   -1.1044 C   0  0  0  0  0  0  0  0  0  0  0  0
    6.2011    0.6580   -1.5211 N   0  0  0  0  0  0  0  0  0  0  0  0
    5.1402    0.6107   -0.6773 C   0  0  0  0  0  0  0  0  0  0  0  0
   -0.1908    0.8796    0.0193 C   0  0  0  0  0  0  0  0  0  0  0  0
   -1.5354    0.9267   -0.3851 C   0  0  0  0  0  0  0  0  0  0  0  0
   -3.8375   -2.3653    0.4273 H   0  0  0  0  0  0  0  0  0  0  0  0
   -4.8344   -2.0163   -0.9880 H   0  0  0  0  0  0  0  0  0  0  0  0
   -5.5947   -2.5341    0.5250 H   0  0  0  0  0  0  0  0  0  0  0  0
   -4.9278   -0.4024    1.6389 H   0  0  0  0  0  0  0  0  0  0  0  0
   -5.9293   -0.1379    0.2430 H   0  0  0  0  0  0  0  0  0  0  0  0
   -3.7494    2.2367   -1.0936 H   0  0  0  0  0  0  0  0  0  0  0  0
   -5.3686    1.6651   -0.8555 H   0  0  0  0  0  0  0  0  0  0  0  0
   -3.3717    0.2837   -2.7319 H   0  0  0  0  0  0  0  0  0  0  0  0
   -4.6537    1.4055   -3.2214 H   0  0  0  0  0  0  0  0  0  0  0  0
   -5.0688   -0.1564   -2.5042 H   0  0  0  0  0  0  0  0  0  0  0  0
   -2.8986   -0.7888    2.1874 H   0  0  0  0  0  0  0  0  0  0  0  0
   -0.5924   -0.8773    2.8842 H   0  0  0  0  0  0  0  0  0  0  0  0
    1.6929    0.2276    2.7502 H   0  0  0  0  0  0  0  0  0  0  0  0
    2.5175   -0.0967   -0.2041 H   0  0  0  0  0  0  0  0  0  0  0  0
    6.4254   -1.1185    1.9266 H   0  0  0  0  0  0  0  0  0  0  0  0
    8.4014   -1.0469    0.4062 H   0  0  0  0  0  0  0  0  0  0  0  0
    8.1727    0.1119   -1.7972 H   0  0  0  0  0  0  0  0  0  0  0  0
    4.2668    1.1397   -1.0453 H   0  0  0  0  0  0  0  0  0  0  0  0
    0.5514    1.3784   -0.5979 H   0  0  0  0  0  0  0  0  0  0  0  0
   -1.7431    1.4401   -1.3189 H   0  0  0  0  0  0  0  0  0  0  0  0
  1  2  1  0
  2  3  1  0
  3  4  1  0
  4  5  1  0
  3  6  1  0
  6  7  2  0
  7  8  1  0
  8  9  2  0
  9 10  1  0
 10 11  2  3
 11 12  1  0
 12 13  2  0
 12 14  1  0
 14 15  2  0
 15 16  1  0
 16 17  2  0
 17 18  1  0
 18 19  2  0
  9 20  1  0
 20 21  2  0
 21  6  1  0
 19 14  1  0
  1 22  1  0
  1 23  1  0
  1 24  1  0
  2 25  1  0
  2 26  1  0
  4 27  1  0
  4 28  1  0
  5 29  1  0
  5 30  1  0
  5 31  1  0
  7 32  1  0
  8 33  1  0
 10 34  1  0
 11 35  1  0
 15 36  1  0
 16 37  1  0
 17 38  1  0
 19 39  1  0
 20 40  1  0
 21 41  1  0
M  END
$$$$
