
     RDKit          3D

 60 65  0  0  0  0  0  0  0  0999 V2000
    4.1869   -4.9705    1.8272 O   0  0  0  0  0  0  0  0  0  0  0  0
    3.8001   -4.0706    1.0890 C   0  0  0  0  0  0  0  0  0  0  0  0
    2.4483   -3.7980    0.9061 N   0  0  0  0  0  0  0  0  0  0  0  0
    1.9562   -2.8303    0.0337 C   0  0  0  0  0  0  0  0  0  0  0  0
    0.4406   -2.6929    0.0081 C   0  0  0  0  0  0  0  0  0  0  0  0
    0.0544   -1.4675    0.8491 C   0  0  0  0  0  0  0  0  0  0  0  0
   -1.2781   -0.8591    0.4325 C   0  0  0  0  0  0  0  0  0  0  0  0
   -1.3343   -0.5387   -1.0175 N   0  0  0  0  0  0  0  0  0  0  0  0
   -1.7415    1.0625   -1.4479 S   0  0  0  0  0  6  0  0  0  0  0  0
   -1.8897    1.1205   -2.8875 O   0  0  0  0  0  0  0  0  0  0  0  0
   -0.8311    1.9505   -0.7503 O   0  0  0  0  0  0  0  0  0  0  0  0
   -3.3669    1.2274   -0.7510 C   0  0  0  0  0  0  0  0  0  0  0  0
   -4.4131    0.4704   -1.2967 C   0  0  0  0  0  0  0  0  0  0  0  0
   -5.6900    0.5627   -0.7429 C   0  0  0  0  0  0  0  0  0  0  0  0
   -5.9122    1.4077    0.3448 C   0  0  0  0  0  0  0  0  0  0  0  0
   -4.8707    2.1967    0.8551 C   0  0  0  0  0  0  0  0  0  0  0  0
   -3.5893    2.1012    0.3168 C   0  0  0  0  0  0  0  0  0  0  0  0
   -5.0350    3.0746    1.8971 O   0  0  0  0  0  0  0  0  0  0  0  0
   -6.4234    3.3109    2.1738 C   0  0  0  0  0  0  0  0  0  0  0  0
   -7.2055    2.0062    2.1675 C   0  0  0  0  0  0  0  0  0  0  0  0
   -7.1824    1.4160    0.8633 O   0  0  0  0  0  0  0  0  0  0  0  0
   -0.2692   -1.1454   -1.8517 C   0  0  0  0  0  0  0  0  0  0  0  0
   -0.0825   -2.5963   -1.4297 C   0  0  0  0  0  0  0  0  0  0  0  0
    2.7071   -2.0403   -0.6847 N   0  0  0  0  0  0  0  0  0  0  0  0
    4.0316   -2.2502   -0.4830 C   0  0  0  0  0  0  0  0  0  0  0  0
    4.6360   -3.1858    0.3240 C   0  0  0  0  0  0  0  0  0  0  0  0
    5.9907   -3.0731    0.2571 N   0  0  0  0  0  0  0  0  0  0  0  0
    6.2633   -2.0587   -0.5660 N   0  0  0  0  0  0  0  0  0  0  0  0
    5.0824   -1.5404   -0.9901 N   0  0  0  0  0  0  0  0  0  0  0  0
    5.0456   -0.3821   -1.8619 C   0  0  0  0  0  0  0  0  0  0  0  0
    4.6952    0.8746   -1.0979 C   0  0  0  0  0  0  0  0  0  0  0  0
    3.3962    1.4091   -1.1611 C   0  0  0  0  0  0  0  0  0  0  0  0
    3.0659    2.5561   -0.4379 C   0  0  0  0  0  0  0  0  0  0  0  0
    4.0304    3.1682    0.3537 C   0  0  0  0  0  0  0  0  0  0  0  0
    3.7134    4.2658    1.0531 F   0  0  0  0  0  0  0  0  0  0  0  0
    5.3197    2.6543    0.4351 C   0  0  0  0  0  0  0  0  0  0  0  0
    5.6546    1.5095   -0.2913 C   0  0  0  0  0  0  0  0  0  0  0  0
    1.8276   -4.3962    1.4317 H   0  0  0  0  0  0  0  0  0  0  0  0
    0.0046   -3.5915    0.4634 H   0  0  0  0  0  0  0  0  0  0  0  0
    0.8278   -0.6914    0.7865 H   0  0  0  0  0  0  0  0  0  0  0  0
    0.0091   -1.7561    1.9057 H   0  0  0  0  0  0  0  0  0  0  0  0
   -1.4589    0.0295    1.0473 H   0  0  0  0  0  0  0  0  0  0  0  0
   -2.0931   -1.5621    0.6462 H   0  0  0  0  0  0  0  0  0  0  0  0
   -4.2324   -0.1912   -2.1425 H   0  0  0  0  0  0  0  0  0  0  0  0
   -6.5085   -0.0258   -1.1490 H   0  0  0  0  0  0  0  0  0  0  0  0
   -2.7833    2.7064    0.7269 H   0  0  0  0  0  0  0  0  0  0  0  0
   -6.8175    4.0126    1.4239 H   0  0  0  0  0  0  0  0  0  0  0  0
   -6.4893    3.7864    3.1576 H   0  0  0  0  0  0  0  0  0  0  0  0
   -8.2528    2.1870    2.4319 H   0  0  0  0  0  0  0  0  0  0  0  0
   -6.7881    1.2868    2.8848 H   0  0  0  0  0  0  0  0  0  0  0  0
    0.6595   -0.5758   -1.7596 H   0  0  0  0  0  0  0  0  0  0  0  0
   -0.5775   -1.1336   -2.9028 H   0  0  0  0  0  0  0  0  0  0  0  0
   -1.0572   -3.1012   -1.4794 H   0  0  0  0  0  0  0  0  0  0  0  0
    0.5739   -3.1201   -2.1338 H   0  0  0  0  0  0  0  0  0  0  0  0
    6.0272   -0.2784   -2.3424 H   0  0  0  0  0  0  0  0  0  0  0  0
    4.3150   -0.5859   -2.6543 H   0  0  0  0  0  0  0  0  0  0  0  0
    2.6279    0.9313   -1.7673 H   0  0  0  0  0  0  0  0  0  0  0  0
    2.0626    2.9686   -0.4838 H   0  0  0  0  0  0  0  0  0  0  0  0
    6.0539    3.1448    1.0658 H   0  0  0  0  0  0  0  0  0  0  0  0
    6.6660    1.1111   -0.2173 H   0  0  0  0  0  0  0  0  0  0  0  0
  1  2  2  0
  2  3  1  0
  3  4  1  0
  4  5  1  0
  5  6  1  0
  6  7  1  0
  7  8  1  0
  8  9  1  0
  9 10  2  0
  9 11  2  0
  9 12  1  0
 12 13  2  0
 13 14  1  0
 14 15  2  0
 15 16  1  0
 16 17  2  0
 16 18  1  0
 18 19  1  0
 19 20  1  0
 20 21  1  0
  8 22  1  0
 22 23  1  0
  4 24  2  0
 24 25  1  0
 25 26  2  0
 26 27  1  0
 27 28  2  0
 28 29  1  0
 29 30  1  0
 30 31  1  0
 31 32  2  0
 32 33  1  0
 33 34  2  0
 34 35  1  0
 34 36  1  0
 36 37  2  0
 26  2  1  0
 37 31  1  0
 23  5  1  0
 29 25  1  0
 17 12  1  0
 21 15  1  0
  3 38  1  0
  5 39  1  0
  6 40  1  0
  6 41  1  0
  7 42  1  0
  7 43  1  0
 13 44  1  0
 14 45  1  0
 17 46  1  0
 19 47  1  0
 19 48  1  0
 20 49  1  0
 20 50  1  0
 22 51  1  0
 22 52  1  0
 23 53  1  0
 23 54  1  0
 30 55  1  0
 30 56  1  0
 32 57  1  0
 33 58  1  0
 36 59  1  0
 37 60  1  0
M  END
$$$$
