
     RDKit          3D

 74 79  0  0  0  0  0  0  0  0999 V2000
    9.2067   -1.9246   -3.8898 C   0  0  0  0  0  0  0  0  0  0  0  0
    7.8241   -1.7781   -4.1876 O   0  0  0  0  0  0  0  0  0  0  0  0
    7.0076   -1.4105   -3.1547 C   0  0  0  0  0  0  0  0  0  0  0  0
    5.6520   -1.3457   -3.4721 C   0  0  0  0  0  0  0  0  0  0  0  0
    4.7022   -0.9955   -2.5030 C   0  0  0  0  0  0  0  0  0  0  0  0
    5.0787   -0.7035   -1.1809 C   0  0  0  0  0  0  0  0  0  0  0  0
    4.0967   -0.3614   -0.1247 C   0  0  0  0  0  0  0  0  0  0  0  0
    2.7625   -0.7239   -0.1737 C   0  0  0  0  0  0  0  0  0  0  0  0
    1.9260   -0.3754    0.8911 C   0  0  0  0  0  0  0  0  0  0  0  0
    0.4949   -0.7435    0.7309 C   0  0  0  0  0  0  0  0  0  0  0  0
    0.2225   -1.8623    0.3176 O   0  0  0  0  0  0  0  0  0  0  0  0
   -0.3907    0.2751    0.9928 N   0  0  0  0  0  0  0  0  0  0  0  0
   -1.7989    0.2322    1.0179 C   0  0  0  0  0  0  0  0  0  0  0  0
   -2.5474   -0.9248    0.8048 C   0  0  0  0  0  0  0  0  0  0  0  0
   -3.9413   -0.8530    0.8650 C   0  0  0  0  0  0  0  0  0  0  0  0
   -4.9245   -2.3117    0.6214 S   0  0  0  0  0  6  0  0  0  0  0  0
   -4.0540   -3.4625    0.5147 O   0  0  0  0  0  0  0  0  0  0  0  0
   -5.9989   -2.2710    1.5919 O   0  0  0  0  0  0  0  0  0  0  0  0
   -5.5991   -2.0384   -0.9219 N   0  0  0  0  0  0  0  0  0  0  0  0
   -4.6322   -2.0580   -2.0708 C   0  0  0  0  0  0  0  0  0  0  0  0
   -4.7973   -3.3234   -2.9177 C   0  0  0  0  0  0  0  0  0  0  0  0
   -6.1057   -3.4481   -3.4944 O   0  0  0  0  0  0  0  0  0  0  0  0
   -7.1387   -2.8737   -2.6834 C   0  0  0  0  0  0  0  0  0  0  0  0
   -6.8061   -2.8864   -1.1895 C   0  0  0  0  0  0  0  0  0  0  0  0
   -4.5899    0.3509    1.1575 C   0  0  0  0  0  0  0  0  0  0  0  0
   -3.8393    1.5057    1.3807 C   0  0  0  0  0  0  0  0  0  0  0  0
   -2.4397    1.4653    1.3116 C   0  0  0  0  0  0  0  0  0  0  0  0
   -1.6284    2.6024    1.5480 N   0  0  0  0  0  0  0  0  0  0  0  0
   -1.8432    3.6889    0.5603 C   0  0  0  0  0  0  0  0  0  0  0  0
   -1.1642    4.9726    1.0596 C   0  0  0  0  0  0  0  0  0  0  0  0
   -1.7164    5.4637    2.2920 O   0  0  0  0  0  0  0  0  0  0  0  0
   -2.3272    4.4423    3.0956 C   0  0  0  0  0  0  0  0  0  0  0  0
   -1.6515    3.0682    2.9586 C   0  0  0  0  0  0  0  0  0  0  0  0
    2.4373    0.2848    2.0326 C   0  0  0  0  0  0  0  0  0  0  0  0
    1.7056    0.5892    3.2122 C   0  0  0  0  0  0  0  0  0  0  0  0
    2.2982    1.2653    4.2763 C   0  0  0  0  0  0  0  0  0  0  0  0
    3.6305    1.6372    4.1898 C   0  0  0  0  0  0  0  0  0  0  0  0
    4.3639    1.3114    3.0477 C   0  0  0  0  0  0  0  0  0  0  0  0
    3.7985    0.6321    1.9761 C   0  0  0  0  0  0  0  0  0  0  0  0
    4.5900    0.3295    0.9339 N   0  0  0  0  0  0  0  0  0  0  0  0
    6.4563   -0.7578   -0.8901 C   0  0  0  0  0  0  0  0  0  0  0  0
    7.4096   -1.1065   -1.8585 C   0  0  0  0  0  0  0  0  0  0  0  0
    9.7062   -2.2770   -4.7976 H   0  0  0  0  0  0  0  0  0  0  0  0
    9.3693   -2.6735   -3.1087 H   0  0  0  0  0  0  0  0  0  0  0  0
    9.6510   -0.9615   -3.6158 H   0  0  0  0  0  0  0  0  0  0  0  0
    5.3264   -1.5729   -4.4839 H   0  0  0  0  0  0  0  0  0  0  0  0
    3.6614   -0.9517   -2.8140 H   0  0  0  0  0  0  0  0  0  0  0  0
    2.3568   -1.2843   -1.0100 H   0  0  0  0  0  0  0  0  0  0  0  0
   -0.0335    1.2077    1.1942 H   0  0  0  0  0  0  0  0  0  0  0  0
   -2.0683   -1.8772    0.6008 H   0  0  0  0  0  0  0  0  0  0  0  0
   -4.8419   -1.1704   -2.6798 H   0  0  0  0  0  0  0  0  0  0  0  0
   -3.5969   -1.9770   -1.7302 H   0  0  0  0  0  0  0  0  0  0  0  0
   -4.6033   -4.2233   -2.3231 H   0  0  0  0  0  0  0  0  0  0  0  0
   -4.0782   -3.3178   -3.7432 H   0  0  0  0  0  0  0  0  0  0  0  0
   -7.3074   -1.8495   -3.0343 H   0  0  0  0  0  0  0  0  0  0  0  0
   -8.0557   -3.4394   -2.8709 H   0  0  0  0  0  0  0  0  0  0  0  0
   -7.6523   -2.4836   -0.6233 H   0  0  0  0  0  0  0  0  0  0  0  0
   -6.6155   -3.9179   -0.8660 H   0  0  0  0  0  0  0  0  0  0  0  0
   -5.6759    0.3891    1.2190 H   0  0  0  0  0  0  0  0  0  0  0  0
   -4.3584    2.4302    1.6176 H   0  0  0  0  0  0  0  0  0  0  0  0
   -2.9105    3.8912    0.4117 H   0  0  0  0  0  0  0  0  0  0  0  0
   -1.4093    3.3915   -0.4005 H   0  0  0  0  0  0  0  0  0  0  0  0
   -1.2642    5.7686    0.3153 H   0  0  0  0  0  0  0  0  0  0  0  0
   -0.0933    4.8032    1.2220 H   0  0  0  0  0  0  0  0  0  0  0  0
   -3.3852    4.3862    2.8156 H   0  0  0  0  0  0  0  0  0  0  0  0
   -2.2845    4.7758    4.1372 H   0  0  0  0  0  0  0  0  0  0  0  0
   -2.1300    2.3420    3.6273 H   0  0  0  0  0  0  0  0  0  0  0  0
   -0.6068    3.1574    3.2801 H   0  0  0  0  0  0  0  0  0  0  0  0
    0.6680    0.2803    3.3221 H   0  0  0  0  0  0  0  0  0  0  0  0
    1.7237    1.4898    5.1703 H   0  0  0  0  0  0  0  0  0  0  0  0
    4.1083    2.1652    5.0105 H   0  0  0  0  0  0  0  0  0  0  0  0
    5.4151    1.5872    2.9961 H   0  0  0  0  0  0  0  0  0  0  0  0
    6.8035   -0.5339    0.1183 H   0  0  0  0  0  0  0  0  0  0  0  0
    8.4521   -1.1321   -1.5579 H   0  0  0  0  0  0  0  0  0  0  0  0
  1  2  1  0
  2  3  1  0
  3  4  2  0
  4  5  1  0
  5  6  2  0
  6  7  1  0
  7  8  2  0
  8  9  1  0
  9 10  1  0
 10 11  2  0
 10 12  1  0
 12 13  1  0
 13 14  2  0
 14 15  1  0
 15 16  1  0
 16 17  2  0
 16 18  2  0
 16 19  1  0
 19 20  1  0
 20 21  1  0
 21 22  1  0
 22 23  1  0
 23 24  1  0
 15 25  2  0
 25 26  1  0
 26 27  2  0
 27 28  1  0
 28 29  1  0
 29 30  1  0
 30 31  1  0
 31 32  1  0
 32 33  1  0
  9 34  2  0
 34 35  1  0
 35 36  2  0
 36 37  1  0
 37 38  2  0
 38 39  1  0
 39 40  2  0
  6 41  1  0
 41 42  2  0
 42  3  1  0
 40  7  1  0
 27 13  1  0
 33 28  1  0
 39 34  1  0
 24 19  1  0
  1 43  1  0
  1 44  1  0
  1 45  1  0
  4 46  1  0
  5 47  1  0
  8 48  1  0
 12 49  1  0
 14 50  1  0
 20 51  1  0
 20 52  1  0
 21 53  1  0
 21 54  1  0
 23 55  1  0
 23 56  1  0
 24 57  1  0
 24 58  1  0
 25 59  1  0
 26 60  1  0
 29 61  1  0
 29 62  1  0
 30 63  1  0
 30 64  1  0
 32 65  1  0
 32 66  1  0
 33 67  1  0
 33 68  1  0
 35 69  1  0
 36 70  1  0
 37 71  1  0
 38 72  1  0
 41 73  1  0
 42 74  1  0
M  END
$$$$
