
     RDKit          3D

 56 58  0  0  0  0  0  0  0  0999 V2000
    9.0478    4.6065    0.4080 C   0  0  0  0  0  0  0  0  0  0  0  0
    7.7689    4.0102   -0.1559 C   0  0  0  0  0  0  0  0  0  0  0  0
    7.3723    2.9323    0.6907 O   0  0  0  0  0  0  0  0  0  0  0  0
    6.2192    2.2740    0.3627 C   0  0  0  0  0  0  0  0  0  0  0  0
    5.8574    1.2519    1.2402 C   0  0  0  0  0  0  0  0  0  0  0  0
    4.6997    0.4923    1.0237 C   0  0  0  0  0  0  0  0  0  0  0  0
    3.8859    0.7460   -0.0802 C   0  0  0  0  0  0  0  0  0  0  0  0
    2.7088    0.0282   -0.3808 N   0  0  0  0  0  0  0  0  0  0  0  0
    2.1191   -0.9753    0.3721 C   0  0  0  0  0  0  0  0  0  0  0  0
    2.4995   -1.3917    1.4622 O   0  0  0  0  0  0  0  0  0  0  0  0
    0.8833   -1.5330   -0.3117 C   0  0  0  0  0  0  0  0  0  0  0  0
    0.2115   -2.6316    0.5053 C   0  0  0  0  0  0  0  0  0  0  0  0
   -0.4178   -2.0486    1.6994 N   0  0  0  0  0  0  0  0  0  0  0  0
   -1.6581   -2.8948    2.4529 S   0  0  0  0  0  6  0  0  0  0  0  0
   -1.4015   -4.3073    2.2796 O   0  0  0  0  0  0  0  0  0  0  0  0
   -1.8588   -2.2945    3.7514 O   0  0  0  0  0  0  0  0  0  0  0  0
   -3.0686   -2.4631    1.4650 C   0  0  0  0  0  0  0  0  0  0  0  0
   -3.9591   -3.4568    1.0618 C   0  0  0  0  0  0  0  0  0  0  0  0
   -5.0520   -3.1195    0.2549 C   0  0  0  0  0  0  0  0  0  0  0  0
   -5.2613   -1.7943   -0.1634 C   0  0  0  0  0  0  0  0  0  0  0  0
   -4.3509   -0.8183    0.2481 C   0  0  0  0  0  0  0  0  0  0  0  0
   -3.2568   -1.1403    1.0649 C   0  0  0  0  0  0  0  0  0  0  0  0
   -4.5354    0.5712   -0.1970 C   0  0  0  0  0  0  0  0  0  0  0  0
   -3.6797    1.4072    0.0876 O   0  0  0  0  0  0  0  0  0  0  0  0
   -5.6759    0.8422   -0.9375 N   0  0  0  0  0  0  0  0  0  0  0  0
   -5.9051    2.2110   -1.3672 C   0  0  0  0  0  0  0  0  0  0  0  0
   -6.5781   -0.1132   -1.3923 C   0  0  0  0  0  0  0  0  0  0  0  0
   -7.5238    0.1942   -2.1230 O   0  0  0  0  0  0  0  0  0  0  0  0
   -6.3553   -1.4282   -0.9919 N   0  0  0  0  0  0  0  0  0  0  0  0
   -7.2970   -2.4489   -1.4369 C   0  0  0  0  0  0  0  0  0  0  0  0
    4.2542    1.7681   -0.9621 C   0  0  0  0  0  0  0  0  0  0  0  0
    5.4110    2.5306   -0.7421 C   0  0  0  0  0  0  0  0  0  0  0  0
    9.8446    3.8536    0.4352 H   0  0  0  0  0  0  0  0  0  0  0  0
    8.8921    4.9501    1.4378 H   0  0  0  0  0  0  0  0  0  0  0  0
    9.3851    5.4513   -0.1981 H   0  0  0  0  0  0  0  0  0  0  0  0
    7.9609    3.6450   -1.1719 H   0  0  0  0  0  0  0  0  0  0  0  0
    6.9911    4.7842   -0.1745 H   0  0  0  0  0  0  0  0  0  0  0  0
    6.4871    1.0320    2.1020 H   0  0  0  0  0  0  0  0  0  0  0  0
    4.4741   -0.2934    1.7372 H   0  0  0  0  0  0  0  0  0  0  0  0
    2.2289    0.3055   -1.2284 H   0  0  0  0  0  0  0  0  0  0  0  0
    0.1820   -0.7113   -0.4969 H   0  0  0  0  0  0  0  0  0  0  0  0
    1.1951   -1.9464   -1.2784 H   0  0  0  0  0  0  0  0  0  0  0  0
    0.9365   -3.3946    0.8102 H   0  0  0  0  0  0  0  0  0  0  0  0
   -0.5521   -3.1069   -0.1208 H   0  0  0  0  0  0  0  0  0  0  0  0
    0.2252   -1.6315    2.3812 H   0  0  0  0  0  0  0  0  0  0  0  0
   -3.8155   -4.4913    1.3702 H   0  0  0  0  0  0  0  0  0  0  0  0
   -5.7254   -3.9232   -0.0333 H   0  0  0  0  0  0  0  0  0  0  0  0
   -2.5590   -0.3664    1.3825 H   0  0  0  0  0  0  0  0  0  0  0  0
   -5.7101    2.2758   -2.4441 H   0  0  0  0  0  0  0  0  0  0  0  0
   -5.2611    2.9247   -0.8455 H   0  0  0  0  0  0  0  0  0  0  0  0
   -6.9521    2.4822   -1.1879 H   0  0  0  0  0  0  0  0  0  0  0  0
   -7.7854   -2.8937   -0.5647 H   0  0  0  0  0  0  0  0  0  0  0  0
   -6.7624   -3.2165   -2.0069 H   0  0  0  0  0  0  0  0  0  0  0  0
   -8.0782   -2.0406   -2.0834 H   0  0  0  0  0  0  0  0  0  0  0  0
    3.6452    1.9943   -1.8360 H   0  0  0  0  0  0  0  0  0  0  0  0
    5.6499    3.3106   -1.4580 H   0  0  0  0  0  0  0  0  0  0  0  0
  1  2  1  0
  2  3  1  0
  3  4  1  0
  4  5  2  0
  5  6  1  0
  6  7  2  0
  7  8  1  0
  8  9  1  0
  9 10  2  0
  9 11  1  0
 11 12  1  0
 12 13  1  0
 13 14  1  0
 14 15  2  0
 14 16  2  0
 14 17  1  0
 17 18  2  0
 18 19  1  0
 19 20  2  0
 20 21  1  0
 21 22  2  0
 21 23  1  0
 23 24  2  0
 23 25  1  0
 25 26  1  0
 25 27  1  0
 27 28  2  0
 27 29  1  0
 29 30  1  0
  7 31  1  0
 31 32  2  0
 32  4  1  0
 22 17  1  0
 29 20  1  0
  1 33  1  0
  1 34  1  0
  1 35  1  0
  2 36  1  0
  2 37  1  0
  5 38  1  0
  6 39  1  0
  8 40  1  0
 11 41  1  0
 11 42  1  0
 12 43  1  0
 12 44  1  0
 13 45  1  0
 18 46  1  0
 19 47  1  0
 22 48  1  0
 26 49  1  0
 26 50  1  0
 26 51  1  0
 30 52  1  0
 30 53  1  0
 30 54  1  0
 31 55  1  0
 32 56  1  0
M  END
$$$$
