
     RDKit          3D

 85 88  0  0  0  0  0  0  0  0999 V2000
    5.5576   -7.4799   -0.4334 C   0  0  0  0  0  0  0  0  0  0  0  0
    4.7235   -7.0007    0.6152 O   0  0  0  0  0  0  0  0  0  0  0  0
    4.2905   -5.7074    0.4998 C   0  0  0  0  0  0  0  0  0  0  0  0
    3.2481   -5.3592    1.3567 C   0  0  0  0  0  0  0  0  0  0  0  0
    2.6923   -4.0772    1.3100 C   0  0  0  0  0  0  0  0  0  0  0  0
    3.1761   -3.1193    0.4150 C   0  0  0  0  0  0  0  0  0  0  0  0
    2.5129   -1.8731    0.3987 N   0  0  0  0  0  0  0  0  0  0  0  0
    2.7480   -0.8022   -0.4496 C   0  0  0  0  0  0  0  0  0  0  0  0
    3.6746   -0.7309   -1.2508 O   0  0  0  0  0  0  0  0  0  0  0  0
    1.7756    0.1729   -0.2887 N   0  0  0  0  0  0  0  0  0  0  0  0
    1.5819    1.3554   -1.0523 C   0  0  0  0  0  0  0  0  0  0  0  0
    2.5197    1.8355   -1.9720 C   0  0  0  0  0  0  0  0  0  0  0  0
    2.2515    2.9840   -2.7191 C   0  0  0  0  0  0  0  0  0  0  0  0
    1.0439    3.6562   -2.5496 C   0  0  0  0  0  0  0  0  0  0  0  0
    0.1073    3.1971   -1.6087 C   0  0  0  0  0  0  0  0  0  0  0  0
    0.3699    2.0616   -0.8381 C   0  0  0  0  0  0  0  0  0  0  0  0
   -0.4719    1.4859    0.0681 O   0  0  0  0  0  0  0  0  0  0  0  0
   -1.2995    2.2202    0.9937 C   0  0  0  0  0  0  0  0  0  0  0  0
   -1.8518    1.1358    1.9708 C   0  0  0  0  0  0  0  0  0  0  0  0
   -0.8872    0.0622    2.2791 N   0  0  0  0  0  0  0  0  0  0  0  0
    0.0159    0.2763    3.3957 C   0  0  0  0  0  0  0  0  0  0  0  0
   -0.8225   -1.1488    1.6043 C   0  0  0  0  0  0  0  0  0  0  0  0
   -0.0465   -2.0438    1.9247 O   0  0  0  0  0  0  0  0  0  0  0  0
   -1.6439   -1.2578    0.5176 N   0  0  0  0  0  0  0  0  0  0  0  0
   -1.7871   -2.4945   -0.2409 C   0  0  0  0  0  0  0  0  0  0  0  0
   -3.0979   -2.4593   -1.0292 C   0  0  0  0  0  0  0  0  0  0  0  0
   -3.3611   -3.7770   -1.7572 C   0  0  0  0  0  0  0  0  0  0  0  0
   -2.0874   -4.5057   -2.1884 C   0  0  0  0  0  0  0  0  0  0  0  0
   -0.9387   -3.5398   -2.4318 C   0  0  0  0  0  0  0  0  0  0  0  0
   -0.5843   -2.7384   -1.1762 C   0  0  0  0  0  0  0  0  0  0  0  0
   -0.6039    3.4266    1.7043 C   0  0  0  0  0  0  0  0  0  0  0  0
   -1.3410    3.9141    2.9609 C   0  0  0  0  0  0  0  0  0  0  0  0
   -0.3582    4.6536    0.7862 C   0  0  0  0  0  0  0  0  0  0  0  0
   -1.2779    4.7906   -0.3513 N   0  0  0  0  0  0  0  0  0  0  0  0
   -2.4799    5.6642   -0.2985 C   0  0  0  0  0  0  0  0  0  0  0  0
   -2.3012    6.9176    0.5591 C   0  0  0  0  0  0  0  0  0  0  0  0
   -3.7789    4.9213    0.1009 C   0  0  0  0  0  0  0  0  0  0  0  0
   -4.0406    3.7624   -0.6884 O   0  0  0  0  0  0  0  0  0  0  0  0
   -1.1237    3.9919   -1.4923 C   0  0  0  0  0  0  0  0  0  0  0  0
   -1.9487    3.9438   -2.4029 O   0  0  0  0  0  0  0  0  0  0  0  0
    4.2479   -3.4572   -0.4048 C   0  0  0  0  0  0  0  0  0  0  0  0
    4.7991   -4.7477   -0.3719 C   0  0  0  0  0  0  0  0  0  0  0  0
    6.5456   -7.0076   -0.3991 H   0  0  0  0  0  0  0  0  0  0  0  0
    5.0847   -7.3369   -1.4132 H   0  0  0  0  0  0  0  0  0  0  0  0
    5.7040   -8.5525   -0.2818 H   0  0  0  0  0  0  0  0  0  0  0  0
    2.8367   -6.0931    2.0477 H   0  0  0  0  0  0  0  0  0  0  0  0
    1.8602   -3.8486    1.9736 H   0  0  0  0  0  0  0  0  0  0  0  0
    1.7119   -1.8144    1.0227 H   0  0  0  0  0  0  0  0  0  0  0  0
    0.9981   -0.0594    0.3177 H   0  0  0  0  0  0  0  0  0  0  0  0
    3.4747    1.3359   -2.1258 H   0  0  0  0  0  0  0  0  0  0  0  0
    2.9898    3.3403   -3.4329 H   0  0  0  0  0  0  0  0  0  0  0  0
    0.8301    4.5386   -3.1480 H   0  0  0  0  0  0  0  0  0  0  0  0
   -2.1813    2.5751    0.4557 H   0  0  0  0  0  0  0  0  0  0  0  0
   -2.7320    0.6755    1.5036 H   0  0  0  0  0  0  0  0  0  0  0  0
   -2.2391    1.5378    2.9096 H   0  0  0  0  0  0  0  0  0  0  0  0
    0.4082    1.2940    3.3558 H   0  0  0  0  0  0  0  0  0  0  0  0
    0.8552   -0.4187    3.3749 H   0  0  0  0  0  0  0  0  0  0  0  0
   -0.5473    0.1409    4.3219 H   0  0  0  0  0  0  0  0  0  0  0  0
   -1.7634   -0.4031   -0.0118 H   0  0  0  0  0  0  0  0  0  0  0  0
   -1.8347   -3.3169    0.4875 H   0  0  0  0  0  0  0  0  0  0  0  0
   -3.9498   -2.2279   -0.3725 H   0  0  0  0  0  0  0  0  0  0  0  0
   -3.0571   -1.6512   -1.7715 H   0  0  0  0  0  0  0  0  0  0  0  0
   -3.9793   -3.5644   -2.6334 H   0  0  0  0  0  0  0  0  0  0  0  0
   -3.9502   -4.4437   -1.1154 H   0  0  0  0  0  0  0  0  0  0  0  0
   -1.7943   -5.2169   -1.4037 H   0  0  0  0  0  0  0  0  0  0  0  0
   -2.2854   -5.0998   -3.0895 H   0  0  0  0  0  0  0  0  0  0  0  0
   -0.0499   -4.0828   -2.7839 H   0  0  0  0  0  0  0  0  0  0  0  0
   -1.2307   -2.8454   -3.2283 H   0  0  0  0  0  0  0  0  0  0  0  0
    0.1826   -3.2831   -0.6161 H   0  0  0  0  0  0  0  0  0  0  0  0
   -0.1197   -1.7929   -1.4825 H   0  0  0  0  0  0  0  0  0  0  0  0
    0.3890    3.1035    2.0379 H   0  0  0  0  0  0  0  0  0  0  0  0
   -2.3974    4.0955    2.7572 H   0  0  0  0  0  0  0  0  0  0  0  0
   -0.9032    4.8415    3.3470 H   0  0  0  0  0  0  0  0  0  0  0  0
   -1.2687    3.1873    3.7714 H   0  0  0  0  0  0  0  0  0  0  0  0
    0.6589    4.5664    0.3830 H   0  0  0  0  0  0  0  0  0  0  0  0
   -0.3158    5.5885    1.3528 H   0  0  0  0  0  0  0  0  0  0  0  0
   -2.6288    6.0069   -1.3337 H   0  0  0  0  0  0  0  0  0  0  0  0
   -2.2340    6.6831    1.6275 H   0  0  0  0  0  0  0  0  0  0  0  0
   -3.1543    7.5956    0.4311 H   0  0  0  0  0  0  0  0  0  0  0  0
   -1.3918    7.4579    0.2758 H   0  0  0  0  0  0  0  0  0  0  0  0
   -4.6449    5.5893   -0.0054 H   0  0  0  0  0  0  0  0  0  0  0  0
   -3.7476    4.5935    1.1393 H   0  0  0  0  0  0  0  0  0  0  0  0
   -3.6327    3.9073   -1.5687 H   0  0  0  0  0  0  0  0  0  0  0  0
    4.6805   -2.7434   -1.0981 H   0  0  0  0  0  0  0  0  0  0  0  0
    5.6208   -4.9608   -1.0431 H   0  0  0  0  0  0  0  0  0  0  0  0
  1  2  1  0
  2  3  1  0
  3  4  2  0
  4  5  1  0
  5  6  2  0
  6  7  1  0
  7  8  1  0
  8  9  2  0
  8 10  1  0
 10 11  1  0
 11 12  2  0
 12 13  1  0
 13 14  2  0
 14 15  1  0
 15 16  2  0
 16 17  1  0
 17 18  1  0
 18 19  1  0
 19 20  1  0
 20 21  1  0
 20 22  1  0
 22 23  2  0
 22 24  1  0
 24 25  1  0
 25 26  1  0
 26 27  1  0
 27 28  1  0
 28 29  1  0
 29 30  1  0
 18 31  1  0
 31 32  1  0
 31 33  1  0
 33 34  1  0
 34 35  1  0
 35 36  1  0
 35 37  1  0
 37 38  1  0
 34 39  1  0
 39 40  2  0
  6 41  1  0
 41 42  2  0
 42  3  1  0
 16 11  1  0
 30 25  1  0
 39 15  1  0
  1 43  1  0
  1 44  1  0
  1 45  1  0
  4 46  1  0
  5 47  1  0
  7 48  1  0
 10 49  1  0
 12 50  1  0
 13 51  1  0
 14 52  1  0
 18 53  1  0
 19 54  1  0
 19 55  1  0
 21 56  1  0
 21 57  1  0
 21 58  1  0
 24 59  1  0
 25 60  1  0
 26 61  1  0
 26 62  1  0
 27 63  1  0
 27 64  1  0
 28 65  1  0
 28 66  1  0
 29 67  1  0
 29 68  1  0
 30 69  1  0
 30 70  1  0
 31 71  1  0
 32 72  1  0
 32 73  1  0
 32 74  1  0
 33 75  1  0
 33 76  1  0
 35 77  1  0
 36 78  1  0
 36 79  1  0
 36 80  1  0
 37 81  1  0
 37 82  1  0
 38 83  1  0
 41 84  1  0
 42 85  1  0
M  END
$$$$
