
     RDKit          3D

 60 64  0  0  0  0  0  0  0  0999 V2000
   -2.1218    1.4223   -1.1967 C   0  0  0  0  0  0  0  0  0  0  0  0
   -2.2909    0.0153   -0.8498 N   0  0  0  0  0  0  0  0  0  0  0  0
   -3.4931   -0.5911   -1.2270 C   0  0  0  0  0  0  0  0  0  0  0  0
   -4.3387   -0.0142   -1.9132 O   0  0  0  0  0  0  0  0  0  0  0  0
   -3.7600   -1.9798   -0.7297 C   0  0  0  0  0  0  0  0  0  0  0  0
   -4.9704   -2.3949   -0.3121 C   0  0  0  0  0  0  0  0  0  0  0  0
   -6.1853   -1.5844   -0.1689 C   0  0  0  0  0  0  0  0  0  0  0  0
   -6.2250   -0.4741    0.6814 C   0  0  0  0  0  0  0  0  0  0  0  0
   -7.4041    0.2615    0.8284 C   0  0  0  0  0  0  0  0  0  0  0  0
   -8.5646   -0.1032    0.1304 C   0  0  0  0  0  0  0  0  0  0  0  0
   -9.8423    0.6795    0.3032 C   0  0  0  0  0  0  0  0  0  0  0  0
  -10.6081    0.1981    1.3209 F   0  0  0  0  0  0  0  0  0  0  0  0
   -9.6331    1.9958    0.5855 F   0  0  0  0  0  0  0  0  0  0  0  0
  -10.6383    0.6602   -0.8020 F   0  0  0  0  0  0  0  0  0  0  0  0
   -8.5256   -1.2309   -0.7023 C   0  0  0  0  0  0  0  0  0  0  0  0
   -7.3457   -1.9650   -0.8498 C   0  0  0  0  0  0  0  0  0  0  0  0
   -2.4432   -3.0936   -0.7779 S   0  0  0  0  0  0  0  0  0  0  0  0
   -1.2274   -2.0538   -0.0037 C   0  0  0  0  0  0  0  0  0  0  0  0
   -0.1999   -2.6954    0.7097 C   0  0  0  0  0  0  0  0  0  0  0  0
    0.8197   -1.9569    1.3048 C   0  0  0  0  0  0  0  0  0  0  0  0
    0.8268   -0.5722    1.1618 C   0  0  0  0  0  0  0  0  0  0  0  0
    1.8776    0.2505    1.8003 C   0  0  0  0  0  0  0  0  0  0  0  0
    1.5106    1.1207    2.5859 O   0  0  0  0  0  0  0  0  0  0  0  0
    3.2076    0.0119    1.4733 N   0  0  0  0  0  0  0  0  0  0  0  0
    3.6352   -0.7462    0.2849 C   0  0  0  0  0  0  0  0  0  0  0  0
    5.1266   -0.5645   -0.0608 C   0  0  0  0  0  0  0  0  0  0  0  0
    5.4723    0.8657   -0.0942 N   0  0  0  0  0  0  0  0  0  0  0  0
    6.7428    1.1561   -0.5971 C   0  0  0  0  0  0  0  0  0  0  0  0
    7.1369    2.4790   -0.8111 C   0  0  0  0  0  0  0  0  0  0  0  0
    8.3995    2.7594   -1.3336 C   0  0  0  0  0  0  0  0  0  0  0  0
    9.2502    1.7116   -1.6429 C   0  0  0  0  0  0  0  0  0  0  0  0
    8.7929    0.4279   -1.4197 C   0  0  0  0  0  0  0  0  0  0  0  0
    7.5723    0.1370   -0.9145 N   0  0  0  0  0  0  0  0  0  0  0  0
    5.0109    1.6795    1.0510 C   0  0  0  0  0  0  0  0  0  0  0  0
    4.2447    0.8402    2.0922 C   0  0  0  0  0  0  0  0  0  0  0  0
   -0.2044    0.0772    0.4699 C   0  0  0  0  0  0  0  0  0  0  0  0
   -1.2491   -0.6520   -0.1241 C   0  0  0  0  0  0  0  0  0  0  0  0
   -2.8862    1.7713   -1.8964 H   0  0  0  0  0  0  0  0  0  0  0  0
   -1.1486    1.5724   -1.6747 H   0  0  0  0  0  0  0  0  0  0  0  0
   -2.2009    2.0268   -0.2877 H   0  0  0  0  0  0  0  0  0  0  0  0
   -5.1112   -3.4344   -0.0198 H   0  0  0  0  0  0  0  0  0  0  0  0
   -5.3406   -0.1696    1.2361 H   0  0  0  0  0  0  0  0  0  0  0  0
   -7.4112    1.1266    1.4896 H   0  0  0  0  0  0  0  0  0  0  0  0
   -9.4159   -1.5412   -1.2467 H   0  0  0  0  0  0  0  0  0  0  0  0
   -7.3388   -2.8298   -1.5090 H   0  0  0  0  0  0  0  0  0  0  0  0
   -0.1920   -3.7796    0.8093 H   0  0  0  0  0  0  0  0  0  0  0  0
    1.5919   -2.4602    1.8813 H   0  0  0  0  0  0  0  0  0  0  0  0
    3.0199   -0.4163   -0.5597 H   0  0  0  0  0  0  0  0  0  0  0  0
    3.4344   -1.8069    0.4574 H   0  0  0  0  0  0  0  0  0  0  0  0
    5.7415   -1.0837    0.6856 H   0  0  0  0  0  0  0  0  0  0  0  0
    5.3037   -1.0374   -1.0351 H   0  0  0  0  0  0  0  0  0  0  0  0
    6.4594    3.2983   -0.5972 H   0  0  0  0  0  0  0  0  0  0  0  0
    8.7055    3.7874   -1.5038 H   0  0  0  0  0  0  0  0  0  0  0  0
   10.2367    1.8883   -2.0556 H   0  0  0  0  0  0  0  0  0  0  0  0
    9.4122   -0.4341   -1.6495 H   0  0  0  0  0  0  0  0  0  0  0  0
    4.3500    2.4632    0.6629 H   0  0  0  0  0  0  0  0  0  0  0  0
    5.8455    2.1686    1.5684 H   0  0  0  0  0  0  0  0  0  0  0  0
    3.8268    1.4969    2.8621 H   0  0  0  0  0  0  0  0  0  0  0  0
    4.9343    0.1537    2.5990 H   0  0  0  0  0  0  0  0  0  0  0  0
   -0.1721    1.1627    0.4304 H   0  0  0  0  0  0  0  0  0  0  0  0
  1  2  1  0
  2  3  1  0
  3  4  2  0
  3  5  1  0
  5  6  2  3
  6  7  1  0
  7  8  2  0
  8  9  1  0
  9 10  2  0
 10 11  1  0
 11 12  1  0
 11 13  1  0
 11 14  1  0
 10 15  1  0
 15 16  2  0
  5 17  1  0
 17 18  1  0
 18 19  2  0
 19 20  1  0
 20 21  2  0
 21 22  1  0
 22 23  2  0
 22 24  1  0
 24 25  1  0
 25 26  1  0
 26 27  1  0
 27 28  1  0
 28 29  2  0
 29 30  1  0
 30 31  2  0
 31 32  1  0
 32 33  2  0
 27 34  1  0
 34 35  1  0
 21 36  1  0
 36 37  2  0
 37  2  1  0
 16  7  1  0
 37 18  1  0
 35 24  1  0
 33 28  1  0
  1 38  1  0
  1 39  1  0
  1 40  1  0
  6 41  1  0
  8 42  1  0
  9 43  1  0
 15 44  1  0
 16 45  1  0
 19 46  1  0
 20 47  1  0
 25 48  1  0
 25 49  1  0
 26 50  1  0
 26 51  1  0
 29 52  1  0
 30 53  1  0
 31 54  1  0
 32 55  1  0
 34 56  1  0
 34 57  1  0
 35 58  1  0
 35 59  1  0
 36 60  1  0
M  END
$$$$
