
     RDKit          3D

 53 58  0  0  0  0  0  0  0  0999 V2000
   -1.1472   -1.1724    1.2876 O   0  0  0  0  0  0  0  0  0  0  0  0
   -1.4655   -0.8545    0.1379 C   0  0  0  0  0  0  0  0  0  0  0  0
   -0.3494   -0.7565   -0.9269 C   0  0  0  0  0  0  0  0  0  0  0  0
    0.9432   -0.3734   -0.3185 N   0  0  0  0  0  4  0  0  0  0  0  0
    2.1682   -1.0145   -0.4916 C   0  0  0  0  0  0  0  0  0  0  0  0
    3.1294   -0.3723    0.2819 C   0  0  0  0  0  0  0  0  0  0  0  0
    4.6470   -0.7710    0.4070 C   0  0  0  0  0  0  0  0  0  0  0  0
    5.4976   -0.0874    1.2771 C   0  0  0  0  0  0  0  0  0  0  0  0
    6.8470   -0.4496    1.3729 C   0  0  0  0  0  0  0  0  0  0  0  0
    7.3567   -1.4979    0.6027 C   0  0  0  0  0  0  0  0  0  0  0  0
    9.0291   -1.8845    0.7709 Cl  0  0  0  0  0  0  0  0  0  0  0  0
    6.5063   -2.1889   -0.2639 C   0  0  0  0  0  0  0  0  0  0  0  0
    7.0496   -3.4995   -1.2493 Cl  0  0  0  0  0  0  0  0  0  0  0  0
    5.1548   -1.8274   -0.3598 C   0  0  0  0  0  0  0  0  0  0  0  0
    2.4221    0.6565    0.8774 N   0  0  0  0  0  0  0  0  0  0  0  0
    1.1329    0.6208    0.5458 C   0  0  0  0  0  0  0  0  0  0  0  0
    0.3349    1.6926    1.1889 C   0  0  0  0  0  0  0  0  0  0  0  0
    1.4335    2.6301    1.7267 C   0  0  0  0  0  0  0  0  0  0  0  0
    2.7117    1.7511    1.7945 C   0  0  0  0  0  0  0  0  0  0  0  0
   -2.7326   -0.3982   -0.2684 N   0  0  0  0  0  0  0  0  0  0  0  0
   -3.6454    0.2128    0.6686 C   0  0  0  0  0  0  0  0  0  0  0  0
   -3.6896   -0.1944    2.0135 C   0  0  0  0  0  0  0  0  0  0  0  0
   -4.5579    0.4059    2.9323 C   0  0  0  0  0  0  0  0  0  0  0  0
   -5.3973    1.4349    2.5295 C   0  0  0  0  0  0  0  0  0  0  0  0
   -5.3727    1.8602    1.2052 C   0  0  0  0  0  0  0  0  0  0  0  0
   -4.5110    1.2543    0.2772 C   0  0  0  0  0  0  0  0  0  0  0  0
   -4.4928    1.9226   -1.3717 S   0  0  0  0  0  0  0  0  0  0  0  0
   -3.9931    0.4617   -2.2386 C   0  0  0  0  0  0  0  0  0  0  0  0
   -4.3962    0.3129   -3.5732 C   0  0  0  0  0  0  0  0  0  0  0  0
   -4.0332   -0.8172   -4.3022 C   0  0  0  0  0  0  0  0  0  0  0  0
   -3.2706   -1.8102   -3.6991 C   0  0  0  0  0  0  0  0  0  0  0  0
   -2.8580   -1.6627   -2.3725 C   0  0  0  0  0  0  0  0  0  0  0  0
   -3.1851   -0.5109   -1.6295 C   0  0  0  0  0  0  0  0  0  0  0  0
   -0.2240   -1.7334   -1.4023 H   0  0  0  0  0  0  0  0  0  0  0  0
   -0.5705    0.0088   -1.6767 H   0  0  0  0  0  0  0  0  0  0  0  0
    2.1981   -1.8688   -1.1459 H   0  0  0  0  0  0  0  0  0  0  0  0
    5.1497    0.7229    1.9067 H   0  0  0  0  0  0  0  0  0  0  0  0
    7.5010    0.0909    2.0561 H   0  0  0  0  0  0  0  0  0  0  0  0
    4.5239   -2.3851   -1.0464 H   0  0  0  0  0  0  0  0  0  0  0  0
   -0.3082    2.1576    0.4405 H   0  0  0  0  0  0  0  0  0  0  0  0
   -0.2376    1.2277    1.9935 H   0  0  0  0  0  0  0  0  0  0  0  0
    1.1770    3.0811    2.6892 H   0  0  0  0  0  0  0  0  0  0  0  0
    1.5967    3.4405    1.0068 H   0  0  0  0  0  0  0  0  0  0  0  0
    2.8576    1.3404    2.7980 H   0  0  0  0  0  0  0  0  0  0  0  0
    3.5905    2.3124    1.4702 H   0  0  0  0  0  0  0  0  0  0  0  0
   -3.0929   -1.0263    2.3794 H   0  0  0  0  0  0  0  0  0  0  0  0
   -4.5822    0.0568    3.9631 H   0  0  0  0  0  0  0  0  0  0  0  0
   -6.0738    1.9019    3.2419 H   0  0  0  0  0  0  0  0  0  0  0  0
   -6.0305    2.6730    0.9019 H   0  0  0  0  0  0  0  0  0  0  0  0
   -5.0142    1.0723   -4.0523 H   0  0  0  0  0  0  0  0  0  0  0  0
   -4.3672   -0.9313   -5.3317 H   0  0  0  0  0  0  0  0  0  0  0  0
   -3.0241   -2.7134   -4.2543 H   0  0  0  0  0  0  0  0  0  0  0  0
   -2.3360   -2.5013   -1.9169 H   0  0  0  0  0  0  0  0  0  0  0  0
  1  2  2  0
  2  3  1  0
  3  4  1  0
  4  5  1  0
  5  6  2  0
  6  7  1  0
  7  8  2  0
  8  9  1  0
  9 10  2  0
 10 11  1  0
 10 12  1  0
 12 13  1  0
 12 14  2  0
  6 15  1  0
 15 16  1  0
 16 17  1  0
 17 18  1  0
 18 19  1  0
  2 20  1  0
 20 21  1  0
 21 22  2  0
 22 23  1  0
 23 24  2  0
 24 25  1  0
 25 26  2  0
 26 27  1  0
 27 28  1  0
 28 29  2  0
 29 30  1  0
 30 31  2  0
 31 32  1  0
 32 33  2  0
 16  4  2  0
 33 20  1  0
 14  7  1  0
 19 15  1  0
 26 21  1  0
 33 28  1  0
  3 34  1  0
  3 35  1  0
  5 36  1  0
  8 37  1  0
  9 38  1  0
 14 39  1  0
 17 40  1  0
 17 41  1  0
 18 42  1  0
 18 43  1  0
 19 44  1  0
 19 45  1  0
 22 46  1  0
 23 47  1  0
 24 48  1  0
 25 49  1  0
 29 50  1  0
 30 51  1  0
 31 52  1  0
 32 53  1  0
M  CHG  1   4   1
M  END
$$$$
