
     RDKit          3D

 37 39  0  0  0  0  0  0  0  0999 V2000
    4.2134   -0.8089   -1.6285 N   0  0  0  0  0  0  0  0  0  0  0  0
    4.1078    0.4818   -0.9603 C   0  0  0  0  0  0  0  0  0  0  0  0
    3.1071    0.4341    0.1944 C   0  0  0  0  0  0  0  0  0  0  0  0
    1.6661    0.2007   -0.2730 C   0  0  0  0  0  0  0  0  0  0  0  0
    0.7043    0.1582    0.9235 C   0  0  0  0  0  0  0  0  0  0  0  0
   -0.7070    0.0159    0.4959 N   0  0  0  0  0  0  0  0  0  0  0  0
   -1.2321   -1.3076    0.4195 C   0  0  0  0  0  0  0  0  0  0  0  0
   -0.3978   -2.4479    0.3669 C   0  0  0  0  0  0  0  0  0  0  0  0
   -0.9031   -3.7512    0.2790 C   0  0  0  0  0  0  0  0  0  0  0  0
   -2.2703   -3.9618    0.2367 C   0  0  0  0  0  0  0  0  0  0  0  0
   -3.1238   -2.8661    0.2787 C   0  0  0  0  0  0  0  0  0  0  0  0
   -2.6194   -1.5526    0.3640 C   0  0  0  0  0  0  0  0  0  0  0  0
   -3.8470   -0.2701    0.4351 S   0  0  0  0  0  0  0  0  0  0  0  0
   -2.8685    1.2007    0.2504 C   0  0  0  0  0  0  0  0  0  0  0  0
   -3.6005    2.3907    0.0616 C   0  0  0  0  0  0  0  0  0  0  0  0
   -2.9562    3.6151   -0.0728 C   0  0  0  0  0  0  0  0  0  0  0  0
   -1.5739    3.6507   -0.0189 C   0  0  0  0  0  0  0  0  0  0  0  0
   -0.7519    5.1539   -0.1907 Cl  0  0  0  0  0  0  0  0  0  0  0  0
   -0.8390    2.4759    0.1704 C   0  0  0  0  0  0  0  0  0  0  0  0
   -1.4591    1.2141    0.3175 C   0  0  0  0  0  0  0  0  0  0  0  0
    4.8855   -0.7400   -2.3923 H   0  0  0  0  0  0  0  0  0  0  0  0
    4.5898   -1.5023   -0.9832 H   0  0  0  0  0  0  0  0  0  0  0  0
    5.0934    0.7673   -0.5767 H   0  0  0  0  0  0  0  0  0  0  0  0
    3.8053    1.2434   -1.6871 H   0  0  0  0  0  0  0  0  0  0  0  0
    3.3988   -0.3484    0.9064 H   0  0  0  0  0  0  0  0  0  0  0  0
    3.1576    1.3871    0.7355 H   0  0  0  0  0  0  0  0  0  0  0  0
    1.6021   -0.7323   -0.8421 H   0  0  0  0  0  0  0  0  0  0  0  0
    1.3800    0.9952   -0.9712 H   0  0  0  0  0  0  0  0  0  0  0  0
    0.9922   -0.6475    1.6117 H   0  0  0  0  0  0  0  0  0  0  0  0
    0.8339    1.0521    1.5477 H   0  0  0  0  0  0  0  0  0  0  0  0
    0.6837   -2.3616    0.3719 H   0  0  0  0  0  0  0  0  0  0  0  0
   -0.2192   -4.5951    0.2367 H   0  0  0  0  0  0  0  0  0  0  0  0
   -2.6723   -4.9685    0.1676 H   0  0  0  0  0  0  0  0  0  0  0  0
   -4.1977   -3.0396    0.2445 H   0  0  0  0  0  0  0  0  0  0  0  0
   -4.6881    2.3648    0.0196 H   0  0  0  0  0  0  0  0  0  0  0  0
   -3.5347    4.5224   -0.2193 H   0  0  0  0  0  0  0  0  0  0  0  0
    0.2404    2.5773    0.1807 H   0  0  0  0  0  0  0  0  0  0  0  0
  1  2  1  0
  2  3  1  0
  3  4  1  0
  4  5  1  0
  5  6  1  0
  6  7  1  0
  7  8  2  0
  8  9  1  0
  9 10  2  0
 10 11  1  0
 11 12  2  0
 12 13  1  0
 13 14  1  0
 14 15  2  0
 15 16  1  0
 16 17  2  0
 17 18  1  0
 17 19  1  0
 19 20  2  0
 20  6  1  0
 12  7  1  0
 20 14  1  0
  1 21  1  0
  1 22  1  0
  2 23  1  0
  2 24  1  0
  3 25  1  0
  3 26  1  0
  4 27  1  0
  4 28  1  0
  5 29  1  0
  5 30  1  0
  8 31  1  0
  9 32  1  0
 10 33  1  0
 11 34  1  0
 15 35  1  0
 16 36  1  0
 19 37  1  0
M  END
$$$$
