
     RDKit          3D

 56 61  0  0  0  0  0  0  0  0999 V2000
    6.4634    0.4455   -0.4037 C   0  0  0  0  0  0  0  0  0  0  0  0
    5.2720    0.0936    0.4349 C   0  0  0  0  0  0  0  0  0  0  0  0
    5.3353    0.0891    1.8420 C   0  0  0  0  0  0  0  0  0  0  0  0
    6.7973    0.4983    2.6744 Cl  0  0  0  0  0  0  0  0  0  0  0  0
    4.2204   -0.2546    2.6326 C   0  0  0  0  0  0  0  0  0  0  0  0
    3.0057   -0.6025    2.0420 C   0  0  0  0  0  0  0  0  0  0  0  0
    2.9297   -0.5961    0.6588 C   0  0  0  0  0  0  0  0  0  0  0  0
    4.0492   -0.2642   -0.1203 C   0  0  0  0  0  0  0  0  0  0  0  0
    3.7265   -0.3759   -1.4729 N   0  0  0  0  0  0  0  0  0  0  0  0
    2.4055   -0.7838   -1.6562 C   0  0  0  0  0  0  0  0  0  0  0  0
    1.8877   -1.0291   -2.7364 O   0  0  0  0  0  0  0  0  0  0  0  0
    1.7775   -0.9214   -0.2474 C   0  0  0  0  0  0  0  0  0  0  0  0
    1.1803   -2.2809   -0.0185 N   0  0  0  0  0  0  0  0  0  0  0  0
   -0.3253   -2.1524    0.0983 C   0  0  2  0  0  0  0  0  0  0  0  0
   -1.0104   -2.7672   -1.1412 C   0  0  0  0  0  0  0  0  0  0  0  0
   -2.5195   -2.8314   -1.0758 C   0  0  0  0  0  0  0  0  0  0  0  0
   -3.1633   -3.6381   -0.1276 C   0  0  0  0  0  0  0  0  0  0  0  0
   -4.5572   -3.6997   -0.0803 C   0  0  0  0  0  0  0  0  0  0  0  0
   -5.3208   -2.9613   -0.9823 C   0  0  0  0  0  0  0  0  0  0  0  0
   -4.6918   -2.1609   -1.9335 C   0  0  0  0  0  0  0  0  0  0  0  0
   -3.2983   -2.0968   -1.9815 C   0  0  0  0  0  0  0  0  0  0  0  0
   -0.5108   -0.6903    0.2353 C   0  0  0  0  0  0  0  0  0  0  0  0
    0.6704    0.0072    0.0069 C   0  0  0  0  0  0  0  0  0  0  0  0
    0.4249    1.3496    0.1234 C   0  0  0  0  0  0  0  0  0  0  0  0
    1.2980    2.3531    0.0498 O   0  0  0  0  0  0  0  0  0  0  0  0
   -0.9418    1.4906    0.4293 N   0  0  0  0  0  0  0  0  0  0  0  0
   -1.6344    2.7245    0.6155 C   0  0  0  0  0  0  0  0  0  0  0  0
   -2.6236    2.8357    1.6046 C   0  0  0  0  0  0  0  0  0  0  0  0
   -3.2981    4.0457    1.7812 C   0  0  0  0  0  0  0  0  0  0  0  0
   -2.9870    5.1321    0.9717 C   0  0  0  0  0  0  0  0  0  0  0  0
   -3.6372    6.2899    1.1433 F   0  0  0  0  0  0  0  0  0  0  0  0
   -2.0113    5.0345   -0.0137 C   0  0  0  0  0  0  0  0  0  0  0  0
   -1.3298    3.8293   -0.1951 C   0  0  0  0  0  0  0  0  0  0  0  0
   -1.5043    0.2052    0.5245 C   0  0  0  0  0  0  0  0  0  0  0  0
   -2.7853   -0.0449    0.7824 O   0  0  0  0  0  0  0  0  0  0  0  0
    6.8459    1.4343   -0.1299 H   0  0  0  0  0  0  0  0  0  0  0  0
    6.2272    0.4852   -1.4706 H   0  0  0  0  0  0  0  0  0  0  0  0
    7.2536   -0.3004   -0.2701 H   0  0  0  0  0  0  0  0  0  0  0  0
    4.3012   -0.2533    3.7175 H   0  0  0  0  0  0  0  0  0  0  0  0
    2.1448   -0.8722    2.6464 H   0  0  0  0  0  0  0  0  0  0  0  0
    4.3507   -0.2193   -2.2486 H   0  0  0  0  0  0  0  0  0  0  0  0
    1.3962   -2.8446   -0.8398 H   0  0  0  0  0  0  0  0  0  0  0  0
   -0.6327   -2.6666    1.0154 H   0  0  0  0  0  0  0  0  0  0  0  0
   -0.7080   -2.2209   -2.0451 H   0  0  0  0  0  0  0  0  0  0  0  0
   -0.6523   -3.7963   -1.2839 H   0  0  0  0  0  0  0  0  0  0  0  0
   -2.5844   -4.2247    0.5816 H   0  0  0  0  0  0  0  0  0  0  0  0
   -5.0467   -4.3251    0.6613 H   0  0  0  0  0  0  0  0  0  0  0  0
   -6.4055   -3.0117   -0.9447 H   0  0  0  0  0  0  0  0  0  0  0  0
   -5.2854   -1.5874   -2.6400 H   0  0  0  0  0  0  0  0  0  0  0  0
   -2.8221   -1.4663   -2.7292 H   0  0  0  0  0  0  0  0  0  0  0  0
    0.9597    3.1066    0.5656 H   0  0  0  0  0  0  0  0  0  0  0  0
   -2.8514    2.0099    2.2767 H   0  0  0  0  0  0  0  0  0  0  0  0
   -4.0570    4.1505    2.5509 H   0  0  0  0  0  0  0  0  0  0  0  0
   -1.7963    5.8940   -0.6416 H   0  0  0  0  0  0  0  0  0  0  0  0
   -0.6026    3.7588   -1.0026 H   0  0  0  0  0  0  0  0  0  0  0  0
   -3.3288    0.6769    0.4209 H   0  0  0  0  0  0  0  0  0  0  0  0
  1  2  1  0
  2  3  2  0
  3  4  1  0
  3  5  1  0
  5  6  2  0
  6  7  1  0
  7  8  2  0
  8  9  1  0
  9 10  1  0
 10 11  2  0
 10 12  1  0
 12 13  1  0
 13 14  1  0
 14 15  1  0
 15 16  1  0
 16 17  2  0
 17 18  1  0
 18 19  2  0
 19 20  1  0
 20 21  2  0
 14 22  1  0
 22 23  1  0
 23 24  2  0
 24 25  1  0
 24 26  1  0
 26 27  1  0
 27 28  2  0
 28 29  1  0
 29 30  2  0
 30 31  1  0
 30 32  1  0
 32 33  2  0
 26 34  1  0
 34 35  1  0
  8  2  1  0
 23 12  1  0
 33 27  1  0
 12  7  1  0
 21 16  1  0
 34 22  2  0
  1 36  1  0
  1 37  1  0
  1 38  1  0
  5 39  1  0
  6 40  1  0
  9 41  1  0
 13 42  1  0
 14 43  1  1
 15 44  1  0
 15 45  1  0
 17 46  1  0
 18 47  1  0
 19 48  1  0
 20 49  1  0
 21 50  1  0
 25 51  1  0
 28 52  1  0
 29 53  1  0
 32 54  1  0
 33 55  1  0
 35 56  1  0
M  END
$$$$
