
     RDKit          3D

 37 38  0  0  0  0  0  0  0  0999 V2000
    5.7868    1.0068    0.7072 C   0  0  0  0  0  0  0  0  0  0  0  0
    4.5005    1.5007    0.0701 C   0  0  0  0  0  0  0  0  0  0  0  0
    3.4407    0.5139    0.1422 N   0  0  0  0  0  0  0  0  0  0  0  0
    2.4451    0.4493    1.0717 C   0  0  0  0  0  0  0  0  0  0  0  0
    1.6792   -0.6527    0.7460 C   0  0  0  0  0  0  0  0  0  0  0  0
    0.4755   -1.1672    1.4430 C   0  0  0  0  0  0  0  0  0  0  0  0
   -0.6888   -0.5938    0.8098 N   0  0  0  0  0  0  0  0  0  0  0  0
   -1.9453   -1.0533    1.1322 C   0  0  0  0  0  0  0  0  0  0  0  0
   -2.1425   -1.9889    1.8988 O   0  0  0  0  0  0  0  0  0  0  0  0
   -3.0978   -0.3313    0.5241 C   0  0  0  0  0  0  0  0  0  0  0  0
   -4.3364   -0.3889    1.1809 C   0  0  0  0  0  0  0  0  0  0  0  0
   -5.4536    0.2625    0.6531 C   0  0  0  0  0  0  0  0  0  0  0  0
   -5.3452    0.9727   -0.5420 C   0  0  0  0  0  0  0  0  0  0  0  0
   -4.1121    1.0190   -1.2068 C   0  0  0  0  0  0  0  0  0  0  0  0
   -3.9980    1.7603   -2.4689 N   0  0  0  0  0  4  0  0  0  0  0  0
   -2.8649    1.9000   -2.9505 O   0  0  0  0  0  0  0  0  0  0  0  0
   -5.0379    2.2071   -2.9722 O   0  0  0  0  0  1  0  0  0  0  0  0
   -2.9850    0.3667   -0.6843 C   0  0  0  0  0  0  0  0  0  0  0  0
    2.3041   -1.1804   -0.4183 C   0  0  0  0  0  0  0  0  0  0  0  0
    1.9003   -2.3691   -1.2106 C   0  0  0  0  0  0  0  0  0  0  0  0
    3.3714   -0.4590   -0.7808 N   0  0  0  0  0  0  0  0  0  0  0  0
    6.5626    1.7759    0.6429 H   0  0  0  0  0  0  0  0  0  0  0  0
    5.6344    0.7617    1.7637 H   0  0  0  0  0  0  0  0  0  0  0  0
    6.1563    0.1060    0.2059 H   0  0  0  0  0  0  0  0  0  0  0  0
    4.1472    2.4070    0.5739 H   0  0  0  0  0  0  0  0  0  0  0  0
    4.6567    1.7435   -0.9867 H   0  0  0  0  0  0  0  0  0  0  0  0
    2.3684    1.1683    1.8754 H   0  0  0  0  0  0  0  0  0  0  0  0
    0.4169   -2.2600    1.3967 H   0  0  0  0  0  0  0  0  0  0  0  0
    0.4705   -0.8724    2.4982 H   0  0  0  0  0  0  0  0  0  0  0  0
   -0.5775    0.3179    0.3884 H   0  0  0  0  0  0  0  0  0  0  0  0
   -4.4330   -0.9465    2.1123 H   0  0  0  0  0  0  0  0  0  0  0  0
   -6.4075    0.2112    1.1742 H   0  0  0  0  0  0  0  0  0  0  0  0
   -6.2242    1.4750   -0.9421 H   0  0  0  0  0  0  0  0  0  0  0  0
   -2.0436    0.3801   -1.2278 H   0  0  0  0  0  0  0  0  0  0  0  0
    1.9801   -3.2758   -0.6026 H   0  0  0  0  0  0  0  0  0  0  0  0
    0.8639   -2.2687   -1.5484 H   0  0  0  0  0  0  0  0  0  0  0  0
    2.5324   -2.4976   -2.0954 H   0  0  0  0  0  0  0  0  0  0  0  0
  1  2  1  0
  2  3  1  0
  3  4  1  0
  4  5  2  0
  5  6  1  0
  6  7  1  0
  7  8  1  0
  8  9  2  0
  8 10  1  0
 10 11  2  0
 11 12  1  0
 12 13  2  0
 13 14  1  0
 14 15  1  0
 15 16  2  0
 15 17  1  0
 14 18  2  0
  5 19  1  0
 19 20  1  0
 19 21  2  0
 21  3  1  0
 18 10  1  0
  1 22  1  0
  1 23  1  0
  1 24  1  0
  2 25  1  0
  2 26  1  0
  4 27  1  0
  6 28  1  0
  6 29  1  0
  7 30  1  0
 11 31  1  0
 12 32  1  0
 13 33  1  0
 18 34  1  0
 20 35  1  0
 20 36  1  0
 20 37  1  0
M  CHG  2  15   1  17  -1
M  END
$$$$
