
     RDKit          3D

 39 41  0  0  0  0  0  0  0  0999 V2000
    4.5256   -0.7668   -1.2070 C   0  0  0  0  0  0  0  0  0  0  0  0
    4.7498    0.1618   -0.0264 C   0  0  0  0  0  0  0  0  0  0  0  0
    3.9073    1.3462   -0.0805 N   0  0  0  0  0  0  0  0  0  0  0  0
    4.4628    2.4996   -0.5204 N   0  0  0  0  0  0  0  0  0  0  0  0
    3.4755    3.3881   -0.4252 C   0  0  0  0  0  0  0  0  0  0  0  0
    2.2915    2.7979    0.0289 C   0  0  0  0  0  0  0  0  0  0  0  0
    0.7171    3.7683    0.3237 Br  0  0  0  0  0  0  0  0  0  0  0  0
    2.5629    1.4570    0.2224 C   0  0  0  0  0  0  0  0  0  0  0  0
    1.7308    0.3543    0.6675 C   0  0  0  0  0  0  0  0  0  0  0  0
    2.2180   -0.6036    1.2547 O   0  0  0  0  0  0  0  0  0  0  0  0
    0.4024    0.4847    0.3059 N   0  0  0  0  0  0  0  0  0  0  0  0
   -0.6533   -0.3667    0.6058 C   0  0  0  0  0  0  0  0  0  0  0  0
   -0.4439   -1.6588    1.7222 S   0  0  0  0  0  0  0  0  0  0  0  0
   -2.0382   -2.1053    1.5650 C   0  0  0  0  0  0  0  0  0  0  0  0
   -2.7467   -1.3235    0.7005 C   0  0  0  0  0  0  0  0  0  0  0  0
   -1.9624   -0.2864    0.1162 C   0  0  0  0  0  0  0  0  0  0  0  0
   -2.4763    0.6876   -0.8460 C   0  0  0  0  0  0  0  0  0  0  0  0
   -3.6529    0.7347   -1.1864 O   0  0  0  0  0  0  0  0  0  0  0  0
   -1.5134    1.5304   -1.3321 O   0  0  0  0  0  0  0  0  0  0  0  0
   -2.0006    2.4699   -2.2930 C   0  0  0  0  0  0  0  0  0  0  0  0
   -4.1601   -1.7767    0.6108 C   0  0  0  0  0  0  0  0  0  0  0  0
   -4.1056   -3.1756    1.3020 C   0  0  0  0  0  0  0  0  0  0  0  0
   -2.8261   -3.1898    2.1930 C   0  0  0  0  0  0  0  0  0  0  0  0
    5.1964   -1.6290   -1.1433 H   0  0  0  0  0  0  0  0  0  0  0  0
    4.7205   -0.2516   -2.1536 H   0  0  0  0  0  0  0  0  0  0  0  0
    3.4967   -1.1389   -1.2374 H   0  0  0  0  0  0  0  0  0  0  0  0
    4.5764   -0.3431    0.9274 H   0  0  0  0  0  0  0  0  0  0  0  0
    5.7929    0.5003   -0.0161 H   0  0  0  0  0  0  0  0  0  0  0  0
    3.6702    4.4198   -0.6887 H   0  0  0  0  0  0  0  0  0  0  0  0
    0.1632    1.2631   -0.2999 H   0  0  0  0  0  0  0  0  0  0  0  0
   -2.7307    3.1426   -1.8324 H   0  0  0  0  0  0  0  0  0  0  0  0
   -2.4354    1.9514   -3.1533 H   0  0  0  0  0  0  0  0  0  0  0  0
   -1.1531    3.0656   -2.6430 H   0  0  0  0  0  0  0  0  0  0  0  0
   -4.5153   -1.8625   -0.4198 H   0  0  0  0  0  0  0  0  0  0  0  0
   -4.8151   -1.0991    1.1682 H   0  0  0  0  0  0  0  0  0  0  0  0
   -5.0134   -3.3923    1.8736 H   0  0  0  0  0  0  0  0  0  0  0  0
   -4.0106   -3.9504    0.5295 H   0  0  0  0  0  0  0  0  0  0  0  0
   -3.0769   -2.9398    3.2289 H   0  0  0  0  0  0  0  0  0  0  0  0
   -2.3300   -4.1635    2.1586 H   0  0  0  0  0  0  0  0  0  0  0  0
  1  2  1  0
  2  3  1  0
  3  4  1  0
  4  5  2  0
  5  6  1  0
  6  7  1  0
  6  8  2  0
  8  9  1  0
  9 10  2  0
  9 11  1  0
 11 12  1  0
 12 13  1  0
 13 14  1  0
 14 15  2  0
 15 16  1  0
 16 17  1  0
 17 18  2  0
 17 19  1  0
 19 20  1  0
 15 21  1  0
 21 22  1  0
 22 23  1  0
  8  3  1  0
 16 12  2  0
 23 14  1  0
  1 24  1  0
  1 25  1  0
  1 26  1  0
  2 27  1  0
  2 28  1  0
  5 29  1  0
 11 30  1  0
 20 31  1  0
 20 32  1  0
 20 33  1  0
 21 34  1  0
 21 35  1  0
 22 36  1  0
 22 37  1  0
 23 38  1  0
 23 39  1  0
M  END
$$$$
