
     RDKit          3D

 60 63  0  0  0  0  0  0  0  0999 V2000
   -5.5397    4.6088    0.9813 C   0  0  0  0  0  0  0  0  0  0  0  0
   -5.3505    3.7258   -0.1167 O   0  0  0  0  0  0  0  0  0  0  0  0
   -4.3058    2.8477   -0.0352 C   0  0  0  0  0  0  0  0  0  0  0  0
   -3.4604    2.6784    1.0615 C   0  0  0  0  0  0  0  0  0  0  0  0
   -2.4297    1.7322    1.0175 C   0  0  0  0  0  0  0  0  0  0  0  0
   -2.2372    0.9576   -0.1326 C   0  0  0  0  0  0  0  0  0  0  0  0
   -1.1812    0.0154   -0.1740 N   0  0  0  0  0  0  0  0  0  0  0  0
   -0.8744   -0.9488    0.7792 C   0  0  0  0  0  0  0  0  0  0  0  0
   -1.7627   -1.3666    1.9094 C   0  0  0  0  0  0  0  0  0  0  0  0
   -2.9561   -2.1485    1.4347 C   0  0  0  0  0  0  0  0  0  0  0  0
   -2.9903   -3.2436    0.5841 C   0  0  0  0  0  0  0  0  0  0  0  0
   -4.3373   -3.6328    0.4216 C   0  0  0  0  0  0  0  0  0  0  0  0
   -5.0995   -2.7802    1.1847 C   0  0  0  0  0  0  0  0  0  0  0  0
   -4.2585   -1.8953    1.8116 N   0  0  0  0  0  0  0  0  0  0  0  0
   -4.7105   -0.8777    2.7353 C   0  0  0  0  0  0  0  0  0  0  0  0
    0.2514   -1.5544    0.4456 N   0  0  0  0  0  0  0  0  0  0  0  0
    0.6577   -1.0658   -0.7626 N   0  0  0  0  0  0  0  0  0  0  0  0
   -0.2001   -0.1430   -1.1367 C   0  0  0  0  0  0  0  0  0  0  0  0
   -0.0064    0.8553   -2.5427 S   0  0  0  0  0  0  0  0  0  0  0  0
    1.7158    0.5013   -2.9957 C   0  0  0  0  0  0  0  0  0  0  0  0
    2.6729    1.2091   -2.0523 C   0  0  0  0  0  0  0  0  0  0  0  0
    3.0591    2.3593   -2.2480 O   0  0  0  0  0  0  0  0  0  0  0  0
    3.0732    0.4584   -0.9692 N   0  0  0  0  0  0  0  0  0  0  0  0
    3.9460    0.9884    0.0594 C   0  0  0  0  0  0  0  0  0  0  0  0
    5.4186    1.0457   -0.3609 C   0  0  0  0  0  0  0  0  0  0  0  0
    6.0282   -0.3215   -0.5655 C   0  0  0  0  0  0  0  0  0  0  0  0
    6.4551   -1.0832    0.5305 C   0  0  0  0  0  0  0  0  0  0  0  0
    7.0047   -2.3518    0.3385 C   0  0  0  0  0  0  0  0  0  0  0  0
    7.1310   -2.8711   -0.9488 C   0  0  0  0  0  0  0  0  0  0  0  0
    6.7079   -2.1226   -2.0452 C   0  0  0  0  0  0  0  0  0  0  0  0
    6.1577   -0.8543   -1.8552 C   0  0  0  0  0  0  0  0  0  0  0  0
   -3.0730    1.1312   -1.2376 C   0  0  0  0  0  0  0  0  0  0  0  0
   -4.1072    2.0688   -1.1784 C   0  0  0  0  0  0  0  0  0  0  0  0
   -5.7968    4.0559    1.8906 H   0  0  0  0  0  0  0  0  0  0  0  0
   -4.6589    5.2403    1.1380 H   0  0  0  0  0  0  0  0  0  0  0  0
   -6.3818    5.2651    0.7417 H   0  0  0  0  0  0  0  0  0  0  0  0
   -3.5705    3.2727    1.9627 H   0  0  0  0  0  0  0  0  0  0  0  0
   -1.7609    1.6549    1.8714 H   0  0  0  0  0  0  0  0  0  0  0  0
   -1.1852   -2.0150    2.5812 H   0  0  0  0  0  0  0  0  0  0  0  0
   -2.0511   -0.5053    2.5150 H   0  0  0  0  0  0  0  0  0  0  0  0
   -2.1257   -3.7064    0.1213 H   0  0  0  0  0  0  0  0  0  0  0  0
   -4.7112   -4.4477   -0.1843 H   0  0  0  0  0  0  0  0  0  0  0  0
   -6.1705   -2.7415    1.3355 H   0  0  0  0  0  0  0  0  0  0  0  0
   -5.7577   -1.0564    2.9927 H   0  0  0  0  0  0  0  0  0  0  0  0
   -4.1029   -0.9301    3.6417 H   0  0  0  0  0  0  0  0  0  0  0  0
   -4.6117    0.0942    2.2507 H   0  0  0  0  0  0  0  0  0  0  0  0
    1.8992    0.8800   -4.0067 H   0  0  0  0  0  0  0  0  0  0  0  0
    1.9130   -0.5757   -3.0197 H   0  0  0  0  0  0  0  0  0  0  0  0
    2.5748   -0.4092   -0.7706 H   0  0  0  0  0  0  0  0  0  0  0  0
    3.8146    0.3621    0.9482 H   0  0  0  0  0  0  0  0  0  0  0  0
    3.6009    1.9984    0.3077 H   0  0  0  0  0  0  0  0  0  0  0  0
    5.5352    1.6415   -1.2745 H   0  0  0  0  0  0  0  0  0  0  0  0
    5.9928    1.5699    0.4131 H   0  0  0  0  0  0  0  0  0  0  0  0
    6.3621   -0.6929    1.5410 H   0  0  0  0  0  0  0  0  0  0  0  0
    7.3333   -2.9360    1.1938 H   0  0  0  0  0  0  0  0  0  0  0  0
    7.5581   -3.8589   -1.0973 H   0  0  0  0  0  0  0  0  0  0  0  0
    6.8053   -2.5258   -3.0495 H   0  0  0  0  0  0  0  0  0  0  0  0
    5.8279   -0.2814   -2.7191 H   0  0  0  0  0  0  0  0  0  0  0  0
   -2.9653    0.5300   -2.1375 H   0  0  0  0  0  0  0  0  0  0  0  0
   -4.7656    2.1952   -2.0352 H   0  0  0  0  0  0  0  0  0  0  0  0
  1  2  1  0
  2  3  1  0
  3  4  2  0
  4  5  1  0
  5  6  2  0
  6  7  1  0
  7  8  1  0
  8  9  1  0
  9 10  1  0
 10 11  2  0
 11 12  1  0
 12 13  2  0
 13 14  1  0
 14 15  1  0
  8 16  2  0
 16 17  1  0
 17 18  2  0
 18 19  1  0
 19 20  1  0
 20 21  1  0
 21 22  2  0
 21 23  1  0
 23 24  1  0
 24 25  1  0
 25 26  1  0
 26 27  2  0
 27 28  1  0
 28 29  2  0
 29 30  1  0
 30 31  2  0
  6 32  1  0
 32 33  2  0
 33  3  1  0
 18  7  1  0
 31 26  1  0
 14 10  1  0
  1 34  1  0
  1 35  1  0
  1 36  1  0
  4 37  1  0
  5 38  1  0
  9 39  1  0
  9 40  1  0
 11 41  1  0
 12 42  1  0
 13 43  1  0
 15 44  1  0
 15 45  1  0
 15 46  1  0
 20 47  1  0
 20 48  1  0
 23 49  1  0
 24 50  1  0
 24 51  1  0
 25 52  1  0
 25 53  1  0
 27 54  1  0
 28 55  1  0
 29 56  1  0
 30 57  1  0
 31 58  1  0
 32 59  1  0
 33 60  1  0
M  END
$$$$
