
     RDKit          3D

 57 60  0  0  0  0  0  0  0  0999 V2000
   -0.3705    2.0315    5.1752 C   0  0  0  0  0  0  0  0  0  0  0  0
   -0.7032    1.2141    4.0612 O   0  0  0  0  0  0  0  0  0  0  0  0
   -0.0431    1.4237    2.8854 C   0  0  0  0  0  0  0  0  0  0  0  0
    1.1106    2.2106    2.7712 C   0  0  0  0  0  0  0  0  0  0  0  0
    1.7748    2.3388    1.5447 C   0  0  0  0  0  0  0  0  0  0  0  0
    1.3013    1.6640    0.4165 C   0  0  0  0  0  0  0  0  0  0  0  0
    1.9709    1.7765   -0.9060 C   0  0  0  0  0  0  0  0  0  0  0  0
    1.3057    1.6995   -1.9319 O   0  0  0  0  0  0  0  0  0  0  0  0
    3.3391    1.9358   -0.8814 N   0  0  0  0  0  0  0  0  0  0  0  0
    4.1199    1.8916   -2.0982 C   0  0  0  0  0  0  0  0  0  0  0  0
    4.7365    0.5282   -2.2851 C   0  0  0  0  0  0  0  0  0  0  0  0
    6.0723    0.2839   -1.8897 C   0  0  0  0  0  0  0  0  0  0  0  0
    6.6445   -0.9842   -2.0346 C   0  0  0  0  0  0  0  0  0  0  0  0
    5.8612   -1.9843   -2.5679 C   0  0  0  0  0  0  0  0  0  0  0  0
    4.5600   -1.7596   -2.9493 C   0  0  0  0  0  0  0  0  0  0  0  0
    3.9690   -0.5210   -2.8198 C   0  0  0  0  0  0  0  0  0  0  0  0
    3.9645   -2.8768   -3.4451 O   0  0  0  0  0  0  0  0  0  0  0  0
    5.0401   -3.8308   -3.3314 C   0  0  0  0  0  0  0  0  0  0  0  0
    6.2489   -3.2709   -2.7763 O   0  0  0  0  0  0  0  0  0  0  0  0
    0.1481    0.8833    0.5139 C   0  0  0  0  0  0  0  0  0  0  0  0
   -0.5258    0.7743    1.7406 C   0  0  0  0  0  0  0  0  0  0  0  0
   -2.0071   -0.2145    1.8086 S   0  0  0  0  0  6  0  0  0  0  0  0
   -2.9649    0.4129    2.6942 O   0  0  0  0  0  0  0  0  0  0  0  0
   -1.5661   -1.5809    1.9984 O   0  0  0  0  0  0  0  0  0  0  0  0
   -2.6486   -0.0768    0.2336 N   0  0  0  0  0  0  0  0  0  0  0  0
   -3.2330    1.2346   -0.1139 C   0  0  0  0  0  0  0  0  0  0  0  0
   -3.4322   -1.2386   -0.2517 C   0  0  0  0  0  0  0  0  0  0  0  0
   -4.8708   -1.3158    0.2032 C   0  0  0  0  0  0  0  0  0  0  0  0
   -5.9082   -0.8697   -0.6306 C   0  0  0  0  0  0  0  0  0  0  0  0
   -7.2373   -0.9358   -0.2088 C   0  0  0  0  0  0  0  0  0  0  0  0
   -7.5447   -1.4468    1.0503 C   0  0  0  0  0  0  0  0  0  0  0  0
   -6.5243   -1.8928    1.8874 C   0  0  0  0  0  0  0  0  0  0  0  0
   -5.1949   -1.8293    1.4665 C   0  0  0  0  0  0  0  0  0  0  0  0
   -0.4720    3.0947    4.9333 H   0  0  0  0  0  0  0  0  0  0  0  0
    0.6356    1.8030    5.5407 H   0  0  0  0  0  0  0  0  0  0  0  0
   -1.0764    1.8038    5.9797 H   0  0  0  0  0  0  0  0  0  0  0  0
    1.5264    2.7361    3.6259 H   0  0  0  0  0  0  0  0  0  0  0  0
    2.6490    2.9821    1.4857 H   0  0  0  0  0  0  0  0  0  0  0  0
    3.8335    1.7509   -0.0201 H   0  0  0  0  0  0  0  0  0  0  0  0
    3.5078    2.1553   -2.9680 H   0  0  0  0  0  0  0  0  0  0  0  0
    4.9015    2.6540   -2.0082 H   0  0  0  0  0  0  0  0  0  0  0  0
    6.6732    1.0869   -1.4673 H   0  0  0  0  0  0  0  0  0  0  0  0
    7.6687   -1.1781   -1.7368 H   0  0  0  0  0  0  0  0  0  0  0  0
    2.9360   -0.3680   -3.1195 H   0  0  0  0  0  0  0  0  0  0  0  0
    4.7102   -4.6568   -2.6908 H   0  0  0  0  0  0  0  0  0  0  0  0
    5.2638   -4.2273   -4.3286 H   0  0  0  0  0  0  0  0  0  0  0  0
   -0.2160    0.3571   -0.3668 H   0  0  0  0  0  0  0  0  0  0  0  0
   -4.1510    1.4275    0.4481 H   0  0  0  0  0  0  0  0  0  0  0  0
   -3.4621    1.2674   -1.1841 H   0  0  0  0  0  0  0  0  0  0  0  0
   -2.5237    2.0429    0.0835 H   0  0  0  0  0  0  0  0  0  0  0  0
   -3.4048   -1.2141   -1.3500 H   0  0  0  0  0  0  0  0  0  0  0  0
   -2.9214   -2.1768   -0.0038 H   0  0  0  0  0  0  0  0  0  0  0  0
   -5.6871   -0.4663   -1.6162 H   0  0  0  0  0  0  0  0  0  0  0  0
   -8.0332   -0.5871   -0.8614 H   0  0  0  0  0  0  0  0  0  0  0  0
   -8.5785   -1.4955    1.3814 H   0  0  0  0  0  0  0  0  0  0  0  0
   -6.7603   -2.2867    2.8726 H   0  0  0  0  0  0  0  0  0  0  0  0
   -4.4122   -2.1798    2.1371 H   0  0  0  0  0  0  0  0  0  0  0  0
  1  2  1  0
  2  3  1  0
  3  4  2  0
  4  5  1  0
  5  6  2  0
  6  7  1  0
  7  8  2  0
  7  9  1  0
  9 10  1  0
 10 11  1  0
 11 12  2  0
 12 13  1  0
 13 14  2  0
 14 15  1  0
 15 16  2  0
 15 17  1  0
 17 18  1  0
 18 19  1  0
  6 20  1  0
 20 21  2  0
 21 22  1  0
 22 23  2  0
 22 24  2  0
 22 25  1  0
 25 26  1  0
 25 27  1  0
 27 28  1  0
 28 29  2  0
 29 30  1  0
 30 31  2  0
 31 32  1  0
 32 33  2  0
 21  3  1  0
 33 28  1  0
 16 11  1  0
 19 14  1  0
  1 34  1  0
  1 35  1  0
  1 36  1  0
  4 37  1  0
  5 38  1  0
  9 39  1  0
 10 40  1  0
 10 41  1  0
 12 42  1  0
 13 43  1  0
 16 44  1  0
 18 45  1  0
 18 46  1  0
 20 47  1  0
 26 48  1  0
 26 49  1  0
 26 50  1  0
 27 51  1  0
 27 52  1  0
 29 53  1  0
 30 54  1  0
 31 55  1  0
 32 56  1  0
 33 57  1  0
M  END
$$$$
