
     RDKit          3D

 51 55  0  0  0  0  0  0  0  0999 V2000
    1.9122    0.6834   -2.2198 O   0  0  0  0  0  0  0  0  0  0  0  0
    1.2850   -0.2865   -1.8018 C   0  0  0  0  0  0  0  0  0  0  0  0
   -0.0826   -0.6489   -2.3943 C   0  0  0  0  0  0  0  0  0  0  0  0
   -1.1886   -0.2736   -1.5047 N   0  0  0  0  0  0  0  0  0  0  0  0
   -1.4597   -1.1073   -0.4254 C   0  0  0  0  0  0  0  0  0  0  0  0
   -0.8414   -2.1612   -0.2436 O   0  0  0  0  0  0  0  0  0  0  0  0
   -2.4692   -0.6339    0.5897 C   0  0  0  0  0  0  0  0  0  0  0  0
   -3.8801   -1.0326    0.1966 C   0  0  0  0  0  0  0  0  0  0  0  0
   -4.8716   -0.4819    1.1726 C   0  0  0  0  0  0  0  0  0  0  0  0
   -5.3227    0.7888    1.4768 C   0  0  0  0  0  0  0  0  0  0  0  0
   -6.2631    0.6417    2.5244 C   0  0  0  0  0  0  0  0  0  0  0  0
   -6.3225   -0.7032    2.7998 C   0  0  0  0  0  0  0  0  0  0  0  0
   -5.4788   -1.3919    1.9903 O   0  0  0  0  0  0  0  0  0  0  0  0
   -4.3647   -0.5905   -1.5166 S   0  0  0  0  0  0  0  0  0  0  0  0
   -3.3792    0.8782   -1.7962 C   0  0  0  0  0  0  0  0  0  0  0  0
   -4.0870    2.0406   -2.1414 C   0  0  0  0  0  0  0  0  0  0  0  0
   -3.4131    3.2010   -2.5173 C   0  0  0  0  0  0  0  0  0  0  0  0
   -2.0248    3.2034   -2.5762 C   0  0  0  0  0  0  0  0  0  0  0  0
   -1.3085    2.0494   -2.2508 C   0  0  0  0  0  0  0  0  0  0  0  0
   -1.9672    0.8780   -1.8410 C   0  0  0  0  0  0  0  0  0  0  0  0
    1.6723   -1.1407   -0.7831 N   0  0  0  0  0  0  0  0  0  0  0  0
    2.8604   -1.1100   -0.0284 C   0  0  0  0  0  0  0  0  0  0  0  0
    2.9771   -2.0510    1.0050 C   0  0  0  0  0  0  0  0  0  0  0  0
    4.1192   -2.0920    1.8090 C   0  0  0  0  0  0  0  0  0  0  0  0
    5.1537   -1.1901    1.5850 C   0  0  0  0  0  0  0  0  0  0  0  0
    5.0583   -0.2682    0.5390 C   0  0  0  0  0  0  0  0  0  0  0  0
    3.9101   -0.2178   -0.2559 C   0  0  0  0  0  0  0  0  0  0  0  0
    6.0551    0.6268    0.2380 O   0  0  0  0  0  0  0  0  0  0  0  0
    7.2905    0.2613    0.8622 C   0  0  0  0  0  0  0  0  0  0  0  0
    7.0647   -0.1083    2.3186 C   0  0  0  0  0  0  0  0  0  0  0  0
    6.2358   -1.2717    2.4229 O   0  0  0  0  0  0  0  0  0  0  0  0
   -0.1899   -0.1736   -3.3762 H   0  0  0  0  0  0  0  0  0  0  0  0
   -0.1117   -1.7312   -2.5726 H   0  0  0  0  0  0  0  0  0  0  0  0
   -2.3580    0.4440    0.7614 H   0  0  0  0  0  0  0  0  0  0  0  0
   -2.2084   -1.0932    1.5532 H   0  0  0  0  0  0  0  0  0  0  0  0
   -3.9446   -2.1280    0.2236 H   0  0  0  0  0  0  0  0  0  0  0  0
   -5.0129    1.7080    0.9990 H   0  0  0  0  0  0  0  0  0  0  0  0
   -6.8284    1.4190    3.0191 H   0  0  0  0  0  0  0  0  0  0  0  0
   -6.8845   -1.3000    3.5049 H   0  0  0  0  0  0  0  0  0  0  0  0
   -5.1757    2.0440   -2.1406 H   0  0  0  0  0  0  0  0  0  0  0  0
   -3.9723    4.0949   -2.7828 H   0  0  0  0  0  0  0  0  0  0  0  0
   -1.4928    4.1033   -2.8770 H   0  0  0  0  0  0  0  0  0  0  0  0
   -0.2227    2.1013   -2.2919 H   0  0  0  0  0  0  0  0  0  0  0  0
    0.9815   -1.8414   -0.5055 H   0  0  0  0  0  0  0  0  0  0  0  0
    2.1768   -2.7612    1.2015 H   0  0  0  0  0  0  0  0  0  0  0  0
    4.1950   -2.8189    2.6127 H   0  0  0  0  0  0  0  0  0  0  0  0
    3.8733    0.5186   -1.0514 H   0  0  0  0  0  0  0  0  0  0  0  0
    7.9655    1.1198    0.7897 H   0  0  0  0  0  0  0  0  0  0  0  0
    7.7334   -0.5703    0.3001 H   0  0  0  0  0  0  0  0  0  0  0  0
    8.0191   -0.3369    2.8032 H   0  0  0  0  0  0  0  0  0  0  0  0
    6.5876    0.7104    2.8717 H   0  0  0  0  0  0  0  0  0  0  0  0
  1  2  2  0
  2  3  1  0
  3  4  1  0
  4  5  1  0
  5  6  2  0
  5  7  1  0
  7  8  1  0
  8  9  1  0
  9 10  2  0
 10 11  1  0
 11 12  2  0
 12 13  1  0
  8 14  1  0
 14 15  1  0
 15 16  2  0
 16 17  1  0
 17 18  2  0
 18 19  1  0
 19 20  2  0
  2 21  1  0
 21 22  1  0
 22 23  2  0
 23 24  1  0
 24 25  2  0
 25 26  1  0
 26 27  2  0
 26 28  1  0
 28 29  1  0
 29 30  1  0
 30 31  1  0
 20  4  1  0
 27 22  1  0
 13  9  1  0
 20 15  1  0
 31 25  1  0
  3 32  1  0
  3 33  1  0
  7 34  1  0
  7 35  1  0
  8 36  1  0
 10 37  1  0
 11 38  1  0
 12 39  1  0
 16 40  1  0
 17 41  1  0
 18 42  1  0
 19 43  1  0
 21 44  1  0
 23 45  1  0
 24 46  1  0
 27 47  1  0
 29 48  1  0
 29 49  1  0
 30 50  1  0
 30 51  1  0
M  END
$$$$
