
     RDKit          3D

 52 54  0  0  0  0  0  0  0  0999 V2000
    5.9062   -3.2594   -4.0016 C   0  0  0  0  0  0  0  0  0  0  0  0
    5.4025   -2.1153   -3.1727 C   0  0  0  0  0  0  0  0  0  0  0  0
    6.1904   -1.5827   -2.1461 C   0  0  0  0  0  0  0  0  0  0  0  0
    5.7096   -0.5386   -1.3516 C   0  0  0  0  0  0  0  0  0  0  0  0
    4.4298   -0.0112   -1.5688 C   0  0  0  0  0  0  0  0  0  0  0  0
    3.8941    1.0943   -0.6978 C   0  0  0  0  0  0  0  0  0  0  0  0
    3.1133    0.5565    0.3856 N   0  0  0  0  0  0  0  0  0  0  0  0
    1.7422    0.4773    0.3387 C   0  0  0  0  0  0  0  0  0  0  0  0
    1.0175    0.9729   -0.5118 O   0  0  0  0  0  0  0  0  0  0  0  0
    1.1371   -0.3320    1.5087 C   0  0  0  0  0  0  0  0  0  0  0  0
    1.8368   -0.6456    2.4623 O   0  0  0  0  0  0  0  0  0  0  0  0
   -0.1950   -0.6311    1.3578 N   0  0  0  0  0  0  0  0  0  0  0  0
   -0.9628   -1.2386    2.4270 C   0  0  0  0  0  0  0  0  0  0  0  0
   -2.4569   -1.4395    2.1169 C   0  0  0  0  0  0  0  0  0  0  0  0
   -3.1108   -1.9700    3.2836 O   0  0  0  0  0  0  0  0  0  0  0  0
   -4.4360   -1.4364    3.2548 C   0  0  0  0  0  0  0  0  0  0  0  0
   -4.2341   -0.0180    2.7743 C   0  0  0  0  0  0  0  0  0  0  0  0
   -3.1117   -0.1370    1.8228 N   0  0  0  0  0  0  0  0  0  0  0  0
   -3.4573    0.0896    0.1867 S   0  0  0  0  0  6  0  0  0  0  0  0
   -4.6728   -0.6387   -0.1066 O   0  0  0  0  0  0  0  0  0  0  0  0
   -2.2363   -0.1541   -0.5509 O   0  0  0  0  0  0  0  0  0  0  0  0
   -3.7941    1.8296    0.1084 C   0  0  0  0  0  0  0  0  0  0  0  0
   -2.7269    2.7302    0.2002 C   0  0  0  0  0  0  0  0  0  0  0  0
   -2.9769    4.1015    0.1283 C   0  0  0  0  0  0  0  0  0  0  0  0
   -4.2846    4.5588   -0.0421 C   0  0  0  0  0  0  0  0  0  0  0  0
   -4.6209    6.4167   -0.1390 Br  0  0  0  0  0  0  0  0  0  0  0  0
   -5.3470    3.6587   -0.1473 C   0  0  0  0  0  0  0  0  0  0  0  0
   -5.1030    2.2855   -0.0768 C   0  0  0  0  0  0  0  0  0  0  0  0
    3.6330   -0.5633   -2.5807 C   0  0  0  0  0  0  0  0  0  0  0  0
    4.1146   -1.6070   -3.3740 C   0  0  0  0  0  0  0  0  0  0  0  0
    6.9940   -3.2086   -4.1167 H   0  0  0  0  0  0  0  0  0  0  0  0
    5.6446   -4.2097   -3.5263 H   0  0  0  0  0  0  0  0  0  0  0  0
    5.4725   -3.2348   -5.0067 H   0  0  0  0  0  0  0  0  0  0  0  0
    7.1848   -1.9808   -1.9558 H   0  0  0  0  0  0  0  0  0  0  0  0
    6.3413   -0.1433   -0.5593 H   0  0  0  0  0  0  0  0  0  0  0  0
    4.7170    1.6674   -0.2566 H   0  0  0  0  0  0  0  0  0  0  0  0
    3.2951    1.7914   -1.2949 H   0  0  0  0  0  0  0  0  0  0  0  0
    3.5713    0.0142    1.1120 H   0  0  0  0  0  0  0  0  0  0  0  0
   -0.6607   -0.2884    0.5117 H   0  0  0  0  0  0  0  0  0  0  0  0
   -0.5000   -2.2009    2.6773 H   0  0  0  0  0  0  0  0  0  0  0  0
   -0.8465   -0.6089    3.3186 H   0  0  0  0  0  0  0  0  0  0  0  0
   -2.5908   -2.1610    1.3025 H   0  0  0  0  0  0  0  0  0  0  0  0
   -4.8870   -1.4888    4.2490 H   0  0  0  0  0  0  0  0  0  0  0  0
   -5.0374   -2.0260    2.5539 H   0  0  0  0  0  0  0  0  0  0  0  0
   -5.1476    0.4086    2.3544 H   0  0  0  0  0  0  0  0  0  0  0  0
   -3.9033    0.6288    3.5948 H   0  0  0  0  0  0  0  0  0  0  0  0
   -1.7051    2.3727    0.3193 H   0  0  0  0  0  0  0  0  0  0  0  0
   -2.1475    4.8017    0.1977 H   0  0  0  0  0  0  0  0  0  0  0  0
   -6.3634    4.0171   -0.2916 H   0  0  0  0  0  0  0  0  0  0  0  0
   -5.9311    1.5866   -0.1725 H   0  0  0  0  0  0  0  0  0  0  0  0
    2.6257   -0.1856   -2.7504 H   0  0  0  0  0  0  0  0  0  0  0  0
    3.4740   -2.0223   -4.1489 H   0  0  0  0  0  0  0  0  0  0  0  0
  1  2  1  0
  2  3  2  0
  3  4  1  0
  4  5  2  0
  5  6  1  0
  6  7  1  0
  7  8  1  0
  8  9  2  0
  8 10  1  0
 10 11  2  0
 10 12  1  0
 12 13  1  0
 13 14  1  0
 14 15  1  0
 15 16  1  0
 16 17  1  0
 17 18  1  0
 18 19  1  0
 19 20  2  0
 19 21  2  0
 19 22  1  0
 22 23  2  0
 23 24  1  0
 24 25  2  0
 25 26  1  0
 25 27  1  0
 27 28  2  0
  5 29  1  0
 29 30  2  0
 30  2  1  0
 18 14  1  0
 28 22  1  0
  1 31  1  0
  1 32  1  0
  1 33  1  0
  3 34  1  0
  4 35  1  0
  6 36  1  0
  6 37  1  0
  7 38  1  0
 12 39  1  0
 13 40  1  0
 13 41  1  0
 14 42  1  0
 16 43  1  0
 16 44  1  0
 17 45  1  0
 17 46  1  0
 23 47  1  0
 24 48  1  0
 27 49  1  0
 28 50  1  0
 29 51  1  0
 30 52  1  0
M  END
$$$$
