
     RDKit          3D

 40 42  0  0  0  0  0  0  0  0999 V2000
   -5.7154    0.2737    2.0288 C   0  0  0  0  0  0  0  0  0  0  0  0
   -5.6229   -0.2343    0.5782 C   0  0  0  0  0  0  0  0  0  0  0  0
   -6.6535   -1.3712    0.4055 C   0  0  0  0  0  0  0  0  0  0  0  0
   -5.9988    0.8989   -0.3941 C   0  0  0  0  0  0  0  0  0  0  0  0
   -4.2250   -0.7560    0.2798 C   0  0  0  0  0  0  0  0  0  0  0  0
   -3.9441   -1.9960   -0.0760 N   0  0  0  0  0  0  0  0  0  0  0  0
   -2.5955   -2.1933   -0.2841 N   0  0  0  0  0  0  0  0  0  0  0  0
   -1.8971   -1.1000   -0.0803 C   0  0  0  0  0  0  0  0  0  0  0  0
   -0.5334   -1.0780   -0.2326 N   0  0  0  0  0  0  0  0  0  0  0  0
    0.3063    0.0044   -0.0472 C   0  0  0  0  0  0  0  0  0  0  0  0
   -0.0311    1.1347    0.2864 O   0  0  0  0  0  0  0  0  0  0  0  0
    1.7705   -0.3741   -0.3147 C   0  0  0  0  0  0  0  0  0  0  0  0
    2.6379    0.7312   -0.1196 O   0  0  0  0  0  0  0  0  0  0  0  0
    3.9750    0.5285   -0.3265 C   0  0  0  0  0  0  0  0  0  0  0  0
    4.5730   -0.6845   -0.7180 C   0  0  0  0  0  0  0  0  0  0  0  0
    5.9597   -0.7703   -0.8996 C   0  0  0  0  0  0  0  0  0  0  0  0
    6.7097    0.3646   -0.6833 C   0  0  0  0  0  0  0  0  0  0  0  0
    6.1299    1.5495   -0.3012 C   0  0  0  0  0  0  0  0  0  0  0  0
    4.7688    1.6622   -0.1153 C   0  0  0  0  0  0  0  0  0  0  0  0
    7.0421    2.5451   -0.1406 O   0  0  0  0  0  0  0  0  0  0  0  0
    8.2631    1.8499   -0.4668 C   0  0  0  0  0  0  0  0  0  0  0  0
    8.0593    0.4632   -0.8114 O   0  0  0  0  0  0  0  0  0  0  0  0
   -2.8242    0.2481    0.3781 S   0  0  0  0  0  0  0  0  0  0  0  0
   -6.7373    0.5858    2.2732 H   0  0  0  0  0  0  0  0  0  0  0  0
   -5.0636    1.1374    2.2023 H   0  0  0  0  0  0  0  0  0  0  0  0
   -5.4248   -0.5066    2.7421 H   0  0  0  0  0  0  0  0  0  0  0  0
   -7.6707   -1.0206    0.6151 H   0  0  0  0  0  0  0  0  0  0  0  0
   -6.6448   -1.7672   -0.6171 H   0  0  0  0  0  0  0  0  0  0  0  0
   -6.4454   -2.2064    1.0849 H   0  0  0  0  0  0  0  0  0  0  0  0
   -7.0303    1.2324   -0.2316 H   0  0  0  0  0  0  0  0  0  0  0  0
   -5.3526    1.7752   -0.2706 H   0  0  0  0  0  0  0  0  0  0  0  0
   -5.9139    0.5717   -1.4372 H   0  0  0  0  0  0  0  0  0  0  0  0
   -0.1551   -1.9734   -0.5094 H   0  0  0  0  0  0  0  0  0  0  0  0
    2.0308   -1.1823    0.3799 H   0  0  0  0  0  0  0  0  0  0  0  0
    1.8328   -0.7213   -1.3535 H   0  0  0  0  0  0  0  0  0  0  0  0
    3.9877   -1.5815   -0.8901 H   0  0  0  0  0  0  0  0  0  0  0  0
    6.4315   -1.6989   -1.2009 H   0  0  0  0  0  0  0  0  0  0  0  0
    4.3254    2.6050    0.1866 H   0  0  0  0  0  0  0  0  0  0  0  0
    8.9373    1.9011    0.3959 H   0  0  0  0  0  0  0  0  0  0  0  0
    8.7386    2.3553   -1.3152 H   0  0  0  0  0  0  0  0  0  0  0  0
  1  2  1  0
  2  3  1  0
  2  4  1  0
  2  5  1  0
  5  6  2  0
  6  7  1  0
  7  8  2  0
  8  9  1  0
  9 10  1  0
 10 11  2  0
 10 12  1  0
 12 13  1  0
 13 14  1  0
 14 15  2  0
 15 16  1  0
 16 17  2  0
 17 18  1  0
 18 19  2  0
 18 20  1  0
 20 21  1  0
 21 22  1  0
  8 23  1  0
 23  5  1  0
 19 14  1  0
 22 17  1  0
  1 24  1  0
  1 25  1  0
  1 26  1  0
  3 27  1  0
  3 28  1  0
  3 29  1  0
  4 30  1  0
  4 31  1  0
  4 32  1  0
  9 33  1  0
 12 34  1  0
 12 35  1  0
 15 36  1  0
 16 37  1  0
 19 38  1  0
 21 39  1  0
 21 40  1  0
M  END
$$$$
