
     RDKit          3D

 51 55  0  0  0  0  0  0  0  0999 V2000
    1.7016    2.4100   -1.7063 O   0  0  0  0  0  0  0  0  0  0  0  0
    1.2330    2.1407   -0.6032 C   0  0  0  0  0  0  0  0  0  0  0  0
   -0.1399    2.6813   -0.1833 C   0  0  0  0  0  0  0  0  0  0  0  0
   -1.1812    1.6470   -0.2279 N   0  0  0  0  0  0  0  0  0  0  0  0
   -1.2437    0.7490    0.8323 C   0  0  0  0  0  0  0  0  0  0  0  0
   -0.4959    0.8434    1.8112 O   0  0  0  0  0  0  0  0  0  0  0  0
   -2.1849   -0.4225    0.7073 C   0  0  0  0  0  0  0  0  0  0  0  0
   -3.5805   -0.0688    1.1885 C   0  0  0  0  0  0  0  0  0  0  0  0
   -4.5209   -1.2134    0.9763 C   0  0  0  0  0  0  0  0  0  0  0  0
   -4.9816   -1.8881   -0.1390 C   0  0  0  0  0  0  0  0  0  0  0  0
   -5.8612   -2.8917    0.3335 C   0  0  0  0  0  0  0  0  0  0  0  0
   -5.8771   -2.7739    1.7027 C   0  0  0  0  0  0  0  0  0  0  0  0
   -5.0634   -1.7639    2.1024 O   0  0  0  0  0  0  0  0  0  0  0  0
   -4.2889    1.4601    0.4635 S   0  0  0  0  0  0  0  0  0  0  0  0
   -3.4943    1.4900   -1.1406 C   0  0  0  0  0  0  0  0  0  0  0  0
   -4.3493    1.5018   -2.2538 C   0  0  0  0  0  0  0  0  0  0  0  0
   -3.8415    1.6704   -3.5405 C   0  0  0  0  0  0  0  0  0  0  0  0
   -2.4764    1.8535   -3.7241 C   0  0  0  0  0  0  0  0  0  0  0  0
   -1.6160    1.8569   -2.6238 C   0  0  0  0  0  0  0  0  0  0  0  0
   -2.1032    1.6577   -1.3214 C   0  0  0  0  0  0  0  0  0  0  0  0
    1.8157    1.3383    0.3634 N   0  0  0  0  0  0  0  0  0  0  0  0
    3.0576    0.6768    0.3071 C   0  0  0  0  0  0  0  0  0  0  0  0
    3.9778    0.8329   -0.7332 C   0  0  0  0  0  0  0  0  0  0  0  0
    5.1890    0.1320   -0.7206 C   0  0  0  0  0  0  0  0  0  0  0  0
    5.4842   -0.7312    0.3301 C   0  0  0  0  0  0  0  0  0  0  0  0
    4.5837   -0.8703    1.3886 C   0  0  0  0  0  0  0  0  0  0  0  0
    3.3719   -0.1787    1.3719 C   0  0  0  0  0  0  0  0  0  0  0  0
    4.8179   -1.6784    2.4726 O   0  0  0  0  0  0  0  0  0  0  0  0
    6.1968   -2.0584    2.5516 C   0  0  0  0  0  0  0  0  0  0  0  0
    6.7128   -2.4943    1.1898 C   0  0  0  0  0  0  0  0  0  0  0  0
    6.6771   -1.4034    0.2628 O   0  0  0  0  0  0  0  0  0  0  0  0
   -0.4058    3.5313   -0.8222 H   0  0  0  0  0  0  0  0  0  0  0  0
   -0.0629    3.0763    0.8378 H   0  0  0  0  0  0  0  0  0  0  0  0
   -2.1666   -0.8139   -0.3175 H   0  0  0  0  0  0  0  0  0  0  0  0
   -1.7783   -1.2394    1.3195 H   0  0  0  0  0  0  0  0  0  0  0  0
   -3.5268    0.1373    2.2654 H   0  0  0  0  0  0  0  0  0  0  0  0
   -4.7189   -1.6782   -1.1671 H   0  0  0  0  0  0  0  0  0  0  0  0
   -6.4163   -3.6118   -0.2511 H   0  0  0  0  0  0  0  0  0  0  0  0
   -6.3896   -3.3015    2.4955 H   0  0  0  0  0  0  0  0  0  0  0  0
   -5.4253    1.4012   -2.1237 H   0  0  0  0  0  0  0  0  0  0  0  0
   -4.5139    1.6780   -4.3948 H   0  0  0  0  0  0  0  0  0  0  0  0
   -2.0746    1.9943   -4.7252 H   0  0  0  0  0  0  0  0  0  0  0  0
   -0.5528    1.9834   -2.8163 H   0  0  0  0  0  0  0  0  0  0  0  0
    1.2406    1.1438    1.1861 H   0  0  0  0  0  0  0  0  0  0  0  0
    3.7859    1.4958   -1.5714 H   0  0  0  0  0  0  0  0  0  0  0  0
    5.8935    0.2556   -1.5388 H   0  0  0  0  0  0  0  0  0  0  0  0
    2.6812   -0.3147    2.2001 H   0  0  0  0  0  0  0  0  0  0  0  0
    6.7699   -1.2099    2.9457 H   0  0  0  0  0  0  0  0  0  0  0  0
    6.2727   -2.8833    3.2673 H   0  0  0  0  0  0  0  0  0  0  0  0
    7.7518   -2.8294    1.2680 H   0  0  0  0  0  0  0  0  0  0  0  0
    6.1173   -3.3199    0.7801 H   0  0  0  0  0  0  0  0  0  0  0  0
  1  2  2  0
  2  3  1  0
  3  4  1  0
  4  5  1  0
  5  6  2  0
  5  7  1  0
  7  8  1  0
  8  9  1  0
  9 10  2  0
 10 11  1  0
 11 12  2  0
 12 13  1  0
  8 14  1  0
 14 15  1  0
 15 16  2  0
 16 17  1  0
 17 18  2  0
 18 19  1  0
 19 20  2  0
  2 21  1  0
 21 22  1  0
 22 23  2  0
 23 24  1  0
 24 25  2  0
 25 26  1  0
 26 27  2  0
 26 28  1  0
 28 29  1  0
 29 30  1  0
 30 31  1  0
 20  4  1  0
 27 22  1  0
 13  9  1  0
 20 15  1  0
 31 25  1  0
  3 32  1  0
  3 33  1  0
  7 34  1  0
  7 35  1  0
  8 36  1  0
 10 37  1  0
 11 38  1  0
 12 39  1  0
 16 40  1  0
 17 41  1  0
 18 42  1  0
 19 43  1  0
 21 44  1  0
 23 45  1  0
 24 46  1  0
 27 47  1  0
 29 48  1  0
 29 49  1  0
 30 50  1  0
 30 51  1  0
M  END
$$$$
