
     RDKit          3D

 37 39  0  0  0  0  0  0  0  0999 V2000
   -0.4883   -1.5638    4.5553 C   0  0  0  0  0  0  0  0  0  0  0  0
    0.8009   -2.2705    3.4947 S   0  0  0  0  0  0  0  0  0  0  0  0
    0.4485   -1.4375    1.9530 C   0  0  0  0  0  0  0  0  0  0  0  0
    1.3230   -1.6012    0.9007 C   0  0  0  0  0  0  0  0  0  0  0  0
    1.0241   -0.9511   -0.2816 C   0  0  0  0  0  0  0  0  0  0  0  0
    1.8862   -1.0890   -1.3877 N   0  0  0  0  0  0  0  0  0  0  0  0
    1.3536   -0.5665   -2.6677 C   0  0  0  0  0  0  0  0  0  0  0  0
    1.8960    0.8425   -2.9428 C   0  0  0  0  0  0  0  0  0  0  0  0
    3.3306    0.8841   -3.0614 O   0  0  0  0  0  0  0  0  0  0  0  0
    3.9880   -0.1927   -2.3746 C   0  0  0  0  0  0  0  0  0  0  0  0
    3.2627   -0.6187   -1.0882 C   0  0  0  0  0  0  0  0  0  0  0  0
   -0.0864   -0.2055   -0.3901 N   0  0  0  0  0  0  0  0  0  0  0  0
   -0.8766   -0.0870    0.6935 C   0  0  0  0  0  0  0  0  0  0  0  0
   -2.1057    0.6988    0.5366 C   0  0  0  0  0  0  0  0  0  0  0  0
   -2.9204    0.4773   -0.5960 C   0  0  0  0  0  0  0  0  0  0  0  0
   -4.1110    1.1811   -0.7944 C   0  0  0  0  0  0  0  0  0  0  0  0
   -4.5166    2.1304    0.1361 C   0  0  0  0  0  0  0  0  0  0  0  0
   -3.7274    2.3787    1.2577 C   0  0  0  0  0  0  0  0  0  0  0  0
   -2.5306    1.6743    1.4574 C   0  0  0  0  0  0  0  0  0  0  0  0
   -1.6012    2.1146    2.8524 Cl  0  0  0  0  0  0  0  0  0  0  0  0
   -0.6597   -0.6905    1.8687 N   0  0  0  0  0  0  0  0  0  0  0  0
   -0.3861   -1.9810    5.5610 H   0  0  0  0  0  0  0  0  0  0  0  0
   -0.3809   -0.4779    4.6232 H   0  0  0  0  0  0  0  0  0  0  0  0
   -1.4843   -1.8161    4.1808 H   0  0  0  0  0  0  0  0  0  0  0  0
    2.1975   -2.2316    0.9904 H   0  0  0  0  0  0  0  0  0  0  0  0
    1.7011   -1.2413   -3.4602 H   0  0  0  0  0  0  0  0  0  0  0  0
    0.2588   -0.5873   -2.7212 H   0  0  0  0  0  0  0  0  0  0  0  0
    1.4831    1.2299   -3.8796 H   0  0  0  0  0  0  0  0  0  0  0  0
    1.6090    1.5352   -2.1438 H   0  0  0  0  0  0  0  0  0  0  0  0
    4.0754   -1.0360   -3.0699 H   0  0  0  0  0  0  0  0  0  0  0  0
    5.0037    0.1416   -2.1399 H   0  0  0  0  0  0  0  0  0  0  0  0
    3.2318    0.2475   -0.4130 H   0  0  0  0  0  0  0  0  0  0  0  0
    3.8289   -1.4212   -0.6023 H   0  0  0  0  0  0  0  0  0  0  0  0
   -2.6224   -0.2667   -1.3347 H   0  0  0  0  0  0  0  0  0  0  0  0
   -4.7184    0.9837   -1.6746 H   0  0  0  0  0  0  0  0  0  0  0  0
   -5.4419    2.6814   -0.0126 H   0  0  0  0  0  0  0  0  0  0  0  0
   -4.0451    3.1322    1.9749 H   0  0  0  0  0  0  0  0  0  0  0  0
  1  2  1  0
  2  3  1  0
  3  4  2  0
  4  5  1  0
  5  6  1  0
  6  7  1  0
  7  8  1  0
  8  9  1  0
  9 10  1  0
 10 11  1  0
  5 12  2  0
 12 13  1  0
 13 14  1  0
 14 15  2  0
 15 16  1  0
 16 17  2  0
 17 18  1  0
 18 19  2  0
 19 20  1  0
 13 21  2  0
 21  3  1  0
 11  6  1  0
 19 14  1  0
  1 22  1  0
  1 23  1  0
  1 24  1  0
  4 25  1  0
  7 26  1  0
  7 27  1  0
  8 28  1  0
  8 29  1  0
 10 30  1  0
 10 31  1  0
 11 32  1  0
 11 33  1  0
 15 34  1  0
 16 35  1  0
 17 36  1  0
 18 37  1  0
M  END
$$$$
