
     RDKit          3D

 43 45  0  0  0  0  0  0  0  0999 V2000
    6.1695   -2.4634    0.9069 C   0  0  0  0  0  0  0  0  0  0  0  0
    5.4794   -1.1649    0.6103 C   0  0  0  0  0  0  0  0  0  0  0  0
    6.2244   -0.0003    0.3991 C   0  0  0  0  0  0  0  0  0  0  0  0
    5.5877    1.2052    0.0832 C   0  0  0  0  0  0  0  0  0  0  0  0
    6.3866    2.4622   -0.1010 C   0  0  0  0  0  0  0  0  0  0  0  0
    4.1876    1.2422   -0.0075 C   0  0  0  0  0  0  0  0  0  0  0  0
    3.4278    0.0868    0.1809 C   0  0  0  0  0  0  0  0  0  0  0  0
    2.0194    0.0469    0.0976 N   0  0  0  0  0  0  0  0  0  0  0  0
    1.1697    1.0759   -0.2658 C   0  0  0  0  0  0  0  0  0  0  0  0
    1.4830    2.1954   -0.6498 O   0  0  0  0  0  0  0  0  0  0  0  0
   -0.2785    0.7332   -0.2043 C   0  0  0  0  0  0  0  0  0  0  0  0
   -1.1316    1.2350   -1.1903 C   0  0  0  0  0  0  0  0  0  0  0  0
   -2.4992    0.9344   -1.1636 C   0  0  0  0  0  0  0  0  0  0  0  0
   -3.0321    0.1417   -0.1450 C   0  0  0  0  0  0  0  0  0  0  0  0
   -4.3960   -0.2044   -0.0369 N   0  0  0  0  0  0  0  0  0  0  0  0
   -5.4271    0.1028   -0.9176 C   0  0  0  0  0  0  0  0  0  0  0  0
   -5.2724    0.7146   -1.9701 O   0  0  0  0  0  0  0  0  0  0  0  0
   -6.7353   -0.3818   -0.4895 C   0  0  0  0  0  0  0  0  0  0  0  0
   -7.2010   -1.0110    0.6555 C   0  0  0  0  0  0  0  0  0  0  0  0
   -8.5900   -1.2304    0.4742 C   0  0  0  0  0  0  0  0  0  0  0  0
   -8.8966   -0.7244   -0.7642 C   0  0  0  0  0  0  0  0  0  0  0  0
   -7.7893   -0.2106   -1.3523 O   0  0  0  0  0  0  0  0  0  0  0  0
   -2.1735   -0.3395    0.8547 C   0  0  0  0  0  0  0  0  0  0  0  0
   -0.8050   -0.0467    0.8298 C   0  0  0  0  0  0  0  0  0  0  0  0
    4.0839   -1.1138    0.4853 C   0  0  0  0  0  0  0  0  0  0  0  0
    7.1030   -2.2943    1.4539 H   0  0  0  0  0  0  0  0  0  0  0  0
    5.5402   -3.1063    1.5313 H   0  0  0  0  0  0  0  0  0  0  0  0
    6.3962   -2.9881   -0.0262 H   0  0  0  0  0  0  0  0  0  0  0  0
    7.3093   -0.0303    0.4807 H   0  0  0  0  0  0  0  0  0  0  0  0
    7.3929    2.2366   -0.4693 H   0  0  0  0  0  0  0  0  0  0  0  0
    5.9130    3.1212   -0.8364 H   0  0  0  0  0  0  0  0  0  0  0  0
    6.4705    2.9947    0.8513 H   0  0  0  0  0  0  0  0  0  0  0  0
    3.7126    2.1934   -0.2292 H   0  0  0  0  0  0  0  0  0  0  0  0
    1.5999   -0.8595    0.2542 H   0  0  0  0  0  0  0  0  0  0  0  0
   -0.7368    1.8634   -1.9871 H   0  0  0  0  0  0  0  0  0  0  0  0
   -3.1173    1.3494   -1.9542 H   0  0  0  0  0  0  0  0  0  0  0  0
   -4.6414   -0.7607    0.7678 H   0  0  0  0  0  0  0  0  0  0  0  0
   -6.6255   -1.2799    1.5290 H   0  0  0  0  0  0  0  0  0  0  0  0
   -9.2828   -1.6957    1.1616 H   0  0  0  0  0  0  0  0  0  0  0  0
   -9.8075   -0.6534   -1.3429 H   0  0  0  0  0  0  0  0  0  0  0  0
   -2.5573   -0.9432    1.6736 H   0  0  0  0  0  0  0  0  0  0  0  0
   -0.1724   -0.4054    1.6375 H   0  0  0  0  0  0  0  0  0  0  0  0
    3.5118   -2.0269    0.6301 H   0  0  0  0  0  0  0  0  0  0  0  0
  1  2  1  0
  2  3  2  0
  3  4  1  0
  4  5  1  0
  4  6  2  0
  6  7  1  0
  7  8  1  0
  8  9  1  0
  9 10  2  0
  9 11  1  0
 11 12  2  0
 12 13  1  0
 13 14  2  0
 14 15  1  0
 15 16  1  0
 16 17  2  0
 16 18  1  0
 18 19  2  0
 19 20  1  0
 20 21  2  0
 21 22  1  0
 14 23  1  0
 23 24  2  0
  7 25  2  0
 25  2  1  0
 24 11  1  0
 22 18  1  0
  1 26  1  0
  1 27  1  0
  1 28  1  0
  3 29  1  0
  5 30  1  0
  5 31  1  0
  5 32  1  0
  6 33  1  0
  8 34  1  0
 12 35  1  0
 13 36  1  0
 15 37  1  0
 19 38  1  0
 20 39  1  0
 21 40  1  0
 23 41  1  0
 24 42  1  0
 25 43  1  0
M  END
$$$$
