
     RDKit          3D

 55 60  0  0  0  0  0  0  0  0999 V2000
    4.5391   -1.8720    0.2235 O   0  0  0  0  0  0  0  0  0  0  0  0
    3.8238   -1.0901    0.8480 C   0  0  0  0  0  0  0  0  0  0  0  0
    4.2965   -0.5041    2.0942 C   0  0  0  0  0  0  0  0  0  0  0  0
    3.6092   -0.1568    3.2955 C   0  0  0  0  0  0  0  0  0  0  0  0
    4.5568    0.3254    4.1679 C   0  0  0  0  0  0  0  0  0  0  0  0
    5.7871    0.2807    3.5998 O   0  0  0  0  0  0  0  0  0  0  0  0
    5.6274   -0.2415    2.3579 C   0  0  0  0  0  0  0  0  0  0  0  0
    2.5420   -0.7582    0.3942 N   0  0  0  0  0  0  0  0  0  0  0  0
    2.0200   -1.5230   -0.7336 C   0  0  0  0  0  0  0  0  0  0  0  0
    0.5168   -1.3278   -0.8895 C   0  0  0  0  0  0  0  0  0  0  0  0
    0.1870    0.1497   -1.2162 C   0  0  0  0  0  0  0  0  0  0  0  0
    1.0976    1.1066   -0.3909 C   0  0  0  0  0  0  0  0  0  0  0  0
    1.8069    0.4393    0.7880 C   0  0  0  0  0  0  0  0  0  0  0  0
    0.5861    0.2786   -2.6134 O   0  0  0  0  0  0  0  0  0  0  0  0
    0.0928    1.3349   -3.3203 C   0  0  0  0  0  0  0  0  0  0  0  0
    0.7122    1.5963   -4.5439 C   0  0  0  0  0  0  0  0  0  0  0  0
    0.2886    2.6728   -5.3251 C   0  0  0  0  0  0  0  0  0  0  0  0
   -0.7540    3.4781   -4.8781 C   0  0  0  0  0  0  0  0  0  0  0  0
   -1.1541    4.5128   -5.6277 F   0  0  0  0  0  0  0  0  0  0  0  0
   -1.3879    3.2233   -3.6692 C   0  0  0  0  0  0  0  0  0  0  0  0
   -0.9635    2.1375   -2.8991 C   0  0  0  0  0  0  0  0  0  0  0  0
   -1.6263    1.8199   -1.6266 C   0  0  0  0  0  0  0  0  0  0  0  0
   -2.3443    2.6604   -1.0918 O   0  0  0  0  0  0  0  0  0  0  0  0
   -1.3344    0.4427   -1.0486 C   0  0  0  0  0  0  0  0  0  0  0  0
   -1.8978    0.2910    0.3579 C   0  0  0  0  0  0  0  0  0  0  0  0
   -2.6807   -0.9634    0.1856 C   0  0  0  0  0  0  0  0  0  0  0  0
   -3.2940   -1.6696    1.3354 C   0  0  0  0  0  0  0  0  0  0  0  0
   -3.2944   -1.1134    2.6203 C   0  0  0  0  0  0  0  0  0  0  0  0
   -3.8777   -1.8101    3.6841 C   0  0  0  0  0  0  0  0  0  0  0  0
   -4.4598   -3.0579    3.4646 C   0  0  0  0  0  0  0  0  0  0  0  0
   -5.1736   -3.9096    4.7769 Cl  0  0  0  0  0  0  0  0  0  0  0  0
   -4.4675   -3.6166    2.1888 C   0  0  0  0  0  0  0  0  0  0  0  0
   -3.8862   -2.9223    1.1242 C   0  0  0  0  0  0  0  0  0  0  0  0
   -2.7752   -1.3863   -1.0323 N   0  0  0  0  0  0  0  0  0  0  0  0
   -2.0998   -0.4685   -1.8631 O   0  0  0  0  0  0  0  0  0  0  0  0
    2.5561   -0.2638    3.5101 H   0  0  0  0  0  0  0  0  0  0  0  0
    4.5235    0.7032    5.1806 H   0  0  0  0  0  0  0  0  0  0  0  0
    6.5343   -0.3658    1.7811 H   0  0  0  0  0  0  0  0  0  0  0  0
    2.5598   -1.2082   -1.6347 H   0  0  0  0  0  0  0  0  0  0  0  0
    2.2433   -2.5845   -0.5738 H   0  0  0  0  0  0  0  0  0  0  0  0
    0.1617   -1.9846   -1.6931 H   0  0  0  0  0  0  0  0  0  0  0  0
    0.0308   -1.6485    0.0385 H   0  0  0  0  0  0  0  0  0  0  0  0
    1.8711    1.5330   -1.0444 H   0  0  0  0  0  0  0  0  0  0  0  0
    0.5269    1.9613   -0.0096 H   0  0  0  0  0  0  0  0  0  0  0  0
    1.0819    0.1368    1.5502 H   0  0  0  0  0  0  0  0  0  0  0  0
    2.4827    1.1717    1.2390 H   0  0  0  0  0  0  0  0  0  0  0  0
    1.5293    0.9658   -4.8868 H   0  0  0  0  0  0  0  0  0  0  0  0
    0.7649    2.8886   -6.2768 H   0  0  0  0  0  0  0  0  0  0  0  0
   -2.2066    3.8595   -3.3462 H   0  0  0  0  0  0  0  0  0  0  0  0
   -2.5823    1.0889    0.6592 H   0  0  0  0  0  0  0  0  0  0  0  0
   -1.1317    0.1798    1.1262 H   0  0  0  0  0  0  0  0  0  0  0  0
   -2.8607   -0.1378    2.8196 H   0  0  0  0  0  0  0  0  0  0  0  0
   -3.8796   -1.3731    4.6798 H   0  0  0  0  0  0  0  0  0  0  0  0
   -4.9239   -4.5875    2.0133 H   0  0  0  0  0  0  0  0  0  0  0  0
   -3.9006   -3.3671    0.1303 H   0  0  0  0  0  0  0  0  0  0  0  0
  1  2  2  0
  2  3  1  0
  3  4  1  0
  4  5  2  0
  5  6  1  0
  6  7  1  0
  2  8  1  0
  8  9  1  0
  9 10  1  0
 10 11  1  0
 11 12  1  0
 12 13  1  0
 11 14  1  0
 14 15  1  0
 15 16  2  0
 16 17  1  0
 17 18  2  0
 18 19  1  0
 18 20  1  0
 20 21  2  0
 21 22  1  0
 22 23  2  0
 22 24  1  0
 24 25  1  0
 25 26  1  0
 26 27  1  0
 27 28  2  0
 28 29  1  0
 29 30  2  0
 30 31  1  0
 30 32  1  0
 32 33  2  0
 26 34  2  0
 34 35  1  0
  7  3  2  0
 13  8  1  0
 21 15  1  0
 35 24  1  0
 24 11  1  0
 33 27  1  0
  4 36  1  0
  5 37  1  0
  7 38  1  0
  9 39  1  0
  9 40  1  0
 10 41  1  0
 10 42  1  0
 12 43  1  0
 12 44  1  0
 13 45  1  0
 13 46  1  0
 16 47  1  0
 17 48  1  0
 20 49  1  0
 25 50  1  0
 25 51  1  0
 28 52  1  0
 29 53  1  0
 32 54  1  0
 33 55  1  0
M  END
$$$$
