
     RDKit          3D

 57 59  0  0  0  0  0  0  0  0999 V2000
   -9.7658    1.7621   -1.1728 C   0  0  0  0  0  0  0  0  0  0  0  0
   -8.8638    1.0507   -2.0109 O   0  0  0  0  0  0  0  0  0  0  0  0
   -7.5497    1.0319   -1.6332 C   0  0  0  0  0  0  0  0  0  0  0  0
   -6.6974    0.3726   -2.5259 C   0  0  0  0  0  0  0  0  0  0  0  0
   -5.3293    0.2778   -2.2677 C   0  0  0  0  0  0  0  0  0  0  0  0
   -4.8148    0.8429   -1.0997 C   0  0  0  0  0  0  0  0  0  0  0  0
   -3.0751    0.7214   -0.7772 S   0  0  0  0  0  6  0  0  0  0  0  0
   -2.3772    1.0920   -1.9882 O   0  0  0  0  0  0  0  0  0  0  0  0
   -2.7948    1.3742    0.4834 O   0  0  0  0  0  0  0  0  0  0  0  0
   -2.8616   -0.9204   -0.5445 N   0  0  0  0  0  0  0  0  0  0  0  0
   -3.5455   -1.5895    0.5725 C   0  0  0  0  0  0  0  0  0  0  0  0
   -2.5053   -2.5420    1.1275 C   0  0  0  0  0  0  0  0  0  0  0  0
   -1.5752   -2.7326    0.0574 O   0  0  0  0  0  0  0  0  0  0  0  0
   -1.4958   -1.4630   -0.6221 C   0  0  0  0  0  0  0  0  0  0  0  0
   -0.3892   -0.5956    0.0287 C   0  0  0  0  0  0  0  0  0  0  0  0
    0.9080   -1.2519    0.0440 N   0  0  0  0  0  0  0  0  0  0  0  0
    1.9320   -0.8275    0.8570 C   0  0  0  0  0  0  0  0  0  0  0  0
    1.8582    0.0405    1.7150 O   0  0  0  0  0  0  0  0  0  0  0  0
    3.2691   -1.5598    0.5992 C   0  0  0  0  0  0  0  0  0  0  0  0
    3.3576   -2.3648   -0.3181 O   0  0  0  0  0  0  0  0  0  0  0  0
    4.2677   -1.1985    1.4692 N   0  0  0  0  0  0  0  0  0  0  0  0
    5.6388   -1.5973    1.2811 C   0  0  0  0  0  0  0  0  0  0  0  0
    6.4007   -0.5643    0.4882 C   0  0  0  0  0  0  0  0  0  0  0  0
    6.5415   -0.7346   -0.9001 C   0  0  0  0  0  0  0  0  0  0  0  0
    7.2249    0.2073   -1.6658 C   0  0  0  0  0  0  0  0  0  0  0  0
    7.7672    1.3327   -1.0539 C   0  0  0  0  0  0  0  0  0  0  0  0
    7.6209    1.5238    0.3230 C   0  0  0  0  0  0  0  0  0  0  0  0
    6.9344    0.5853    1.1010 C   0  0  0  0  0  0  0  0  0  0  0  0
    6.7250    0.6938    2.4518 O   0  0  0  0  0  0  0  0  0  0  0  0
    7.2125    1.8638    3.0968 C   0  0  0  0  0  0  0  0  0  0  0  0
   -5.6523    1.5073   -0.2010 C   0  0  0  0  0  0  0  0  0  0  0  0
   -7.0221    1.5984   -0.4699 C   0  0  0  0  0  0  0  0  0  0  0  0
   -9.4923    2.8203   -1.1056 H   0  0  0  0  0  0  0  0  0  0  0  0
   -9.8249    1.3045   -0.1799 H   0  0  0  0  0  0  0  0  0  0  0  0
  -10.7599    1.7033   -1.6260 H   0  0  0  0  0  0  0  0  0  0  0  0
   -7.1060   -0.0641   -3.4350 H   0  0  0  0  0  0  0  0  0  0  0  0
   -4.6769   -0.2307   -2.9736 H   0  0  0  0  0  0  0  0  0  0  0  0
   -4.3994   -2.1445    0.1700 H   0  0  0  0  0  0  0  0  0  0  0  0
   -3.9090   -0.9097    1.3473 H   0  0  0  0  0  0  0  0  0  0  0  0
   -1.9774   -2.1098    1.9846 H   0  0  0  0  0  0  0  0  0  0  0  0
   -2.9313   -3.5026    1.4302 H   0  0  0  0  0  0  0  0  0  0  0  0
   -1.2397   -1.6739   -1.6658 H   0  0  0  0  0  0  0  0  0  0  0  0
   -0.2545    0.3455   -0.5136 H   0  0  0  0  0  0  0  0  0  0  0  0
   -0.6461   -0.3452    1.0642 H   0  0  0  0  0  0  0  0  0  0  0  0
    1.1575   -1.9240   -0.6784 H   0  0  0  0  0  0  0  0  0  0  0  0
    4.0738   -0.4096    2.0796 H   0  0  0  0  0  0  0  0  0  0  0  0
    5.6758   -2.5701    0.7768 H   0  0  0  0  0  0  0  0  0  0  0  0
    6.0879   -1.7390    2.2701 H   0  0  0  0  0  0  0  0  0  0  0  0
    6.1084   -1.6057   -1.3895 H   0  0  0  0  0  0  0  0  0  0  0  0
    7.3294    0.0641   -2.7381 H   0  0  0  0  0  0  0  0  0  0  0  0
    8.3002    2.0694   -1.6499 H   0  0  0  0  0  0  0  0  0  0  0  0
    8.0532    2.4199    0.7552 H   0  0  0  0  0  0  0  0  0  0  0  0
    8.3042    1.9207    3.0365 H   0  0  0  0  0  0  0  0  0  0  0  0
    6.9408    1.7989    4.1550 H   0  0  0  0  0  0  0  0  0  0  0  0
    6.7439    2.7655    2.6885 H   0  0  0  0  0  0  0  0  0  0  0  0
   -5.2524    1.9594    0.7043 H   0  0  0  0  0  0  0  0  0  0  0  0
   -7.6487    2.1206    0.2461 H   0  0  0  0  0  0  0  0  0  0  0  0
  1  2  1  0
  2  3  1  0
  3  4  2  0
  4  5  1  0
  5  6  2  0
  6  7  1  0
  7  8  2  0
  7  9  2  0
  7 10  1  0
 10 11  1  0
 11 12  1  0
 12 13  1  0
 13 14  1  0
 14 15  1  0
 15 16  1  0
 16 17  1  0
 17 18  2  0
 17 19  1  0
 19 20  2  0
 19 21  1  0
 21 22  1  0
 22 23  1  0
 23 24  2  0
 24 25  1  0
 25 26  2  0
 26 27  1  0
 27 28  2  0
 28 29  1  0
 29 30  1  0
  6 31  1  0
 31 32  2  0
 32  3  1  0
 14 10  1  0
 28 23  1  0
  1 33  1  0
  1 34  1  0
  1 35  1  0
  4 36  1  0
  5 37  1  0
 11 38  1  0
 11 39  1  0
 12 40  1  0
 12 41  1  0
 14 42  1  0
 15 43  1  0
 15 44  1  0
 16 45  1  0
 21 46  1  0
 22 47  1  0
 22 48  1  0
 24 49  1  0
 25 50  1  0
 26 51  1  0
 27 52  1  0
 30 53  1  0
 30 54  1  0
 30 55  1  0
 31 56  1  0
 32 57  1  0
M  END
$$$$
