
     RDKit          3D

 48 50  0  0  0  0  0  0  0  0999 V2000
   -4.6199   -1.6166    1.3320 C   0  0  0  0  0  0  0  0  0  0  0  0
   -4.7691   -1.4987   -0.0817 O   0  0  0  0  0  0  0  0  0  0  0  0
   -4.0100   -0.4689   -0.5667 C   0  0  0  0  0  0  0  0  0  0  0  0
   -2.6201   -0.5782   -0.6024 C   0  0  0  0  0  0  0  0  0  0  0  0
   -1.8458    0.4760   -1.0991 C   0  0  0  0  0  0  0  0  0  0  0  0
   -0.3780    0.3991   -1.1664 C   0  0  0  0  0  0  0  0  0  0  0  0
    0.4633    0.0870   -0.1611 C   0  0  0  0  0  0  0  0  0  0  0  0
    0.0193   -0.2086    1.1527 C   0  0  0  0  0  0  0  0  0  0  0  0
   -0.2813   -0.4818    2.2407 N   0  0  0  0  0  0  0  0  0  0  0  0
    1.9408    0.1049   -0.4724 C   0  0  0  0  0  0  0  0  0  0  0  0
    2.3229    0.5246   -1.5614 O   0  0  0  0  0  0  0  0  0  0  0  0
    2.7587   -0.3704    0.5419 N   0  0  0  0  0  0  0  0  0  0  0  0
    4.1808   -0.4577    0.5532 C   0  0  0  0  0  0  0  0  0  0  0  0
    4.9533    0.0371   -0.5013 C   0  0  0  0  0  0  0  0  0  0  0  0
    6.3413   -0.0417   -0.4627 C   0  0  0  0  0  0  0  0  0  0  0  0
    6.9731   -0.6139    0.6354 C   0  0  0  0  0  0  0  0  0  0  0  0
    6.2542   -1.1258    1.6969 C   0  0  0  0  0  0  0  0  0  0  0  0
    6.9596   -1.6714    2.7039 N   0  0  0  0  0  0  0  0  0  0  0  0
    6.2900   -2.1880    3.7532 C   0  0  0  0  0  0  0  0  0  0  0  0
    4.9179   -2.1903    3.8509 C   0  0  0  0  0  0  0  0  0  0  0  0
    4.1903   -1.6223    2.8089 C   0  0  0  0  0  0  0  0  0  0  0  0
    4.8384   -1.0609    1.6776 C   0  0  0  0  0  0  0  0  0  0  0  0
   -2.4838    1.6216   -1.6050 C   0  0  0  0  0  0  0  0  0  0  0  0
   -3.8806    1.7248   -1.6076 C   0  0  0  0  0  0  0  0  0  0  0  0
   -4.5912    2.7984   -2.0836 O   0  0  0  0  0  0  0  0  0  0  0  0
   -3.8566    3.8580   -2.6927 C   0  0  0  0  0  0  0  0  0  0  0  0
   -4.6398    0.6610   -1.0960 C   0  0  0  0  0  0  0  0  0  0  0  0
   -6.0116    0.7610   -1.0542 O   0  0  0  0  0  0  0  0  0  0  0  0
   -6.5739    0.1594   -2.2230 C   0  0  0  0  0  0  0  0  0  0  0  0
   -5.4111   -2.2785    1.6980 H   0  0  0  0  0  0  0  0  0  0  0  0
   -3.6569   -2.0763    1.5828 H   0  0  0  0  0  0  0  0  0  0  0  0
   -4.7280   -0.6480    1.8344 H   0  0  0  0  0  0  0  0  0  0  0  0
   -2.1585   -1.4914   -0.2500 H   0  0  0  0  0  0  0  0  0  0  0  0
    0.0263    0.6396   -2.1517 H   0  0  0  0  0  0  0  0  0  0  0  0
    2.3130   -0.7198    1.3756 H   0  0  0  0  0  0  0  0  0  0  0  0
    4.5143    0.5084   -1.3769 H   0  0  0  0  0  0  0  0  0  0  0  0
    6.9278    0.3423   -1.2897 H   0  0  0  0  0  0  0  0  0  0  0  0
    8.0601   -0.6765    0.6571 H   0  0  0  0  0  0  0  0  0  0  0  0
    6.9097   -2.6211    4.5331 H   0  0  0  0  0  0  0  0  0  0  0  0
    4.4221   -2.6212    4.7141 H   0  0  0  0  0  0  0  0  0  0  0  0
    3.1101   -1.6407    2.9048 H   0  0  0  0  0  0  0  0  0  0  0  0
   -1.8679    2.4292   -1.9934 H   0  0  0  0  0  0  0  0  0  0  0  0
   -3.2738    3.5002   -3.5495 H   0  0  0  0  0  0  0  0  0  0  0  0
   -3.2186    4.3649   -1.9625 H   0  0  0  0  0  0  0  0  0  0  0  0
   -4.5735    4.5922   -3.0659 H   0  0  0  0  0  0  0  0  0  0  0  0
   -7.6552    0.3365   -2.2050 H   0  0  0  0  0  0  0  0  0  0  0  0
   -6.1743    0.6107   -3.1370 H   0  0  0  0  0  0  0  0  0  0  0  0
   -6.4078   -0.9260   -2.2286 H   0  0  0  0  0  0  0  0  0  0  0  0
  1  2  1  0
  2  3  1  0
  3  4  2  0
  4  5  1  0
  5  6  1  0
  6  7  2  3
  7  8  1  0
  8  9  3  0
  7 10  1  0
 10 11  2  0
 10 12  1  0
 12 13  1  0
 13 14  2  0
 14 15  1  0
 15 16  2  0
 16 17  1  0
 17 18  2  0
 18 19  1  0
 19 20  2  0
 20 21  1  0
 21 22  2  0
  5 23  2  0
 23 24  1  0
 24 25  1  0
 25 26  1  0
 24 27  2  0
 27 28  1  0
 28 29  1  0
 27  3  1  0
 22 13  1  0
 22 17  1  0
  1 30  1  0
  1 31  1  0
  1 32  1  0
  4 33  1  0
  6 34  1  0
 12 35  1  0
 14 36  1  0
 15 37  1  0
 16 38  1  0
 19 39  1  0
 20 40  1  0
 21 41  1  0
 23 42  1  0
 26 43  1  0
 26 44  1  0
 26 45  1  0
 29 46  1  0
 29 47  1  0
 29 48  1  0
M  END
$$$$
