
     RDKit          3D

 61 63  0  0  0  0  0  0  0  0999 V2000
   -9.3673   -1.5820   -1.2756 C   0  0  0  0  0  0  0  0  0  0  0  0
   -8.7291   -1.8451   -0.0309 O   0  0  0  0  0  0  0  0  0  0  0  0
   -7.3626   -1.7596   -0.0063 C   0  0  0  0  0  0  0  0  0  0  0  0
   -6.5388   -1.4269   -1.0833 C   0  0  0  0  0  0  0  0  0  0  0  0
   -5.1499   -1.3730   -0.9161 C   0  0  0  0  0  0  0  0  0  0  0  0
   -4.5652   -1.6594    0.3264 C   0  0  0  0  0  0  0  0  0  0  0  0
   -3.0744   -1.5646    0.5025 C   0  0  0  0  0  0  0  0  0  0  0  0
   -2.6922   -0.2261    0.8690 N   0  0  0  0  0  0  0  0  0  0  0  0
   -1.4408    0.2697    0.6035 C   0  0  0  0  0  0  0  0  0  0  0  0
   -0.5716   -0.2711   -0.0690 O   0  0  0  0  0  0  0  0  0  0  0  0
   -1.1662    1.6471    1.2487 C   0  0  0  0  0  0  0  0  0  0  0  0
   -1.9188    2.0771    2.1102 O   0  0  0  0  0  0  0  0  0  0  0  0
   -0.0439    2.2609    0.7433 N   0  0  0  0  0  0  0  0  0  0  0  0
    0.6261    3.3562    1.4340 C   0  0  0  0  0  0  0  0  0  0  0  0
    1.8322    2.8595    2.2609 C   0  0  0  0  0  0  0  0  0  0  0  0
    1.3761    2.1526    3.4272 O   0  0  0  0  0  0  0  0  0  0  0  0
    2.4297    1.2405    3.7408 C   0  0  0  0  0  0  0  0  0  0  0  0
    2.8770    0.7317    2.3877 C   0  0  0  0  0  0  0  0  0  0  0  0
    2.6321    1.8752    1.4852 N   0  0  0  0  0  0  0  0  0  0  0  0
    3.9516    2.5419    0.6803 S   0  0  0  0  0  6  0  0  0  0  0  0
    3.4663    3.6250   -0.1447 O   0  0  0  0  0  0  0  0  0  0  0  0
    4.9932    2.7465    1.6630 O   0  0  0  0  0  0  0  0  0  0  0  0
    4.4341    1.2227   -0.4018 C   0  0  0  0  0  0  0  0  0  0  0  0
    5.7085    0.6653   -0.3076 C   0  0  0  0  0  0  0  0  0  0  0  0
    6.0577   -0.3918   -1.1512 C   0  0  0  0  0  0  0  0  0  0  0  0
    5.1364   -0.8927   -2.0808 C   0  0  0  0  0  0  0  0  0  0  0  0
    5.3887   -1.9385   -2.9334 O   0  0  0  0  0  0  0  0  0  0  0  0
    6.7030   -2.4759   -2.9504 C   0  0  0  0  0  0  0  0  0  0  0  0
    3.8473   -0.3226   -2.1675 C   0  0  0  0  0  0  0  0  0  0  0  0
    3.0070   -0.8700   -3.1047 O   0  0  0  0  0  0  0  0  0  0  0  0
    1.6442   -0.4663   -3.0804 C   0  0  0  0  0  0  0  0  0  0  0  0
    3.5057    0.7449   -1.3327 C   0  0  0  0  0  0  0  0  0  0  0  0
   -5.3973   -1.9825    1.4057 C   0  0  0  0  0  0  0  0  0  0  0  0
   -6.7835   -2.0337    1.2359 C   0  0  0  0  0  0  0  0  0  0  0  0
   -9.1787   -0.5557   -1.6068 H   0  0  0  0  0  0  0  0  0  0  0  0
  -10.4474   -1.6922   -1.1278 H   0  0  0  0  0  0  0  0  0  0  0  0
   -9.0587   -2.3063   -2.0362 H   0  0  0  0  0  0  0  0  0  0  0  0
   -6.9442   -1.1981   -2.0647 H   0  0  0  0  0  0  0  0  0  0  0  0
   -4.5241   -1.0990   -1.7635 H   0  0  0  0  0  0  0  0  0  0  0  0
   -2.5558   -1.8687   -0.4140 H   0  0  0  0  0  0  0  0  0  0  0  0
   -2.7341   -2.2401    1.2961 H   0  0  0  0  0  0  0  0  0  0  0  0
   -3.2464    0.2896    1.5474 H   0  0  0  0  0  0  0  0  0  0  0  0
    0.5423    1.6703    0.1607 H   0  0  0  0  0  0  0  0  0  0  0  0
    0.9614    4.0461    0.6534 H   0  0  0  0  0  0  0  0  0  0  0  0
   -0.0918    3.8712    2.0804 H   0  0  0  0  0  0  0  0  0  0  0  0
    2.4353    3.7073    2.6076 H   0  0  0  0  0  0  0  0  0  0  0  0
    3.2282    1.7879    4.2547 H   0  0  0  0  0  0  0  0  0  0  0  0
    2.0611    0.4461    4.3947 H   0  0  0  0  0  0  0  0  0  0  0  0
    2.2401   -0.0949    2.0522 H   0  0  0  0  0  0  0  0  0  0  0  0
    3.9115    0.3791    2.4057 H   0  0  0  0  0  0  0  0  0  0  0  0
    6.4314    1.0409    0.4125 H   0  0  0  0  0  0  0  0  0  0  0  0
    7.0552   -0.8091   -1.0556 H   0  0  0  0  0  0  0  0  0  0  0  0
    6.7343   -3.2611   -3.7112 H   0  0  0  0  0  0  0  0  0  0  0  0
    6.9527   -2.9361   -1.9894 H   0  0  0  0  0  0  0  0  0  0  0  0
    7.4377   -1.7132   -3.2277 H   0  0  0  0  0  0  0  0  0  0  0  0
    1.1072   -1.0575   -3.8266 H   0  0  0  0  0  0  0  0  0  0  0  0
    1.5434    0.5875   -3.3560 H   0  0  0  0  0  0  0  0  0  0  0  0
    1.1892   -0.6666   -2.1064 H   0  0  0  0  0  0  0  0  0  0  0  0
    2.5315    1.2180   -1.3879 H   0  0  0  0  0  0  0  0  0  0  0  0
   -4.9747   -2.1944    2.3874 H   0  0  0  0  0  0  0  0  0  0  0  0
   -7.4221   -2.2859    2.0809 H   0  0  0  0  0  0  0  0  0  0  0  0
  1  2  1  0
  2  3  1  0
  3  4  2  0
  4  5  1  0
  5  6  2  0
  6  7  1  0
  7  8  1  0
  8  9  1  0
  9 10  2  0
  9 11  1  0
 11 12  2  0
 11 13  1  0
 13 14  1  0
 14 15  1  0
 15 16  1  0
 16 17  1  0
 17 18  1  0
 18 19  1  0
 19 20  1  0
 20 21  2  0
 20 22  2  0
 20 23  1  0
 23 24  2  0
 24 25  1  0
 25 26  2  0
 26 27  1  0
 27 28  1  0
 26 29  1  0
 29 30  1  0
 30 31  1  0
 29 32  2  0
  6 33  1  0
 33 34  2  0
 34  3  1  0
 19 15  1  0
 32 23  1  0
  1 35  1  0
  1 36  1  0
  1 37  1  0
  4 38  1  0
  5 39  1  0
  7 40  1  0
  7 41  1  0
  8 42  1  0
 13 43  1  0
 14 44  1  0
 14 45  1  0
 15 46  1  0
 17 47  1  0
 17 48  1  0
 18 49  1  0
 18 50  1  0
 24 51  1  0
 25 52  1  0
 28 53  1  0
 28 54  1  0
 28 55  1  0
 31 56  1  0
 31 57  1  0
 31 58  1  0
 32 59  1  0
 33 60  1  0
 34 61  1  0
M  END
$$$$
