
     RDKit          3D

 40 42  0  0  0  0  0  0  0  0999 V2000
   -6.5154   -1.0902   -0.9100 C   0  0  0  0  0  0  0  0  0  0  0  0
   -6.4508   -1.0499    0.8711 S   0  0  0  0  0  6  0  0  0  0  0  0
   -7.7760   -0.7120    1.3460 O   0  0  0  0  0  0  0  0  0  0  0  0
   -5.7675   -2.2358    1.3370 O   0  0  0  0  0  0  0  0  0  0  0  0
   -5.5044    0.3112    1.1690 N   0  0  0  0  0  0  0  0  0  0  0  0
   -4.1705    0.3765    0.6787 C   0  0  0  0  0  0  0  0  0  0  0  0
   -3.8257    1.4175   -0.1848 C   0  0  0  0  0  0  0  0  0  0  0  0
   -2.5260    1.5041   -0.6914 C   0  0  0  0  0  0  0  0  0  0  0  0
   -1.5598    0.5594   -0.3227 C   0  0  0  0  0  0  0  0  0  0  0  0
   -0.1887    0.6863   -0.8942 C   0  0  0  0  0  0  0  0  0  0  0  0
   -0.0797    1.1379   -2.0276 O   0  0  0  0  0  0  0  0  0  0  0  0
    0.8352    0.3050   -0.0469 N   0  0  0  0  0  0  0  0  0  0  0  0
    2.2175    0.2819   -0.3315 C   0  0  0  0  0  0  0  0  0  0  0  0
    2.7614    0.5698   -1.5862 C   0  0  0  0  0  0  0  0  0  0  0  0
    4.1458    0.5261   -1.7887 C   0  0  0  0  0  0  0  0  0  0  0  0
    4.9943    0.1947   -0.7378 C   0  0  0  0  0  0  0  0  0  0  0  0
    4.4582   -0.1248    0.5109 C   0  0  0  0  0  0  0  0  0  0  0  0
    3.0790   -0.0682    0.7169 C   0  0  0  0  0  0  0  0  0  0  0  0
    5.2259   -0.4957    1.5862 O   0  0  0  0  0  0  0  0  0  0  0  0
    6.5547   -0.8464    1.1808 C   0  0  0  0  0  0  0  0  0  0  0  0
    7.1078    0.1795    0.2053 C   0  0  0  0  0  0  0  0  0  0  0  0
    6.3390    0.1932   -1.0028 O   0  0  0  0  0  0  0  0  0  0  0  0
   -1.9098   -0.4860    0.5404 C   0  0  0  0  0  0  0  0  0  0  0  0
   -3.2118   -0.5688    1.0451 C   0  0  0  0  0  0  0  0  0  0  0  0
   -6.8972   -0.1341   -1.2729 H   0  0  0  0  0  0  0  0  0  0  0  0
   -7.1969   -1.8932   -1.2001 H   0  0  0  0  0  0  0  0  0  0  0  0
   -5.5193   -1.2952   -1.3051 H   0  0  0  0  0  0  0  0  0  0  0  0
   -6.0539    1.1704    1.1589 H   0  0  0  0  0  0  0  0  0  0  0  0
   -4.5565    2.1654   -0.4805 H   0  0  0  0  0  0  0  0  0  0  0  0
   -2.2649    2.3116   -1.3738 H   0  0  0  0  0  0  0  0  0  0  0  0
    0.5851    0.0777    0.9067 H   0  0  0  0  0  0  0  0  0  0  0  0
    2.1355    0.8335   -2.4330 H   0  0  0  0  0  0  0  0  0  0  0  0
    4.5562    0.7615   -2.7670 H   0  0  0  0  0  0  0  0  0  0  0  0
    2.6923   -0.3093    1.7028 H   0  0  0  0  0  0  0  0  0  0  0  0
    6.5301   -1.8497    0.7376 H   0  0  0  0  0  0  0  0  0  0  0  0
    7.1760   -0.8862    2.0810 H   0  0  0  0  0  0  0  0  0  0  0  0
    8.1398   -0.0693   -0.0610 H   0  0  0  0  0  0  0  0  0  0  0  0
    7.0993    1.1886    0.6358 H   0  0  0  0  0  0  0  0  0  0  0  0
   -1.1959   -1.2595    0.8108 H   0  0  0  0  0  0  0  0  0  0  0  0
   -3.4628   -1.3773    1.7286 H   0  0  0  0  0  0  0  0  0  0  0  0
  1  2  1  0
  2  3  2  0
  2  4  2  0
  2  5  1  0
  5  6  1  0
  6  7  2  0
  7  8  1  0
  8  9  2  0
  9 10  1  0
 10 11  2  0
 10 12  1  0
 12 13  1  0
 13 14  2  0
 14 15  1  0
 15 16  2  0
 16 17  1  0
 17 18  2  0
 17 19  1  0
 19 20  1  0
 20 21  1  0
 21 22  1  0
  9 23  1  0
 23 24  2  0
 24  6  1  0
 18 13  1  0
 22 16  1  0
  1 25  1  0
  1 26  1  0
  1 27  1  0
  5 28  1  0
  7 29  1  0
  8 30  1  0
 12 31  1  0
 14 32  1  0
 15 33  1  0
 18 34  1  0
 20 35  1  0
 20 36  1  0
 21 37  1  0
 21 38  1  0
 23 39  1  0
 24 40  1  0
M  END
$$$$
