
     RDKit          3D

 65 66  0  0  0  0  0  0  0  0999 V2000
   -6.1168    4.3107    2.1424 C   0  0  0  0  0  0  0  0  0  0  0  0
   -5.5279    4.1908    0.8537 O   0  0  0  0  0  0  0  0  0  0  0  0
   -4.6125    3.1899    0.6832 C   0  0  0  0  0  0  0  0  0  0  0  0
   -4.0158    3.1527   -0.5780 C   0  0  0  0  0  0  0  0  0  0  0  0
   -3.0600    2.1822   -0.8910 C   0  0  0  0  0  0  0  0  0  0  0  0
   -2.6899    1.2177    0.0569 C   0  0  0  0  0  0  0  0  0  0  0  0
   -1.6413    0.1448   -0.2254 C   0  0  0  0  0  0  0  0  0  0  0  0
   -1.5564   -0.2602   -1.7306 C   0  0  0  0  0  0  0  0  0  0  0  0
   -0.5905    0.0036   -2.4443 O   0  0  0  0  0  0  0  0  0  0  0  0
   -2.6846   -0.9167   -2.1994 N   0  0  0  0  0  0  0  0  0  0  0  0
   -2.8777   -1.3900   -3.5773 C   0  0  0  0  0  0  0  0  0  0  0  0
   -4.2543   -2.0750   -3.6566 C   0  0  0  0  0  0  0  0  0  0  0  0
   -2.8646   -0.2139   -4.5661 C   0  0  0  0  0  0  0  0  0  0  0  0
   -1.8035   -2.4189   -3.9626 C   0  0  0  0  0  0  0  0  0  0  0  0
   -0.3102    0.4455    0.3511 N   0  0  0  0  0  0  0  0  0  0  0  0
    0.2225    1.8185    0.2966 C   0  0  0  0  0  0  0  0  0  0  0  0
    0.7932    2.2313   -1.0617 C   0  0  0  0  0  0  0  0  0  0  0  0
    1.4877    3.4691   -0.9291 O   0  0  0  0  0  0  0  0  0  0  0  0
    0.4741   -0.6624    0.6663 C   0  0  0  0  0  0  0  0  0  0  0  0
    0.0368   -1.8116    0.5756 O   0  0  0  0  0  0  0  0  0  0  0  0
    1.8875   -0.4092    1.1592 C   0  0  0  0  0  0  0  0  0  0  0  0
    2.6322   -1.7182    1.4060 C   0  0  0  0  0  0  0  0  0  0  0  0
    4.0313   -1.4819    1.9370 C   0  0  0  0  0  0  0  0  0  0  0  0
    4.4825   -0.3573    2.1255 O   0  0  0  0  0  0  0  0  0  0  0  0
    4.6945   -2.6654    2.1707 N   0  0  0  0  0  0  0  0  0  0  0  0
    5.9743   -2.7761    2.6658 C   0  0  0  0  0  0  0  0  0  0  0  0
    6.8863   -1.7641    3.0370 C   0  0  0  0  0  0  0  0  0  0  0  0
    8.0012   -2.4420    3.4615 C   0  0  0  0  0  0  0  0  0  0  0  0
    9.3161   -2.0355    3.9845 C   0  0  0  0  0  0  0  0  0  0  0  0
    7.7760   -3.7775    3.3549 O   0  0  0  0  0  0  0  0  0  0  0  0
    6.5050   -3.9896    2.8537 N   0  0  0  0  0  0  0  0  0  0  0  0
   -3.2897    1.2675    1.3267 C   0  0  0  0  0  0  0  0  0  0  0  0
   -4.2446    2.2426    1.6364 C   0  0  0  0  0  0  0  0  0  0  0  0
   -6.7044    3.4210    2.3913 H   0  0  0  0  0  0  0  0  0  0  0  0
   -6.7999    5.1651    2.1201 H   0  0  0  0  0  0  0  0  0  0  0  0
   -5.3581    4.5103    2.9067 H   0  0  0  0  0  0  0  0  0  0  0  0
   -4.2928    3.8941   -1.3243 H   0  0  0  0  0  0  0  0  0  0  0  0
   -2.6099    2.2016   -1.8818 H   0  0  0  0  0  0  0  0  0  0  0  0
   -2.0091   -0.7650    0.2728 H   0  0  0  0  0  0  0  0  0  0  0  0
   -3.4475   -1.0540   -1.5465 H   0  0  0  0  0  0  0  0  0  0  0  0
   -4.4567   -2.4529   -4.6648 H   0  0  0  0  0  0  0  0  0  0  0  0
   -5.0578   -1.3784   -3.3907 H   0  0  0  0  0  0  0  0  0  0  0  0
   -4.3147   -2.9206   -2.9616 H   0  0  0  0  0  0  0  0  0  0  0  0
   -3.6061    0.5433   -4.2855 H   0  0  0  0  0  0  0  0  0  0  0  0
   -1.8896    0.2824   -4.6009 H   0  0  0  0  0  0  0  0  0  0  0  0
   -3.0951   -0.5502   -5.5833 H   0  0  0  0  0  0  0  0  0  0  0  0
   -1.9979   -2.8401   -4.9553 H   0  0  0  0  0  0  0  0  0  0  0  0
   -1.7769   -3.2468   -3.2448 H   0  0  0  0  0  0  0  0  0  0  0  0
   -0.8022   -1.9776   -3.9884 H   0  0  0  0  0  0  0  0  0  0  0  0
   -0.5456    2.5301    0.6152 H   0  0  0  0  0  0  0  0  0  0  0  0
    1.0079    1.9300    1.0512 H   0  0  0  0  0  0  0  0  0  0  0  0
   -0.0051    2.3721   -1.7949 H   0  0  0  0  0  0  0  0  0  0  0  0
    1.4968    1.4829   -1.4389 H   0  0  0  0  0  0  0  0  0  0  0  0
    1.8420    3.6836   -1.8096 H   0  0  0  0  0  0  0  0  0  0  0  0
    2.4312    0.1803    0.4142 H   0  0  0  0  0  0  0  0  0  0  0  0
    1.8328    0.1606    2.0935 H   0  0  0  0  0  0  0  0  0  0  0  0
    2.0882   -2.3303    2.1354 H   0  0  0  0  0  0  0  0  0  0  0  0
    2.7066   -2.2892    0.4728 H   0  0  0  0  0  0  0  0  0  0  0  0
    4.2481   -3.5526    1.9812 H   0  0  0  0  0  0  0  0  0  0  0  0
    6.7554   -0.6931    3.0033 H   0  0  0  0  0  0  0  0  0  0  0  0
    9.3902   -2.2673    5.0511 H   0  0  0  0  0  0  0  0  0  0  0  0
    9.4737   -0.9602    3.8571 H   0  0  0  0  0  0  0  0  0  0  0  0
   10.1203   -2.5603    3.4602 H   0  0  0  0  0  0  0  0  0  0  0  0
   -3.0081    0.5451    2.0915 H   0  0  0  0  0  0  0  0  0  0  0  0
   -4.6767    2.2346    2.6313 H   0  0  0  0  0  0  0  0  0  0  0  0
  1  2  1  0
  2  3  1  0
  3  4  2  0
  4  5  1  0
  5  6  2  0
  6  7  1  0
  7  8  1  0
  8  9  2  0
  8 10  1  0
 10 11  1  0
 11 12  1  0
 11 13  1  0
 11 14  1  0
  7 15  1  0
 15 16  1  0
 16 17  1  0
 17 18  1  0
 15 19  1  0
 19 20  2  0
 19 21  1  0
 21 22  1  0
 22 23  1  0
 23 24  2  0
 23 25  1  0
 25 26  1  0
 26 27  1  0
 27 28  2  0
 28 29  1  0
 28 30  1  0
 30 31  1  0
  6 32  1  0
 32 33  2  0
 33  3  1  0
 31 26  2  0
  1 34  1  0
  1 35  1  0
  1 36  1  0
  4 37  1  0
  5 38  1  0
  7 39  1  0
 10 40  1  0
 12 41  1  0
 12 42  1  0
 12 43  1  0
 13 44  1  0
 13 45  1  0
 13 46  1  0
 14 47  1  0
 14 48  1  0
 14 49  1  0
 16 50  1  0
 16 51  1  0
 17 52  1  0
 17 53  1  0
 18 54  1  0
 21 55  1  0
 21 56  1  0
 22 57  1  0
 22 58  1  0
 25 59  1  0
 27 60  1  0
 29 61  1  0
 29 62  1  0
 29 63  1  0
 32 64  1  0
 33 65  1  0
M  END
$$$$
