
     RDKit          3D

 39 39  0  0  0  0  0  0  0  0999 V2000
   -1.6613   -4.3700    1.8609 C   0  0  0  0  0  0  0  0  0  0  0  0
   -2.2074   -3.2229    1.0338 C   0  0  0  0  0  0  0  0  0  0  0  0
   -1.1995   -2.2053    0.9639 O   0  0  0  0  0  0  0  0  0  0  0  0
   -1.5731   -1.0870    0.2594 C   0  0  0  0  0  0  0  0  0  0  0  0
   -2.6518   -0.9749   -0.3132 O   0  0  0  0  0  0  0  0  0  0  0  0
   -0.4125   -0.0471    0.2442 C   0  0  0  0  0  0  0  0  0  0  0  0
   -0.6267    0.8670   -0.8712 N   0  0  0  0  0  0  0  0  0  0  0  0
   -1.5353    1.8888   -0.8185 C   0  0  0  0  0  0  0  0  0  0  0  0
   -2.1173    2.1987    0.2114 O   0  0  0  0  0  0  0  0  0  0  0  0
   -1.7163    2.5951   -2.1460 C   0  0  0  0  0  0  0  0  0  0  0  0
   -2.7260    3.7257   -2.0652 C   0  0  0  0  0  0  0  0  0  0  0  0
    0.8284   -0.7851   -0.1812 N   0  0  0  0  0  0  0  0  0  0  0  0
    2.1109   -0.2318   -0.1039 C   0  0  0  0  0  0  0  0  0  0  0  0
    2.3898    1.1376   -0.1414 C   0  0  0  0  0  0  0  0  0  0  0  0
    3.7075    1.6119   -0.1364 C   0  0  0  0  0  0  0  0  0  0  0  0
    4.7748    0.7206   -0.1278 C   0  0  0  0  0  0  0  0  0  0  0  0
    4.5236   -0.6458   -0.1371 C   0  0  0  0  0  0  0  0  0  0  0  0
    3.2055   -1.1120   -0.1395 C   0  0  0  0  0  0  0  0  0  0  0  0
   -0.3938    0.4966    1.7137 C   0  0  0  0  0  0  0  0  0  0  0  0
   -1.6229    0.6238    2.2655 F   0  0  0  0  0  0  0  0  0  0  0  0
    0.2286    1.6965    1.8212 F   0  0  0  0  0  0  0  0  0  0  0  0
    0.2887   -0.3587    2.5291 F   0  0  0  0  0  0  0  0  0  0  0  0
   -2.3958   -5.1759    1.9438 H   0  0  0  0  0  0  0  0  0  0  0  0
   -1.3963   -4.0277    2.8668 H   0  0  0  0  0  0  0  0  0  0  0  0
   -0.7469   -4.7693    1.4096 H   0  0  0  0  0  0  0  0  0  0  0  0
   -2.4461   -3.5749    0.0241 H   0  0  0  0  0  0  0  0  0  0  0  0
   -3.1083   -2.8191    1.5091 H   0  0  0  0  0  0  0  0  0  0  0  0
   -0.2856    0.5344   -1.7606 H   0  0  0  0  0  0  0  0  0  0  0  0
   -2.0484    1.8605   -2.8880 H   0  0  0  0  0  0  0  0  0  0  0  0
   -0.7456    2.9920   -2.4635 H   0  0  0  0  0  0  0  0  0  0  0  0
   -2.4119    4.4820   -1.3382 H   0  0  0  0  0  0  0  0  0  0  0  0
   -2.8332    4.2116   -3.0398 H   0  0  0  0  0  0  0  0  0  0  0  0
   -3.7090    3.3535   -1.7580 H   0  0  0  0  0  0  0  0  0  0  0  0
    0.8298   -1.7055    0.2681 H   0  0  0  0  0  0  0  0  0  0  0  0
    1.6008    1.8823   -0.1695 H   0  0  0  0  0  0  0  0  0  0  0  0
    3.8949    2.6829   -0.1453 H   0  0  0  0  0  0  0  0  0  0  0  0
    5.7965    1.0903   -0.1258 H   0  0  0  0  0  0  0  0  0  0  0  0
    5.3496   -1.3519   -0.1498 H   0  0  0  0  0  0  0  0  0  0  0  0
    3.0416   -2.1871   -0.1693 H   0  0  0  0  0  0  0  0  0  0  0  0
  1  2  1  0
  2  3  1  0
  3  4  1  0
  4  5  2  0
  4  6  1  0
  6  7  1  0
  7  8  1  0
  8  9  2  0
  8 10  1  0
 10 11  1  0
  6 12  1  0
 12 13  1  0
 13 14  2  0
 14 15  1  0
 15 16  2  0
 16 17  1  0
 17 18  2  0
  6 19  1  0
 19 20  1  0
 19 21  1  0
 19 22  1  0
 18 13  1  0
  1 23  1  0
  1 24  1  0
  1 25  1  0
  2 26  1  0
  2 27  1  0
  7 28  1  0
 10 29  1  0
 10 30  1  0
 11 31  1  0
 11 32  1  0
 11 33  1  0
 12 34  1  0
 14 35  1  0
 15 36  1  0
 16 37  1  0
 17 38  1  0
 18 39  1  0
M  END
$$$$
