
     RDKit          3D

 46 49  0  0  0  0  0  0  0  0999 V2000
    1.1877   -0.0130   -2.1208 O   0  0  0  0  0  0  0  0  0  0  0  0
    1.6730    1.0133   -1.6594 C   0  0  0  0  0  0  0  0  0  0  0  0
    0.9344    1.9639   -0.7285 C   0  0  0  0  0  0  0  0  0  0  0  0
   -0.2804    1.3431   -0.1652 N   0  0  0  0  0  4  0  0  0  0  0  0
   -1.5904    1.8028   -0.2788 C   0  0  0  0  0  0  0  0  0  0  0  0
   -2.4415    0.9018    0.3526 C   0  0  0  0  0  0  0  0  0  0  0  0
   -4.0086    1.0060    0.4460 C   0  0  0  0  0  0  0  0  0  0  0  0
   -4.6682    2.1239   -0.0792 C   0  0  0  0  0  0  0  0  0  0  0  0
   -6.0622    2.2210    0.0007 C   0  0  0  0  0  0  0  0  0  0  0  0
   -6.8090    1.2041    0.5999 C   0  0  0  0  0  0  0  0  0  0  0  0
   -8.5230    1.3906    0.6621 Cl  0  0  0  0  0  0  0  0  0  0  0  0
   -6.1527    0.0849    1.1191 C   0  0  0  0  0  0  0  0  0  0  0  0
   -7.0007   -1.2240    1.8641 Cl  0  0  0  0  0  0  0  0  0  0  0  0
   -4.7558   -0.0121    1.0419 C   0  0  0  0  0  0  0  0  0  0  0  0
   -1.5781   -0.0609    0.8440 N   0  0  0  0  0  0  0  0  0  0  0  0
   -0.3173    0.1900    0.4981 C   0  0  0  0  0  0  0  0  0  0  0  0
    0.6375   -0.8398    0.9747 C   0  0  0  0  0  0  0  0  0  0  0  0
   -0.2175   -1.6173    1.9945 C   0  0  0  0  0  0  0  0  0  0  0  0
   -1.6881   -1.2947    1.6125 C   0  0  0  0  0  0  0  0  0  0  0  0
    2.9460    1.4503   -1.8528 O   0  0  0  0  0  0  0  0  0  0  0  0
    3.8149    0.5252   -2.5281 C   0  0  0  0  0  0  0  0  0  0  0  0
    4.3268   -0.4850   -1.5321 C   0  0  0  0  0  0  0  0  0  0  0  0
    3.9010   -1.8196   -1.5895 C   0  0  0  0  0  0  0  0  0  0  0  0
    4.3544   -2.7477   -0.6514 C   0  0  0  0  0  0  0  0  0  0  0  0
    5.2353   -2.3507    0.3536 C   0  0  0  0  0  0  0  0  0  0  0  0
    5.6626   -1.0257    0.4222 C   0  0  0  0  0  0  0  0  0  0  0  0
    5.2094   -0.0957   -0.5144 C   0  0  0  0  0  0  0  0  0  0  0  0
    1.5792    2.2263    0.1162 H   0  0  0  0  0  0  0  0  0  0  0  0
    0.6590    2.8641   -1.2849 H   0  0  0  0  0  0  0  0  0  0  0  0
   -1.7572    2.7200   -0.8170 H   0  0  0  0  0  0  0  0  0  0  0  0
   -4.1347    2.9404   -0.5578 H   0  0  0  0  0  0  0  0  0  0  0  0
   -6.5641    3.0977   -0.4085 H   0  0  0  0  0  0  0  0  0  0  0  0
   -4.2846   -0.9006    1.4420 H   0  0  0  0  0  0  0  0  0  0  0  0
    1.5047   -0.3475    1.4161 H   0  0  0  0  0  0  0  0  0  0  0  0
    0.9056   -1.4517    0.1116 H   0  0  0  0  0  0  0  0  0  0  0  0
   -0.0188   -1.2277    3.0004 H   0  0  0  0  0  0  0  0  0  0  0  0
   -0.0053   -2.6895    2.0014 H   0  0  0  0  0  0  0  0  0  0  0  0
   -2.1097   -2.0731    0.9712 H   0  0  0  0  0  0  0  0  0  0  0  0
   -2.3005   -1.1473    2.5047 H   0  0  0  0  0  0  0  0  0  0  0  0
    3.3090    0.0561   -3.3806 H   0  0  0  0  0  0  0  0  0  0  0  0
    4.6552    1.0967   -2.9406 H   0  0  0  0  0  0  0  0  0  0  0  0
    3.2159   -2.1471   -2.3697 H   0  0  0  0  0  0  0  0  0  0  0  0
    4.0317   -3.7842   -0.7129 H   0  0  0  0  0  0  0  0  0  0  0  0
    5.6028   -3.0774    1.0749 H   0  0  0  0  0  0  0  0  0  0  0  0
    6.3606   -0.7220    1.2001 H   0  0  0  0  0  0  0  0  0  0  0  0
    5.5619    0.9321   -0.4524 H   0  0  0  0  0  0  0  0  0  0  0  0
  1  2  2  0
  2  3  1  0
  3  4  1  0
  4  5  1  0
  5  6  2  0
  6  7  1  0
  7  8  2  0
  8  9  1  0
  9 10  2  0
 10 11  1  0
 10 12  1  0
 12 13  1  0
 12 14  2  0
  6 15  1  0
 15 16  1  0
 16 17  1  0
 17 18  1  0
 18 19  1  0
  2 20  1  0
 20 21  1  0
 21 22  1  0
 22 23  2  0
 23 24  1  0
 24 25  2  0
 25 26  1  0
 26 27  2  0
 16  4  2  0
 27 22  1  0
 14  7  1  0
 19 15  1  0
  3 28  1  0
  3 29  1  0
  5 30  1  0
  8 31  1  0
  9 32  1  0
 14 33  1  0
 17 34  1  0
 17 35  1  0
 18 36  1  0
 18 37  1  0
 19 38  1  0
 19 39  1  0
 21 40  1  0
 21 41  1  0
 23 42  1  0
 24 43  1  0
 25 44  1  0
 26 45  1  0
 27 46  1  0
M  CHG  1   4   1
M  END
$$$$
