
     RDKit          3D

 36 37  0  0  0  0  0  0  0  0999 V2000
   -0.0995    0.8106   -0.7894 O   0  0  0  0  0  0  0  0  0  0  0  0
   -0.0826   -0.0274   -1.6931 C   0  0  0  0  0  0  0  0  0  0  0  0
    1.1670   -0.8137   -2.0974 C   0  0  0  0  0  0  0  0  0  0  0  0
    2.1838   -0.7899   -1.0982 O   0  0  0  0  0  0  0  0  0  0  0  0
    1.8556   -1.4766    0.0221 C   0  0  0  0  0  0  0  0  0  0  0  0
    0.8488   -2.1361    0.2110 O   0  0  0  0  0  0  0  0  0  0  0  0
    2.8730   -1.2187    1.0501 C   0  0  0  0  0  0  0  0  0  0  0  0
    2.4663   -0.4801    2.1694 C   0  0  0  0  0  0  0  0  0  0  0  0
    3.3827   -0.1863    3.1747 C   0  0  0  0  0  0  0  0  0  0  0  0
    4.6993   -0.6372    3.0638 C   0  0  0  0  0  0  0  0  0  0  0  0
    5.0991   -1.3885    1.9510 C   0  0  0  0  0  0  0  0  0  0  0  0
    6.7472   -1.9108    1.8998 Cl  0  0  0  0  0  0  0  0  0  0  0  0
    4.1844   -1.6928    0.9334 C   0  0  0  0  0  0  0  0  0  0  0  0
    4.6552   -2.6571   -0.4280 Cl  0  0  0  0  0  0  0  0  0  0  0  0
   -1.2171   -0.3362   -2.4154 N   0  0  0  0  0  0  0  0  0  0  0  0
   -2.4715    0.3367   -2.1320 C   0  0  0  0  0  0  0  0  0  0  0  0
   -3.0649   -0.0492   -0.7663 C   0  0  0  0  0  0  0  0  0  0  0  0
   -3.6567    1.0933   -0.0976 N   0  0  0  0  0  0  0  0  0  0  0  0
   -3.0109    1.8994    0.8099 C   0  0  0  0  0  0  0  0  0  0  0  0
   -1.7086    1.6936    1.1596 O   0  0  0  0  0  0  0  0  0  0  0  0
   -3.7614    2.8864    1.3076 C   0  0  0  0  0  0  0  0  0  0  0  0
   -5.3499    2.8951    0.6012 S   0  0  0  0  0  0  0  0  0  0  0  0
   -4.9566    1.4785   -0.3847 C   0  0  0  0  0  0  0  0  0  0  0  0
   -5.7286    0.9695   -1.1795 O   0  0  0  0  0  0  0  0  0  0  0  0
    1.5762   -0.3364   -2.9918 H   0  0  0  0  0  0  0  0  0  0  0  0
    0.9126   -1.8471   -2.3608 H   0  0  0  0  0  0  0  0  0  0  0  0
    1.4395   -0.1245    2.2447 H   0  0  0  0  0  0  0  0  0  0  0  0
    3.0766    0.3977    4.0391 H   0  0  0  0  0  0  0  0  0  0  0  0
    5.4173   -0.3958    3.8471 H   0  0  0  0  0  0  0  0  0  0  0  0
   -1.2097   -1.1075   -3.0711 H   0  0  0  0  0  0  0  0  0  0  0  0
   -2.2757    1.4136   -2.1864 H   0  0  0  0  0  0  0  0  0  0  0  0
   -3.1716    0.0880   -2.9372 H   0  0  0  0  0  0  0  0  0  0  0  0
   -3.8436   -0.8069   -0.9236 H   0  0  0  0  0  0  0  0  0  0  0  0
   -2.3282   -0.5081   -0.0991 H   0  0  0  0  0  0  0  0  0  0  0  0
   -1.2167    1.3494    0.3820 H   0  0  0  0  0  0  0  0  0  0  0  0
   -3.4308    3.6151    2.0320 H   0  0  0  0  0  0  0  0  0  0  0  0
  1  2  2  0
  2  3  1  0
  3  4  1  0
  4  5  1  0
  5  6  2  0
  5  7  1  0
  7  8  2  0
  8  9  1  0
  9 10  2  0
 10 11  1  0
 11 12  1  0
 11 13  2  0
 13 14  1  0
  2 15  1  0
 15 16  1  0
 16 17  1  0
 17 18  1  0
 18 19  1  0
 19 20  1  0
 19 21  2  0
 21 22  1  0
 22 23  1  0
 23 24  2  0
 13  7  1  0
 23 18  1  0
  3 25  1  0
  3 26  1  0
  8 27  1  0
  9 28  1  0
 10 29  1  0
 15 30  1  0
 16 31  1  0
 16 32  1  0
 17 33  1  0
 17 34  1  0
 20 35  1  0
 21 36  1  0
M  END
$$$$
