
     RDKit          3D

 56 58  0  0  0  0  0  0  0  0999 V2000
    9.6040    1.2826    0.7430 C   0  0  0  0  0  0  0  0  0  0  0  0
    9.1739    0.9593   -0.6772 C   0  0  0  0  0  0  0  0  0  0  0  0
    8.3048   -0.1801   -0.6798 O   0  0  0  0  0  0  0  0  0  0  0  0
    6.9819    0.1503   -0.5916 C   0  0  0  0  0  0  0  0  0  0  0  0
    6.2739   -0.3068    0.5146 C   0  0  0  0  0  0  0  0  0  0  0  0
    4.9093   -0.0266    0.6403 C   0  0  0  0  0  0  0  0  0  0  0  0
    4.2423    0.6962   -0.3506 C   0  0  0  0  0  0  0  0  0  0  0  0
    2.8716    1.0256   -0.2994 N   0  0  0  0  0  0  0  0  0  0  0  0
    1.9720    0.7327    0.7124 C   0  0  0  0  0  0  0  0  0  0  0  0
    2.2090    0.1142    1.7442 O   0  0  0  0  0  0  0  0  0  0  0  0
    0.5801    1.2524    0.3949 C   0  0  0  0  0  0  0  0  0  0  0  0
   -0.3782    1.1143    1.5727 C   0  0  0  0  0  0  0  0  0  0  0  0
   -0.6407   -0.3083    1.8567 N   0  0  0  0  0  0  0  0  0  0  0  0
   -1.9363   -0.6766    2.8652 S   0  0  0  0  0  6  0  0  0  0  0  0
   -2.3199    0.5076    3.5972 O   0  0  0  0  0  0  0  0  0  0  0  0
   -1.5986   -1.9154    3.5293 O   0  0  0  0  0  0  0  0  0  0  0  0
   -3.2091   -1.0383    1.6801 C   0  0  0  0  0  0  0  0  0  0  0  0
   -3.4726   -2.3592    1.3210 C   0  0  0  0  0  0  0  0  0  0  0  0
   -4.5026   -2.6393    0.4164 C   0  0  0  0  0  0  0  0  0  0  0  0
   -5.2791   -1.6079   -0.1392 C   0  0  0  0  0  0  0  0  0  0  0  0
   -4.9940   -0.2943    0.2331 C   0  0  0  0  0  0  0  0  0  0  0  0
   -3.9732   -0.0009    1.1499 C   0  0  0  0  0  0  0  0  0  0  0  0
   -5.7767    0.8064   -0.3488 C   0  0  0  0  0  0  0  0  0  0  0  0
   -5.5011    1.9622   -0.0331 O   0  0  0  0  0  0  0  0  0  0  0  0
   -6.7820    0.4564   -1.2356 N   0  0  0  0  0  0  0  0  0  0  0  0
   -7.5897    1.5185   -1.8070 C   0  0  0  0  0  0  0  0  0  0  0  0
   -7.1184   -0.8451   -1.5905 C   0  0  0  0  0  0  0  0  0  0  0  0
   -8.0622   -1.0773   -2.3496 O   0  0  0  0  0  0  0  0  0  0  0  0
   -6.3403   -1.8642   -1.0482 N   0  0  0  0  0  0  0  0  0  0  0  0
   -6.6589   -3.2387   -1.4146 C   0  0  0  0  0  0  0  0  0  0  0  0
    4.9612    1.1240   -1.4759 C   0  0  0  0  0  0  0  0  0  0  0  0
    6.3252    0.8451   -1.6016 C   0  0  0  0  0  0  0  0  0  0  0  0
    8.7474    1.5949    1.3485 H   0  0  0  0  0  0  0  0  0  0  0  0
   10.3469    2.0855    0.7497 H   0  0  0  0  0  0  0  0  0  0  0  0
   10.0325    0.3994    1.2267 H   0  0  0  0  0  0  0  0  0  0  0  0
    8.7326    1.8396   -1.1572 H   0  0  0  0  0  0  0  0  0  0  0  0
   10.0566    0.6848   -1.2654 H   0  0  0  0  0  0  0  0  0  0  0  0
    6.7808   -0.8793    1.2865 H   0  0  0  0  0  0  0  0  0  0  0  0
    4.3993   -0.3984    1.5230 H   0  0  0  0  0  0  0  0  0  0  0  0
    2.5145    1.5409   -1.0944 H   0  0  0  0  0  0  0  0  0  0  0  0
    0.6632    2.3132    0.1323 H   0  0  0  0  0  0  0  0  0  0  0  0
    0.1975    0.7088   -0.4758 H   0  0  0  0  0  0  0  0  0  0  0  0
    0.0459    1.5877    2.4654 H   0  0  0  0  0  0  0  0  0  0  0  0
   -1.3133    1.6214    1.3152 H   0  0  0  0  0  0  0  0  0  0  0  0
    0.1949   -0.8374    2.1391 H   0  0  0  0  0  0  0  0  0  0  0  0
   -2.8889   -3.1761    1.7426 H   0  0  0  0  0  0  0  0  0  0  0  0
   -4.6774   -3.6822    0.1700 H   0  0  0  0  0  0  0  0  0  0  0  0
   -3.7829    1.0292    1.4463 H   0  0  0  0  0  0  0  0  0  0  0  0
   -7.1608    2.5093   -1.6311 H   0  0  0  0  0  0  0  0  0  0  0  0
   -7.6908    1.3659   -2.8865 H   0  0  0  0  0  0  0  0  0  0  0  0
   -8.5863    1.4765   -1.3549 H   0  0  0  0  0  0  0  0  0  0  0  0
   -7.4995   -3.2980   -2.1111 H   0  0  0  0  0  0  0  0  0  0  0  0
   -6.9323   -3.8003   -0.5154 H   0  0  0  0  0  0  0  0  0  0  0  0
   -5.7912   -3.6951   -1.9011 H   0  0  0  0  0  0  0  0  0  0  0  0
    4.4726    1.6752   -2.2748 H   0  0  0  0  0  0  0  0  0  0  0  0
    6.8634    1.1657   -2.4899 H   0  0  0  0  0  0  0  0  0  0  0  0
  1  2  1  0
  2  3  1  0
  3  4  1  0
  4  5  2  0
  5  6  1  0
  6  7  2  0
  7  8  1  0
  8  9  1  0
  9 10  2  0
  9 11  1  0
 11 12  1  0
 12 13  1  0
 13 14  1  0
 14 15  2  0
 14 16  2  0
 14 17  1  0
 17 18  2  0
 18 19  1  0
 19 20  2  0
 20 21  1  0
 21 22  2  0
 21 23  1  0
 23 24  2  0
 23 25  1  0
 25 26  1  0
 25 27  1  0
 27 28  2  0
 27 29  1  0
 29 30  1  0
  7 31  1  0
 31 32  2  0
 32  4  1  0
 22 17  1  0
 29 20  1  0
  1 33  1  0
  1 34  1  0
  1 35  1  0
  2 36  1  0
  2 37  1  0
  5 38  1  0
  6 39  1  0
  8 40  1  0
 11 41  1  0
 11 42  1  0
 12 43  1  0
 12 44  1  0
 13 45  1  0
 18 46  1  0
 19 47  1  0
 22 48  1  0
 26 49  1  0
 26 50  1  0
 26 51  1  0
 30 52  1  0
 30 53  1  0
 30 54  1  0
 31 55  1  0
 32 56  1  0
M  END
$$$$
