
     RDKit          3D

 57 59  0  0  0  0  0  0  0  0999 V2000
   -7.6654   -2.7042   -2.8044 C   0  0  0  0  0  0  0  0  0  0  0  0
   -7.4105   -2.2153   -1.4952 O   0  0  0  0  0  0  0  0  0  0  0  0
   -6.2585   -1.4931   -1.3047 C   0  0  0  0  0  0  0  0  0  0  0  0
   -5.2143   -1.4173   -2.2366 C   0  0  0  0  0  0  0  0  0  0  0  0
   -4.0733   -0.6656   -1.9543 C   0  0  0  0  0  0  0  0  0  0  0  0
   -3.9752    0.0028   -0.7333 C   0  0  0  0  0  0  0  0  0  0  0  0
   -2.5235    0.9645   -0.3952 S   0  0  0  0  0  6  0  0  0  0  0  0
   -2.1588    1.6464   -1.6158 O   0  0  0  0  0  0  0  0  0  0  0  0
   -2.7331    1.6962    0.8368 O   0  0  0  0  0  0  0  0  0  0  0  0
   -1.3740   -0.2104   -0.0887 N   0  0  0  0  0  0  0  0  0  0  0  0
   -1.5639   -1.1317    1.0415 C   0  0  0  0  0  0  0  0  0  0  0  0
   -0.2023   -1.2038    1.6978 C   0  0  0  0  0  0  0  0  0  0  0  0
    0.7179   -0.8298    0.6731 O   0  0  0  0  0  0  0  0  0  0  0  0
    0.0533    0.1773   -0.1189 C   0  0  0  0  0  0  0  0  0  0  0  0
    0.3659    1.5856    0.4626 C   0  0  0  0  0  0  0  0  0  0  0  0
    1.7785    1.8609    0.6628 N   0  0  0  0  0  0  0  0  0  0  0  0
    2.6812    1.8914   -0.3709 C   0  0  0  0  0  0  0  0  0  0  0  0
    2.4499    1.6098   -1.5368 O   0  0  0  0  0  0  0  0  0  0  0  0
    4.1014    2.3205    0.0618 C   0  0  0  0  0  0  0  0  0  0  0  0
    4.2877    2.7799    1.1803 O   0  0  0  0  0  0  0  0  0  0  0  0
    5.0557    2.1068   -0.9026 N   0  0  0  0  0  0  0  0  0  0  0  0
    6.4612    2.2755   -0.6429 C   0  0  0  0  0  0  0  0  0  0  0  0
    7.0640    1.0167   -0.0721 C   0  0  0  0  0  0  0  0  0  0  0  0
    7.5253   -0.0055   -0.9175 C   0  0  0  0  0  0  0  0  0  0  0  0
    8.0577   -1.1790   -0.3787 C   0  0  0  0  0  0  0  0  0  0  0  0
    8.1214   -1.3345    1.0020 C   0  0  0  0  0  0  0  0  0  0  0  0
    8.6295   -2.4624    1.5168 F   0  0  0  0  0  0  0  0  0  0  0  0
    7.6616   -0.3396    1.8559 C   0  0  0  0  0  0  0  0  0  0  0  0
    7.1300    0.8342    1.3200 C   0  0  0  0  0  0  0  0  0  0  0  0
   -5.0103   -0.0538    0.2052 C   0  0  0  0  0  0  0  0  0  0  0  0
   -6.1535   -0.8084   -0.0734 C   0  0  0  0  0  0  0  0  0  0  0  0
   -7.2215   -0.9380    0.7792 O   0  0  0  0  0  0  0  0  0  0  0  0
   -7.1704   -0.2440    2.0183 C   0  0  0  0  0  0  0  0  0  0  0  0
   -7.6489   -1.8968   -3.5438 H   0  0  0  0  0  0  0  0  0  0  0  0
   -6.9592   -3.4991   -3.0677 H   0  0  0  0  0  0  0  0  0  0  0  0
   -8.6705   -3.1370   -2.8099 H   0  0  0  0  0  0  0  0  0  0  0  0
   -5.2595   -1.9346   -3.1899 H   0  0  0  0  0  0  0  0  0  0  0  0
   -3.2694   -0.6040   -2.6848 H   0  0  0  0  0  0  0  0  0  0  0  0
   -2.3244   -0.8112    1.7577 H   0  0  0  0  0  0  0  0  0  0  0  0
   -1.8532   -2.1087    0.6427 H   0  0  0  0  0  0  0  0  0  0  0  0
   -0.1162   -0.4942    2.5282 H   0  0  0  0  0  0  0  0  0  0  0  0
    0.0345   -2.2043    2.0706 H   0  0  0  0  0  0  0  0  0  0  0  0
    0.4310    0.0863   -1.1414 H   0  0  0  0  0  0  0  0  0  0  0  0
   -0.0997    1.7084    1.4465 H   0  0  0  0  0  0  0  0  0  0  0  0
   -0.0222    2.3680   -0.1976 H   0  0  0  0  0  0  0  0  0  0  0  0
    2.1119    2.1932    1.5646 H   0  0  0  0  0  0  0  0  0  0  0  0
    4.7497    1.6199   -1.7405 H   0  0  0  0  0  0  0  0  0  0  0  0
    6.6139    3.1160    0.0427 H   0  0  0  0  0  0  0  0  0  0  0  0
    6.9484    2.5341   -1.5899 H   0  0  0  0  0  0  0  0  0  0  0  0
    7.4708    0.1053   -1.9982 H   0  0  0  0  0  0  0  0  0  0  0  0
    8.4194   -1.9729   -1.0246 H   0  0  0  0  0  0  0  0  0  0  0  0
    7.7141   -0.4840    2.9309 H   0  0  0  0  0  0  0  0  0  0  0  0
    6.7568    1.6064    1.9920 H   0  0  0  0  0  0  0  0  0  0  0  0
   -4.9072    0.4941    1.1354 H   0  0  0  0  0  0  0  0  0  0  0  0
   -7.1041    0.8382    1.8672 H   0  0  0  0  0  0  0  0  0  0  0  0
   -6.3464   -0.6081    2.6394 H   0  0  0  0  0  0  0  0  0  0  0  0
   -8.1032   -0.4468    2.5524 H   0  0  0  0  0  0  0  0  0  0  0  0
  1  2  1  0
  2  3  1  0
  3  4  2  0
  4  5  1  0
  5  6  2  0
  6  7  1  0
  7  8  2  0
  7  9  2  0
  7 10  1  0
 10 11  1  0
 11 12  1  0
 12 13  1  0
 13 14  1  0
 14 15  1  0
 15 16  1  0
 16 17  1  0
 17 18  2  0
 17 19  1  0
 19 20  2  0
 19 21  1  0
 21 22  1  0
 22 23  1  0
 23 24  2  0
 24 25  1  0
 25 26  2  0
 26 27  1  0
 26 28  1  0
 28 29  2  0
  6 30  1  0
 30 31  2  0
 31 32  1  0
 32 33  1  0
 31  3  1  0
 14 10  1  0
 29 23  1  0
  1 34  1  0
  1 35  1  0
  1 36  1  0
  4 37  1  0
  5 38  1  0
 11 39  1  0
 11 40  1  0
 12 41  1  0
 12 42  1  0
 14 43  1  0
 15 44  1  0
 15 45  1  0
 16 46  1  0
 21 47  1  0
 22 48  1  0
 22 49  1  0
 24 50  1  0
 25 51  1  0
 28 52  1  0
 29 53  1  0
 30 54  1  0
 33 55  1  0
 33 56  1  0
 33 57  1  0
M  END
$$$$
