
     RDKit          3D

 43 46  0  0  0  0  0  0  0  0999 V2000
   -1.6759    0.7158   -1.8858 O   0  0  0  0  0  0  0  0  0  0  0  0
   -1.8992    0.1787   -0.8078 C   0  0  0  0  0  0  0  0  0  0  0  0
   -0.9663   -0.2096    0.1368 N   0  0  0  0  0  0  0  0  0  0  0  0
    0.4380   -0.1435    0.0287 C   0  0  0  0  0  0  0  0  0  0  0  0
    1.1861   -0.5180    1.1497 C   0  0  0  0  0  0  0  0  0  0  0  0
    2.5871   -0.4876    1.1252 C   0  0  0  0  0  0  0  0  0  0  0  0
    3.2645   -0.0835   -0.0231 C   0  0  0  0  0  0  0  0  0  0  0  0
    4.6661   -0.0214   -0.1379 N   0  0  0  0  0  0  0  0  0  0  0  0
    5.6243   -0.3345    0.8122 C   0  0  0  0  0  0  0  0  0  0  0  0
    5.3727   -0.7330    1.9461 O   0  0  0  0  0  0  0  0  0  0  0  0
    7.0077   -0.1556    0.3652 C   0  0  0  0  0  0  0  0  0  0  0  0
    8.1505   -0.3936    1.1094 C   0  0  0  0  0  0  0  0  0  0  0  0
    9.3475   -0.1222    0.3865 C   0  0  0  0  0  0  0  0  0  0  0  0
    9.0858    0.3159   -0.8914 C   0  0  0  0  0  0  0  0  0  0  0  0
    7.4087    0.3970   -1.2100 S   0  0  0  0  0  0  0  0  0  0  0  0
    2.5161    0.2879   -1.1451 C   0  0  0  0  0  0  0  0  0  0  0  0
    1.1154    0.2570   -1.1207 C   0  0  0  0  0  0  0  0  0  0  0  0
   -3.3176   -0.0607   -0.4190 C   0  0  0  0  0  0  0  0  0  0  0  0
   -3.7012   -1.2015    0.2933 C   0  0  0  0  0  0  0  0  0  0  0  0
   -5.0423   -1.3881    0.6388 C   0  0  0  0  0  0  0  0  0  0  0  0
   -6.0169   -0.4462    0.2714 C   0  0  0  0  0  0  0  0  0  0  0  0
   -7.3674   -0.6206    0.6133 C   0  0  0  0  0  0  0  0  0  0  0  0
   -8.3262    0.3208    0.2353 C   0  0  0  0  0  0  0  0  0  0  0  0
   -7.9480    1.4467   -0.4903 C   0  0  0  0  0  0  0  0  0  0  0  0
   -6.6099    1.6349   -0.8393 C   0  0  0  0  0  0  0  0  0  0  0  0
   -5.6328    0.6988   -0.4652 C   0  0  0  0  0  0  0  0  0  0  0  0
   -4.2833    0.8758   -0.8084 C   0  0  0  0  0  0  0  0  0  0  0  0
   -1.3207   -0.5130    1.0344 H   0  0  0  0  0  0  0  0  0  0  0  0
    0.6969   -0.8387    2.0659 H   0  0  0  0  0  0  0  0  0  0  0  0
    3.1137   -0.7869    2.0257 H   0  0  0  0  0  0  0  0  0  0  0  0
    5.0303    0.2927   -1.0292 H   0  0  0  0  0  0  0  0  0  0  0  0
    8.1191   -0.7489    2.1339 H   0  0  0  0  0  0  0  0  0  0  0  0
   10.3478   -0.2427    0.7848 H   0  0  0  0  0  0  0  0  0  0  0  0
    9.8002    0.5929   -1.6550 H   0  0  0  0  0  0  0  0  0  0  0  0
    3.0048    0.6080   -2.0621 H   0  0  0  0  0  0  0  0  0  0  0  0
    0.5858    0.5500   -2.0218 H   0  0  0  0  0  0  0  0  0  0  0  0
   -2.9786   -1.9678    0.5601 H   0  0  0  0  0  0  0  0  0  0  0  0
   -5.3257   -2.2830    1.1894 H   0  0  0  0  0  0  0  0  0  0  0  0
   -7.6850   -1.4948    1.1773 H   0  0  0  0  0  0  0  0  0  0  0  0
   -9.3686    0.1733    0.5058 H   0  0  0  0  0  0  0  0  0  0  0  0
   -8.6942    2.1793   -0.7871 H   0  0  0  0  0  0  0  0  0  0  0  0
   -6.3346    2.5204   -1.4086 H   0  0  0  0  0  0  0  0  0  0  0  0
   -3.9747    1.7493   -1.3811 H   0  0  0  0  0  0  0  0  0  0  0  0
  1  2  2  0
  2  3  1  0
  3  4  1  0
  4  5  2  0
  5  6  1  0
  6  7  2  0
  7  8  1  0
  8  9  1  0
  9 10  2  0
  9 11  1  0
 11 12  2  0
 12 13  1  0
 13 14  2  0
 14 15  1  0
  7 16  1  0
 16 17  2  0
  2 18  1  0
 18 19  2  0
 19 20  1  0
 20 21  2  0
 21 22  1  0
 22 23  2  0
 23 24  1  0
 24 25  2  0
 25 26  1  0
 26 27  2  0
 17  4  1  0
 27 18  1  0
 15 11  1  0
 26 21  1  0
  3 28  1  0
  5 29  1  0
  6 30  1  0
  8 31  1  0
 12 32  1  0
 13 33  1  0
 14 34  1  0
 16 35  1  0
 17 36  1  0
 19 37  1  0
 20 38  1  0
 22 39  1  0
 23 40  1  0
 24 41  1  0
 25 42  1  0
 27 43  1  0
M  END
$$$$
