
     RDKit          3D

 68 70  0  0  0  0  0  0  0  0999 V2000
   -5.5026    5.7736    0.0599 C   0  0  0  0  0  0  0  0  0  0  0  0
   -4.2863    5.5908    0.7745 O   0  0  0  0  0  0  0  0  0  0  0  0
   -3.7695    4.3251    0.7932 C   0  0  0  0  0  0  0  0  0  0  0  0
   -2.6531    4.1606    1.6131 C   0  0  0  0  0  0  0  0  0  0  0  0
   -2.0284    2.9159    1.7272 C   0  0  0  0  0  0  0  0  0  0  0  0
   -2.5112    1.8009    1.0208 C   0  0  0  0  0  0  0  0  0  0  0  0
   -1.7695    0.4693    1.1472 C   0  0  0  0  0  0  0  0  0  0  0  0
   -2.6517   -0.8218    1.1384 C   0  0  0  0  0  0  0  0  0  0  0  0
   -3.8751   -0.8209    1.0331 O   0  0  0  0  0  0  0  0  0  0  0  0
   -1.9325   -1.9899    1.3658 N   0  0  0  0  0  0  0  0  0  0  0  0
   -2.5227   -3.3254    1.5386 C   0  0  0  0  0  0  0  0  0  0  0  0
   -3.3413   -3.7396    0.3047 C   0  0  0  0  0  0  0  0  0  0  0  0
   -3.3992   -3.3746    2.7989 C   0  0  0  0  0  0  0  0  0  0  0  0
   -1.3674   -4.3296    1.7027 C   0  0  0  0  0  0  0  0  0  0  0  0
   -0.5972    0.3669    0.2300 N   0  0  0  0  0  0  0  0  0  0  0  0
    0.5499   -0.2693    0.7048 C   0  0  0  0  0  0  0  0  0  0  0  0
    0.5909   -0.7854    1.8264 O   0  0  0  0  0  0  0  0  0  0  0  0
    1.7649   -0.2781   -0.2121 C   0  0  0  0  0  0  0  0  0  0  0  0
    3.0104   -0.7485    0.5353 C   0  0  0  0  0  0  0  0  0  0  0  0
    4.2784   -0.5237   -0.2636 C   0  0  0  0  0  0  0  0  0  0  0  0
    4.2732   -0.0069   -1.3758 O   0  0  0  0  0  0  0  0  0  0  0  0
    5.3912   -0.9616    0.4178 N   0  0  0  0  0  0  0  0  0  0  0  0
    6.6903   -0.8536   -0.0252 C   0  0  0  0  0  0  0  0  0  0  0  0
    7.1934   -0.2717   -1.2090 C   0  0  0  0  0  0  0  0  0  0  0  0
    8.5532   -0.4284   -1.1201 C   0  0  0  0  0  0  0  0  0  0  0  0
    9.6897   -0.0630   -1.9828 C   0  0  0  0  0  0  0  0  0  0  0  0
    8.8510   -1.0793    0.0348 O   0  0  0  0  0  0  0  0  0  0  0  0
    7.6831   -1.3413    0.7268 N   0  0  0  0  0  0  0  0  0  0  0  0
   -0.8610    0.4390   -1.1658 C   0  0  0  0  0  0  0  0  0  0  0  0
   -0.9247    1.6880   -1.7949 C   0  0  0  0  0  0  0  0  0  0  0  0
   -1.1829    1.7745   -3.1649 C   0  0  0  0  0  0  0  0  0  0  0  0
   -1.3743    0.6120   -3.9092 C   0  0  0  0  0  0  0  0  0  0  0  0
   -1.3043   -0.6251   -3.2779 C   0  0  0  0  0  0  0  0  0  0  0  0
   -1.4883   -1.7415   -3.9950 F   0  0  0  0  0  0  0  0  0  0  0  0
   -1.0465   -0.7255   -1.9153 C   0  0  0  0  0  0  0  0  0  0  0  0
   -3.6208    1.9846    0.1818 C   0  0  0  0  0  0  0  0  0  0  0  0
   -4.2479    3.2326    0.0733 C   0  0  0  0  0  0  0  0  0  0  0  0
   -6.2966    5.1331    0.4574 H   0  0  0  0  0  0  0  0  0  0  0  0
   -5.3574    5.6055   -1.0119 H   0  0  0  0  0  0  0  0  0  0  0  0
   -5.8150    6.8133    0.1945 H   0  0  0  0  0  0  0  0  0  0  0  0
   -2.2681    5.0099    2.1720 H   0  0  0  0  0  0  0  0  0  0  0  0
   -1.1573    2.8253    2.3736 H   0  0  0  0  0  0  0  0  0  0  0  0
   -1.3730    0.4762    2.1744 H   0  0  0  0  0  0  0  0  0  0  0  0
   -1.0035   -1.8515    1.7641 H   0  0  0  0  0  0  0  0  0  0  0  0
   -2.7399   -3.6639   -0.6087 H   0  0  0  0  0  0  0  0  0  0  0  0
   -3.6910   -4.7748    0.3921 H   0  0  0  0  0  0  0  0  0  0  0  0
   -4.2264   -3.1117    0.1660 H   0  0  0  0  0  0  0  0  0  0  0  0
   -2.8345   -3.0563    3.6830 H   0  0  0  0  0  0  0  0  0  0  0  0
   -4.2706   -2.7172    2.7163 H   0  0  0  0  0  0  0  0  0  0  0  0
   -3.7711   -4.3888    2.9832 H   0  0  0  0  0  0  0  0  0  0  0  0
   -1.7400   -5.3522    1.8308 H   0  0  0  0  0  0  0  0  0  0  0  0
   -0.7069   -4.3182    0.8275 H   0  0  0  0  0  0  0  0  0  0  0  0
   -0.7517   -4.0849    2.5767 H   0  0  0  0  0  0  0  0  0  0  0  0
    1.5850   -0.9492   -1.0584 H   0  0  0  0  0  0  0  0  0  0  0  0
    1.9169    0.7375   -0.5959 H   0  0  0  0  0  0  0  0  0  0  0  0
    3.1123   -0.2049    1.4826 H   0  0  0  0  0  0  0  0  0  0  0  0
    2.9244   -1.8170    0.7656 H   0  0  0  0  0  0  0  0  0  0  0  0
    5.3029   -1.4176    1.3155 H   0  0  0  0  0  0  0  0  0  0  0  0
    6.6484    0.2080   -2.0084 H   0  0  0  0  0  0  0  0  0  0  0  0
   10.0479   -0.9393   -2.5315 H   0  0  0  0  0  0  0  0  0  0  0  0
    9.3989    0.7033   -2.7091 H   0  0  0  0  0  0  0  0  0  0  0  0
   10.5179    0.3338   -1.3868 H   0  0  0  0  0  0  0  0  0  0  0  0
   -0.7719    2.6024   -1.2255 H   0  0  0  0  0  0  0  0  0  0  0  0
   -1.2347    2.7477   -3.6476 H   0  0  0  0  0  0  0  0  0  0  0  0
   -1.5768    0.6612   -4.9746 H   0  0  0  0  0  0  0  0  0  0  0  0
   -1.0094   -1.7095   -1.4597 H   0  0  0  0  0  0  0  0  0  0  0  0
   -4.0152    1.1580   -0.4072 H   0  0  0  0  0  0  0  0  0  0  0  0
   -5.1049    3.3121   -0.5874 H   0  0  0  0  0  0  0  0  0  0  0  0
  1  2  1  0
  2  3  1  0
  3  4  2  0
  4  5  1  0
  5  6  2  0
  6  7  1  0
  7  8  1  0
  8  9  2  0
  8 10  1  0
 10 11  1  0
 11 12  1  0
 11 13  1  0
 11 14  1  0
  7 15  1  0
 15 16  1  0
 16 17  2  0
 16 18  1  0
 18 19  1  0
 19 20  1  0
 20 21  2  0
 20 22  1  0
 22 23  1  0
 23 24  1  0
 24 25  2  0
 25 26  1  0
 25 27  1  0
 27 28  1  0
 15 29  1  0
 29 30  2  0
 30 31  1  0
 31 32  2  0
 32 33  1  0
 33 34  1  0
 33 35  2  0
  6 36  1  0
 36 37  2  0
 37  3  1  0
 28 23  2  0
 35 29  1  0
  1 38  1  0
  1 39  1  0
  1 40  1  0
  4 41  1  0
  5 42  1  0
  7 43  1  0
 10 44  1  0
 12 45  1  0
 12 46  1  0
 12 47  1  0
 13 48  1  0
 13 49  1  0
 13 50  1  0
 14 51  1  0
 14 52  1  0
 14 53  1  0
 18 54  1  0
 18 55  1  0
 19 56  1  0
 19 57  1  0
 22 58  1  0
 24 59  1  0
 26 60  1  0
 26 61  1  0
 26 62  1  0
 30 63  1  0
 31 64  1  0
 32 65  1  0
 35 66  1  0
 36 67  1  0
 37 68  1  0
M  END
$$$$
