
     RDKit          3D

 39 40  0  0  0  0  0  0  0  0999 V2000
   -1.5576   -0.4789   -2.3284 C   0  0  0  0  0  0  0  0  0  0  0  0
   -2.4330   -0.1423   -1.1379 C   0  0  0  0  0  0  0  0  0  0  0  0
   -1.9253    0.1407    0.0773 C   0  0  0  0  0  0  0  0  0  0  0  0
   -0.4636    0.2161    0.3400 C   0  0  0  0  0  0  0  0  0  0  0  0
    0.3626    0.8679   -0.4188 N   0  0  0  0  0  0  0  0  0  0  0  0
    1.6904    0.8096   -0.0781 N   0  0  0  0  0  0  0  0  0  0  0  0
    2.3513   -0.3535    0.2990 C   0  0  0  0  0  0  0  0  0  0  0  0
    1.7978   -1.4289    0.5215 O   0  0  0  0  0  0  0  0  0  0  0  0
    3.8421   -0.2596    0.4268 C   0  0  0  0  0  0  0  0  0  0  0  0
    4.5055   -1.3669    0.9833 C   0  0  0  0  0  0  0  0  0  0  0  0
    5.8904   -1.3524    1.1423 C   0  0  0  0  0  0  0  0  0  0  0  0
    6.7648   -2.8479    1.8986 Br  0  0  0  0  0  0  0  0  0  0  0  0
    6.6365   -0.2440    0.7500 C   0  0  0  0  0  0  0  0  0  0  0  0
    5.9936    0.8605    0.1903 C   0  0  0  0  0  0  0  0  0  0  0  0
    4.6043    0.8517    0.0286 C   0  0  0  0  0  0  0  0  0  0  0  0
    4.0039    1.9463   -0.5369 O   0  0  0  0  0  0  0  0  0  0  0  0
   -2.8398    0.3368    1.2245 C   0  0  0  0  0  0  0  0  0  0  0  0
   -2.3743    0.4957    2.3527 O   0  0  0  0  0  0  0  0  0  0  0  0
   -4.1908    0.3294    0.9507 N   0  0  0  0  0  0  0  0  0  0  0  0
   -5.1229    0.5378    2.0430 C   0  0  0  0  0  0  0  0  0  0  0  0
   -4.7334    0.0548   -0.2955 C   0  0  0  0  0  0  0  0  0  0  0  0
   -5.9530   -0.0040   -0.4672 O   0  0  0  0  0  0  0  0  0  0  0  0
   -3.8199   -0.1610   -1.3299 N   0  0  0  0  0  0  0  0  0  0  0  0
   -4.3797   -0.4356   -2.6530 C   0  0  0  0  0  0  0  0  0  0  0  0
   -0.5389   -0.7640   -2.0540 H   0  0  0  0  0  0  0  0  0  0  0  0
   -1.9463   -1.3455   -2.8735 H   0  0  0  0  0  0  0  0  0  0  0  0
   -1.5031    0.3728   -3.0139 H   0  0  0  0  0  0  0  0  0  0  0  0
   -0.1455   -0.2712    1.2794 H   0  0  0  0  0  0  0  0  0  0  0  0
    2.2652    1.5491   -0.4837 H   0  0  0  0  0  0  0  0  0  0  0  0
    3.9350   -2.2398    1.2966 H   0  0  0  0  0  0  0  0  0  0  0  0
    7.7168   -0.2323    0.8742 H   0  0  0  0  0  0  0  0  0  0  0  0
    6.5928    1.7145   -0.1139 H   0  0  0  0  0  0  0  0  0  0  0  0
    4.6826    2.6174   -0.7351 H   0  0  0  0  0  0  0  0  0  0  0  0
   -4.6303    0.9083    2.9457 H   0  0  0  0  0  0  0  0  0  0  0  0
   -5.6135   -0.4149    2.2685 H   0  0  0  0  0  0  0  0  0  0  0  0
   -5.8890    1.2591    1.7398 H   0  0  0  0  0  0  0  0  0  0  0  0
   -3.8887    0.1904   -3.4044 H   0  0  0  0  0  0  0  0  0  0  0  0
   -4.2360   -1.4952   -2.8862 H   0  0  0  0  0  0  0  0  0  0  0  0
   -5.4510   -0.2209   -2.7020 H   0  0  0  0  0  0  0  0  0  0  0  0
  1  2  1  0
  2  3  2  0
  3  4  1  0
  4  5  2  3
  5  6  1  0
  6  7  1  0
  7  8  2  0
  7  9  1  0
  9 10  2  0
 10 11  1  0
 11 12  1  0
 11 13  2  0
 13 14  1  0
 14 15  2  0
 15 16  1  0
  3 17  1  0
 17 18  2  0
 17 19  1  0
 19 20  1  0
 19 21  1  0
 21 22  2  0
 21 23  1  0
 23 24  1  0
 23  2  1  0
 15  9  1  0
  1 25  1  0
  1 26  1  0
  1 27  1  0
  4 28  1  0
  6 29  1  0
 10 30  1  0
 13 31  1  0
 14 32  1  0
 16 33  1  0
 20 34  1  0
 20 35  1  0
 20 36  1  0
 24 37  1  0
 24 38  1  0
 24 39  1  0
M  END
$$$$
