
     RDKit          3D

 59 62  0  0  0  0  0  0  0  0999 V2000
   -1.6552    1.8470   -2.7564 C   0  0  0  0  0  0  0  0  0  0  0  0
   -1.6842    0.6514   -1.9670 O   0  0  0  0  0  0  0  0  0  0  0  0
   -2.9753    0.2013   -1.8277 C   0  0  0  0  0  0  0  0  0  0  0  0
   -3.3945   -0.8490   -2.6663 C   0  0  0  0  0  0  0  0  0  0  0  0
   -2.4589   -1.4819   -3.6590 C   0  0  0  0  0  0  0  0  0  0  0  0
   -4.7007   -1.3405   -2.5349 C   0  0  0  0  0  0  0  0  0  0  0  0
   -5.5677   -0.7918   -1.5903 C   0  0  0  0  0  0  0  0  0  0  0  0
   -7.3245   -1.4661   -1.4344 Br  0  0  0  0  0  0  0  0  0  0  0  0
   -5.1452    0.2329   -0.7478 C   0  0  0  0  0  0  0  0  0  0  0  0
   -3.8354    0.7233   -0.8425 C   0  0  0  0  0  0  0  0  0  0  0  0
   -3.4365    1.7796    0.1371 C   0  0  0  0  0  0  0  0  0  0  0  0
   -4.3060    2.5334    0.5628 O   0  0  0  0  0  0  0  0  0  0  0  0
   -2.1080    1.7817    0.4922 N   0  0  0  0  0  0  0  0  0  0  0  0
   -1.4219    2.6571    1.3581 C   0  0  0  0  0  0  0  0  0  0  0  0
   -2.0209    3.7236    2.0285 C   0  0  0  0  0  0  0  0  0  0  0  0
   -1.2520    4.5525    2.8490 C   0  0  0  0  0  0  0  0  0  0  0  0
    0.1129    4.3173    3.0037 C   0  0  0  0  0  0  0  0  0  0  0  0
    0.7194    3.2501    2.3392 C   0  0  0  0  0  0  0  0  0  0  0  0
   -0.0356    2.4081    1.5105 C   0  0  0  0  0  0  0  0  0  0  0  0
    0.5335    1.3010    0.8299 N   0  0  0  0  0  0  0  0  0  0  0  0
    1.6185    1.6609   -0.1178 C   0  0  0  0  0  0  0  0  0  0  0  0
    2.9765    1.0471    0.2579 C   0  0  0  0  0  0  0  0  0  0  0  0
    2.9062   -0.4013    0.4739 N   0  0  0  0  0  0  0  0  0  0  0  0
    4.0850   -1.1320    0.3705 C   0  0  0  0  0  0  0  0  0  0  0  0
    5.1787   -0.6090    0.1667 O   0  0  0  0  0  0  0  0  0  0  0  0
    4.0379   -2.6052    0.5156 C   0  0  0  0  0  0  0  0  0  0  0  0
    3.1579   -3.3798   -0.2510 C   0  0  0  0  0  0  0  0  0  0  0  0
    3.1520   -4.7701   -0.1082 C   0  0  0  0  0  0  0  0  0  0  0  0
    4.0351   -5.3826    0.7852 C   0  0  0  0  0  0  0  0  0  0  0  0
    4.9304   -4.6116    1.5297 C   0  0  0  0  0  0  0  0  0  0  0  0
    4.9381   -3.2224    1.3907 C   0  0  0  0  0  0  0  0  0  0  0  0
    1.6498   -0.9111    1.0489 C   0  0  0  0  0  0  0  0  0  0  0  0
    0.8418    0.1896    1.7611 C   0  0  0  0  0  0  0  0  0  0  0  0
   -0.6079    2.1395   -2.8780 H   0  0  0  0  0  0  0  0  0  0  0  0
   -2.0801    1.6755   -3.7519 H   0  0  0  0  0  0  0  0  0  0  0  0
   -2.1794    2.6713   -2.2623 H   0  0  0  0  0  0  0  0  0  0  0  0
   -2.9986   -2.1216   -4.3646 H   0  0  0  0  0  0  0  0  0  0  0  0
   -1.7203   -2.0968   -3.1364 H   0  0  0  0  0  0  0  0  0  0  0  0
   -1.9404   -0.7221   -4.2509 H   0  0  0  0  0  0  0  0  0  0  0  0
   -5.0410   -2.1545   -3.1700 H   0  0  0  0  0  0  0  0  0  0  0  0
   -5.8234    0.6433   -0.0011 H   0  0  0  0  0  0  0  0  0  0  0  0
   -1.4850    1.0983    0.0617 H   0  0  0  0  0  0  0  0  0  0  0  0
   -3.0801    3.9364    1.9252 H   0  0  0  0  0  0  0  0  0  0  0  0
   -1.7244    5.3844    3.3656 H   0  0  0  0  0  0  0  0  0  0  0  0
    0.7046    4.9661    3.6436 H   0  0  0  0  0  0  0  0  0  0  0  0
    1.7833    3.0781    2.4790 H   0  0  0  0  0  0  0  0  0  0  0  0
    1.7227    2.7459   -0.2425 H   0  0  0  0  0  0  0  0  0  0  0  0
    1.3213    1.2686   -1.0987 H   0  0  0  0  0  0  0  0  0  0  0  0
    3.3507    1.4899    1.1894 H   0  0  0  0  0  0  0  0  0  0  0  0
    3.7106    1.2648   -0.5269 H   0  0  0  0  0  0  0  0  0  0  0  0
    2.4935   -2.9108   -0.9701 H   0  0  0  0  0  0  0  0  0  0  0  0
    2.4765   -5.3801   -0.7056 H   0  0  0  0  0  0  0  0  0  0  0  0
    4.0378   -6.4657    0.8893 H   0  0  0  0  0  0  0  0  0  0  0  0
    5.6331   -5.0942    2.2078 H   0  0  0  0  0  0  0  0  0  0  0  0
    5.6478   -2.6228    1.9555 H   0  0  0  0  0  0  0  0  0  0  0  0
    1.8613   -1.7214    1.7538 H   0  0  0  0  0  0  0  0  0  0  0  0
    1.0609   -1.3167    0.2181 H   0  0  0  0  0  0  0  0  0  0  0  0
    1.4183    0.5460    2.6245 H   0  0  0  0  0  0  0  0  0  0  0  0
   -0.0933   -0.2411    2.1377 H   0  0  0  0  0  0  0  0  0  0  0  0
  1  2  1  0
  2  3  1  0
  3  4  2  0
  4  5  1  0
  4  6  1  0
  6  7  2  0
  7  8  1  0
  7  9  1  0
  9 10  2  0
 10 11  1  0
 11 12  2  0
 11 13  1  0
 13 14  1  0
 14 15  2  0
 15 16  1  0
 16 17  2  0
 17 18  1  0
 18 19  2  0
 19 20  1  0
 20 21  1  0
 21 22  1  0
 22 23  1  0
 23 24  1  0
 24 25  2  0
 24 26  1  0
 26 27  2  0
 27 28  1  0
 28 29  2  0
 29 30  1  0
 30 31  2  0
 23 32  1  0
 32 33  1  0
 10  3  1  0
 19 14  1  0
 33 20  1  0
 31 26  1  0
  1 34  1  0
  1 35  1  0
  1 36  1  0
  5 37  1  0
  5 38  1  0
  5 39  1  0
  6 40  1  0
  9 41  1  0
 13 42  1  0
 15 43  1  0
 16 44  1  0
 17 45  1  0
 18 46  1  0
 21 47  1  0
 21 48  1  0
 22 49  1  0
 22 50  1  0
 27 51  1  0
 28 52  1  0
 29 53  1  0
 30 54  1  0
 31 55  1  0
 32 56  1  0
 32 57  1  0
 33 58  1  0
 33 59  1  0
M  END
$$$$
