
     RDKit          3D

 51 53  0  0  0  0  0  0  0  0999 V2000
    7.6659   -2.6061    0.7987 C   0  0  0  0  0  0  0  0  0  0  0  0
    6.8771   -1.5635    1.3572 O   0  0  0  0  0  0  0  0  0  0  0  0
    6.0529   -0.8709    0.5059 C   0  0  0  0  0  0  0  0  0  0  0  0
    5.8500   -1.1941   -0.8404 C   0  0  0  0  0  0  0  0  0  0  0  0
    4.9834   -0.4309   -1.6278 C   0  0  0  0  0  0  0  0  0  0  0  0
    4.3164    0.6775   -1.0880 C   0  0  0  0  0  0  0  0  0  0  0  0
    3.3830    1.4886   -1.9520 C   0  0  0  0  0  0  0  0  0  0  0  0
    2.0043    0.8539   -2.0653 C   0  0  0  0  0  0  0  0  0  0  0  0
    1.7826   -0.0212   -2.8991 O   0  0  0  0  0  0  0  0  0  0  0  0
    1.1021    1.3651   -1.1453 N   0  0  0  0  0  0  0  0  0  0  0  0
   -0.2423    0.9850   -0.9564 C   0  0  0  0  0  0  0  0  0  0  0  0
   -0.8855   -0.0122   -1.6863 C   0  0  0  0  0  0  0  0  0  0  0  0
   -2.2267   -0.3285   -1.4293 C   0  0  0  0  0  0  0  0  0  0  0  0
   -2.9498    0.3519   -0.4449 C   0  0  0  0  0  0  0  0  0  0  0  0
   -4.2936   -0.0280   -0.2478 N   0  0  0  0  0  0  0  0  0  0  0  0
   -5.2185    0.5749    0.5870 C   0  0  0  0  0  0  0  0  0  0  0  0
   -5.0621    1.5979    1.2456 O   0  0  0  0  0  0  0  0  0  0  0  0
   -6.5516   -0.0898    0.6261 C   0  0  0  0  0  0  0  0  0  0  0  0
   -6.6799   -1.4859    0.5954 C   0  0  0  0  0  0  0  0  0  0  0  0
   -7.9488   -2.0710    0.6418 C   0  0  0  0  0  0  0  0  0  0  0  0
   -9.0830   -1.2619    0.7262 C   0  0  0  0  0  0  0  0  0  0  0  0
  -10.7977   -2.0556    0.7925 Br  0  0  0  0  0  0  0  0  0  0  0  0
   -8.9625    0.1265    0.7708 C   0  0  0  0  0  0  0  0  0  0  0  0
   -7.6953    0.7126    0.7268 C   0  0  0  0  0  0  0  0  0  0  0  0
   -2.3048    1.3453    0.2891 C   0  0  0  0  0  0  0  0  0  0  0  0
   -0.9627    1.6579    0.0359 C   0  0  0  0  0  0  0  0  0  0  0  0
    4.5099    0.9971    0.2658 C   0  0  0  0  0  0  0  0  0  0  0  0
    5.3597    0.2213    1.0665 C   0  0  0  0  0  0  0  0  0  0  0  0
    5.6023    0.4955    2.3934 O   0  0  0  0  0  0  0  0  0  0  0  0
    4.5230    1.0841    3.1089 C   0  0  0  0  0  0  0  0  0  0  0  0
    8.3026   -3.0061    1.5950 H   0  0  0  0  0  0  0  0  0  0  0  0
    8.3223   -2.2274    0.0044 H   0  0  0  0  0  0  0  0  0  0  0  0
    7.0346   -3.4265    0.4359 H   0  0  0  0  0  0  0  0  0  0  0  0
    6.3441   -2.0415   -1.3094 H   0  0  0  0  0  0  0  0  0  0  0  0
    4.8293   -0.7121   -2.6715 H   0  0  0  0  0  0  0  0  0  0  0  0
    3.7972    1.5871   -2.9629 H   0  0  0  0  0  0  0  0  0  0  0  0
    3.3021    2.5140   -1.5714 H   0  0  0  0  0  0  0  0  0  0  0  0
    1.4456    2.0813   -0.5185 H   0  0  0  0  0  0  0  0  0  0  0  0
   -0.3744   -0.5711   -2.4632 H   0  0  0  0  0  0  0  0  0  0  0  0
   -2.6897   -1.1140   -2.0212 H   0  0  0  0  0  0  0  0  0  0  0  0
   -4.6252   -0.7808   -0.8385 H   0  0  0  0  0  0  0  0  0  0  0  0
   -5.8049   -2.1299    0.5690 H   0  0  0  0  0  0  0  0  0  0  0  0
   -8.0429   -3.1548    0.6243 H   0  0  0  0  0  0  0  0  0  0  0  0
   -9.8431    0.7597    0.8443 H   0  0  0  0  0  0  0  0  0  0  0  0
   -7.5994    1.7963    0.7712 H   0  0  0  0  0  0  0  0  0  0  0  0
   -2.8135    1.8954    1.0743 H   0  0  0  0  0  0  0  0  0  0  0  0
   -0.4989    2.4397    0.6318 H   0  0  0  0  0  0  0  0  0  0  0  0
    4.0072    1.8658    0.6833 H   0  0  0  0  0  0  0  0  0  0  0  0
    3.5713    0.5791    2.9000 H   0  0  0  0  0  0  0  0  0  0  0  0
    4.7329    0.9738    4.1786 H   0  0  0  0  0  0  0  0  0  0  0  0
    4.4551    2.1561    2.8927 H   0  0  0  0  0  0  0  0  0  0  0  0
  1  2  1  0
  2  3  1  0
  3  4  2  0
  4  5  1  0
  5  6  2  0
  6  7  1  0
  7  8  1  0
  8  9  2  0
  8 10  1  0
 10 11  1  0
 11 12  2  0
 12 13  1  0
 13 14  2  0
 14 15  1  0
 15 16  1  0
 16 17  2  0
 16 18  1  0
 18 19  2  0
 19 20  1  0
 20 21  2  0
 21 22  1  0
 21 23  1  0
 23 24  2  0
 14 25  1  0
 25 26  2  0
  6 27  1  0
 27 28  2  0
 28 29  1  0
 29 30  1  0
 28  3  1  0
 26 11  1  0
 24 18  1  0
  1 31  1  0
  1 32  1  0
  1 33  1  0
  4 34  1  0
  5 35  1  0
  7 36  1  0
  7 37  1  0
 10 38  1  0
 12 39  1  0
 13 40  1  0
 15 41  1  0
 19 42  1  0
 20 43  1  0
 23 44  1  0
 24 45  1  0
 25 46  1  0
 26 47  1  0
 27 48  1  0
 30 49  1  0
 30 50  1  0
 30 51  1  0
M  END
$$$$
