
     RDKit          3D

 53 56  0  0  0  0  0  0  0  0999 V2000
   -8.0711    0.3090   -0.6068 C   0  0  0  0  0  0  0  0  0  0  0  0
   -6.6244    0.3328   -0.2124 C   0  0  0  0  0  0  0  0  0  0  0  0
   -6.1129   -0.6299    0.6619 C   0  0  0  0  0  0  0  0  0  0  0  0
   -4.7565   -0.6309    0.9998 C   0  0  0  0  0  0  0  0  0  0  0  0
   -3.8851    0.3376    0.4741 C   0  0  0  0  0  0  0  0  0  0  0  0
   -2.5044    0.2934    0.8406 N   0  0  0  0  0  0  0  0  0  0  0  0
   -2.0107   -0.8555    1.3776 N   0  0  0  0  0  0  0  0  0  0  0  0
   -0.6876   -0.6884    1.4023 C   0  0  0  0  0  0  0  0  0  0  0  0
    0.3004   -1.6770    1.8147 C   0  0  0  0  0  0  0  0  0  0  0  0
    0.0203   -2.8233    2.1551 O   0  0  0  0  0  0  0  0  0  0  0  0
    1.6171   -1.1738    1.7786 N   0  0  0  0  0  0  0  0  0  0  0  0
    2.7174   -2.0694    2.1337 C   0  0  0  0  0  0  0  0  0  0  0  0
    3.3267   -2.7679    0.9153 C   0  0  0  0  0  0  0  0  0  0  0  0
    4.1235   -3.6974    1.0274 O   0  0  0  0  0  0  0  0  0  0  0  0
    2.9974   -2.2119   -0.3023 N   0  0  0  0  0  0  0  0  0  0  0  0
    3.6257   -2.6259   -1.5416 C   0  0  0  0  0  0  0  0  0  0  0  0
    5.0225   -2.0270   -1.7383 C   0  0  0  0  0  0  0  0  0  0  0  0
    5.0072   -0.5224   -1.7770 C   0  0  0  0  0  0  0  0  0  0  0  0
    5.3392    0.3545   -0.7626 C   0  0  0  0  0  0  0  0  0  0  0  0
    5.2186    1.7162   -1.1626 C   0  0  0  0  0  0  0  0  0  0  0  0
    4.7942    1.8349   -2.4670 C   0  0  0  0  0  0  0  0  0  0  0  0
    4.5483    0.3106   -3.2023 S   0  0  0  0  0  0  0  0  0  0  0  0
    1.9793    0.1124    1.3504 N   0  0  0  0  0  0  0  0  0  0  0  0
    1.0750    0.9790    0.9834 C   0  0  0  0  0  0  0  0  0  0  0  0
    1.5283    2.3425    0.5455 C   0  0  0  0  0  0  0  0  0  0  0  0
   -0.3160    0.6000    1.0029 C   0  0  0  0  0  0  0  0  0  0  0  0
   -1.5009    1.2655    0.7351 C   0  0  0  0  0  0  0  0  0  0  0  0
   -1.7451    2.7045    0.4541 C   0  0  0  0  0  0  0  0  0  0  0  0
   -4.3918    1.2771   -0.4304 C   0  0  0  0  0  0  0  0  0  0  0  0
   -5.7510    1.2726   -0.7687 C   0  0  0  0  0  0  0  0  0  0  0  0
   -8.6924   -0.0722    0.2103 H   0  0  0  0  0  0  0  0  0  0  0  0
   -8.4279    1.3174   -0.8420 H   0  0  0  0  0  0  0  0  0  0  0  0
   -8.2094   -0.3297   -1.4848 H   0  0  0  0  0  0  0  0  0  0  0  0
   -6.7631   -1.3926    1.0849 H   0  0  0  0  0  0  0  0  0  0  0  0
   -4.3947   -1.3957    1.6862 H   0  0  0  0  0  0  0  0  0  0  0  0
    2.3641   -2.8388    2.8271 H   0  0  0  0  0  0  0  0  0  0  0  0
    3.5003   -1.4814    2.6242 H   0  0  0  0  0  0  0  0  0  0  0  0
    2.5778   -1.2867   -0.2611 H   0  0  0  0  0  0  0  0  0  0  0  0
    3.6979   -3.7190   -1.5444 H   0  0  0  0  0  0  0  0  0  0  0  0
    2.9519   -2.3308   -2.3532 H   0  0  0  0  0  0  0  0  0  0  0  0
    5.6847   -2.3554   -0.9273 H   0  0  0  0  0  0  0  0  0  0  0  0
    5.4553   -2.4168   -2.6680 H   0  0  0  0  0  0  0  0  0  0  0  0
    5.6597    0.0308    0.2211 H   0  0  0  0  0  0  0  0  0  0  0  0
    5.4372    2.5647   -0.5256 H   0  0  0  0  0  0  0  0  0  0  0  0
    4.6228    2.7425   -3.0287 H   0  0  0  0  0  0  0  0  0  0  0  0
    1.2588    3.0788    1.3069 H   0  0  0  0  0  0  0  0  0  0  0  0
    2.6146    2.3604    0.4193 H   0  0  0  0  0  0  0  0  0  0  0  0
    1.0624    2.6080   -0.4070 H   0  0  0  0  0  0  0  0  0  0  0  0
   -1.0051    3.3318    0.9587 H   0  0  0  0  0  0  0  0  0  0  0  0
   -2.7156    3.0378    0.8334 H   0  0  0  0  0  0  0  0  0  0  0  0
   -1.6810    2.9067   -0.6193 H   0  0  0  0  0  0  0  0  0  0  0  0
   -3.7595    1.9957   -0.9373 H   0  0  0  0  0  0  0  0  0  0  0  0
   -6.1221    2.0024   -1.4863 H   0  0  0  0  0  0  0  0  0  0  0  0
  1  2  1  0
  2  3  2  0
  3  4  1  0
  4  5  2  0
  5  6  1  0
  6  7  1  0
  7  8  2  0
  8  9  1  0
  9 10  2  0
  9 11  1  0
 11 12  1  0
 12 13  1  0
 13 14  2  0
 13 15  1  0
 15 16  1  0
 16 17  1  0
 17 18  1  0
 18 19  2  0
 19 20  1  0
 20 21  2  0
 21 22  1  0
 11 23  1  0
 23 24  2  0
 24 25  1  0
 24 26  1  0
 26 27  2  0
 27 28  1  0
  5 29  1  0
 29 30  2  0
 30  2  1  0
 27  6  1  0
 26  8  1  0
 22 18  1  0
  1 31  1  0
  1 32  1  0
  1 33  1  0
  3 34  1  0
  4 35  1  0
 12 36  1  0
 12 37  1  0
 15 38  1  0
 16 39  1  0
 16 40  1  0
 17 41  1  0
 17 42  1  0
 19 43  1  0
 20 44  1  0
 21 45  1  0
 25 46  1  0
 25 47  1  0
 25 48  1  0
 28 49  1  0
 28 50  1  0
 28 51  1  0
 29 52  1  0
 30 53  1  0
M  END
$$$$
