
     RDKit          3D

 60 64  0  0  0  0  0  0  0  0999 V2000
   -0.7116   -3.3763    0.3364 C   0  0  0  0  0  0  0  0  0  0  0  0
   -1.6178   -2.2321    0.3041 N   0  0  0  0  0  0  0  0  0  0  0  0
   -2.9424   -2.4705    0.6763 C   0  0  0  0  0  0  0  0  0  0  0  0
   -3.3277   -3.5859    1.0414 O   0  0  0  0  0  0  0  0  0  0  0  0
   -3.9400   -1.3550    0.5785 C   0  0  0  0  0  0  0  0  0  0  0  0
   -5.2244   -1.7038    0.3730 C   0  0  0  0  0  0  0  0  0  0  0  0
   -6.3638   -0.7858    0.2853 C   0  0  0  0  0  0  0  0  0  0  0  0
   -6.6700   -0.1480   -0.9210 C   0  0  0  0  0  0  0  0  0  0  0  0
   -7.7570    0.7272   -0.9974 C   0  0  0  0  0  0  0  0  0  0  0  0
   -8.5486    0.9818    0.1332 C   0  0  0  0  0  0  0  0  0  0  0  0
   -9.7349    1.9110    0.0527 C   0  0  0  0  0  0  0  0  0  0  0  0
   -9.9054    2.6544    1.1819 F   0  0  0  0  0  0  0  0  0  0  0  0
  -10.9057    1.2412   -0.1338 F   0  0  0  0  0  0  0  0  0  0  0  0
   -9.6499    2.8071   -0.9705 F   0  0  0  0  0  0  0  0  0  0  0  0
   -8.2392    0.3302    1.3378 C   0  0  0  0  0  0  0  0  0  0  0  0
   -7.1531   -0.5454    1.4136 C   0  0  0  0  0  0  0  0  0  0  0  0
   -3.4182    0.2611    0.8355 S   0  0  0  0  0  0  0  0  0  0  0  0
   -1.8776    0.2047   -0.0384 C   0  0  0  0  0  0  0  0  0  0  0  0
   -1.3890    1.4274   -0.5353 C   0  0  0  0  0  0  0  0  0  0  0  0
   -0.1601    1.4928   -1.1856 C   0  0  0  0  0  0  0  0  0  0  0  0
    0.5910    0.3312   -1.3186 C   0  0  0  0  0  0  0  0  0  0  0  0
    1.8818    0.3883   -2.0280 C   0  0  0  0  0  0  0  0  0  0  0  0
    1.8458    0.5526   -3.2438 O   0  0  0  0  0  0  0  0  0  0  0  0
    3.0536    0.2566   -1.2933 N   0  0  0  0  0  0  0  0  0  0  0  0
    3.1168   -0.0467    0.1466 C   0  0  0  0  0  0  0  0  0  0  0  0
    4.3678    0.5405    0.8261 C   0  0  0  0  0  0  0  0  0  0  0  0
    5.5868    0.1540    0.0834 N   0  0  0  0  0  0  0  0  0  0  0  0
    6.7677    0.5702    0.7364 C   0  0  0  0  0  0  0  0  0  0  0  0
    8.0012    0.0791    0.2994 C   0  0  0  0  0  0  0  0  0  0  0  0
    9.1756    0.4708    0.9405 C   0  0  0  0  0  0  0  0  0  0  0  0
    9.0988    1.3427    2.0148 C   0  0  0  0  0  0  0  0  0  0  0  0
    7.8454    1.7771    2.4025 C   0  0  0  0  0  0  0  0  0  0  0  0
    6.6948    1.4079    1.7949 N   0  0  0  0  0  0  0  0  0  0  0  0
    5.5388    0.6130   -1.3235 C   0  0  0  0  0  0  0  0  0  0  0  0
    4.3013    0.0340   -2.0319 C   0  0  0  0  0  0  0  0  0  0  0  0
    0.1102   -0.8954   -0.8427 C   0  0  0  0  0  0  0  0  0  0  0  0
   -1.1343   -0.9780   -0.1924 C   0  0  0  0  0  0  0  0  0  0  0  0
   -0.5455   -3.7305   -0.6862 H   0  0  0  0  0  0  0  0  0  0  0  0
   -1.1180   -4.2079    0.9198 H   0  0  0  0  0  0  0  0  0  0  0  0
    0.2359   -3.0894    0.8042 H   0  0  0  0  0  0  0  0  0  0  0  0
   -5.4975   -2.7528    0.2619 H   0  0  0  0  0  0  0  0  0  0  0  0
   -6.0660   -0.3273   -1.8081 H   0  0  0  0  0  0  0  0  0  0  0  0
   -7.9822    1.2130   -1.9462 H   0  0  0  0  0  0  0  0  0  0  0  0
   -8.8439    0.5055    2.2268 H   0  0  0  0  0  0  0  0  0  0  0  0
   -6.9264   -1.0353    2.3587 H   0  0  0  0  0  0  0  0  0  0  0  0
   -1.9694    2.3413   -0.4175 H   0  0  0  0  0  0  0  0  0  0  0  0
    0.2049    2.4364   -1.5834 H   0  0  0  0  0  0  0  0  0  0  0  0
    3.1201   -1.1400    0.2381 H   0  0  0  0  0  0  0  0  0  0  0  0
    2.2273    0.3312    0.6585 H   0  0  0  0  0  0  0  0  0  0  0  0
    4.4038    0.1623    1.8557 H   0  0  0  0  0  0  0  0  0  0  0  0
    4.2692    1.6342    0.8596 H   0  0  0  0  0  0  0  0  0  0  0  0
    8.0511   -0.6251   -0.5245 H   0  0  0  0  0  0  0  0  0  0  0  0
   10.1350    0.0889    0.6055 H   0  0  0  0  0  0  0  0  0  0  0  0
    9.9886    1.6694    2.5402 H   0  0  0  0  0  0  0  0  0  0  0  0
    7.7244    2.4594    3.2388 H   0  0  0  0  0  0  0  0  0  0  0  0
    5.4954    1.7101   -1.3555 H   0  0  0  0  0  0  0  0  0  0  0  0
    6.4251    0.2958   -1.8845 H   0  0  0  0  0  0  0  0  0  0  0  0
    4.4094   -1.0525   -2.1383 H   0  0  0  0  0  0  0  0  0  0  0  0
    4.2309    0.4548   -3.0404 H   0  0  0  0  0  0  0  0  0  0  0  0
    0.7210   -1.7754   -1.0221 H   0  0  0  0  0  0  0  0  0  0  0  0
  1  2  1  0
  2  3  1  0
  3  4  2  0
  3  5  1  0
  5  6  2  3
  6  7  1  0
  7  8  2  0
  8  9  1  0
  9 10  2  0
 10 11  1  0
 11 12  1  0
 11 13  1  0
 11 14  1  0
 10 15  1  0
 15 16  2  0
  5 17  1  0
 17 18  1  0
 18 19  2  0
 19 20  1  0
 20 21  2  0
 21 22  1  0
 22 23  2  0
 22 24  1  0
 24 25  1  0
 25 26  1  0
 26 27  1  0
 27 28  1  0
 28 29  2  0
 29 30  1  0
 30 31  2  0
 31 32  1  0
 32 33  2  0
 27 34  1  0
 34 35  1  0
 21 36  1  0
 36 37  2  0
 37  2  1  0
 16  7  1  0
 37 18  1  0
 35 24  1  0
 33 28  1  0
  1 38  1  0
  1 39  1  0
  1 40  1  0
  6 41  1  0
  8 42  1  0
  9 43  1  0
 15 44  1  0
 16 45  1  0
 19 46  1  0
 20 47  1  0
 25 48  1  0
 25 49  1  0
 26 50  1  0
 26 51  1  0
 29 52  1  0
 30 53  1  0
 31 54  1  0
 32 55  1  0
 34 56  1  0
 34 57  1  0
 35 58  1  0
 35 59  1  0
 36 60  1  0
M  END
$$$$
