
     RDKit          3D

 50 53  0  0  0  0  0  0  0  0999 V2000
   -6.8112   -2.5721   -0.7750 C   0  0  0  0  0  0  0  0  0  0  0  0
   -5.6248   -3.1347   -0.0117 C   0  0  0  0  0  0  0  0  0  0  0  0
   -5.1559   -2.1963    0.9547 O   0  0  0  0  0  0  0  0  0  0  0  0
   -4.1796   -1.3115    0.5929 C   0  0  0  0  0  0  0  0  0  0  0  0
   -3.6932   -1.0961   -0.6959 C   0  0  0  0  0  0  0  0  0  0  0  0
   -2.6899   -0.1458   -0.9221 C   0  0  0  0  0  0  0  0  0  0  0  0
   -2.1704    0.6037    0.1383 C   0  0  0  0  0  0  0  0  0  0  0  0
   -1.1254    1.5901   -0.0993 C   0  0  0  0  0  0  0  0  0  0  0  0
    0.2553    1.4434   -0.1015 C   0  0  0  0  0  0  0  0  0  0  0  0
    1.0495    0.2392    0.1320 C   0  0  0  0  0  0  0  0  0  0  0  0
    0.5490   -0.8566    0.3624 O   0  0  0  0  0  0  0  0  0  0  0  0
    2.4132    0.4937    0.0575 N   0  0  0  0  0  0  0  0  0  0  0  0
    3.3220   -0.5033    0.2519 N   0  0  0  0  0  0  0  0  0  0  0  0
    4.5639   -0.1503    0.1587 C   0  0  0  0  0  0  0  0  0  0  0  0
    5.6631   -1.1179    0.3474 C   0  0  0  0  0  0  0  0  0  0  0  0
    6.9843   -0.6708    0.2327 C   0  0  0  0  0  0  0  0  0  0  0  0
    8.0398   -1.5697    0.4088 C   0  0  0  0  0  0  0  0  0  0  0  0
    7.7627   -2.9036    0.6981 C   0  0  0  0  0  0  0  0  0  0  0  0
    8.7620   -3.8129    0.8778 O   0  0  0  0  0  0  0  0  0  0  0  0
    6.4515   -3.3536    0.8136 C   0  0  0  0  0  0  0  0  0  0  0  0
    5.3948   -2.4592    0.6378 C   0  0  0  0  0  0  0  0  0  0  0  0
    0.8402    2.6555   -0.3678 N   0  0  0  0  0  0  0  0  0  0  0  0
   -0.1157    3.5501   -0.5360 N   0  0  0  0  0  0  0  0  0  0  0  0
   -1.3322    2.9413   -0.3897 N   0  0  0  0  0  0  0  0  0  0  0  0
   -2.5418    3.6705   -0.5222 C   0  0  0  0  0  0  0  0  0  0  0  0
   -3.7273    3.0878   -0.3436 N   0  0  0  0  0  0  0  0  0  0  0  0
   -4.6468    4.1153   -0.5405 O   0  0  0  0  0  0  0  0  0  0  0  0
   -4.0073    5.3146   -0.8361 N   0  0  0  0  0  0  0  0  0  0  0  0
   -2.7049    5.0340   -0.8325 C   0  0  0  0  0  0  0  0  0  0  0  0
   -1.7362    5.9336   -1.0896 N   0  0  0  0  0  0  0  0  0  0  0  0
   -2.6550    0.3857    1.4305 C   0  0  0  0  0  0  0  0  0  0  0  0
   -3.6573   -0.5626    1.6505 C   0  0  0  0  0  0  0  0  0  0  0  0
   -7.2135   -3.3166   -1.4681 H   0  0  0  0  0  0  0  0  0  0  0  0
   -6.5349   -1.6795   -1.3441 H   0  0  0  0  0  0  0  0  0  0  0  0
   -7.6046   -2.2720   -0.0823 H   0  0  0  0  0  0  0  0  0  0  0  0
   -5.9613   -4.0142    0.5492 H   0  0  0  0  0  0  0  0  0  0  0  0
   -4.8298   -3.4903   -0.6765 H   0  0  0  0  0  0  0  0  0  0  0  0
   -4.0726   -1.6436   -1.5513 H   0  0  0  0  0  0  0  0  0  0  0  0
   -2.3211   -0.0014   -1.9348 H   0  0  0  0  0  0  0  0  0  0  0  0
    2.7244    1.4395   -0.1423 H   0  0  0  0  0  0  0  0  0  0  0  0
    4.8551    0.8919   -0.0657 H   0  0  0  0  0  0  0  0  0  0  0  0
    7.2039    0.3691    0.0071 H   0  0  0  0  0  0  0  0  0  0  0  0
    9.0621   -1.2156    0.3188 H   0  0  0  0  0  0  0  0  0  0  0  0
    9.6176   -3.3684    0.7634 H   0  0  0  0  0  0  0  0  0  0  0  0
    6.2508   -4.3972    1.0402 H   0  0  0  0  0  0  0  0  0  0  0  0
    4.3698   -2.8133    0.7285 H   0  0  0  0  0  0  0  0  0  0  0  0
   -1.9720    6.9206   -1.0973 H   0  0  0  0  0  0  0  0  0  0  0  0
   -0.7589    5.7319   -0.8870 H   0  0  0  0  0  0  0  0  0  0  0  0
   -2.2615    0.9433    2.2762 H   0  0  0  0  0  0  0  0  0  0  0  0
   -4.0299   -0.7256    2.6590 H   0  0  0  0  0  0  0  0  0  0  0  0
  1  2  1  0
  2  3  1  0
  3  4  1  0
  4  5  2  0
  5  6  1  0
  6  7  2  0
  7  8  1  0
  8  9  2  0
  9 10  1  0
 10 11  2  0
 10 12  1  0
 12 13  1  0
 13 14  2  3
 14 15  1  0
 15 16  2  0
 16 17  1  0
 17 18  2  0
 18 19  1  0
 18 20  1  0
 20 21  2  0
  9 22  1  0
 22 23  2  0
 23 24  1  0
 24 25  1  0
 25 26  2  0
 26 27  1  0
 27 28  1  0
 28 29  2  0
 29 30  1  0
  7 31  1  0
 31 32  2  0
 32  4  1  0
 24  8  1  0
 29 25  1  0
 21 15  1  0
  1 33  1  0
  1 34  1  0
  1 35  1  0
  2 36  1  0
  2 37  1  0
  5 38  1  0
  6 39  1  0
 12 40  1  0
 14 41  1  0
 16 42  1  0
 17 43  1  0
 19 44  1  0
 20 45  1  0
 21 46  1  0
 30 47  1  0
 30 48  1  0
 31 49  1  0
 32 50  1  0
M  END
$$$$
