
     RDKit          3D

 51 55  0  0  0  0  0  0  0  0999 V2000
   -6.8163    2.8060   -1.9856 F   0  0  0  0  0  0  0  0  0  0  0  0
   -6.6741    1.7376   -1.1900 C   0  0  0  0  0  0  0  0  0  0  0  0
   -7.7044    0.8095   -1.1008 C   0  0  0  0  0  0  0  0  0  0  0  0
   -7.5543   -0.3038   -0.2762 C   0  0  0  0  0  0  0  0  0  0  0  0
   -6.3749   -0.4783    0.4529 C   0  0  0  0  0  0  0  0  0  0  0  0
   -5.3364    0.4615    0.3670 C   0  0  0  0  0  0  0  0  0  0  0  0
   -4.0544    0.2605    1.1402 C   0  0  0  0  0  0  0  0  0  0  0  0
   -3.0066   -0.5021    0.3102 C   0  0  0  0  0  0  0  0  0  0  0  0
   -1.7736   -0.7957    1.0612 N   0  0  0  0  0  0  0  0  0  0  0  0
   -0.8724   -1.6912    0.3024 C   0  0  0  0  0  0  0  0  0  0  0  0
    0.2233   -0.9823   -0.5244 C   0  0  0  0  0  0  0  0  0  0  0  0
    1.0570   -0.0993    0.3054 N   0  0  0  0  0  0  0  0  0  0  0  0
    2.4400   -0.0465    0.1528 C   0  0  0  0  0  0  0  0  0  0  0  0
    3.1732    0.0595    1.2348 N   0  0  0  0  0  0  0  0  0  0  0  0
    4.5782    0.0773    1.1597 C   0  0  0  0  0  0  0  0  0  0  0  0
    5.3045    0.1738    2.3484 C   0  0  0  0  0  0  0  0  0  0  0  0
    6.7018    0.1835    2.3326 C   0  0  0  0  0  0  0  0  0  0  0  0
    7.3883    0.0956    1.1212 C   0  0  0  0  0  0  0  0  0  0  0  0
    6.6826   -0.0013   -0.0787 C   0  0  0  0  0  0  0  0  0  0  0  0
    5.2847   -0.0103   -0.0464 C   0  0  0  0  0  0  0  0  0  0  0  0
    4.4961   -0.0901   -1.2053 N   0  0  0  0  0  0  0  0  0  0  0  0
    4.8880   -0.1571   -2.5215 C   0  0  0  0  0  0  0  0  0  0  0  0
    3.7582   -0.1402   -3.3084 C   0  0  0  0  0  0  0  0  0  0  0  0
    2.6448   -0.0770   -2.4387 C   0  0  0  0  0  0  0  0  0  0  0  0
    3.1182   -0.0888   -1.1374 C   0  0  0  0  0  0  0  0  0  0  0  0
    0.4637    0.2740    1.6026 C   0  0  0  0  0  0  0  0  0  0  0  0
   -1.0643    0.4403    1.4699 C   0  0  0  0  0  0  0  0  0  0  0  0
   -5.4954    1.5746   -0.4687 C   0  0  0  0  0  0  0  0  0  0  0  0
   -8.6141    0.9591   -1.6731 H   0  0  0  0  0  0  0  0  0  0  0  0
   -8.3539   -1.0363   -0.2000 H   0  0  0  0  0  0  0  0  0  0  0  0
   -6.2703   -1.3539    1.0913 H   0  0  0  0  0  0  0  0  0  0  0  0
   -3.6740    1.2420    1.4489 H   0  0  0  0  0  0  0  0  0  0  0  0
   -4.2710   -0.2861    2.0672 H   0  0  0  0  0  0  0  0  0  0  0  0
   -3.4604   -1.4516   -0.0041 H   0  0  0  0  0  0  0  0  0  0  0  0
   -2.7757    0.0514   -0.6099 H   0  0  0  0  0  0  0  0  0  0  0  0
   -0.3773   -2.3421    1.0356 H   0  0  0  0  0  0  0  0  0  0  0  0
   -1.4404   -2.3696   -0.3461 H   0  0  0  0  0  0  0  0  0  0  0  0
   -0.2452   -0.3880   -1.3169 H   0  0  0  0  0  0  0  0  0  0  0  0
    0.8340   -1.7594   -0.9979 H   0  0  0  0  0  0  0  0  0  0  0  0
    4.7719    0.2399    3.2934 H   0  0  0  0  0  0  0  0  0  0  0  0
    7.2519    0.2590    3.2670 H   0  0  0  0  0  0  0  0  0  0  0  0
    8.4756    0.1040    1.1133 H   0  0  0  0  0  0  0  0  0  0  0  0
    7.2385   -0.0655   -1.0079 H   0  0  0  0  0  0  0  0  0  0  0  0
    5.9296   -0.1913   -2.8053 H   0  0  0  0  0  0  0  0  0  0  0  0
    3.7402   -0.1581   -4.3906 H   0  0  0  0  0  0  0  0  0  0  0  0
    1.6085   -0.0246   -2.7405 H   0  0  0  0  0  0  0  0  0  0  0  0
    0.6985   -0.4849    2.3594 H   0  0  0  0  0  0  0  0  0  0  0  0
    0.8846    1.2286    1.9410 H   0  0  0  0  0  0  0  0  0  0  0  0
   -1.4691    0.7744    2.4319 H   0  0  0  0  0  0  0  0  0  0  0  0
   -1.2450    1.2427    0.7414 H   0  0  0  0  0  0  0  0  0  0  0  0
   -4.7125    2.3209   -0.5660 H   0  0  0  0  0  0  0  0  0  0  0  0
  1  2  1  0
  2  3  2  0
  3  4  1  0
  4  5  2  0
  5  6  1  0
  6  7  1  0
  7  8  1  0
  8  9  1  0
  9 10  1  0
 10 11  1  0
 11 12  1  0
 12 13  1  0
 13 14  2  0
 14 15  1  0
 15 16  2  0
 16 17  1  0
 17 18  2  0
 18 19  1  0
 19 20  2  0
 20 21  1  0
 21 22  1  0
 22 23  2  0
 23 24  1  0
 24 25  2  0
 12 26  1  0
 26 27  1  0
  6 28  2  0
 28  2  1  0
 27  9  1  0
 25 13  1  0
 20 15  1  0
 25 21  1  0
  3 29  1  0
  4 30  1  0
  5 31  1  0
  7 32  1  0
  7 33  1  0
  8 34  1  0
  8 35  1  0
 10 36  1  0
 10 37  1  0
 11 38  1  0
 11 39  1  0
 16 40  1  0
 17 41  1  0
 18 42  1  0
 19 43  1  0
 22 44  1  0
 23 45  1  0
 24 46  1  0
 26 47  1  0
 26 48  1  0
 27 49  1  0
 27 50  1  0
 28 51  1  0
M  END
$$$$
