
     RDKit          3D

 40 42  0  0  0  0  0  0  0  0999 V2000
   -6.5782    0.7391   -0.8037 C   0  0  0  0  0  0  0  0  0  0  0  0
   -6.5039    0.4975    0.9611 S   0  0  0  0  0  6  0  0  0  0  0  0
   -5.9014    1.6655    1.5637 O   0  0  0  0  0  0  0  0  0  0  0  0
   -7.8010    0.0172    1.3884 O   0  0  0  0  0  0  0  0  0  0  0  0
   -5.4655   -0.8210    1.1032 N   0  0  0  0  0  0  0  0  0  0  0  0
   -4.1323   -0.7379    0.6139 C   0  0  0  0  0  0  0  0  0  0  0  0
   -3.2389    0.2220    1.0910 C   0  0  0  0  0  0  0  0  0  0  0  0
   -1.9364    0.2872    0.5853 C   0  0  0  0  0  0  0  0  0  0  0  0
   -1.5191   -0.6250   -0.3915 C   0  0  0  0  0  0  0  0  0  0  0  0
   -0.1449   -0.5908   -0.9684 C   0  0  0  0  0  0  0  0  0  0  0  0
   -0.0098   -0.8999   -2.1460 O   0  0  0  0  0  0  0  0  0  0  0  0
    0.8539   -0.2411   -0.0787 N   0  0  0  0  0  0  0  0  0  0  0  0
    2.2303   -0.0908   -0.3531 C   0  0  0  0  0  0  0  0  0  0  0  0
    2.7876   -0.1938   -1.6305 C   0  0  0  0  0  0  0  0  0  0  0  0
    4.1650   -0.0325   -1.8212 C   0  0  0  0  0  0  0  0  0  0  0  0
    4.9931    0.2323   -0.7356 C   0  0  0  0  0  0  0  0  0  0  0  0
    4.4413    0.3678    0.5395 C   0  0  0  0  0  0  0  0  0  0  0  0
    3.0700    0.1937    0.7321 C   0  0  0  0  0  0  0  0  0  0  0  0
    5.1862    0.6634    1.6535 O   0  0  0  0  0  0  0  0  0  0  0  0
    6.4863    1.1486    1.2967 C   0  0  0  0  0  0  0  0  0  0  0  0
    7.1042    0.2827    0.2113 C   0  0  0  0  0  0  0  0  0  0  0  0
    6.3334    0.3563   -0.9933 O   0  0  0  0  0  0  0  0  0  0  0  0
   -2.4200   -1.5844   -0.8709 C   0  0  0  0  0  0  0  0  0  0  0  0
   -3.7205   -1.6460   -0.3628 C   0  0  0  0  0  0  0  0  0  0  0  0
   -6.8952   -0.1924   -1.2763 H   0  0  0  0  0  0  0  0  0  0  0  0
   -7.3141    1.5218   -1.0017 H   0  0  0  0  0  0  0  0  0  0  0  0
   -5.6000    1.0560   -1.1685 H   0  0  0  0  0  0  0  0  0  0  0  0
   -5.9551   -1.7088    0.9916 H   0  0  0  0  0  0  0  0  0  0  0  0
   -3.5419    0.9269    1.8625 H   0  0  0  0  0  0  0  0  0  0  0  0
   -1.2758    1.0713    0.9462 H   0  0  0  0  0  0  0  0  0  0  0  0
    0.5927   -0.1433    0.8939 H   0  0  0  0  0  0  0  0  0  0  0  0
    2.1778   -0.3999   -2.5047 H   0  0  0  0  0  0  0  0  0  0  0  0
    4.5866   -0.1246   -2.8184 H   0  0  0  0  0  0  0  0  0  0  0  0
    2.6716    0.2921    1.7377 H   0  0  0  0  0  0  0  0  0  0  0  0
    7.1069    1.1264    2.1979 H   0  0  0  0  0  0  0  0  0  0  0  0
    6.3914    2.1924    0.9724 H   0  0  0  0  0  0  0  0  0  0  0  0
    8.1158    0.6305   -0.0204 H   0  0  0  0  0  0  0  0  0  0  0  0
    7.1665   -0.7676    0.5221 H   0  0  0  0  0  0  0  0  0  0  0  0
   -2.1070   -2.2878   -1.6411 H   0  0  0  0  0  0  0  0  0  0  0  0
   -4.3997   -2.4028   -0.7459 H   0  0  0  0  0  0  0  0  0  0  0  0
  1  2  1  0
  2  3  2  0
  2  4  2  0
  2  5  1  0
  5  6  1  0
  6  7  2  0
  7  8  1  0
  8  9  2  0
  9 10  1  0
 10 11  2  0
 10 12  1  0
 12 13  1  0
 13 14  2  0
 14 15  1  0
 15 16  2  0
 16 17  1  0
 17 18  2  0
 17 19  1  0
 19 20  1  0
 20 21  1  0
 21 22  1  0
  9 23  1  0
 23 24  2  0
 24  6  1  0
 18 13  1  0
 22 16  1  0
  1 25  1  0
  1 26  1  0
  1 27  1  0
  5 28  1  0
  7 29  1  0
  8 30  1  0
 12 31  1  0
 14 32  1  0
 15 33  1  0
 18 34  1  0
 20 35  1  0
 20 36  1  0
 21 37  1  0
 21 38  1  0
 23 39  1  0
 24 40  1  0
M  END
$$$$
