
     RDKit          3D

 58 63  0  0  0  0  0  0  0  0999 V2000
    7.6903   -0.5290    1.6568 C   0  0  0  0  0  0  0  0  0  0  0  0
    6.6392    0.4098    1.1710 C   0  0  0  0  0  0  0  0  0  0  0  0
    6.4815    1.7441    1.4822 C   0  0  0  0  0  0  0  0  0  0  0  0
    5.3547    2.3194    0.8274 C   0  0  0  0  0  0  0  0  0  0  0  0
    4.6593    1.3993    0.0679 C   0  0  0  0  0  0  0  0  0  0  0  0
    3.4935    1.6557   -0.7642 C   0  0  0  0  0  0  0  0  0  0  0  0
    3.4582    2.6280   -1.5220 O   0  0  0  0  0  0  0  0  0  0  0  0
    2.3836    0.7999   -0.6648 N   0  0  0  0  0  0  0  0  0  0  0  0
    1.2895    0.9992   -1.6050 C   0  0  0  0  0  0  0  0  0  0  0  0
    0.4239   -0.2468   -1.7602 C   0  0  0  0  0  0  0  0  0  0  0  0
   -0.1285   -0.8011   -0.4113 C   0  0  0  0  0  0  0  0  0  0  0  0
    0.6451   -0.1866    0.7836 C   0  0  0  0  0  0  0  0  0  0  0  0
    2.1367   -0.0792    0.4763 C   0  0  0  0  0  0  0  0  0  0  0  0
    0.2048   -2.2196   -0.4707 O   0  0  0  0  0  0  0  0  0  0  0  0
   -0.4751   -3.0749    0.3450 C   0  0  0  0  0  0  0  0  0  0  0  0
    0.0326   -4.3709    0.4339 C   0  0  0  0  0  0  0  0  0  0  0  0
   -0.5819   -5.3082    1.2682 C   0  0  0  0  0  0  0  0  0  0  0  0
   -1.7059   -4.9461    2.0114 C   0  0  0  0  0  0  0  0  0  0  0  0
   -2.4535   -6.1013    3.0426 Cl  0  0  0  0  0  0  0  0  0  0  0  0
   -2.2267   -3.6582    1.9217 C   0  0  0  0  0  0  0  0  0  0  0  0
   -1.6096   -2.7331    1.0746 C   0  0  0  0  0  0  0  0  0  0  0  0
   -2.1430   -1.3717    0.9379 C   0  0  0  0  0  0  0  0  0  0  0  0
   -2.9066   -0.9234    1.7883 O   0  0  0  0  0  0  0  0  0  0  0  0
   -1.6656   -0.5986   -0.2851 C   0  0  0  0  0  0  0  0  0  0  0  0
   -2.1335    0.8477   -0.2498 C   0  0  0  0  0  0  0  0  0  0  0  0
   -3.3952    0.6966   -1.0314 C   0  0  0  0  0  0  0  0  0  0  0  0
   -4.4350    1.7515   -1.0651 C   0  0  0  0  0  0  0  0  0  0  0  0
   -5.6351    1.4979   -1.7437 C   0  0  0  0  0  0  0  0  0  0  0  0
   -6.6347    2.4729   -1.7995 C   0  0  0  0  0  0  0  0  0  0  0  0
   -6.4350    3.7031   -1.1786 C   0  0  0  0  0  0  0  0  0  0  0  0
   -7.6621    4.9062   -1.2467 Cl  0  0  0  0  0  0  0  0  0  0  0  0
   -5.2444    3.9662   -0.5028 C   0  0  0  0  0  0  0  0  0  0  0  0
   -4.2424    2.9916   -0.4450 C   0  0  0  0  0  0  0  0  0  0  0  0
   -3.4872   -0.4085   -1.7003 N   0  0  0  0  0  0  0  0  0  0  0  0
   -2.3303   -1.1697   -1.4257 O   0  0  0  0  0  0  0  0  0  0  0  0
    5.4350   -0.1262    0.0815 S   0  0  0  0  0  0  0  0  0  0  0  0
    7.8294   -1.3781    0.9797 H   0  0  0  0  0  0  0  0  0  0  0  0
    7.4180   -0.9178    2.6445 H   0  0  0  0  0  0  0  0  0  0  0  0
    8.6536   -0.0137    1.7467 H   0  0  0  0  0  0  0  0  0  0  0  0
    7.1487    2.2874    2.1403 H   0  0  0  0  0  0  0  0  0  0  0  0
    5.0580    3.3577    0.9126 H   0  0  0  0  0  0  0  0  0  0  0  0
    1.6959    1.2845   -2.5824 H   0  0  0  0  0  0  0  0  0  0  0  0
    0.6994    1.8490   -1.2449 H   0  0  0  0  0  0  0  0  0  0  0  0
   -0.3859   -0.0210   -2.4630 H   0  0  0  0  0  0  0  0  0  0  0  0
    1.0313   -1.0169   -2.2564 H   0  0  0  0  0  0  0  0  0  0  0  0
    0.2612    0.8133    1.0194 H   0  0  0  0  0  0  0  0  0  0  0  0
    0.5280   -0.7973    1.6857 H   0  0  0  0  0  0  0  0  0  0  0  0
    2.5475   -1.0653    0.2339 H   0  0  0  0  0  0  0  0  0  0  0  0
    2.6555    0.3023    1.3615 H   0  0  0  0  0  0  0  0  0  0  0  0
    0.9113   -4.6526   -0.1421 H   0  0  0  0  0  0  0  0  0  0  0  0
   -0.1791   -6.3161    1.3343 H   0  0  0  0  0  0  0  0  0  0  0  0
   -3.1084   -3.3775    2.4931 H   0  0  0  0  0  0  0  0  0  0  0  0
   -1.4831    1.5273   -0.8049 H   0  0  0  0  0  0  0  0  0  0  0  0
   -2.2986    1.2409    0.7556 H   0  0  0  0  0  0  0  0  0  0  0  0
   -5.8019    0.5390   -2.2314 H   0  0  0  0  0  0  0  0  0  0  0  0
   -7.5618    2.2639   -2.3269 H   0  0  0  0  0  0  0  0  0  0  0  0
   -5.0903    4.9275   -0.0192 H   0  0  0  0  0  0  0  0  0  0  0  0
   -3.3250    3.2276    0.0854 H   0  0  0  0  0  0  0  0  0  0  0  0
  1  2  1  0
  2  3  2  0
  3  4  1  0
  4  5  2  0
  5  6  1  0
  6  7  2  0
  6  8  1  0
  8  9  1  0
  9 10  1  0
 10 11  1  0
 11 12  1  0
 12 13  1  0
 11 14  1  0
 14 15  1  0
 15 16  2  0
 16 17  1  0
 17 18  2  0
 18 19  1  0
 18 20  1  0
 20 21  2  0
 21 22  1  0
 22 23  2  0
 22 24  1  0
 24 25  1  0
 25 26  1  0
 26 27  1  0
 27 28  2  0
 28 29  1  0
 29 30  2  0
 30 31  1  0
 30 32  1  0
 32 33  2  0
 26 34  2  0
 34 35  1  0
  5 36  1  0
 36  2  1  0
 13  8  1  0
 21 15  1  0
 35 24  1  0
 24 11  1  0
 33 27  1  0
  1 37  1  0
  1 38  1  0
  1 39  1  0
  3 40  1  0
  4 41  1  0
  9 42  1  0
  9 43  1  0
 10 44  1  0
 10 45  1  0
 12 46  1  0
 12 47  1  0
 13 48  1  0
 13 49  1  0
 16 50  1  0
 17 51  1  0
 20 52  1  0
 25 53  1  0
 25 54  1  0
 28 55  1  0
 29 56  1  0
 32 57  1  0
 33 58  1  0
M  END
$$$$
