
     RDKit          3D

 53 56  0  0  0  0  0  0  0  0999 V2000
   -7.3212    1.9850    2.3034 C   0  0  0  0  0  0  0  0  0  0  0  0
   -6.1585    1.4688    1.5089 C   0  0  0  0  0  0  0  0  0  0  0  0
   -5.4866    2.3014    0.6085 C   0  0  0  0  0  0  0  0  0  0  0  0
   -4.3796    1.8343   -0.1116 C   0  0  0  0  0  0  0  0  0  0  0  0
   -3.9283    0.5211    0.0572 C   0  0  0  0  0  0  0  0  0  0  0  0
   -2.7993   -0.0003   -0.6482 N   0  0  0  0  0  0  0  0  0  0  0  0
   -2.1907   -1.1176   -0.1651 N   0  0  0  0  0  0  0  0  0  0  0  0
   -1.0717   -1.2436   -0.8794 C   0  0  0  0  0  0  0  0  0  0  0  0
   -0.0393   -2.2551   -0.6959 C   0  0  0  0  0  0  0  0  0  0  0  0
   -0.0625   -3.1037    0.1916 O   0  0  0  0  0  0  0  0  0  0  0  0
    0.9946   -2.1533   -1.6493 N   0  0  0  0  0  0  0  0  0  0  0  0
    2.0920   -3.1189   -1.5900 C   0  0  0  0  0  0  0  0  0  0  0  0
    3.2422   -2.6353   -0.7063 C   0  0  0  0  0  0  0  0  0  0  0  0
    4.0723   -3.4071   -0.2306 O   0  0  0  0  0  0  0  0  0  0  0  0
    3.3526   -1.2660   -0.5944 N   0  0  0  0  0  0  0  0  0  0  0  0
    4.4067   -0.6253    0.1652 C   0  0  0  0  0  0  0  0  0  0  0  0
    4.1419   -0.6644    1.6725 C   0  0  0  0  0  0  0  0  0  0  0  0
    5.2270    0.0319    2.4399 C   0  0  0  0  0  0  0  0  0  0  0  0
    6.3811   -0.5147    2.9651 C   0  0  0  0  0  0  0  0  0  0  0  0
    7.1828    0.4543    3.6338 C   0  0  0  0  0  0  0  0  0  0  0  0
    6.6134    1.7072    3.5982 C   0  0  0  0  0  0  0  0  0  0  0  0
    5.1214    1.7110    2.7633 S   0  0  0  0  0  0  0  0  0  0  0  0
    1.0859   -1.1636   -2.6391 N   0  0  0  0  0  0  0  0  0  0  0  0
    0.1476   -0.2676   -2.7822 C   0  0  0  0  0  0  0  0  0  0  0  0
    0.3002    0.7576   -3.8697 C   0  0  0  0  0  0  0  0  0  0  0  0
   -0.9891   -0.2858   -1.8952 C   0  0  0  0  0  0  0  0  0  0  0  0
   -2.1576    0.4531   -1.8087 C   0  0  0  0  0  0  0  0  0  0  0  0
   -2.7126    1.4706   -2.7388 C   0  0  0  0  0  0  0  0  0  0  0  0
   -4.5797   -0.2996    0.9933 C   0  0  0  0  0  0  0  0  0  0  0  0
   -5.6850    0.1698    1.7091 C   0  0  0  0  0  0  0  0  0  0  0  0
   -7.8757    2.7410    1.7375 H   0  0  0  0  0  0  0  0  0  0  0  0
   -6.9674    2.4312    3.2379 H   0  0  0  0  0  0  0  0  0  0  0  0
   -8.0222    1.1774    2.5393 H   0  0  0  0  0  0  0  0  0  0  0  0
   -5.8137    3.3302    0.4703 H   0  0  0  0  0  0  0  0  0  0  0  0
   -3.8732    2.5458   -0.7519 H   0  0  0  0  0  0  0  0  0  0  0  0
    2.4736   -3.2844   -2.6030 H   0  0  0  0  0  0  0  0  0  0  0  0
    1.7256   -4.0695   -1.1890 H   0  0  0  0  0  0  0  0  0  0  0  0
    2.6800   -0.7041   -1.1081 H   0  0  0  0  0  0  0  0  0  0  0  0
    5.3560   -1.1209   -0.0707 H   0  0  0  0  0  0  0  0  0  0  0  0
    4.4729    0.4080   -0.1929 H   0  0  0  0  0  0  0  0  0  0  0  0
    3.1663   -0.2112    1.8909 H   0  0  0  0  0  0  0  0  0  0  0  0
    4.0709   -1.7051    2.0134 H   0  0  0  0  0  0  0  0  0  0  0  0
    6.6376   -1.5642    2.8739 H   0  0  0  0  0  0  0  0  0  0  0  0
    8.1278    0.2417    4.1182 H   0  0  0  0  0  0  0  0  0  0  0  0
    6.9999    2.6225    4.0247 H   0  0  0  0  0  0  0  0  0  0  0  0
   -0.3987    0.5355   -4.6805 H   0  0  0  0  0  0  0  0  0  0  0  0
    1.3170    0.7345   -4.2732 H   0  0  0  0  0  0  0  0  0  0  0  0
    0.1052    1.7589   -3.4773 H   0  0  0  0  0  0  0  0  0  0  0  0
   -2.3705    2.4733   -2.4665 H   0  0  0  0  0  0  0  0  0  0  0  0
   -3.8059    1.4491   -2.7647 H   0  0  0  0  0  0  0  0  0  0  0  0
   -2.3937    1.2758   -3.7664 H   0  0  0  0  0  0  0  0  0  0  0  0
   -4.2426   -1.3197    1.1743 H   0  0  0  0  0  0  0  0  0  0  0  0
   -6.1694   -0.4899    2.4260 H   0  0  0  0  0  0  0  0  0  0  0  0
  1  2  1  0
  2  3  2  0
  3  4  1  0
  4  5  2  0
  5  6  1  0
  6  7  1  0
  7  8  2  0
  8  9  1  0
  9 10  2  0
  9 11  1  0
 11 12  1  0
 12 13  1  0
 13 14  2  0
 13 15  1  0
 15 16  1  0
 16 17  1  0
 17 18  1  0
 18 19  2  0
 19 20  1  0
 20 21  2  0
 21 22  1  0
 11 23  1  0
 23 24  2  0
 24 25  1  0
 24 26  1  0
 26 27  2  0
 27 28  1  0
  5 29  1  0
 29 30  2  0
 30  2  1  0
 27  6  1  0
 26  8  1  0
 22 18  1  0
  1 31  1  0
  1 32  1  0
  1 33  1  0
  3 34  1  0
  4 35  1  0
 12 36  1  0
 12 37  1  0
 15 38  1  0
 16 39  1  0
 16 40  1  0
 17 41  1  0
 17 42  1  0
 19 43  1  0
 20 44  1  0
 21 45  1  0
 25 46  1  0
 25 47  1  0
 25 48  1  0
 28 49  1  0
 28 50  1  0
 28 51  1  0
 29 52  1  0
 30 53  1  0
M  END
$$$$
