
     RDKit          3D

 53 56  0  0  0  0  0  0  0  0999 V2000
   -8.4249    2.0874   -1.4869 C   0  0  0  0  0  0  0  0  0  0  0  0
   -7.0983    1.4759   -1.1449 C   0  0  0  0  0  0  0  0  0  0  0  0
   -6.1371    1.2692   -2.1372 C   0  0  0  0  0  0  0  0  0  0  0  0
   -4.8907    0.7241   -1.8138 C   0  0  0  0  0  0  0  0  0  0  0  0
   -4.5823    0.3711   -0.4889 C   0  0  0  0  0  0  0  0  0  0  0  0
   -3.2964   -0.1889   -0.2063 N   0  0  0  0  0  0  0  0  0  0  0  0
   -2.3133   -0.0612   -1.1390 N   0  0  0  0  0  0  0  0  0  0  0  0
   -1.2008   -0.4765   -0.5301 C   0  0  0  0  0  0  0  0  0  0  0  0
    0.1444   -0.4687   -1.0869 C   0  0  0  0  0  0  0  0  0  0  0  0
    0.4265   -0.0299   -2.2010 O   0  0  0  0  0  0  0  0  0  0  0  0
    1.0945   -1.0387   -0.2179 N   0  0  0  0  0  0  0  0  0  0  0  0
    2.4866   -1.0289   -0.6341 C   0  0  0  0  0  0  0  0  0  0  0  0
    3.1286    0.3335   -0.3628 C   0  0  0  0  0  0  0  0  0  0  0  0
    2.7078    1.1418    0.4616 O   0  0  0  0  0  0  0  0  0  0  0  0
    4.2787    0.5595   -1.0982 N   0  0  0  0  0  0  0  0  0  0  0  0
    5.0823    1.7546   -0.9041 C   0  0  0  0  0  0  0  0  0  0  0  0
    5.9978    1.6677    0.3222 C   0  0  0  0  0  0  0  0  0  0  0  0
    7.0332    0.5841    0.1839 C   0  0  0  0  0  0  0  0  0  0  0  0
    6.9952   -0.7018    0.6904 C   0  0  0  0  0  0  0  0  0  0  0  0
    8.1576   -1.4517    0.3527 C   0  0  0  0  0  0  0  0  0  0  0  0
    9.0475   -0.7125   -0.3962 C   0  0  0  0  0  0  0  0  0  0  0  0
    8.4825    0.8759   -0.6834 S   0  0  0  0  0  0  0  0  0  0  0  0
    0.8242   -1.5531    1.0556 N   0  0  0  0  0  0  0  0  0  0  0  0
   -0.3848   -1.5241    1.5444 C   0  0  0  0  0  0  0  0  0  0  0  0
   -0.6070   -2.0646    2.9286 C   0  0  0  0  0  0  0  0  0  0  0  0
   -1.4615   -0.9904    0.7447 C   0  0  0  0  0  0  0  0  0  0  0  0
   -2.8335   -0.8939    0.9128 C   0  0  0  0  0  0  0  0  0  0  0  0
   -3.7011   -1.4506    1.9821 C   0  0  0  0  0  0  0  0  0  0  0  0
   -5.5299    0.6216    0.5085 C   0  0  0  0  0  0  0  0  0  0  0  0
   -6.7778    1.1677    0.1809 C   0  0  0  0  0  0  0  0  0  0  0  0
   -8.3639    3.1783   -1.4199 H   0  0  0  0  0  0  0  0  0  0  0  0
   -9.2050    1.7330   -0.8047 H   0  0  0  0  0  0  0  0  0  0  0  0
   -8.7314    1.8106   -2.5008 H   0  0  0  0  0  0  0  0  0  0  0  0
   -6.3459    1.5317   -3.1718 H   0  0  0  0  0  0  0  0  0  0  0  0
   -4.1687    0.5735   -2.6151 H   0  0  0  0  0  0  0  0  0  0  0  0
    2.5497   -1.2602   -1.7030 H   0  0  0  0  0  0  0  0  0  0  0  0
    3.0393   -1.7932   -0.0765 H   0  0  0  0  0  0  0  0  0  0  0  0
    4.6698   -0.1844   -1.6636 H   0  0  0  0  0  0  0  0  0  0  0  0
    4.4066    2.6099   -0.7924 H   0  0  0  0  0  0  0  0  0  0  0  0
    5.6615    1.9048   -1.8217 H   0  0  0  0  0  0  0  0  0  0  0  0
    6.4927    2.6356    0.4737 H   0  0  0  0  0  0  0  0  0  0  0  0
    5.4022    1.4780    1.2246 H   0  0  0  0  0  0  0  0  0  0  0  0
    6.1702   -1.0838    1.2810 H   0  0  0  0  0  0  0  0  0  0  0  0
    8.3360   -2.4791    0.6482 H   0  0  0  0  0  0  0  0  0  0  0  0
   10.0078   -1.0265   -0.7825 H   0  0  0  0  0  0  0  0  0  0  0  0
   -1.2339   -1.3822    3.5080 H   0  0  0  0  0  0  0  0  0  0  0  0
   -1.0877   -3.0443    2.8644 H   0  0  0  0  0  0  0  0  0  0  0  0
    0.3492   -2.1810    3.4477 H   0  0  0  0  0  0  0  0  0  0  0  0
   -3.8087   -0.7371    2.8046 H   0  0  0  0  0  0  0  0  0  0  0  0
   -4.6906   -1.7290    1.6071 H   0  0  0  0  0  0  0  0  0  0  0  0
   -3.2762   -2.3713    2.3908 H   0  0  0  0  0  0  0  0  0  0  0  0
   -5.3245    0.4563    1.5592 H   0  0  0  0  0  0  0  0  0  0  0  0
   -7.4967    1.3617    0.9741 H   0  0  0  0  0  0  0  0  0  0  0  0
  1  2  1  0
  2  3  2  0
  3  4  1  0
  4  5  2  0
  5  6  1  0
  6  7  1  0
  7  8  2  0
  8  9  1  0
  9 10  2  0
  9 11  1  0
 11 12  1  0
 12 13  1  0
 13 14  2  0
 13 15  1  0
 15 16  1  0
 16 17  1  0
 17 18  1  0
 18 19  2  0
 19 20  1  0
 20 21  2  0
 21 22  1  0
 11 23  1  0
 23 24  2  0
 24 25  1  0
 24 26  1  0
 26 27  2  0
 27 28  1  0
  5 29  1  0
 29 30  2  0
 30  2  1  0
 27  6  1  0
 26  8  1  0
 22 18  1  0
  1 31  1  0
  1 32  1  0
  1 33  1  0
  3 34  1  0
  4 35  1  0
 12 36  1  0
 12 37  1  0
 15 38  1  0
 16 39  1  0
 16 40  1  0
 17 41  1  0
 17 42  1  0
 19 43  1  0
 20 44  1  0
 21 45  1  0
 25 46  1  0
 25 47  1  0
 25 48  1  0
 28 49  1  0
 28 50  1  0
 28 51  1  0
 29 52  1  0
 30 53  1  0
M  END
$$$$
