
     RDKit          3D

 50 52  0  0  0  0  0  0  0  0999 V2000
    0.8374   -0.3592   -2.1088 C   0  0  0  0  0  0  0  0  0  0  0  0
    1.2818    1.0056   -1.6031 C   0  0  0  0  0  0  0  0  0  0  0  0
    2.2421    0.8968   -0.4921 N   0  0  0  0  0  4  0  0  0  0  0  0
    1.9356    1.1523    0.7750 C   0  0  0  0  0  0  0  0  0  0  0  0
    0.7071    1.5851    1.3345 C   0  0  0  0  0  0  0  0  0  0  0  0
   -0.4327    0.8894    1.2087 C   0  0  0  0  0  0  0  0  0  0  0  0
   -1.6735    1.3202    1.8135 C   0  0  0  0  0  0  0  0  0  0  0  0
   -2.9321    0.9218    1.5673 C   0  0  0  0  0  0  0  0  0  0  0  0
   -3.4848    0.1093    0.5685 N   0  0  0  0  0  0  0  0  0  0  0  0
   -2.9280   -0.0242   -0.7238 C   0  0  0  0  0  0  0  0  0  0  0  0
   -3.7081   -0.8219   -1.7524 C   0  0  0  0  0  0  0  0  0  0  0  0
   -1.8717    0.4982   -1.0990 O   0  0  0  0  0  0  0  0  0  0  0  0
   -4.7925   -0.4271    0.8234 C   0  0  0  0  0  0  0  0  0  0  0  0
   -4.9800   -1.8145    0.8798 C   0  0  0  0  0  0  0  0  0  0  0  0
   -6.2436   -2.3422    1.1512 C   0  0  0  0  0  0  0  0  0  0  0  0
   -7.3228   -1.4888    1.3762 C   0  0  0  0  0  0  0  0  0  0  0  0
   -7.1410   -0.1072    1.3375 C   0  0  0  0  0  0  0  0  0  0  0  0
   -5.8785    0.4246    1.0688 C   0  0  0  0  0  0  0  0  0  0  0  0
    3.3150    0.9750    1.7860 S   0  0  0  0  0  0  0  0  0  0  0  0
    4.3249    0.5520    0.4621 C   0  0  0  0  0  0  0  0  0  0  0  0
    5.6972    0.2361    0.4770 C   0  0  0  0  0  0  0  0  0  0  0  0
    6.3201   -0.0553   -0.7381 C   0  0  0  0  0  0  0  0  0  0  0  0
    7.6373   -0.3790   -0.9018 O   0  0  0  0  0  0  0  0  0  0  0  0
    8.4508   -0.4363    0.2653 C   0  0  0  0  0  0  0  0  0  0  0  0
    5.5874   -0.0249   -1.9238 C   0  0  0  0  0  0  0  0  0  0  0  0
    4.2218    0.2883   -1.9333 C   0  0  0  0  0  0  0  0  0  0  0  0
    3.5795    0.5728   -0.7128 C   0  0  0  0  0  0  0  0  0  0  0  0
    0.4074   -0.9613   -1.3037 H   0  0  0  0  0  0  0  0  0  0  0  0
    0.0901   -0.2469   -2.9000 H   0  0  0  0  0  0  0  0  0  0  0  0
    1.6747   -0.9284   -2.5220 H   0  0  0  0  0  0  0  0  0  0  0  0
    0.4206    1.6106   -1.3089 H   0  0  0  0  0  0  0  0  0  0  0  0
    1.7569    1.5666   -2.4172 H   0  0  0  0  0  0  0  0  0  0  0  0
    0.7227    2.4987    1.9273 H   0  0  0  0  0  0  0  0  0  0  0  0
   -0.4599   -0.0576    0.6777 H   0  0  0  0  0  0  0  0  0  0  0  0
   -1.5547    2.0040    2.6572 H   0  0  0  0  0  0  0  0  0  0  0  0
   -3.6639    1.2554    2.3060 H   0  0  0  0  0  0  0  0  0  0  0  0
   -4.7517   -0.5028   -1.8034 H   0  0  0  0  0  0  0  0  0  0  0  0
   -3.6289   -1.8910   -1.5439 H   0  0  0  0  0  0  0  0  0  0  0  0
   -3.2715   -0.6444   -2.7415 H   0  0  0  0  0  0  0  0  0  0  0  0
   -4.1444   -2.4949    0.7388 H   0  0  0  0  0  0  0  0  0  0  0  0
   -6.3872   -3.4194    1.1964 H   0  0  0  0  0  0  0  0  0  0  0  0
   -8.3069   -1.9013    1.5882 H   0  0  0  0  0  0  0  0  0  0  0  0
   -7.9850    0.5553    1.5159 H   0  0  0  0  0  0  0  0  0  0  0  0
   -5.7598    1.5045    1.0292 H   0  0  0  0  0  0  0  0  0  0  0  0
    6.2370    0.2310    1.4185 H   0  0  0  0  0  0  0  0  0  0  0  0
    8.0918   -1.2052    0.9573 H   0  0  0  0  0  0  0  0  0  0  0  0
    9.4630   -0.7118   -0.0455 H   0  0  0  0  0  0  0  0  0  0  0  0
    8.5051    0.5417    0.7545 H   0  0  0  0  0  0  0  0  0  0  0  0
    6.0922   -0.2502   -2.8641 H   0  0  0  0  0  0  0  0  0  0  0  0
    3.7039    0.3002   -2.8879 H   0  0  0  0  0  0  0  0  0  0  0  0
  1  2  1  0
  2  3  1  0
  3  4  2  0
  4  5  1  0
  5  6  2  3
  6  7  1  0
  7  8  2  3
  8  9  1  0
  9 10  1  0
 10 11  1  0
 10 12  2  0
  9 13  1  0
 13 14  2  0
 14 15  1  0
 15 16  2  0
 16 17  1  0
 17 18  2  0
  4 19  1  0
 19 20  1  0
 20 21  2  0
 21 22  1  0
 22 23  1  0
 23 24  1  0
 22 25  2  0
 25 26  1  0
 26 27  2  0
 27  3  1  0
 18 13  1  0
 27 20  1  0
  1 28  1  0
  1 29  1  0
  1 30  1  0
  2 31  1  0
  2 32  1  0
  5 33  1  0
  6 34  1  0
  7 35  1  0
  8 36  1  0
 11 37  1  0
 11 38  1  0
 11 39  1  0
 14 40  1  0
 15 41  1  0
 16 42  1  0
 17 43  1  0
 18 44  1  0
 21 45  1  0
 24 46  1  0
 24 47  1  0
 24 48  1  0
 25 49  1  0
 26 50  1  0
M  CHG  1   3   1
M  END
$$$$
