
     RDKit          3D

 57 59  0  0  0  0  0  0  0  0999 V2000
   -3.6247   -3.1088   -2.3744 C   0  0  0  0  0  0  0  0  0  0  0  0
   -3.6645   -2.5138   -0.9705 C   0  0  0  0  0  0  0  0  0  0  0  0
   -3.3227   -1.0824   -0.9170 N   0  0  0  0  0  0  0  0  0  0  0  0
   -4.2010   -0.2229   -1.7225 C   0  0  0  0  0  0  0  0  0  0  0  0
   -5.6595   -0.1453   -1.2814 C   0  0  0  0  0  0  0  0  0  0  0  0
   -3.1805   -0.6528    0.4936 C   0  0  0  0  0  0  0  0  0  0  0  0
   -2.6879    0.7889    0.7184 C   0  0  0  0  0  0  0  0  0  0  0  0
   -1.3723    0.9379    0.1661 O   0  0  0  0  0  0  0  0  0  0  0  0
   -0.8561    2.1917    0.3824 C   0  0  0  0  0  0  0  0  0  0  0  0
   -1.2954    3.2941   -0.2615 C   0  0  0  0  0  0  0  0  0  0  0  0
   -0.6279    4.6003    0.0583 C   0  0  2  0  0  0  0  0  0  0  0  0
   -0.7599    5.6013   -0.9386 O   0  0  0  0  0  0  0  0  0  0  0  0
    0.1833    6.5591   -0.6353 C   0  0  0  0  0  0  0  0  0  0  0  0
    0.2156    7.6613   -1.1569 O   0  0  0  0  0  0  0  0  0  0  0  0
    1.4025    6.0376    0.5516 S   0  0  0  0  0  0  0  0  0  0  0  0
    0.8758    4.3632    0.2457 C   0  0  1  0  0  0  0  0  0  0  0  0
    1.1301    3.3188    1.2790 C   0  0  0  0  0  0  0  0  0  0  0  0
    0.2859    2.2616    1.3005 C   0  0  0  0  0  0  0  0  0  0  0  0
    0.5162    1.1923    2.3069 C   0  0  0  0  0  0  0  0  0  0  0  0
   -0.1560    1.1402    3.3336 O   0  0  0  0  0  0  0  0  0  0  0  0
    1.6013    0.2023    2.0693 C   0  0  0  0  0  0  0  0  0  0  0  0
    2.2527    0.0357    0.9078 C   0  0  0  0  0  0  0  0  0  0  0  0
    3.3237   -0.9511    0.7028 C   0  0  0  0  0  0  0  0  0  0  0  0
    3.3246   -2.2071    1.3224 C   0  0  0  0  0  0  0  0  0  0  0  0
    4.3516   -3.1290    1.0784 C   0  0  0  0  0  0  0  0  0  0  0  0
    5.3873   -2.8108    0.2014 C   0  0  0  0  0  0  0  0  0  0  0  0
    6.4439   -3.6146   -0.1248 O   0  0  0  0  0  0  0  0  0  0  0  0
    6.5062   -4.8842    0.5127 C   0  0  0  0  0  0  0  0  0  0  0  0
    5.3810   -1.5679   -0.4327 C   0  0  0  0  0  0  0  0  0  0  0  0
    4.3574   -0.6471   -0.1901 C   0  0  0  0  0  0  0  0  0  0  0  0
   -4.4426   -2.7370   -2.9985 H   0  0  0  0  0  0  0  0  0  0  0  0
   -2.6745   -2.8863   -2.8707 H   0  0  0  0  0  0  0  0  0  0  0  0
   -3.7264   -4.1980   -2.3195 H   0  0  0  0  0  0  0  0  0  0  0  0
   -2.9312   -3.0734   -0.3744 H   0  0  0  0  0  0  0  0  0  0  0  0
   -4.6446   -2.7070   -0.5184 H   0  0  0  0  0  0  0  0  0  0  0  0
   -3.7879    0.7923   -1.7529 H   0  0  0  0  0  0  0  0  0  0  0  0
   -4.1691   -0.5418   -2.7711 H   0  0  0  0  0  0  0  0  0  0  0  0
   -6.2141    0.5122   -1.9586 H   0  0  0  0  0  0  0  0  0  0  0  0
   -6.1451   -1.1252   -1.3071 H   0  0  0  0  0  0  0  0  0  0  0  0
   -5.7578    0.2666   -0.2728 H   0  0  0  0  0  0  0  0  0  0  0  0
   -2.4430   -1.3122    0.9704 H   0  0  0  0  0  0  0  0  0  0  0  0
   -4.1268   -0.7900    1.0307 H   0  0  0  0  0  0  0  0  0  0  0  0
   -2.6470    0.9734    1.7993 H   0  0  0  0  0  0  0  0  0  0  0  0
   -3.3837    1.5126    0.2810 H   0  0  0  0  0  0  0  0  0  0  0  0
   -2.1234    3.2622   -0.9596 H   0  0  0  0  0  0  0  0  0  0  0  0
   -1.1231    4.9774    0.9688 H   0  0  0  0  0  0  0  0  0  0  0  0
    1.3538    4.0543   -0.6943 H   0  0  0  0  0  0  0  0  0  0  0  0
    1.9814    3.3940    1.9475 H   0  0  0  0  0  0  0  0  0  0  0  0
    1.8198   -0.4061    2.9415 H   0  0  0  0  0  0  0  0  0  0  0  0
    2.0171    0.6428    0.0371 H   0  0  0  0  0  0  0  0  0  0  0  0
    2.5213   -2.4955    1.9958 H   0  0  0  0  0  0  0  0  0  0  0  0
    4.3060   -4.0870    1.5854 H   0  0  0  0  0  0  0  0  0  0  0  0
    7.4045   -5.3956    0.1518 H   0  0  0  0  0  0  0  0  0  0  0  0
    6.5969   -4.7767    1.5984 H   0  0  0  0  0  0  0  0  0  0  0  0
    5.6430   -5.5029    0.2466 H   0  0  0  0  0  0  0  0  0  0  0  0
    6.1810   -1.3127   -1.1232 H   0  0  0  0  0  0  0  0  0  0  0  0
    4.3848    0.3113   -0.7032 H   0  0  0  0  0  0  0  0  0  0  0  0
  1  2  1  0
  2  3  1  0
  3  4  1  0
  4  5  1  0
  3  6  1  0
  6  7  1  0
  7  8  1  0
  8  9  1  0
  9 10  2  0
 10 11  1  0
 11 12  1  0
 12 13  1  0
 13 14  2  0
 13 15  1  0
 15 16  1  0
 16 17  1  0
 17 18  2  0
 18 19  1  0
 19 20  2  0
 19 21  1  0
 21 22  2  0
 22 23  1  0
 23 24  2  0
 24 25  1  0
 25 26  2  0
 26 27  1  0
 27 28  1  0
 26 29  1  0
 29 30  2  0
 18  9  1  0
 30 23  1  0
 16 11  1  0
  1 31  1  0
  1 32  1  0
  1 33  1  0
  2 34  1  0
  2 35  1  0
  4 36  1  0
  4 37  1  0
  5 38  1  0
  5 39  1  0
  5 40  1  0
  6 41  1  0
  6 42  1  0
  7 43  1  0
  7 44  1  0
 10 45  1  0
 11 46  1  1
 16 47  1  6
 17 48  1  0
 21 49  1  0
 22 50  1  0
 24 51  1  0
 25 52  1  0
 28 53  1  0
 28 54  1  0
 28 55  1  0
 29 56  1  0
 30 57  1  0
M  END
$$$$
