
     RDKit          3D

 56 61  0  0  0  0  0  0  0  0999 V2000
    5.6333   -0.6010   -1.4163 C   0  0  0  0  0  0  0  0  0  0  0  0
    4.6018   -0.6188   -0.3290 C   0  0  0  0  0  0  0  0  0  0  0  0
    4.9644   -0.6441    1.0317 C   0  0  0  0  0  0  0  0  0  0  0  0
    6.6266   -0.6499    1.5162 Cl  0  0  0  0  0  0  0  0  0  0  0  0
    3.9965   -0.6743    2.0557 C   0  0  0  0  0  0  0  0  0  0  0  0
    2.6352   -0.6779    1.7523 C   0  0  0  0  0  0  0  0  0  0  0  0
    2.2662   -0.6473    0.4175 C   0  0  0  0  0  0  0  0  0  0  0  0
    3.2379   -0.6298   -0.5956 C   0  0  0  0  0  0  0  0  0  0  0  0
    2.6129   -0.6466   -1.8428 N   0  0  0  0  0  0  0  0  0  0  0  0
    1.2236   -0.6806   -1.7239 C   0  0  0  0  0  0  0  0  0  0  0  0
    0.4400   -0.7731   -2.6581 O   0  0  0  0  0  0  0  0  0  0  0  0
    0.9027   -0.6455   -0.2086 C   0  0  0  0  0  0  0  0  0  0  0  0
    0.0276   -1.7842    0.2155 N   0  0  0  0  0  0  0  0  0  0  0  0
   -1.3522   -1.2667    0.5120 C   0  0  2  0  0  0  0  0  0  0  0  0
   -2.3812   -1.5763   -0.5967 C   0  0  0  0  0  0  0  0  0  0  0  0
   -2.5780   -3.0508   -0.8602 C   0  0  0  0  0  0  0  0  0  0  0  0
   -3.2044   -3.8726    0.0863 C   0  0  0  0  0  0  0  0  0  0  0  0
   -3.3721   -5.2357   -0.1631 C   0  0  0  0  0  0  0  0  0  0  0  0
   -2.9179   -5.7888   -1.3589 C   0  0  0  0  0  0  0  0  0  0  0  0
   -2.2967   -4.9798   -2.3080 C   0  0  0  0  0  0  0  0  0  0  0  0
   -2.1278   -3.6169   -2.0615 C   0  0  0  0  0  0  0  0  0  0  0  0
   -1.1208    0.1907    0.6557 C   0  0  0  0  0  0  0  0  0  0  0  0
    0.1531    0.5446    0.2181 C   0  0  0  0  0  0  0  0  0  0  0  0
    0.3118    1.8962    0.3645 C   0  0  0  0  0  0  0  0  0  0  0  0
    1.4138    2.6174    0.1637 O   0  0  0  0  0  0  0  0  0  0  0  0
   -0.9122    2.4088    0.8415 N   0  0  0  0  0  0  0  0  0  0  0  0
   -1.2337    3.7941    1.0116 C   0  0  0  0  0  0  0  0  0  0  0  0
   -2.1186    4.2044    2.0196 C   0  0  0  0  0  0  0  0  0  0  0  0
   -2.4244    5.5589    2.1786 C   0  0  0  0  0  0  0  0  0  0  0  0
   -1.8568    6.4977    1.3269 C   0  0  0  0  0  0  0  0  0  0  0  0
   -2.1536    7.7945    1.4806 F   0  0  0  0  0  0  0  0  0  0  0  0
   -0.9902    6.1091    0.3134 C   0  0  0  0  0  0  0  0  0  0  0  0
   -0.6784    4.7568    0.1510 C   0  0  0  0  0  0  0  0  0  0  0  0
   -1.7702    1.3180    1.0864 C   0  0  0  0  0  0  0  0  0  0  0  0
   -3.0009    1.4624    1.5705 O   0  0  0  0  0  0  0  0  0  0  0  0
    6.2065   -1.5337   -1.4091 H   0  0  0  0  0  0  0  0  0  0  0  0
    5.1913   -0.4955   -2.4109 H   0  0  0  0  0  0  0  0  0  0  0  0
    6.3145    0.2461   -1.2841 H   0  0  0  0  0  0  0  0  0  0  0  0
    4.3076   -0.6973    3.0979 H   0  0  0  0  0  0  0  0  0  0  0  0
    1.8859   -0.7046    2.5375 H   0  0  0  0  0  0  0  0  0  0  0  0
    3.0740   -0.6629   -2.7390 H   0  0  0  0  0  0  0  0  0  0  0  0
   -0.0222   -2.4568   -0.5488 H   0  0  0  0  0  0  0  0  0  0  0  0
   -1.6753   -1.6970    1.4666 H   0  0  0  0  0  0  0  0  0  0  0  0
   -2.0984   -1.0704   -1.5299 H   0  0  0  0  0  0  0  0  0  0  0  0
   -3.3548   -1.1457   -0.3249 H   0  0  0  0  0  0  0  0  0  0  0  0
   -3.5670   -3.4598    1.0244 H   0  0  0  0  0  0  0  0  0  0  0  0
   -3.8578   -5.8674    0.5761 H   0  0  0  0  0  0  0  0  0  0  0  0
   -3.0494   -6.8502   -1.5520 H   0  0  0  0  0  0  0  0  0  0  0  0
   -1.9442   -5.4093   -3.2422 H   0  0  0  0  0  0  0  0  0  0  0  0
   -1.6403   -2.9985   -2.8143 H   0  0  0  0  0  0  0  0  0  0  0  0
    1.3681    3.4180    0.7169 H   0  0  0  0  0  0  0  0  0  0  0  0
   -2.5595    3.4940    2.7139 H   0  0  0  0  0  0  0  0  0  0  0  0
   -3.1014    5.8840    2.9623 H   0  0  0  0  0  0  0  0  0  0  0  0
   -0.5760    6.8582   -0.3544 H   0  0  0  0  0  0  0  0  0  0  0  0
   -0.0458    4.4736   -0.6881 H   0  0  0  0  0  0  0  0  0  0  0  0
   -3.4132    0.5821    1.6103 H   0  0  0  0  0  0  0  0  0  0  0  0
  1  2  1  0
  2  3  2  0
  3  4  1  0
  3  5  1  0
  5  6  2  0
  6  7  1  0
  7  8  2  0
  8  9  1  0
  9 10  1  0
 10 11  2  0
 10 12  1  0
 12 13  1  0
 13 14  1  0
 14 15  1  0
 15 16  1  0
 16 17  2  0
 17 18  1  0
 18 19  2  0
 19 20  1  0
 20 21  2  0
 14 22  1  0
 22 23  1  0
 23 24  2  0
 24 25  1  0
 24 26  1  0
 26 27  1  0
 27 28  2  0
 28 29  1  0
 29 30  2  0
 30 31  1  0
 30 32  1  0
 32 33  2  0
 26 34  1  0
 34 35  1  0
  8  2  1  0
 23 12  1  0
 33 27  1  0
 12  7  1  0
 21 16  1  0
 34 22  2  0
  1 36  1  0
  1 37  1  0
  1 38  1  0
  5 39  1  0
  6 40  1  0
  9 41  1  0
 13 42  1  0
 14 43  1  1
 15 44  1  0
 15 45  1  0
 17 46  1  0
 18 47  1  0
 19 48  1  0
 20 49  1  0
 21 50  1  0
 25 51  1  0
 28 52  1  0
 29 53  1  0
 32 54  1  0
 33 55  1  0
 35 56  1  0
M  END
$$$$
