
     RDKit          3D

 51 55  0  0  0  0  0  0  0  0999 V2000
    1.2982   -0.1953   -2.2918 O   0  0  0  0  0  0  0  0  0  0  0  0
    1.2007    0.6801   -1.4325 C   0  0  0  0  0  0  0  0  0  0  0  0
    0.0153    1.6543   -1.4320 C   0  0  0  0  0  0  0  0  0  0  0  0
   -1.1921    0.9944   -0.9273 N   0  0  0  0  0  0  0  0  0  0  0  0
   -1.2584    0.7669    0.4506 C   0  0  0  0  0  0  0  0  0  0  0  0
   -0.4122    1.2064    1.2410 O   0  0  0  0  0  0  0  0  0  0  0  0
   -2.3824   -0.1250    0.9398 C   0  0  0  0  0  0  0  0  0  0  0  0
   -3.6347    0.6705    1.2678 C   0  0  0  0  0  0  0  0  0  0  0  0
   -4.7923   -0.2484    1.5122 C   0  0  0  0  0  0  0  0  0  0  0  0
   -5.5110   -1.1227    0.7175 C   0  0  0  0  0  0  0  0  0  0  0  0
   -6.4934   -1.7146    1.5474 C   0  0  0  0  0  0  0  0  0  0  0  0
   -6.3042   -1.1793    2.7952 C   0  0  0  0  0  0  0  0  0  0  0  0
   -5.2679   -0.2985    2.7864 O   0  0  0  0  0  0  0  0  0  0  0  0
   -4.0812    1.9393    0.0135 S   0  0  0  0  0  0  0  0  0  0  0  0
   -3.6214    1.0914   -1.4954 C   0  0  0  0  0  0  0  0  0  0  0  0
   -4.6503    0.8714   -2.4319 C   0  0  0  0  0  0  0  0  0  0  0  0
   -4.3695    0.3352   -3.6916 C   0  0  0  0  0  0  0  0  0  0  0  0
   -3.0540    0.0384   -4.0344 C   0  0  0  0  0  0  0  0  0  0  0  0
   -2.0206    0.2655   -3.1168 C   0  0  0  0  0  0  0  0  0  0  0  0
   -2.2841    0.7797   -1.8327 C   0  0  0  0  0  0  0  0  0  0  0  0
    2.0515    0.8757   -0.3523 N   0  0  0  0  0  0  0  0  0  0  0  0
    3.2633    0.2120   -0.0693 C   0  0  0  0  0  0  0  0  0  0  0  0
    3.8030   -0.8028   -0.8803 C   0  0  0  0  0  0  0  0  0  0  0  0
    5.0181   -1.4060   -0.5367 C   0  0  0  0  0  0  0  0  0  0  0  0
    5.7077   -0.9867    0.6104 C   0  0  0  0  0  0  0  0  0  0  0  0
    5.1928    0.0520    1.4061 C   0  0  0  0  0  0  0  0  0  0  0  0
    3.9642    0.6285    1.0873 C   0  0  0  0  0  0  0  0  0  0  0  0
    5.8427    0.5555    2.5151 O   0  0  0  0  0  0  0  0  0  0  0  0
    7.2185    0.1620    2.5132 C   0  0  0  0  0  0  0  0  0  0  0  0
    7.3394   -1.3314    2.2262 C   0  0  0  0  0  0  0  0  0  0  0  0
    6.8862   -1.6274    0.8892 O   0  0  0  0  0  0  0  0  0  0  0  0
   -0.1229    2.0416   -2.4515 H   0  0  0  0  0  0  0  0  0  0  0  0
    0.2350    2.5279   -0.7987 H   0  0  0  0  0  0  0  0  0  0  0  0
   -2.0313   -0.6549    1.8411 H   0  0  0  0  0  0  0  0  0  0  0  0
   -2.5675   -0.9242    0.2066 H   0  0  0  0  0  0  0  0  0  0  0  0
   -3.4445    1.2392    2.1858 H   0  0  0  0  0  0  0  0  0  0  0  0
   -5.3564   -1.2998   -0.3340 H   0  0  0  0  0  0  0  0  0  0  0  0
   -7.2447   -2.4383    1.2692 H   0  0  0  0  0  0  0  0  0  0  0  0
   -6.7842   -1.3231    3.7520 H   0  0  0  0  0  0  0  0  0  0  0  0
   -5.6782    1.1352   -2.1904 H   0  0  0  0  0  0  0  0  0  0  0  0
   -5.1718    0.1710   -4.4147 H   0  0  0  0  0  0  0  0  0  0  0  0
   -2.8238   -0.3670   -5.0217 H   0  0  0  0  0  0  0  0  0  0  0  0
   -1.0034    0.0033   -3.4128 H   0  0  0  0  0  0  0  0  0  0  0  0
    1.7151    1.5087    0.3723 H   0  0  0  0  0  0  0  0  0  0  0  0
    3.2973   -1.1585   -1.7850 H   0  0  0  0  0  0  0  0  0  0  0  0
    5.4190   -2.2060   -1.1682 H   0  0  0  0  0  0  0  0  0  0  0  0
    3.5793    1.4227    1.7346 H   0  0  0  0  0  0  0  0  0  0  0  0
    7.7536    0.7592    1.7630 H   0  0  0  0  0  0  0  0  0  0  0  0
    7.6292    0.3982    3.4980 H   0  0  0  0  0  0  0  0  0  0  0  0
    6.7422   -1.9307    2.9376 H   0  0  0  0  0  0  0  0  0  0  0  0
    8.3863   -1.6460    2.2984 H   0  0  0  0  0  0  0  0  0  0  0  0
  1  2  2  0
  2  3  1  0
  3  4  1  0
  4  5  1  0
  5  6  2  0
  5  7  1  0
  7  8  1  0
  8  9  1  0
  9 10  2  0
 10 11  1  0
 11 12  2  0
 12 13  1  0
  8 14  1  0
 14 15  1  0
 15 16  2  0
 16 17  1  0
 17 18  2  0
 18 19  1  0
 19 20  2  0
  2 21  1  0
 21 22  1  0
 22 23  2  0
 23 24  1  0
 24 25  2  0
 25 26  1  0
 26 27  2  0
 26 28  1  0
 28 29  1  0
 29 30  1  0
 30 31  1  0
 20  4  1  0
 27 22  1  0
 13  9  1  0
 20 15  1  0
 31 25  1  0
  3 32  1  0
  3 33  1  0
  7 34  1  0
  7 35  1  0
  8 36  1  0
 10 37  1  0
 11 38  1  0
 12 39  1  0
 16 40  1  0
 17 41  1  0
 18 42  1  0
 19 43  1  0
 21 44  1  0
 23 45  1  0
 24 46  1  0
 27 47  1  0
 29 48  1  0
 29 49  1  0
 30 50  1  0
 30 51  1  0
M  END
$$$$
