
     RDKit          3D

 43 45  0  0  0  0  0  0  0  0999 V2000
    6.8468   -1.4204    2.1182 C   0  0  0  0  0  0  0  0  0  0  0  0
    5.8703   -0.5877    1.4917 O   0  0  0  0  0  0  0  0  0  0  0  0
    4.6787   -1.2000    1.2796 C   0  0  0  0  0  0  0  0  0  0  0  0
    4.4067   -2.3541    1.5719 O   0  0  0  0  0  0  0  0  0  0  0  0
    3.7166   -0.2700    0.6281 C   0  0  0  0  0  0  0  0  0  0  0  0
    4.0474    1.0489    0.2997 C   0  0  0  0  0  0  0  0  0  0  0  0
    3.0989    1.8754   -0.3108 C   0  0  0  0  0  0  0  0  0  0  0  0
    1.8148    1.4041   -0.5986 C   0  0  0  0  0  0  0  0  0  0  0  0
    0.9966    2.3231   -1.1951 O   0  0  0  0  0  0  0  0  0  0  0  0
   -0.3682    1.9677   -1.4040 C   0  0  0  0  0  0  0  0  0  0  0  0
   -1.2208    1.9699   -0.1222 C   0  0  0  0  0  0  0  0  0  0  0  0
   -0.9297    2.7292    0.8101 O   0  0  0  0  0  0  0  0  0  0  0  0
   -2.2481    1.0236    0.0132 N   0  0  0  0  0  0  0  0  0  0  0  0
   -2.5825    0.6919    1.4017 C   0  0  0  0  0  0  0  0  0  0  0  0
   -3.6982   -0.3233    1.5870 C   0  0  0  0  0  0  0  0  0  0  0  0
   -3.4797   -1.4933    0.6467 C   0  0  0  0  0  0  0  0  0  0  0  0
   -3.4631   -0.9624   -0.7604 C   0  0  0  0  0  0  0  0  0  0  0  0
   -4.0313   -1.7272   -1.7915 C   0  0  0  0  0  0  0  0  0  0  0  0
   -4.0791   -1.2317   -3.0906 C   0  0  0  0  0  0  0  0  0  0  0  0
   -3.5769    0.0353   -3.3616 C   0  0  0  0  0  0  0  0  0  0  0  0
   -2.9913    0.7918   -2.3416 C   0  0  0  0  0  0  0  0  0  0  0  0
   -2.8764    0.2876   -1.0396 C   0  0  0  0  0  0  0  0  0  0  0  0
    1.4847    0.0876   -0.2753 C   0  0  0  0  0  0  0  0  0  0  0  0
    2.4312   -0.7443    0.3358 C   0  0  0  0  0  0  0  0  0  0  0  0
    7.0739   -2.2860    1.4879 H   0  0  0  0  0  0  0  0  0  0  0  0
    6.5016   -1.7395    3.1067 H   0  0  0  0  0  0  0  0  0  0  0  0
    7.7614   -0.8343    2.2437 H   0  0  0  0  0  0  0  0  0  0  0  0
    5.0341    1.4515    0.5130 H   0  0  0  0  0  0  0  0  0  0  0  0
    3.3612    2.9019   -0.5582 H   0  0  0  0  0  0  0  0  0  0  0  0
   -0.4171    1.0230   -1.9513 H   0  0  0  0  0  0  0  0  0  0  0  0
   -0.7795    2.7483   -2.0527 H   0  0  0  0  0  0  0  0  0  0  0  0
   -2.8489    1.6172    1.9276 H   0  0  0  0  0  0  0  0  0  0  0  0
   -1.6637    0.3156    1.8714 H   0  0  0  0  0  0  0  0  0  0  0  0
   -4.6660    0.1514    1.3779 H   0  0  0  0  0  0  0  0  0  0  0  0
   -3.7257   -0.6653    2.6274 H   0  0  0  0  0  0  0  0  0  0  0  0
   -4.2916   -2.2174    0.7801 H   0  0  0  0  0  0  0  0  0  0  0  0
   -2.5327   -2.0036    0.8574 H   0  0  0  0  0  0  0  0  0  0  0  0
   -4.4567   -2.7061   -1.5805 H   0  0  0  0  0  0  0  0  0  0  0  0
   -4.5322   -1.8215   -3.8835 H   0  0  0  0  0  0  0  0  0  0  0  0
   -3.6515    0.4446   -4.3663 H   0  0  0  0  0  0  0  0  0  0  0  0
   -2.6785    1.8000   -2.5906 H   0  0  0  0  0  0  0  0  0  0  0  0
    0.5065   -0.3329   -0.4816 H   0  0  0  0  0  0  0  0  0  0  0  0
    2.1580   -1.7688    0.5834 H   0  0  0  0  0  0  0  0  0  0  0  0
  1  2  1  0
  2  3  1  0
  3  4  2  0
  3  5  1  0
  5  6  2  0
  6  7  1  0
  7  8  2  0
  8  9  1  0
  9 10  1  0
 10 11  1  0
 11 12  2  0
 11 13  1  0
 13 14  1  0
 14 15  1  0
 15 16  1  0
 16 17  1  0
 17 18  2  0
 18 19  1  0
 19 20  2  0
 20 21  1  0
 21 22  2  0
  8 23  1  0
 23 24  2  0
 24  5  1  0
 22 13  1  0
 22 17  1  0
  1 25  1  0
  1 26  1  0
  1 27  1  0
  6 28  1  0
  7 29  1  0
 10 30  1  0
 10 31  1  0
 14 32  1  0
 14 33  1  0
 15 34  1  0
 15 35  1  0
 16 36  1  0
 16 37  1  0
 18 38  1  0
 19 39  1  0
 20 40  1  0
 21 41  1  0
 23 42  1  0
 24 43  1  0
M  END
$$$$
