
     RDKit          3D

 41 42  0  0  0  0  0  0  0  0999 V2000
    6.9305    2.0144    0.8616 C   0  0  0  0  0  0  0  0  0  0  0  0
    5.5725    1.5894    0.9722 O   0  0  0  0  0  0  0  0  0  0  0  0
    5.2751    0.4807    0.2359 C   0  0  0  0  0  0  0  0  0  0  0  0
    6.0782   -0.1157   -0.4697 O   0  0  0  0  0  0  0  0  0  0  0  0
    3.8767    0.1308    0.4125 C   0  0  0  0  0  0  0  0  0  0  0  0
    2.9072    0.7994    1.1449 C   0  0  0  0  0  0  0  0  0  0  0  0
    1.6862    0.1142    0.9921 C   0  0  0  0  0  0  0  0  0  0  0  0
    1.8971   -0.9716    0.1572 C   0  0  0  0  0  0  0  0  0  0  0  0
    0.7565   -2.1885   -0.4541 S   0  0  0  0  0  6  0  0  0  0  0  0
    1.0112   -3.3643    0.3434 O   0  0  0  0  0  0  0  0  0  0  0  0
    0.9194   -2.1754   -1.8893 O   0  0  0  0  0  0  0  0  0  0  0  0
   -0.7937   -1.6625   -0.0888 N   0  0  0  0  0  0  0  0  0  0  0  0
   -1.3355   -0.6113   -0.9615 C   0  0  0  0  0  0  0  0  0  0  0  0
   -2.6756   -0.1212   -0.4644 C   0  0  0  0  0  0  0  0  0  0  0  0
   -2.8283    0.3284    0.8535 C   0  0  0  0  0  0  0  0  0  0  0  0
   -4.0652    0.7964    1.3034 C   0  0  0  0  0  0  0  0  0  0  0  0
   -5.1687    0.8301    0.4491 C   0  0  0  0  0  0  0  0  0  0  0  0
   -6.3165    1.3104    1.0161 O   0  0  0  0  0  0  0  0  0  0  0  0
   -7.4717    1.3585    0.1885 C   0  0  0  0  0  0  0  0  0  0  0  0
   -5.0232    0.3907   -0.8662 C   0  0  0  0  0  0  0  0  0  0  0  0
   -3.7846   -0.0795   -1.3202 C   0  0  0  0  0  0  0  0  0  0  0  0
    3.2500   -0.9789   -0.1429 N   0  0  0  0  0  0  0  0  0  0  0  0
    3.9369   -1.9927   -0.9234 C   0  0  0  0  0  0  0  0  0  0  0  0
    7.0600    2.9012    1.4882 H   0  0  0  0  0  0  0  0  0  0  0  0
    7.1651    2.2847   -0.1727 H   0  0  0  0  0  0  0  0  0  0  0  0
    7.6078    1.2341    1.2228 H   0  0  0  0  0  0  0  0  0  0  0  0
    3.0695    1.7023    1.7219 H   0  0  0  0  0  0  0  0  0  0  0  0
    0.7336    0.3836    1.4302 H   0  0  0  0  0  0  0  0  0  0  0  0
   -1.4191   -2.4614    0.0175 H   0  0  0  0  0  0  0  0  0  0  0  0
   -1.4529   -1.0173   -1.9729 H   0  0  0  0  0  0  0  0  0  0  0  0
   -0.6539    0.2446   -1.0108 H   0  0  0  0  0  0  0  0  0  0  0  0
   -1.9859    0.3117    1.5415 H   0  0  0  0  0  0  0  0  0  0  0  0
   -4.1699    1.1379    2.3305 H   0  0  0  0  0  0  0  0  0  0  0  0
   -7.7594    0.3564   -0.1465 H   0  0  0  0  0  0  0  0  0  0  0  0
   -7.3204    2.0320   -0.6615 H   0  0  0  0  0  0  0  0  0  0  0  0
   -8.2956    1.7584    0.7874 H   0  0  0  0  0  0  0  0  0  0  0  0
   -5.8517    0.4012   -1.5667 H   0  0  0  0  0  0  0  0  0  0  0  0
   -3.6976   -0.4131   -2.3525 H   0  0  0  0  0  0  0  0  0  0  0  0
    3.3176   -2.8810   -1.0433 H   0  0  0  0  0  0  0  0  0  0  0  0
    4.1750   -1.5662   -1.9008 H   0  0  0  0  0  0  0  0  0  0  0  0
    4.8431   -2.2910   -0.3901 H   0  0  0  0  0  0  0  0  0  0  0  0
  1  2  1  0
  2  3  1  0
  3  4  2  0
  3  5  1  0
  5  6  2  0
  6  7  1  0
  7  8  2  0
  8  9  1  0
  9 10  2  0
  9 11  2  0
  9 12  1  0
 12 13  1  0
 13 14  1  0
 14 15  2  0
 15 16  1  0
 16 17  2  0
 17 18  1  0
 18 19  1  0
 17 20  1  0
 20 21  2  0
  8 22  1  0
 22 23  1  0
 22  5  1  0
 21 14  1  0
  1 24  1  0
  1 25  1  0
  1 26  1  0
  6 27  1  0
  7 28  1  0
 12 29  1  0
 13 30  1  0
 13 31  1  0
 15 32  1  0
 16 33  1  0
 19 34  1  0
 19 35  1  0
 19 36  1  0
 20 37  1  0
 21 38  1  0
 23 39  1  0
 23 40  1  0
 23 41  1  0
M  END
$$$$
