
     RDKit          3D

 38 39  0  0  0  0  0  0  0  0999 V2000
    1.7239    2.7066   -2.1595 O   0  0  0  0  0  0  0  0  0  0  0  0
    1.6363    2.2602   -1.0192 C   0  0  0  0  0  0  0  0  0  0  0  0
    0.7773    2.9180    0.0600 C   0  0  0  0  0  0  0  0  0  0  0  0
   -0.5183    2.3217    0.1297 O   0  0  0  0  0  0  0  0  0  0  0  0
   -0.6256    1.2249    0.9104 C   0  0  0  0  0  0  0  0  0  0  0  0
    0.2561    0.6871    1.5635 O   0  0  0  0  0  0  0  0  0  0  0  0
   -1.9764    0.6679    0.7534 C   0  0  0  0  0  0  0  0  0  0  0  0
   -2.1057   -0.5791    0.1281 C   0  0  0  0  0  0  0  0  0  0  0  0
   -3.3710   -1.1441   -0.0362 C   0  0  0  0  0  0  0  0  0  0  0  0
   -4.4890   -0.4574    0.4305 C   0  0  0  0  0  0  0  0  0  0  0  0
   -5.7441   -0.9732    0.2934 O   0  0  0  0  0  0  0  0  0  0  0  0
   -4.3679    0.7795    1.0609 C   0  0  0  0  0  0  0  0  0  0  0  0
   -3.1043    1.3429    1.2256 C   0  0  0  0  0  0  0  0  0  0  0  0
   -2.9667    2.5414    1.8663 O   0  0  0  0  0  0  0  0  0  0  0  0
    2.2903    1.1223   -0.6069 N   0  0  0  0  0  0  0  0  0  0  0  0
    3.0162    0.2784   -1.5403 C   0  0  0  0  0  0  0  0  0  0  0  0
    3.6896   -0.9227   -0.8638 C   0  0  0  0  0  0  0  0  0  0  0  0
    2.7301   -1.8883   -0.3470 N   0  0  0  0  0  0  0  0  0  0  0  0
    2.1217   -1.7766    0.8781 C   0  0  0  0  0  0  0  0  0  0  0  0
    2.4515   -0.7277    1.6812 O   0  0  0  0  0  0  0  0  0  0  0  0
    1.1968   -2.7070    1.1337 C   0  0  0  0  0  0  0  0  0  0  0  0
    1.0395   -3.8148   -0.1949 S   0  0  0  0  0  0  0  0  0  0  0  0
    2.2665   -2.9333   -1.1295 C   0  0  0  0  0  0  0  0  0  0  0  0
    2.5897   -3.2256   -2.2682 O   0  0  0  0  0  0  0  0  0  0  0  0
    1.2900    2.8958    1.0292 H   0  0  0  0  0  0  0  0  0  0  0  0
    0.6463    3.9714   -0.2060 H   0  0  0  0  0  0  0  0  0  0  0  0
   -1.2276   -1.1023   -0.2424 H   0  0  0  0  0  0  0  0  0  0  0  0
   -3.4639   -2.1084   -0.5270 H   0  0  0  0  0  0  0  0  0  0  0  0
   -5.6918   -1.8144   -0.1920 H   0  0  0  0  0  0  0  0  0  0  0  0
   -5.2638    1.2780    1.4184 H   0  0  0  0  0  0  0  0  0  0  0  0
   -3.8493    2.8936    2.0737 H   0  0  0  0  0  0  0  0  0  0  0  0
    2.0383    0.7248    0.2954 H   0  0  0  0  0  0  0  0  0  0  0  0
    3.7766    0.9010   -2.0243 H   0  0  0  0  0  0  0  0  0  0  0  0
    2.3109   -0.0502   -2.3114 H   0  0  0  0  0  0  0  0  0  0  0  0
    4.3183   -1.4298   -1.6053 H   0  0  0  0  0  0  0  0  0  0  0  0
    4.3475   -0.5997   -0.0498 H   0  0  0  0  0  0  0  0  0  0  0  0
    1.6502   -0.4812    2.1917 H   0  0  0  0  0  0  0  0  0  0  0  0
    0.6019   -2.7799    2.0328 H   0  0  0  0  0  0  0  0  0  0  0  0
  1  2  2  0
  2  3  1  0
  3  4  1  0
  4  5  1  0
  5  6  2  0
  5  7  1  0
  7  8  2  0
  8  9  1  0
  9 10  2  0
 10 11  1  0
 10 12  1  0
 12 13  2  0
 13 14  1  0
  2 15  1  0
 15 16  1  0
 16 17  1  0
 17 18  1  0
 18 19  1  0
 19 20  1  0
 19 21  2  0
 21 22  1  0
 22 23  1  0
 23 24  2  0
 13  7  1  0
 23 18  1  0
  3 25  1  0
  3 26  1  0
  8 27  1  0
  9 28  1  0
 11 29  1  0
 12 30  1  0
 14 31  1  0
 15 32  1  0
 16 33  1  0
 16 34  1  0
 17 35  1  0
 17 36  1  0
 20 37  1  0
 21 38  1  0
M  END
$$$$
