
     RDKit          3D

 51 53  0  0  0  0  0  0  0  0999 V2000
    7.8684    1.4513    0.4092 C   0  0  0  0  0  0  0  0  0  0  0  0
    6.5048    1.7870    0.6718 O   0  0  0  0  0  0  0  0  0  0  0  0
    5.6836    0.8173    0.1604 C   0  0  0  0  0  0  0  0  0  0  0  0
    5.3153   -0.2263    1.0113 C   0  0  0  0  0  0  0  0  0  0  0  0
    4.5002   -1.2568    0.5422 C   0  0  0  0  0  0  0  0  0  0  0  0
    4.0440   -1.2524   -0.7828 C   0  0  0  0  0  0  0  0  0  0  0  0
    3.1675   -2.3730   -1.2913 C   0  0  0  0  0  0  0  0  0  0  0  0
    1.8065   -2.4226   -0.6111 C   0  0  0  0  0  0  0  0  0  0  0  0
    1.5166   -3.3473    0.1429 O   0  0  0  0  0  0  0  0  0  0  0  0
    0.9952   -1.3559   -0.9652 N   0  0  0  0  0  0  0  0  0  0  0  0
   -0.3349   -1.1163   -0.5666 C   0  0  0  0  0  0  0  0  0  0  0  0
   -0.9398    0.0551   -1.0337 C   0  0  0  0  0  0  0  0  0  0  0  0
   -2.2624    0.3613   -0.6928 C   0  0  0  0  0  0  0  0  0  0  0  0
   -3.0040   -0.4934    0.1296 C   0  0  0  0  0  0  0  0  0  0  0  0
   -4.3300   -0.1144    0.4257 N   0  0  0  0  0  0  0  0  0  0  0  0
   -5.2056   -0.7412    1.2939 C   0  0  0  0  0  0  0  0  0  0  0  0
   -4.9727   -1.7002    2.0192 O   0  0  0  0  0  0  0  0  0  0  0  0
   -6.5563   -0.1198    1.3623 C   0  0  0  0  0  0  0  0  0  0  0  0
   -7.1881   -0.0282    2.6092 C   0  0  0  0  0  0  0  0  0  0  0  0
   -8.4500    0.5596    2.7132 C   0  0  0  0  0  0  0  0  0  0  0  0
   -9.0831    1.0411    1.5674 C   0  0  0  0  0  0  0  0  0  0  0  0
  -10.7948    1.8290    1.7041 Br  0  0  0  0  0  0  0  0  0  0  0  0
   -8.4710    0.9338    0.3176 C   0  0  0  0  0  0  0  0  0  0  0  0
   -7.2067    0.3497    0.2124 C   0  0  0  0  0  0  0  0  0  0  0  0
   -2.4015   -1.6620    0.5924 C   0  0  0  0  0  0  0  0  0  0  0  0
   -1.0781   -1.9735    0.2438 C   0  0  0  0  0  0  0  0  0  0  0  0
    4.4078   -0.1895   -1.6238 C   0  0  0  0  0  0  0  0  0  0  0  0
    5.1972    0.8646   -1.1508 C   0  0  0  0  0  0  0  0  0  0  0  0
    5.4573    1.8428   -2.0733 O   0  0  0  0  0  0  0  0  0  0  0  0
    5.4319    3.1721   -1.5573 C   0  0  0  0  0  0  0  0  0  0  0  0
    8.1683    0.5605    0.9703 H   0  0  0  0  0  0  0  0  0  0  0  0
    8.4866    2.2857    0.7510 H   0  0  0  0  0  0  0  0  0  0  0  0
    8.0546    1.3110   -0.6618 H   0  0  0  0  0  0  0  0  0  0  0  0
    5.6701   -0.2420    2.0381 H   0  0  0  0  0  0  0  0  0  0  0  0
    4.2262   -2.0665    1.2167 H   0  0  0  0  0  0  0  0  0  0  0  0
    3.0084   -2.2873   -2.3742 H   0  0  0  0  0  0  0  0  0  0  0  0
    3.6781   -3.3312   -1.1340 H   0  0  0  0  0  0  0  0  0  0  0  0
    1.4249   -0.6347   -1.5312 H   0  0  0  0  0  0  0  0  0  0  0  0
   -0.3930    0.7507   -1.6660 H   0  0  0  0  0  0  0  0  0  0  0  0
   -2.6950    1.2831   -1.0729 H   0  0  0  0  0  0  0  0  0  0  0  0
   -4.6394    0.7542    0.0103 H   0  0  0  0  0  0  0  0  0  0  0  0
   -6.6947   -0.4133    3.5000 H   0  0  0  0  0  0  0  0  0  0  0  0
   -8.9286    0.6308    3.6866 H   0  0  0  0  0  0  0  0  0  0  0  0
   -8.9748    1.2914   -0.5773 H   0  0  0  0  0  0  0  0  0  0  0  0
   -6.7563    0.2383   -0.7706 H   0  0  0  0  0  0  0  0  0  0  0  0
   -2.9345   -2.3681    1.2237 H   0  0  0  0  0  0  0  0  0  0  0  0
   -0.6621   -2.8984    0.6321 H   0  0  0  0  0  0  0  0  0  0  0  0
    4.0698   -0.1650   -2.6581 H   0  0  0  0  0  0  0  0  0  0  0  0
    6.4226    3.4607   -1.1926 H   0  0  0  0  0  0  0  0  0  0  0  0
    5.1833    3.8427   -2.3875 H   0  0  0  0  0  0  0  0  0  0  0  0
    4.6679    3.3056   -0.7833 H   0  0  0  0  0  0  0  0  0  0  0  0
  1  2  1  0
  2  3  1  0
  3  4  2  0
  4  5  1  0
  5  6  2  0
  6  7  1  0
  7  8  1  0
  8  9  2  0
  8 10  1  0
 10 11  1  0
 11 12  2  0
 12 13  1  0
 13 14  2  0
 14 15  1  0
 15 16  1  0
 16 17  2  0
 16 18  1  0
 18 19  2  0
 19 20  1  0
 20 21  2  0
 21 22  1  0
 21 23  1  0
 23 24  2  0
 14 25  1  0
 25 26  2  0
  6 27  1  0
 27 28  2  0
 28 29  1  0
 29 30  1  0
 28  3  1  0
 26 11  1  0
 24 18  1  0
  1 31  1  0
  1 32  1  0
  1 33  1  0
  4 34  1  0
  5 35  1  0
  7 36  1  0
  7 37  1  0
 10 38  1  0
 12 39  1  0
 13 40  1  0
 15 41  1  0
 19 42  1  0
 20 43  1  0
 23 44  1  0
 24 45  1  0
 25 46  1  0
 26 47  1  0
 27 48  1  0
 30 49  1  0
 30 50  1  0
 30 51  1  0
M  END
$$$$
