
     RDKit          3D

 37 38  0  0  0  0  0  0  0  0999 V2000
   -5.1451    1.3811   -2.0936 C   0  0  0  0  0  0  0  0  0  0  0  0
   -4.6082    1.1783   -0.7942 O   0  0  0  0  0  0  0  0  0  0  0  0
   -3.4147    0.5074   -0.6950 C   0  0  0  0  0  0  0  0  0  0  0  0
   -2.6952    0.0100   -1.7864 C   0  0  0  0  0  0  0  0  0  0  0  0
   -1.4853   -0.6580   -1.5862 C   0  0  0  0  0  0  0  0  0  0  0  0
   -0.9787   -0.8234   -0.2947 C   0  0  0  0  0  0  0  0  0  0  0  0
    0.3195   -1.5310   -0.1318 C   0  0  0  0  0  0  0  0  0  0  0  0
    0.6550   -2.3920   -0.9364 O   0  0  0  0  0  0  0  0  0  0  0  0
    1.1032   -1.1265    0.9282 N   0  0  0  0  0  0  0  0  0  0  0  0
    2.4427   -1.6397    1.1070 C   0  0  0  0  0  0  0  0  0  0  0  0
    3.4606   -0.6967    0.5161 C   0  0  0  0  0  0  0  0  0  0  0  0
    4.1286    0.2352    1.3209 C   0  0  0  0  0  0  0  0  0  0  0  0
    5.0518    1.1209    0.7589 C   0  0  0  0  0  0  0  0  0  0  0  0
    5.3131    1.0908   -0.6142 C   0  0  0  0  0  0  0  0  0  0  0  0
    6.4651    2.2181   -1.2369 Cl  0  0  0  0  0  0  0  0  0  0  0  0
    4.6460    0.1705   -1.4286 C   0  0  0  0  0  0  0  0  0  0  0  0
    4.9106    0.0801   -3.1335 Cl  0  0  0  0  0  0  0  0  0  0  0  0
    3.7237   -0.7165   -0.8633 C   0  0  0  0  0  0  0  0  0  0  0  0
   -1.7012   -0.3465    0.8065 C   0  0  0  0  0  0  0  0  0  0  0  0
   -2.9179    0.3186    0.6127 C   0  0  0  0  0  0  0  0  0  0  0  0
   -3.6908    0.8272    1.6279 O   0  0  0  0  0  0  0  0  0  0  0  0
   -3.3241    0.5128    2.9633 C   0  0  0  0  0  0  0  0  0  0  0  0
   -5.3693    0.4270   -2.5817 H   0  0  0  0  0  0  0  0  0  0  0  0
   -4.4754    1.9930   -2.7069 H   0  0  0  0  0  0  0  0  0  0  0  0
   -6.0870    1.9274   -1.9847 H   0  0  0  0  0  0  0  0  0  0  0  0
   -3.0477    0.1230   -2.8063 H   0  0  0  0  0  0  0  0  0  0  0  0
   -0.9354   -1.0443   -2.4428 H   0  0  0  0  0  0  0  0  0  0  0  0
    0.8767   -0.2606    1.3969 H   0  0  0  0  0  0  0  0  0  0  0  0
    2.5422   -2.6355    0.6604 H   0  0  0  0  0  0  0  0  0  0  0  0
    2.6061   -1.7501    2.1847 H   0  0  0  0  0  0  0  0  0  0  0  0
    3.9378    0.2782    2.3915 H   0  0  0  0  0  0  0  0  0  0  0  0
    5.5652    1.8355    1.3983 H   0  0  0  0  0  0  0  0  0  0  0  0
    3.1978   -1.4285   -1.4996 H   0  0  0  0  0  0  0  0  0  0  0  0
   -1.3166   -0.5201    1.8042 H   0  0  0  0  0  0  0  0  0  0  0  0
   -3.2985   -0.5701    3.1242 H   0  0  0  0  0  0  0  0  0  0  0  0
   -4.0876    0.9296    3.6272 H   0  0  0  0  0  0  0  0  0  0  0  0
   -2.3671    0.9750    3.2264 H   0  0  0  0  0  0  0  0  0  0  0  0
  1  2  1  0
  2  3  1  0
  3  4  2  0
  4  5  1  0
  5  6  2  0
  6  7  1  0
  7  8  2  0
  7  9  1  0
  9 10  1  0
 10 11  1  0
 11 12  2  0
 12 13  1  0
 13 14  2  0
 14 15  1  0
 14 16  1  0
 16 17  1  0
 16 18  2  0
  6 19  1  0
 19 20  2  0
 20 21  1  0
 21 22  1  0
 20  3  1  0
 18 11  1  0
  1 23  1  0
  1 24  1  0
  1 25  1  0
  4 26  1  0
  5 27  1  0
  9 28  1  0
 10 29  1  0
 10 30  1  0
 12 31  1  0
 13 32  1  0
 18 33  1  0
 19 34  1  0
 22 35  1  0
 22 36  1  0
 22 37  1  0
M  END
$$$$
