
     RDKit          3D

 51 55  0  0  0  0  0  0  0  0999 V2000
    9.3309   -0.3603    1.4788 F   0  0  0  0  0  0  0  0  0  0  0  0
    7.9924   -0.3509    1.5288 C   0  0  0  0  0  0  0  0  0  0  0  0
    7.2952   -1.5484    1.4266 C   0  0  0  0  0  0  0  0  0  0  0  0
    5.9008   -1.5396    1.4774 C   0  0  0  0  0  0  0  0  0  0  0  0
    5.2054   -0.3308    1.6345 C   0  0  0  0  0  0  0  0  0  0  0  0
    3.6938   -0.3189    1.6694 C   0  0  0  0  0  0  0  0  0  0  0  0
    3.0982   -0.1173    0.2658 C   0  0  0  0  0  0  0  0  0  0  0  0
    1.6327   -0.2296    0.2308 N   0  0  0  0  0  0  0  0  0  0  0  0
    0.9341    0.8652    0.9223 C   0  0  0  0  0  0  0  0  0  0  0  0
   -0.6057    0.6840    0.9375 C   0  0  0  0  0  0  0  0  0  0  0  0
   -1.1378    0.1397   -0.3271 N   0  0  0  0  0  0  0  0  0  0  0  0
   -2.5133    0.1288   -0.5284 C   0  0  0  0  0  0  0  0  0  0  0  0
   -3.2558    0.9857    0.1278 N   0  0  0  0  0  0  0  0  0  0  0  0
   -4.6485    1.0357   -0.0770 C   0  0  0  0  0  0  0  0  0  0  0  0
   -5.3897    1.9808    0.6350 C   0  0  0  0  0  0  0  0  0  0  0  0
   -6.7726    2.0824    0.4606 C   0  0  0  0  0  0  0  0  0  0  0  0
   -7.4298    1.2354   -0.4325 C   0  0  0  0  0  0  0  0  0  0  0  0
   -6.7096    0.2829   -1.1543 C   0  0  0  0  0  0  0  0  0  0  0  0
   -5.3266    0.1938   -0.9695 C   0  0  0  0  0  0  0  0  0  0  0  0
   -4.5280   -0.7451   -1.6418 N   0  0  0  0  0  0  0  0  0  0  0  0
   -4.8913   -1.7173   -2.5438 C   0  0  0  0  0  0  0  0  0  0  0  0
   -3.7682   -2.4495   -2.8627 C   0  0  0  0  0  0  0  0  0  0  0  0
   -2.6865   -1.8906   -2.1436 C   0  0  0  0  0  0  0  0  0  0  0  0
   -3.1689   -0.8080   -1.4288 C   0  0  0  0  0  0  0  0  0  0  0  0
   -0.2265    0.2990   -1.4614 C   0  0  0  0  0  0  0  0  0  0  0  0
    1.1417   -0.3602   -1.1622 C   0  0  0  0  0  0  0  0  0  0  0  0
    5.9275    0.8688    1.7311 C   0  0  0  0  0  0  0  0  0  0  0  0
    7.3219    0.8569    1.6800 C   0  0  0  0  0  0  0  0  0  0  0  0
    7.8402   -2.4792    1.3079 H   0  0  0  0  0  0  0  0  0  0  0  0
    5.3586   -2.4794    1.3946 H   0  0  0  0  0  0  0  0  0  0  0  0
    3.3337   -1.2619    2.1006 H   0  0  0  0  0  0  0  0  0  0  0  0
    3.3686    0.4727    2.3545 H   0  0  0  0  0  0  0  0  0  0  0  0
    3.5223   -0.8916   -0.3883 H   0  0  0  0  0  0  0  0  0  0  0  0
    3.4196    0.8486   -0.1465 H   0  0  0  0  0  0  0  0  0  0  0  0
    1.2587    0.9439    1.9652 H   0  0  0  0  0  0  0  0  0  0  0  0
    1.1788    1.8229    0.4432 H   0  0  0  0  0  0  0  0  0  0  0  0
   -0.8761   -0.0087    1.7435 H   0  0  0  0  0  0  0  0  0  0  0  0
   -1.0554    1.6577    1.1656 H   0  0  0  0  0  0  0  0  0  0  0  0
   -4.8803    2.6429    1.3300 H   0  0  0  0  0  0  0  0  0  0  0  0
   -7.3348    2.8235    1.0230 H   0  0  0  0  0  0  0  0  0  0  0  0
   -8.5061    1.3174   -0.5640 H   0  0  0  0  0  0  0  0  0  0  0  0
   -7.2426   -0.3671   -1.8399 H   0  0  0  0  0  0  0  0  0  0  0  0
   -5.9128   -1.8348   -2.8746 H   0  0  0  0  0  0  0  0  0  0  0  0
   -3.7367   -3.3019   -3.5291 H   0  0  0  0  0  0  0  0  0  0  0  0
   -1.6637   -2.2429   -2.1428 H   0  0  0  0  0  0  0  0  0  0  0  0
   -0.0857    1.3711   -1.6515 H   0  0  0  0  0  0  0  0  0  0  0  0
   -0.6274   -0.1243   -2.3869 H   0  0  0  0  0  0  0  0  0  0  0  0
    1.8617    0.0556   -1.8792 H   0  0  0  0  0  0  0  0  0  0  0  0
    1.0679   -1.4334   -1.3764 H   0  0  0  0  0  0  0  0  0  0  0  0
    5.4076    1.8171    1.8485 H   0  0  0  0  0  0  0  0  0  0  0  0
    7.8884    1.7792    1.7569 H   0  0  0  0  0  0  0  0  0  0  0  0
  1  2  1  0
  2  3  2  0
  3  4  1  0
  4  5  2  0
  5  6  1  0
  6  7  1  0
  7  8  1  0
  8  9  1  0
  9 10  1  0
 10 11  1  0
 11 12  1  0
 12 13  2  0
 13 14  1  0
 14 15  2  0
 15 16  1  0
 16 17  2  0
 17 18  1  0
 18 19  2  0
 19 20  1  0
 20 21  1  0
 21 22  2  0
 22 23  1  0
 23 24  2  0
 11 25  1  0
 25 26  1  0
  5 27  1  0
 27 28  2  0
 28  2  1  0
 26  8  1  0
 24 12  1  0
 19 14  1  0
 24 20  1  0
  3 29  1  0
  4 30  1  0
  6 31  1  0
  6 32  1  0
  7 33  1  0
  7 34  1  0
  9 35  1  0
  9 36  1  0
 10 37  1  0
 10 38  1  0
 15 39  1  0
 16 40  1  0
 17 41  1  0
 18 42  1  0
 21 43  1  0
 22 44  1  0
 23 45  1  0
 25 46  1  0
 25 47  1  0
 26 48  1  0
 26 49  1  0
 27 50  1  0
 28 51  1  0
M  END
$$$$
