
     RDKit          3D

 47 50  0  0  0  0  0  0  0  0999 V2000
   -2.6162   -3.4060   -0.1033 C   0  0  0  0  0  0  0  0  0  0  0  0
   -1.5680   -2.3915    0.2557 C   0  0  0  0  0  0  0  0  0  0  0  0
   -0.3460   -2.8056    0.4458 N   0  0  0  0  0  0  0  0  0  0  0  0
    0.6753   -1.9022    0.7609 N   0  0  0  0  0  0  0  0  0  0  0  0
    2.0178   -2.4477    0.8644 C   0  0  0  0  0  0  0  0  0  0  0  0
    2.8059   -2.2053   -0.4258 C   0  0  0  0  0  0  0  0  0  0  0  0
    2.2902   -1.8957   -1.4972 O   0  0  0  0  0  0  0  0  0  0  0  0
    4.1664   -2.4144   -0.2838 N   0  0  0  0  0  0  0  0  0  0  0  0
    5.0890   -2.0829   -1.3480 C   0  0  0  0  0  0  0  0  0  0  0  0
    5.6751   -0.7381   -1.0534 C   0  0  0  0  0  0  0  0  0  0  0  0
    5.0641    0.4981   -1.1490 C   0  0  0  0  0  0  0  0  0  0  0  0
    5.9324    1.5636   -0.7767 C   0  0  0  0  0  0  0  0  0  0  0  0
    7.1793    1.1081   -0.4126 C   0  0  0  0  0  0  0  0  0  0  0  0
    7.2963   -0.5946   -0.5160 S   0  0  0  0  0  0  0  0  0  0  0  0
    0.5159   -0.5122    0.9216 C   0  0  0  0  0  0  0  0  0  0  0  0
    1.4421    0.2442    1.2098 O   0  0  0  0  0  0  0  0  0  0  0  0
   -0.8604   -0.0796    0.7248 C   0  0  0  0  0  0  0  0  0  0  0  0
   -1.3278    1.1635    0.8575 N   0  0  0  0  0  0  0  0  0  0  0  0
   -2.6352    1.0901    0.4861 N   0  0  0  0  0  0  0  0  0  0  0  0
   -3.3615    2.3077    0.2997 C   0  0  0  0  0  0  0  0  0  0  0  0
   -4.5542    2.3662   -0.4311 C   0  0  0  0  0  0  0  0  0  0  0  0
   -5.2251    3.5838   -0.5927 C   0  0  0  0  0  0  0  0  0  0  0  0
   -4.7068    4.7525   -0.0397 C   0  0  0  0  0  0  0  0  0  0  0  0
   -3.5082    4.7116    0.6661 C   0  0  0  0  0  0  0  0  0  0  0  0
   -2.8341    3.4989    0.8290 C   0  0  0  0  0  0  0  0  0  0  0  0
   -3.0409   -0.2440    0.3506 C   0  0  0  0  0  0  0  0  0  0  0  0
   -4.4531   -0.6923    0.2431 C   0  0  0  0  0  0  0  0  0  0  0  0
   -1.8740   -0.9888    0.4032 C   0  0  0  0  0  0  0  0  0  0  0  0
   -3.2644   -3.5811    0.7594 H   0  0  0  0  0  0  0  0  0  0  0  0
   -3.2127   -3.0527   -0.9483 H   0  0  0  0  0  0  0  0  0  0  0  0
   -2.1470   -4.3543   -0.3821 H   0  0  0  0  0  0  0  0  0  0  0  0
    2.5372   -1.9706    1.7027 H   0  0  0  0  0  0  0  0  0  0  0  0
    1.9618   -3.5258    1.0485 H   0  0  0  0  0  0  0  0  0  0  0  0
    4.5545   -2.4622    0.6487 H   0  0  0  0  0  0  0  0  0  0  0  0
    5.8531   -2.8668   -1.3687 H   0  0  0  0  0  0  0  0  0  0  0  0
    4.5826   -2.0765   -2.3187 H   0  0  0  0  0  0  0  0  0  0  0  0
    4.0334    0.6279   -1.4631 H   0  0  0  0  0  0  0  0  0  0  0  0
    5.6527    2.6101   -0.7738 H   0  0  0  0  0  0  0  0  0  0  0  0
    8.0283    1.6935   -0.0876 H   0  0  0  0  0  0  0  0  0  0  0  0
   -4.9713    1.5016   -0.9328 H   0  0  0  0  0  0  0  0  0  0  0  0
   -6.1483    3.6221   -1.1662 H   0  0  0  0  0  0  0  0  0  0  0  0
   -5.2287    5.6968   -0.1709 H   0  0  0  0  0  0  0  0  0  0  0  0
   -3.0912    5.6224    1.0884 H   0  0  0  0  0  0  0  0  0  0  0  0
   -1.8967    3.4976    1.3842 H   0  0  0  0  0  0  0  0  0  0  0  0
   -5.1370   -0.0248    0.7755 H   0  0  0  0  0  0  0  0  0  0  0  0
   -4.5874   -1.6744    0.7049 H   0  0  0  0  0  0  0  0  0  0  0  0
   -4.7573   -0.7703   -0.8048 H   0  0  0  0  0  0  0  0  0  0  0  0
  1  2  1  0
  2  3  2  0
  3  4  1  0
  4  5  1  0
  5  6  1  0
  6  7  2  0
  6  8  1  0
  8  9  1  0
  9 10  1  0
 10 11  2  0
 11 12  1  0
 12 13  2  0
 13 14  1  0
  4 15  1  0
 15 16  2  0
 15 17  1  0
 17 18  2  0
 18 19  1  0
 19 20  1  0
 20 21  2  0
 21 22  1  0
 22 23  2  0
 23 24  1  0
 24 25  2  0
 19 26  1  0
 26 27  1  0
 26 28  2  0
 28  2  1  0
 14 10  1  0
 28 17  1  0
 25 20  1  0
  1 29  1  0
  1 30  1  0
  1 31  1  0
  5 32  1  0
  5 33  1  0
  8 34  1  0
  9 35  1  0
  9 36  1  0
 11 37  1  0
 12 38  1  0
 13 39  1  0
 21 40  1  0
 22 41  1  0
 23 42  1  0
 24 43  1  0
 25 44  1  0
 27 45  1  0
 27 46  1  0
 27 47  1  0
M  END
$$$$
