
     RDKit          3D

 64 67  0  0  0  0  0  0  0  0999 V2000
    9.0805   -2.3743    1.5975 C   0  0  0  0  0  0  0  0  0  0  0  0
    7.8412   -2.7640    1.0149 O   0  0  0  0  0  0  0  0  0  0  0  0
    6.8680   -1.8075    0.9336 C   0  0  0  0  0  0  0  0  0  0  0  0
    6.9474   -0.5107    1.4437 C   0  0  0  0  0  0  0  0  0  0  0  0
    5.8761    0.3762    1.2842 C   0  0  0  0  0  0  0  0  0  0  0  0
    4.7102   -0.0307    0.6308 C   0  0  0  0  0  0  0  0  0  0  0  0
    3.6016    0.8178    0.4038 N   0  0  0  0  0  0  0  0  0  0  0  0
    3.3971    2.1024    0.8661 C   0  0  0  0  0  0  0  0  0  0  0  0
    4.1074    2.7055    1.6694 O   0  0  0  0  0  0  0  0  0  0  0  0
    2.1921    2.7829    0.2417 C   0  0  0  0  0  0  0  0  0  0  0  0
    0.6397    2.1611    0.9544 S   0  0  0  0  0  0  0  0  0  0  0  0
    0.1565    1.0790   -0.3026 C   0  0  0  0  0  0  0  0  0  0  0  0
    0.9707    0.3579   -1.0332 N   0  0  0  0  0  0  0  0  0  0  0  0
    0.2194   -0.2699   -1.9933 N   0  0  0  0  0  0  0  0  0  0  0  0
   -1.0421    0.0882   -1.8348 C   0  0  0  0  0  0  0  0  0  0  0  0
   -2.1620   -0.2598   -2.7627 C   0  0  0  0  0  0  0  0  0  0  0  0
   -3.2149   -1.1438   -2.1597 C   0  0  0  0  0  0  0  0  0  0  0  0
   -3.0772   -2.2336   -1.3118 C   0  0  0  0  0  0  0  0  0  0  0  0
   -4.3685   -2.7318   -1.0265 C   0  0  0  0  0  0  0  0  0  0  0  0
   -5.2636   -1.9715   -1.7403 C   0  0  0  0  0  0  0  0  0  0  0  0
   -4.5605   -1.0245   -2.4392 N   0  0  0  0  0  0  0  0  0  0  0  0
   -5.1716   -0.0532   -3.3253 C   0  0  0  0  0  0  0  0  0  0  0  0
   -1.1323    0.9010   -0.7239 N   0  0  0  0  0  0  0  0  0  0  0  0
   -2.3269    1.5269   -0.1889 C   0  0  0  0  0  0  0  0  0  0  0  0
   -2.8601    0.7981    1.0469 C   0  0  0  0  0  0  0  0  0  0  0  0
   -4.0826    1.4858    1.6031 C   0  0  0  0  0  0  0  0  0  0  0  0
   -3.9496    2.5049    2.5563 C   0  0  0  0  0  0  0  0  0  0  0  0
   -5.0806    3.1509    3.0549 C   0  0  0  0  0  0  0  0  0  0  0  0
   -6.3507    2.7928    2.6013 C   0  0  0  0  0  0  0  0  0  0  0  0
   -6.4917    1.7802    1.6530 C   0  0  0  0  0  0  0  0  0  0  0  0
   -5.3635    1.1291    1.1555 C   0  0  0  0  0  0  0  0  0  0  0  0
    4.6184   -1.3464    0.1348 C   0  0  0  0  0  0  0  0  0  0  0  0
    3.4177   -1.6719   -0.4516 O   0  0  0  0  0  0  0  0  0  0  0  0
    3.2928   -2.9583   -1.0392 C   0  0  0  0  0  0  0  0  0  0  0  0
    5.7018   -2.2187    0.2791 C   0  0  0  0  0  0  0  0  0  0  0  0
    8.9636   -2.1927    2.6704 H   0  0  0  0  0  0  0  0  0  0  0  0
    9.5085   -1.5056    1.0881 H   0  0  0  0  0  0  0  0  0  0  0  0
    9.7869   -3.2040    1.4680 H   0  0  0  0  0  0  0  0  0  0  0  0
    7.8272   -0.1550    1.9689 H   0  0  0  0  0  0  0  0  0  0  0  0
    5.9824    1.3853    1.6751 H   0  0  0  0  0  0  0  0  0  0  0  0
    2.8510    0.3797   -0.1388 H   0  0  0  0  0  0  0  0  0  0  0  0
    2.2582    3.8563    0.4336 H   0  0  0  0  0  0  0  0  0  0  0  0
    2.2341    2.6570   -0.8427 H   0  0  0  0  0  0  0  0  0  0  0  0
   -2.5936    0.6747   -3.1420 H   0  0  0  0  0  0  0  0  0  0  0  0
   -1.7473   -0.7808   -3.6358 H   0  0  0  0  0  0  0  0  0  0  0  0
   -2.1385   -2.6193   -0.9292 H   0  0  0  0  0  0  0  0  0  0  0  0
   -4.6173   -3.5715   -0.3876 H   0  0  0  0  0  0  0  0  0  0  0  0
   -6.3419   -2.0390   -1.8127 H   0  0  0  0  0  0  0  0  0  0  0  0
   -5.0907    0.9333   -2.8634 H   0  0  0  0  0  0  0  0  0  0  0  0
   -4.6538   -0.0785   -4.2888 H   0  0  0  0  0  0  0  0  0  0  0  0
   -6.2245   -0.3077   -3.4769 H   0  0  0  0  0  0  0  0  0  0  0  0
   -3.0845    1.5666   -0.9792 H   0  0  0  0  0  0  0  0  0  0  0  0
   -2.0826    2.5740    0.0384 H   0  0  0  0  0  0  0  0  0  0  0  0
   -3.1065   -0.2429    0.8079 H   0  0  0  0  0  0  0  0  0  0  0  0
   -2.0913    0.7402    1.8280 H   0  0  0  0  0  0  0  0  0  0  0  0
   -2.9667    2.8005    2.9188 H   0  0  0  0  0  0  0  0  0  0  0  0
   -4.9728    3.9371    3.7976 H   0  0  0  0  0  0  0  0  0  0  0  0
   -7.2287    3.3036    2.9892 H   0  0  0  0  0  0  0  0  0  0  0  0
   -7.4815    1.4955    1.3026 H   0  0  0  0  0  0  0  0  0  0  0  0
   -5.4895    0.3325    0.4229 H   0  0  0  0  0  0  0  0  0  0  0  0
    2.2900   -3.0308   -1.4734 H   0  0  0  0  0  0  0  0  0  0  0  0
    3.3877   -3.7479   -0.2848 H   0  0  0  0  0  0  0  0  0  0  0  0
    4.0201   -3.0945   -1.8488 H   0  0  0  0  0  0  0  0  0  0  0  0
    5.6619   -3.2356   -0.0975 H   0  0  0  0  0  0  0  0  0  0  0  0
  1  2  1  0
  2  3  1  0
  3  4  2  0
  4  5  1  0
  5  6  2  0
  6  7  1  0
  7  8  1  0
  8  9  2  0
  8 10  1  0
 10 11  1  0
 11 12  1  0
 12 13  2  0
 13 14  1  0
 14 15  2  0
 15 16  1  0
 16 17  1  0
 17 18  2  0
 18 19  1  0
 19 20  2  0
 20 21  1  0
 21 22  1  0
 15 23  1  0
 23 24  1  0
 24 25  1  0
 25 26  1  0
 26 27  2  0
 27 28  1  0
 28 29  2  0
 29 30  1  0
 30 31  2  0
  6 32  1  0
 32 33  1  0
 33 34  1  0
 32 35  2  0
 35  3  1  0
 23 12  1  0
 31 26  1  0
 21 17  1  0
  1 36  1  0
  1 37  1  0
  1 38  1  0
  4 39  1  0
  5 40  1  0
  7 41  1  0
 10 42  1  0
 10 43  1  0
 16 44  1  0
 16 45  1  0
 18 46  1  0
 19 47  1  0
 20 48  1  0
 22 49  1  0
 22 50  1  0
 22 51  1  0
 24 52  1  0
 24 53  1  0
 25 54  1  0
 25 55  1  0
 27 56  1  0
 28 57  1  0
 29 58  1  0
 30 59  1  0
 31 60  1  0
 34 61  1  0
 34 62  1  0
 34 63  1  0
 35 64  1  0
M  END
$$$$
