
     RDKit          3D

 31 32  0  0  0  0  0  0  0  0999 V2000
    1.9882   -2.9244    3.3591 C   0  0  0  0  0  0  0  0  0  0  0  0
    0.5614   -2.2983    2.4324 S   0  0  0  0  0  0  0  0  0  0  0  0
    1.4051   -1.4168    1.1299 C   0  0  0  0  0  0  0  0  0  0  0  0
    2.2966   -2.0646    0.2685 C   0  0  0  0  0  0  0  0  0  0  0  0
    2.9264   -1.3564   -0.7567 C   0  0  0  0  0  0  0  0  0  0  0  0
    2.6627    0.0016   -0.9290 C   0  0  0  0  0  0  0  0  0  0  0  0
    1.7703    0.6511   -0.0774 C   0  0  0  0  0  0  0  0  0  0  0  0
    1.4703    2.0351   -0.2842 N   0  0  0  0  0  0  0  0  0  0  0  0
    0.4052    2.3785   -1.5735 S   0  0  0  0  0  6  0  0  0  0  0  0
    0.7683    1.6218   -2.7533 O   0  0  0  0  0  0  0  0  0  0  0  0
    0.2264    3.8150   -1.6109 O   0  0  0  0  0  0  0  0  0  0  0  0
   -1.1701    1.7816   -1.1150 C   0  0  0  0  0  0  0  0  0  0  0  0
   -2.1516    1.3044   -1.9603 C   0  0  0  0  0  0  0  0  0  0  0  0
   -3.1776    0.9470   -1.1351 N   0  0  0  0  0  0  0  0  0  0  0  0
   -4.4418    0.3818   -1.5336 C   0  0  0  0  0  0  0  0  0  0  0  0
   -2.8020    1.2132    0.1521 C   0  0  0  0  0  0  0  0  0  0  0  0
   -1.5909    1.7222    0.2076 N   0  0  0  0  0  0  0  0  0  0  0  0
    1.1349   -0.0568    0.9448 C   0  0  0  0  0  0  0  0  0  0  0  0
    1.6342   -3.4105    4.2722 H   0  0  0  0  0  0  0  0  0  0  0  0
    2.5431   -3.6604    2.7717 H   0  0  0  0  0  0  0  0  0  0  0  0
    2.6543   -2.1036    3.6390 H   0  0  0  0  0  0  0  0  0  0  0  0
    2.4971   -3.1278    0.3739 H   0  0  0  0  0  0  0  0  0  0  0  0
    3.6136   -1.8640   -1.4289 H   0  0  0  0  0  0  0  0  0  0  0  0
    3.1482    0.5472   -1.7347 H   0  0  0  0  0  0  0  0  0  0  0  0
    1.0857    2.4965    0.5431 H   0  0  0  0  0  0  0  0  0  0  0  0
   -2.1817    1.1939   -3.0358 H   0  0  0  0  0  0  0  0  0  0  0  0
   -5.2412    1.0371   -1.1786 H   0  0  0  0  0  0  0  0  0  0  0  0
   -4.4808    0.3043   -2.6230 H   0  0  0  0  0  0  0  0  0  0  0  0
   -4.5325   -0.6110   -1.0857 H   0  0  0  0  0  0  0  0  0  0  0  0
   -3.4437    1.0175    1.0022 H   0  0  0  0  0  0  0  0  0  0  0  0
    0.4219    0.4448    1.5945 H   0  0  0  0  0  0  0  0  0  0  0  0
  1  2  1  0
  2  3  1  0
  3  4  2  0
  4  5  1  0
  5  6  2  0
  6  7  1  0
  7  8  1  0
  8  9  1  0
  9 10  2  0
  9 11  2  0
  9 12  1  0
 12 13  2  0
 13 14  1  0
 14 15  1  0
 14 16  1  0
 16 17  2  0
  7 18  2  0
 18  3  1  0
 17 12  1  0
  1 19  1  0
  1 20  1  0
  1 21  1  0
  4 22  1  0
  5 23  1  0
  6 24  1  0
  8 25  1  0
 13 26  1  0
 15 27  1  0
 15 28  1  0
 15 29  1  0
 16 30  1  0
 18 31  1  0
M  END
$$$$
