
     RDKit          3D

 35 35  0  0  0  0  0  0  0  0999 V2000
   -3.4727   -1.6061   -0.8380 C   0  0  0  0  0  0  0  0  0  0  0  0
   -3.2004   -0.2270   -1.4507 C   0  0  0  0  0  0  0  0  0  0  0  0
   -4.3794    0.7161   -1.1750 C   0  0  0  0  0  0  0  0  0  0  0  0
   -1.9188    0.4013   -1.0557 N   0  0  0  0  0  0  0  0  0  0  0  0
   -0.7847   -0.2524   -1.7142 C   0  0  0  0  0  0  0  0  0  0  0  0
   -1.7213    0.4956    0.4082 C   0  0  0  0  0  0  0  0  0  0  0  0
   -0.5460    1.3916    0.8420 C   0  0  0  0  0  0  0  0  0  0  0  0
    0.6815    0.6479    0.7924 O   0  0  0  0  0  0  0  0  0  0  0  0
    1.7560    1.3288    1.2590 C   0  0  0  0  0  0  0  0  0  0  0  0
    1.7748    2.4615    1.7049 O   0  0  0  0  0  0  0  0  0  0  0  0
    2.9359    0.4561    1.1367 C   0  0  0  0  0  0  0  0  0  0  0  0
    3.3125    0.0282   -0.1460 C   0  0  0  0  0  0  0  0  0  0  0  0
    4.4379   -0.7794   -0.3106 C   0  0  0  0  0  0  0  0  0  0  0  0
    5.1887   -1.1593    0.8008 C   0  0  0  0  0  0  0  0  0  0  0  0
    4.8154   -0.7349    2.0786 C   0  0  0  0  0  0  0  0  0  0  0  0
    3.6880    0.0753    2.2517 C   0  0  0  0  0  0  0  0  0  0  0  0
    3.2237    0.5666    4.0246 Br  0  0  0  0  0  0  0  0  0  0  0  0
   -3.6127   -1.5526    0.2466 H   0  0  0  0  0  0  0  0  0  0  0  0
   -4.3865   -2.0358   -1.2637 H   0  0  0  0  0  0  0  0  0  0  0  0
   -2.6579   -2.3062   -1.0457 H   0  0  0  0  0  0  0  0  0  0  0  0
   -3.1859   -0.3531   -2.5419 H   0  0  0  0  0  0  0  0  0  0  0  0
   -4.1904    1.7121   -1.5906 H   0  0  0  0  0  0  0  0  0  0  0  0
   -5.2905    0.3323   -1.6480 H   0  0  0  0  0  0  0  0  0  0  0  0
   -4.5875    0.8231   -0.1058 H   0  0  0  0  0  0  0  0  0  0  0  0
   -0.9686   -0.3723   -2.7880 H   0  0  0  0  0  0  0  0  0  0  0  0
    0.1158    0.3649   -1.6437 H   0  0  0  0  0  0  0  0  0  0  0  0
   -0.5670   -1.2395   -1.2927 H   0  0  0  0  0  0  0  0  0  0  0  0
   -1.5926   -0.5027    0.8441 H   0  0  0  0  0  0  0  0  0  0  0  0
   -2.6171    0.9404    0.8539 H   0  0  0  0  0  0  0  0  0  0  0  0
   -0.7189    1.7127    1.8769 H   0  0  0  0  0  0  0  0  0  0  0  0
   -0.4748    2.2795    0.2025 H   0  0  0  0  0  0  0  0  0  0  0  0
    2.7347    0.3302   -1.0167 H   0  0  0  0  0  0  0  0  0  0  0  0
    4.7316   -1.1089   -1.3046 H   0  0  0  0  0  0  0  0  0  0  0  0
    6.0671   -1.7884    0.6739 H   0  0  0  0  0  0  0  0  0  0  0  0
    5.4103   -1.0454    2.9347 H   0  0  0  0  0  0  0  0  0  0  0  0
  1  2  1  0
  2  3  1  0
  2  4  1  0
  4  5  1  0
  4  6  1  0
  6  7  1  0
  7  8  1  0
  8  9  1  0
  9 10  2  0
  9 11  1  0
 11 12  2  0
 12 13  1  0
 13 14  2  0
 14 15  1  0
 15 16  2  0
 16 17  1  0
 16 11  1  0
  1 18  1  0
  1 19  1  0
  1 20  1  0
  2 21  1  0
  3 22  1  0
  3 23  1  0
  3 24  1  0
  5 25  1  0
  5 26  1  0
  5 27  1  0
  6 28  1  0
  6 29  1  0
  7 30  1  0
  7 31  1  0
 12 32  1  0
 13 33  1  0
 14 34  1  0
 15 35  1  0
M  END
$$$$
