
     RDKit          3D

 47 48  0  0  0  0  0  0  0  0999 V2000
    7.1500   -1.8829   -0.6225 C   0  0  0  0  0  0  0  0  0  0  0  0
    7.5871   -0.6674   -0.0230 O   0  0  0  0  0  0  0  0  0  0  0  0
    6.6367    0.3017    0.1674 C   0  0  0  0  0  0  0  0  0  0  0  0
    5.2565    0.1503    0.0035 C   0  0  0  0  0  0  0  0  0  0  0  0
    4.3864    1.2323    0.2216 C   0  0  0  0  0  0  0  0  0  0  0  0
    2.9218    1.1192    0.0873 C   0  0  0  0  0  0  0  0  0  0  0  0
    2.3031    0.2803   -0.7569 C   0  0  0  0  0  0  0  0  0  0  0  0
    0.8230    0.1617   -0.8890 C   0  0  0  0  0  0  0  0  0  0  0  0
    0.3761   -0.8446   -1.4377 O   0  0  0  0  0  0  0  0  0  0  0  0
   -0.0693    1.2315   -0.3156 C   0  0  0  0  0  0  0  0  0  0  0  0
   -1.4276    1.2830   -0.9682 C   0  0  0  0  0  0  0  0  0  0  0  0
   -1.6776    2.0987   -1.8543 O   0  0  0  0  0  0  0  0  0  0  0  0
   -2.4629    0.3344   -0.4701 C   0  0  0  0  0  0  0  0  0  0  0  0
   -3.7032    0.3641   -0.9785 C   0  0  0  0  0  0  0  0  0  0  0  0
   -4.7582   -0.5339   -0.5019 C   0  0  0  0  0  0  0  0  0  0  0  0
   -5.2405   -1.5424   -1.3464 C   0  0  0  0  0  0  0  0  0  0  0  0
   -6.2549   -2.3955   -0.9093 C   0  0  0  0  0  0  0  0  0  0  0  0
   -6.7837   -2.2262    0.3642 C   0  0  0  0  0  0  0  0  0  0  0  0
   -7.7853   -3.0701    0.7677 O   0  0  0  0  0  0  0  0  0  0  0  0
   -6.3248   -1.2191    1.2231 C   0  0  0  0  0  0  0  0  0  0  0  0
   -6.9498   -1.1707    2.4441 O   0  0  0  0  0  0  0  0  0  0  0  0
   -6.6199   -0.0698    3.2837 C   0  0  0  0  0  0  0  0  0  0  0  0
   -5.3026   -0.3758    0.7853 C   0  0  0  0  0  0  0  0  0  0  0  0
    4.9202    2.4629    0.6380 C   0  0  0  0  0  0  0  0  0  0  0  0
    6.2949    2.6202    0.8127 C   0  0  0  0  0  0  0  0  0  0  0  0
    7.1357    1.5420    0.5757 C   0  0  0  0  0  0  0  0  0  0  0  0
    8.4805    1.7220    0.7507 O   0  0  0  0  0  0  0  0  0  0  0  0
    8.0332   -2.5059   -0.7964 H   0  0  0  0  0  0  0  0  0  0  0  0
    6.4816   -2.4338    0.0481 H   0  0  0  0  0  0  0  0  0  0  0  0
    6.6771   -1.7000   -1.5950 H   0  0  0  0  0  0  0  0  0  0  0  0
    4.8434   -0.8117   -0.2777 H   0  0  0  0  0  0  0  0  0  0  0  0
    2.3547    1.7875    0.7314 H   0  0  0  0  0  0  0  0  0  0  0  0
    2.8474   -0.3970   -1.4078 H   0  0  0  0  0  0  0  0  0  0  0  0
    0.3860    2.2206   -0.4552 H   0  0  0  0  0  0  0  0  0  0  0  0
   -0.1862    1.0660    0.7633 H   0  0  0  0  0  0  0  0  0  0  0  0
   -2.1698   -0.3690    0.3011 H   0  0  0  0  0  0  0  0  0  0  0  0
   -3.9791    1.0549   -1.7729 H   0  0  0  0  0  0  0  0  0  0  0  0
   -4.8277   -1.6715   -2.3448 H   0  0  0  0  0  0  0  0  0  0  0  0
   -6.6350   -3.1807   -1.5568 H   0  0  0  0  0  0  0  0  0  0  0  0
   -8.0196   -2.7673    1.6661 H   0  0  0  0  0  0  0  0  0  0  0  0
   -7.2365   -0.1409    4.1864 H   0  0  0  0  0  0  0  0  0  0  0  0
   -5.5708   -0.1109    3.5935 H   0  0  0  0  0  0  0  0  0  0  0  0
   -6.8523    0.8839    2.7960 H   0  0  0  0  0  0  0  0  0  0  0  0
   -4.9189    0.4190    1.4170 H   0  0  0  0  0  0  0  0  0  0  0  0
    4.2728    3.3168    0.8244 H   0  0  0  0  0  0  0  0  0  0  0  0
    6.7069    3.5761    1.1317 H   0  0  0  0  0  0  0  0  0  0  0  0
    8.8811    0.8580    0.5335 H   0  0  0  0  0  0  0  0  0  0  0  0
  1  2  1  0
  2  3  1  0
  3  4  2  0
  4  5  1  0
  5  6  1  0
  6  7  2  3
  7  8  1  0
  8  9  2  0
  8 10  1  0
 10 11  1  0
 11 12  2  0
 11 13  1  0
 13 14  2  3
 14 15  1  0
 15 16  2  0
 16 17  1  0
 17 18  2  0
 18 19  1  0
 18 20  1  0
 20 21  1  0
 21 22  1  0
 20 23  2  0
  5 24  2  0
 24 25  1  0
 25 26  2  0
 26 27  1  0
 26  3  1  0
 23 15  1  0
  1 28  1  0
  1 29  1  0
  1 30  1  0
  4 31  1  0
  6 32  1  0
  7 33  1  0
 10 34  1  0
 10 35  1  0
 13 36  1  0
 14 37  1  0
 16 38  1  0
 17 39  1  0
 19 40  1  0
 22 41  1  0
 22 42  1  0
 22 43  1  0
 23 44  1  0
 24 45  1  0
 25 46  1  0
 27 47  1  0
M  END
$$$$
