
     RDKit          3D

 40 41  0  0  0  0  0  0  0  0999 V2000
    7.7120   -0.6789    1.1144 C   0  0  0  0  0  0  0  0  0  0  0  0
    6.8847   -0.1221    0.1004 O   0  0  0  0  0  0  0  0  0  0  0  0
    5.5367   -0.1337    0.3267 C   0  0  0  0  0  0  0  0  0  0  0  0
    4.7680    0.4244   -0.6959 C   0  0  0  0  0  0  0  0  0  0  0  0
    3.3744    0.4779   -0.5951 C   0  0  0  0  0  0  0  0  0  0  0  0
    2.7244   -0.0403    0.5298 C   0  0  0  0  0  0  0  0  0  0  0  0
    1.2605    0.0570    0.6125 C   0  0  0  0  0  0  0  0  0  0  0  0
    0.4844   -0.8891    1.1646 C   0  0  0  0  0  0  0  0  0  0  0  0
   -0.9931   -0.7664    1.2765 C   0  0  0  0  0  0  0  0  0  0  0  0
   -1.5371   -1.1565    2.3008 O   0  0  0  0  0  0  0  0  0  0  0  0
   -1.6013   -0.2738    0.1404 N   0  0  0  0  0  0  0  0  0  0  0  0
   -2.9436   -0.0176   -0.0849 C   0  0  0  0  0  0  0  0  0  0  0  0
   -3.8621   -0.1467    0.8789 C   0  0  0  0  0  0  0  0  0  0  0  0
   -5.2775    0.1407    0.6246 C   0  0  0  0  0  0  0  0  0  0  0  0
   -6.0754    0.0768    1.5566 O   0  0  0  0  0  0  0  0  0  0  0  0
   -5.6054    0.4738   -0.6674 N   0  0  0  0  0  0  0  0  0  0  0  0
   -6.9949    0.7559   -0.9737 C   0  0  0  0  0  0  0  0  0  0  0  0
   -4.6743    0.6745   -1.6733 C   0  0  0  0  0  0  0  0  0  0  0  0
   -5.0128    1.0754   -2.7898 O   0  0  0  0  0  0  0  0  0  0  0  0
   -3.3390    0.4058   -1.3514 N   0  0  0  0  0  0  0  0  0  0  0  0
   -2.3639    0.5908   -2.4223 C   0  0  0  0  0  0  0  0  0  0  0  0
    3.5004   -0.5839    1.5611 C   0  0  0  0  0  0  0  0  0  0  0  0
    4.8971   -0.6354    1.4587 C   0  0  0  0  0  0  0  0  0  0  0  0
    8.7510   -0.5960    0.7810 H   0  0  0  0  0  0  0  0  0  0  0  0
    7.6175   -0.1204    2.0516 H   0  0  0  0  0  0  0  0  0  0  0  0
    7.4936   -1.7416    1.2628 H   0  0  0  0  0  0  0  0  0  0  0  0
    5.2598    0.8243   -1.5796 H   0  0  0  0  0  0  0  0  0  0  0  0
    2.8095    0.9231   -1.4105 H   0  0  0  0  0  0  0  0  0  0  0  0
    0.8320    0.9669    0.1994 H   0  0  0  0  0  0  0  0  0  0  0  0
    0.8895   -1.7810    1.6314 H   0  0  0  0  0  0  0  0  0  0  0  0
   -0.9842   -0.1349   -0.6439 H   0  0  0  0  0  0  0  0  0  0  0  0
   -3.6490   -0.4494    1.8951 H   0  0  0  0  0  0  0  0  0  0  0  0
   -7.2549    0.3429   -1.9535 H   0  0  0  0  0  0  0  0  0  0  0  0
   -7.6715    0.3355   -0.2245 H   0  0  0  0  0  0  0  0  0  0  0  0
   -7.1279    1.8421   -1.0059 H   0  0  0  0  0  0  0  0  0  0  0  0
   -1.8649   -0.3629   -2.6236 H   0  0  0  0  0  0  0  0  0  0  0  0
   -2.8174    0.9299   -3.3575 H   0  0  0  0  0  0  0  0  0  0  0  0
   -1.6313    1.3449   -2.1164 H   0  0  0  0  0  0  0  0  0  0  0  0
    3.0340   -0.9639    2.4675 H   0  0  0  0  0  0  0  0  0  0  0  0
    5.4518   -1.0681    2.2848 H   0  0  0  0  0  0  0  0  0  0  0  0
  1  2  1  0
  2  3  1  0
  3  4  2  0
  4  5  1  0
  5  6  2  0
  6  7  1  0
  7  8  2  3
  8  9  1  0
  9 10  2  0
  9 11  1  0
 11 12  1  0
 12 13  2  0
 13 14  1  0
 14 15  2  0
 14 16  1  0
 16 17  1  0
 16 18  1  0
 18 19  2  0
 18 20  1  0
 20 21  1  0
  6 22  1  0
 22 23  2  0
 23  3  1  0
 20 12  1  0
  1 24  1  0
  1 25  1  0
  1 26  1  0
  4 27  1  0
  5 28  1  0
  7 29  1  0
  8 30  1  0
 11 31  1  0
 13 32  1  0
 17 33  1  0
 17 34  1  0
 17 35  1  0
 21 36  1  0
 21 37  1  0
 21 38  1  0
 22 39  1  0
 23 40  1  0
M  END
$$$$
