
     RDKit          3D

 33 35  0  0  0  0  0  0  0  0999 V2000
    5.0175    0.8671   -1.5088 C   0  0  0  0  0  0  0  0  0  0  0  0
    4.3059    0.2782   -0.3978 N   0  0  0  0  0  0  0  0  0  0  0  0
    4.8509   -0.3072    0.7040 C   0  0  0  0  0  0  0  0  0  0  0  0
    3.7803   -0.7038    1.4787 C   0  0  0  0  0  0  0  0  0  0  0  0
    3.8652   -1.3286    2.7548 N   0  0  0  0  0  4  0  0  0  0  0  0
    4.5732   -2.3407    2.8262 O   0  0  0  0  0  0  0  0  0  0  0  0
    3.2892   -0.7630    3.6900 O   0  0  0  0  0  1  0  0  0  0  0  0
    2.6232   -0.3509    0.7521 C   0  0  0  0  0  0  0  0  0  0  0  0
    1.2149   -0.6165    1.0906 C   0  0  0  0  0  0  0  0  0  0  0  0
    0.9155   -1.3370    2.0313 O   0  0  0  0  0  0  0  0  0  0  0  0
    0.3654    0.0151    0.2001 N   0  0  0  0  0  0  0  0  0  0  0  0
   -1.0187    0.0046    0.1869 C   0  0  0  0  0  0  0  0  0  0  0  0
   -1.9136   -0.8267    1.3983 S   0  0  0  0  0  0  0  0  0  0  0  0
   -3.3568   -0.3684    0.6987 C   0  0  0  0  0  0  0  0  0  0  0  0
   -3.2126    0.3971   -0.4233 C   0  0  0  0  0  0  0  0  0  0  0  0
   -1.8538    0.6266   -0.7365 C   0  0  0  0  0  0  0  0  0  0  0  0
   -1.3884    1.3939   -1.8502 C   0  0  0  0  0  0  0  0  0  0  0  0
   -0.9930    2.0133   -2.7484 N   0  0  0  0  0  0  0  0  0  0  0  0
   -4.5341    0.7713   -0.9873 C   0  0  0  0  0  0  0  0  0  0  0  0
   -5.5036   -0.1849   -0.2223 C   0  0  0  0  0  0  0  0  0  0  0  0
   -4.7637   -0.6372    1.0747 C   0  0  0  0  0  0  0  0  0  0  0  0
    2.9572    0.2836   -0.3974 N   0  0  0  0  0  0  0  0  0  0  0  0
    6.0933    0.7730   -1.3418 H   0  0  0  0  0  0  0  0  0  0  0  0
    4.7320    0.3352   -2.4197 H   0  0  0  0  0  0  0  0  0  0  0  0
    4.7394    1.9218   -1.5742 H   0  0  0  0  0  0  0  0  0  0  0  0
    5.9192   -0.3839    0.8562 H   0  0  0  0  0  0  0  0  0  0  0  0
    0.8514    0.5249   -0.5370 H   0  0  0  0  0  0  0  0  0  0  0  0
   -4.7667    1.8163   -0.7569 H   0  0  0  0  0  0  0  0  0  0  0  0
   -4.5953    0.6142   -2.0677 H   0  0  0  0  0  0  0  0  0  0  0  0
   -6.4683    0.2856   -0.0085 H   0  0  0  0  0  0  0  0  0  0  0  0
   -5.6989   -1.0669   -0.8468 H   0  0  0  0  0  0  0  0  0  0  0  0
   -5.0653   -0.0170    1.9249 H   0  0  0  0  0  0  0  0  0  0  0  0
   -4.9609   -1.6894    1.2971 H   0  0  0  0  0  0  0  0  0  0  0  0
  1  2  1  0
  2  3  1  0
  3  4  2  0
  4  5  1  0
  5  6  2  0
  5  7  1  0
  4  8  1  0
  8  9  1  0
  9 10  2  0
  9 11  1  0
 11 12  1  0
 12 13  1  0
 13 14  1  0
 14 15  2  0
 15 16  1  0
 16 17  1  0
 17 18  3  0
 15 19  1  0
 19 20  1  0
 20 21  1  0
  8 22  2  0
 22  2  1  0
 16 12  2  0
 21 14  1  0
  1 23  1  0
  1 24  1  0
  1 25  1  0
  3 26  1  0
 11 27  1  0
 19 28  1  0
 19 29  1  0
 20 30  1  0
 20 31  1  0
 21 32  1  0
 21 33  1  0
M  CHG  2   5   1   7  -1
M  END
$$$$
