
     RDKit          3D

 42 45  0  0  0  0  0  0  0  0999 V2000
    4.3300   -1.2093    2.0689 C   0  0  0  0  0  0  0  0  0  0  0  0
    3.4178   -0.6831    1.0220 C   0  0  0  0  0  0  0  0  0  0  0  0
    2.0388   -0.5335    1.0054 C   0  0  0  0  0  0  0  0  0  0  0  0
    1.0596   -0.8559    2.0418 C   0  0  0  0  0  0  0  0  0  0  0  0
    1.3697   -1.3343    3.1280 O   0  0  0  0  0  0  0  0  0  0  0  0
   -0.2384   -0.5462    1.6527 N   0  0  0  0  0  0  0  0  0  0  0  0
   -1.3038   -0.9054    2.4276 N   0  0  0  0  0  0  0  0  0  0  0  0
   -2.5015   -0.5768    2.0416 C   0  0  0  0  0  0  0  0  0  0  0  0
   -2.8762    0.3272    0.9380 C   0  0  0  0  0  0  0  0  0  0  0  0
   -2.3218    1.6143    0.8997 C   0  0  0  0  0  0  0  0  0  0  0  0
   -1.4065    2.0673    1.8111 O   0  0  0  0  0  0  0  0  0  0  0  0
   -2.7005    2.5088   -0.0897 C   0  0  0  0  0  0  0  0  0  0  0  0
   -3.6429    2.1250   -1.0427 C   0  0  0  0  0  0  0  0  0  0  0  0
   -4.2187    0.8436   -1.0191 C   0  0  0  0  0  0  0  0  0  0  0  0
   -5.1679    0.4787   -1.9873 C   0  0  0  0  0  0  0  0  0  0  0  0
   -5.7465   -0.7896   -1.9840 C   0  0  0  0  0  0  0  0  0  0  0  0
   -5.3815   -1.7132   -1.0134 C   0  0  0  0  0  0  0  0  0  0  0  0
   -4.4396   -1.3677   -0.0422 C   0  0  0  0  0  0  0  0  0  0  0  0
   -3.8410   -0.0844   -0.0160 C   0  0  0  0  0  0  0  0  0  0  0  0
    1.6601   -0.0033   -0.2010 N   0  0  0  0  0  0  0  0  0  0  0  0
    2.7429    0.1836   -0.9327 N   0  0  0  0  0  0  0  0  0  0  0  0
    3.8389   -0.2150   -0.2230 N   0  0  0  0  0  0  0  0  0  0  0  0
    5.1475   -0.1092   -0.7593 C   0  0  0  0  0  0  0  0  0  0  0  0
    6.2188   -0.4540   -0.0432 N   0  0  0  0  0  0  0  0  0  0  0  0
    7.2930   -0.1939   -0.8931 O   0  0  0  0  0  0  0  0  0  0  0  0
    6.8601    0.3096   -2.1150 N   0  0  0  0  0  0  0  0  0  0  0  0
    5.5310    0.3534   -2.0325 C   0  0  0  0  0  0  0  0  0  0  0  0
    4.7227    0.7751   -3.0234 N   0  0  0  0  0  0  0  0  0  0  0  0
    3.7881   -1.5579    2.9511 H   0  0  0  0  0  0  0  0  0  0  0  0
    5.0227   -0.4318    2.4063 H   0  0  0  0  0  0  0  0  0  0  0  0
    4.9029   -2.0629    1.6927 H   0  0  0  0  0  0  0  0  0  0  0  0
   -0.3834   -0.2097    0.7020 H   0  0  0  0  0  0  0  0  0  0  0  0
   -3.3433   -0.9814    2.6303 H   0  0  0  0  0  0  0  0  0  0  0  0
   -1.1525    1.3350    2.4105 H   0  0  0  0  0  0  0  0  0  0  0  0
   -2.2697    3.5064   -0.1178 H   0  0  0  0  0  0  0  0  0  0  0  0
   -3.9289    2.8431   -1.8095 H   0  0  0  0  0  0  0  0  0  0  0  0
   -5.4663    1.1851   -2.7599 H   0  0  0  0  0  0  0  0  0  0  0  0
   -6.4791   -1.0553   -2.7420 H   0  0  0  0  0  0  0  0  0  0  0  0
   -5.8260   -2.7056   -1.0116 H   0  0  0  0  0  0  0  0  0  0  0  0
   -4.1726   -2.1257    0.6919 H   0  0  0  0  0  0  0  0  0  0  0  0
    5.1255    1.2735   -3.8101 H   0  0  0  0  0  0  0  0  0  0  0  0
    3.7386    0.9755   -2.8530 H   0  0  0  0  0  0  0  0  0  0  0  0
  1  2  1  0
  2  3  2  0
  3  4  1  0
  4  5  2  0
  4  6  1  0
  6  7  1  0
  7  8  2  3
  8  9  1  0
  9 10  2  0
 10 11  1  0
 10 12  1  0
 12 13  2  0
 13 14  1  0
 14 15  2  0
 15 16  1  0
 16 17  2  0
 17 18  1  0
 18 19  2  0
  3 20  1  0
 20 21  2  0
 21 22  1  0
 22 23  1  0
 23 24  2  0
 24 25  1  0
 25 26  1  0
 26 27  2  0
 27 28  1  0
 22  2  1  0
 27 23  1  0
 19  9  1  0
 19 14  1  0
  1 29  1  0
  1 30  1  0
  1 31  1  0
  6 32  1  0
  8 33  1  0
 11 34  1  0
 12 35  1  0
 13 36  1  0
 15 37  1  0
 16 38  1  0
 17 39  1  0
 18 40  1  0
 28 41  1  0
 28 42  1  0
M  END
$$$$
