
     RDKit          3D

 45 47  0  0  0  0  0  0  0  0999 V2000
    8.2510    2.0242   -1.0579 C   0  0  0  0  0  0  0  0  0  0  0  0
    7.2782    0.8657   -1.2128 C   0  0  0  0  0  0  0  0  0  0  0  0
    7.0860    0.1135    0.1078 C   0  0  0  0  0  0  0  0  0  0  0  0
    6.2324   -1.1502   -0.0396 C   0  0  0  0  0  0  0  0  0  0  0  0
    4.7708   -0.8527   -0.1717 C   0  0  0  0  0  0  0  0  0  0  0  0
    4.2124   -0.2316   -1.1920 N   0  0  0  0  0  0  0  0  0  0  0  0
    2.8466   -0.0990   -1.0303 N   0  0  0  0  0  0  0  0  0  0  0  0
    2.4225   -0.6370    0.0934 C   0  0  0  0  0  0  0  0  0  0  0  0
    1.0997   -0.6256    0.4531 N   0  0  0  0  0  0  0  0  0  0  0  0
    0.5291   -1.1951    1.5710 C   0  0  0  0  0  0  0  0  0  0  0  0
    1.1046   -1.8100    2.4676 O   0  0  0  0  0  0  0  0  0  0  0  0
   -0.9884   -0.9862    1.6309 C   0  0  0  0  0  0  0  0  0  0  0  0
   -1.4798   -0.4693    0.3919 O   0  0  0  0  0  0  0  0  0  0  0  0
   -2.8298   -0.2807    0.2896 C   0  0  0  0  0  0  0  0  0  0  0  0
   -3.2615    0.2077   -0.9513 C   0  0  0  0  0  0  0  0  0  0  0  0
   -4.6189    0.4442   -1.2002 C   0  0  0  0  0  0  0  0  0  0  0  0
   -5.5762    0.2000   -0.2117 C   0  0  0  0  0  0  0  0  0  0  0  0
   -7.0178    0.4145   -0.4050 C   0  0  0  0  0  0  0  0  0  0  0  0
   -7.5393    0.9081   -1.7242 C   0  0  0  0  0  0  0  0  0  0  0  0
   -7.8428    0.1488    0.6171 C   0  0  0  0  0  0  0  0  0  0  0  0
   -7.3796   -0.3367    1.9275 C   0  0  0  0  0  0  0  0  0  0  0  0
   -8.1762   -0.5469    2.8380 O   0  0  0  0  0  0  0  0  0  0  0  0
   -6.0187   -0.5411    2.0756 O   0  0  0  0  0  0  0  0  0  0  0  0
   -5.1238   -0.2808    1.0179 C   0  0  0  0  0  0  0  0  0  0  0  0
   -3.7713   -0.5274    1.2837 C   0  0  0  0  0  0  0  0  0  0  0  0
    3.6539   -1.3181    1.0494 S   0  0  0  0  0  0  0  0  0  0  0  0
    7.8911    2.7493   -0.3225 H   0  0  0  0  0  0  0  0  0  0  0  0
    9.2360    1.6693   -0.7385 H   0  0  0  0  0  0  0  0  0  0  0  0
    8.3722    2.5427   -2.0135 H   0  0  0  0  0  0  0  0  0  0  0  0
    6.3211    1.2575   -1.5742 H   0  0  0  0  0  0  0  0  0  0  0  0
    7.6565    0.1786   -1.9771 H   0  0  0  0  0  0  0  0  0  0  0  0
    6.6490    0.7858    0.8571 H   0  0  0  0  0  0  0  0  0  0  0  0
    8.0738   -0.1843    0.4836 H   0  0  0  0  0  0  0  0  0  0  0  0
    6.5641   -1.7354   -0.9087 H   0  0  0  0  0  0  0  0  0  0  0  0
    6.4053   -1.7825    0.8410 H   0  0  0  0  0  0  0  0  0  0  0  0
    0.4854   -0.1705   -0.2135 H   0  0  0  0  0  0  0  0  0  0  0  0
   -1.4380   -1.9658    1.8332 H   0  0  0  0  0  0  0  0  0  0  0  0
   -1.1897   -0.2787    2.4463 H   0  0  0  0  0  0  0  0  0  0  0  0
   -2.5358    0.4047   -1.7395 H   0  0  0  0  0  0  0  0  0  0  0  0
   -4.9016    0.8182   -2.1808 H   0  0  0  0  0  0  0  0  0  0  0  0
   -8.6308    1.0103   -1.7190 H   0  0  0  0  0  0  0  0  0  0  0  0
   -7.1246    1.8945   -1.9650 H   0  0  0  0  0  0  0  0  0  0  0  0
   -7.2812    0.2067   -2.5269 H   0  0  0  0  0  0  0  0  0  0  0  0
   -8.9167    0.2831    0.5383 H   0  0  0  0  0  0  0  0  0  0  0  0
   -3.4992   -0.9077    2.2618 H   0  0  0  0  0  0  0  0  0  0  0  0
  1  2  1  0
  2  3  1  0
  3  4  1  0
  4  5  1  0
  5  6  2  0
  6  7  1  0
  7  8  2  0
  8  9  1  0
  9 10  1  0
 10 11  2  0
 10 12  1  0
 12 13  1  0
 13 14  1  0
 14 15  2  0
 15 16  1  0
 16 17  2  0
 17 18  1  0
 18 19  1  0
 18 20  2  0
 20 21  1  0
 21 22  2  0
 21 23  1  0
 23 24  1  0
 24 25  2  0
  8 26  1  0
 26  5  1  0
 25 14  1  0
 24 17  1  0
  1 27  1  0
  1 28  1  0
  1 29  1  0
  2 30  1  0
  2 31  1  0
  3 32  1  0
  3 33  1  0
  4 34  1  0
  4 35  1  0
  9 36  1  0
 12 37  1  0
 12 38  1  0
 15 39  1  0
 16 40  1  0
 19 41  1  0
 19 42  1  0
 19 43  1  0
 20 44  1  0
 25 45  1  0
M  END
$$$$
