
     RDKit          3D

 42 45  0  0  0  0  0  0  0  0999 V2000
    4.3367   -1.1468    2.0916 C   0  0  0  0  0  0  0  0  0  0  0  0
    3.4211   -0.6488    1.0339 C   0  0  0  0  0  0  0  0  0  0  0  0
    2.0397   -0.5247    1.0081 C   0  0  0  0  0  0  0  0  0  0  0  0
    1.0600   -0.8639    2.0386 C   0  0  0  0  0  0  0  0  0  0  0  0
    1.3701   -1.3552    3.1191 O   0  0  0  0  0  0  0  0  0  0  0  0
   -0.2387   -0.5561    1.6504 N   0  0  0  0  0  0  0  0  0  0  0  0
   -1.3041   -0.9305    2.4182 N   0  0  0  0  0  0  0  0  0  0  0  0
   -2.5023   -0.6017    2.0343 C   0  0  0  0  0  0  0  0  0  0  0  0
   -2.8785    0.3156    0.9422 C   0  0  0  0  0  0  0  0  0  0  0  0
   -2.3298    1.6056    0.9229 C   0  0  0  0  0  0  0  0  0  0  0  0
   -1.4193    2.0502    1.8430 O   0  0  0  0  0  0  0  0  0  0  0  0
   -2.7096    2.5116   -0.0555 C   0  0  0  0  0  0  0  0  0  0  0  0
   -3.6477    2.1366   -1.0162 C   0  0  0  0  0  0  0  0  0  0  0  0
   -4.2179    0.8525   -1.0114 C   0  0  0  0  0  0  0  0  0  0  0  0
   -5.1629    0.4967   -1.9872 C   0  0  0  0  0  0  0  0  0  0  0  0
   -5.7360   -0.7740   -2.0025 C   0  0  0  0  0  0  0  0  0  0  0  0
   -5.3696   -1.7090   -1.0434 C   0  0  0  0  0  0  0  0  0  0  0  0
   -4.4318   -1.3727   -0.0650 C   0  0  0  0  0  0  0  0  0  0  0  0
   -3.8389   -0.0873   -0.0200 C   0  0  0  0  0  0  0  0  0  0  0  0
    1.6592   -0.0040   -0.2018 N   0  0  0  0  0  0  0  0  0  0  0  0
    2.7428    0.1991   -0.9279 N   0  0  0  0  0  0  0  0  0  0  0  0
    3.8411   -0.1823   -0.2121 N   0  0  0  0  0  0  0  0  0  0  0  0
    5.1479   -0.0909   -0.7553 C   0  0  0  0  0  0  0  0  0  0  0  0
    6.2124   -0.5144   -0.0721 N   0  0  0  0  0  0  0  0  0  0  0  0
    7.2838   -0.2774   -0.9322 O   0  0  0  0  0  0  0  0  0  0  0  0
    6.8553    0.2844   -2.1301 N   0  0  0  0  0  0  0  0  0  0  0  0
    5.5336    0.4065   -2.0146 C   0  0  0  0  0  0  0  0  0  0  0  0
    4.7336    0.9254   -2.9650 N   0  0  0  0  0  0  0  0  0  0  0  0
    4.8714   -2.0398    1.7527 H   0  0  0  0  0  0  0  0  0  0  0  0
    5.0631   -0.3773    2.3717 H   0  0  0  0  0  0  0  0  0  0  0  0
    3.8023   -1.4216    3.0039 H   0  0  0  0  0  0  0  0  0  0  0  0
   -0.3831   -0.2067    0.7043 H   0  0  0  0  0  0  0  0  0  0  0  0
   -3.3437   -1.0178    2.6156 H   0  0  0  0  0  0  0  0  0  0  0  0
   -1.1631    1.3111    2.4330 H   0  0  0  0  0  0  0  0  0  0  0  0
   -2.2830    3.5113   -0.0689 H   0  0  0  0  0  0  0  0  0  0  0  0
   -3.9346    2.8638   -1.7741 H   0  0  0  0  0  0  0  0  0  0  0  0
   -5.4624    1.2122   -2.7509 H   0  0  0  0  0  0  0  0  0  0  0  0
   -6.4656   -1.0326   -2.7659 H   0  0  0  0  0  0  0  0  0  0  0  0
   -5.8100   -2.7032   -1.0560 H   0  0  0  0  0  0  0  0  0  0  0  0
   -4.1637   -2.1392    0.6597 H   0  0  0  0  0  0  0  0  0  0  0  0
    3.7207    0.8303   -2.9153 H   0  0  0  0  0  0  0  0  0  0  0  0
    5.1015    1.0650   -3.9002 H   0  0  0  0  0  0  0  0  0  0  0  0
  1  2  1  0
  2  3  2  0
  3  4  1  0
  4  5  2  0
  4  6  1  0
  6  7  1  0
  7  8  2  3
  8  9  1  0
  9 10  2  0
 10 11  1  0
 10 12  1  0
 12 13  2  0
 13 14  1  0
 14 15  2  0
 15 16  1  0
 16 17  2  0
 17 18  1  0
 18 19  2  0
  3 20  1  0
 20 21  2  0
 21 22  1  0
 22 23  1  0
 23 24  2  0
 24 25  1  0
 25 26  1  0
 26 27  2  0
 27 28  1  0
 22  2  1  0
 27 23  1  0
 19  9  1  0
 19 14  1  0
  1 29  1  0
  1 30  1  0
  1 31  1  0
  6 32  1  0
  8 33  1  0
 11 34  1  0
 12 35  1  0
 13 36  1  0
 15 37  1  0
 16 38  1  0
 17 39  1  0
 18 40  1  0
 28 41  1  0
 28 42  1  0
M  END
$$$$
