
     RDKit          3D

 58 62  0  0  0  0  0  0  0  0999 V2000
    6.3766    1.4741    5.1241 C   0  0  0  0  0  0  0  0  0  0  0  0
    6.1157    0.6053    4.0303 O   0  0  0  0  0  0  0  0  0  0  0  0
    5.0224    0.8794    3.2465 C   0  0  0  0  0  0  0  0  0  0  0  0
    4.0364    1.8169    3.5710 C   0  0  0  0  0  0  0  0  0  0  0  0
    2.9510    2.0238    2.7126 C   0  0  0  0  0  0  0  0  0  0  0  0
    2.8343    1.3024    1.5164 C   0  0  0  0  0  0  0  0  0  0  0  0
    1.7256    1.5136    0.5910 C   0  0  0  0  0  0  0  0  0  0  0  0
    1.5738    1.0654   -0.6373 N   0  0  0  0  0  0  0  0  0  0  0  0
    0.3478    1.5582   -1.0377 C   0  0  0  0  0  0  0  0  0  0  0  0
   -0.1571    1.2919   -2.4095 C   0  0  0  0  0  0  0  0  0  0  0  0
   -0.8161   -0.0047   -2.4938 N   0  0  0  0  0  0  0  0  0  0  0  0
   -2.1618   -0.2609   -2.5988 C   0  0  0  0  0  0  0  0  0  0  0  0
   -3.3674    0.9811   -2.5528 S   0  0  0  0  0  0  0  0  0  0  0  0
   -4.8802    0.0472   -2.9246 C   0  0  0  0  0  0  0  0  0  0  0  0
   -5.5845   -0.4525   -1.6843 C   0  0  0  0  0  0  0  0  0  0  0  0
   -6.3640    0.4228   -0.9043 C   0  0  0  0  0  0  0  0  0  0  0  0
   -7.0317   -0.0382    0.2334 C   0  0  0  0  0  0  0  0  0  0  0  0
   -6.9228   -1.3783    0.6073 C   0  0  0  0  0  0  0  0  0  0  0  0
   -6.1435   -2.2475   -0.1560 C   0  0  0  0  0  0  0  0  0  0  0  0
   -6.0400   -3.5382    0.1996 F   0  0  0  0  0  0  0  0  0  0  0  0
   -5.4765   -1.7945   -1.2920 C   0  0  0  0  0  0  0  0  0  0  0  0
   -2.4033   -1.5382   -2.7707 N   0  0  0  0  0  0  0  0  0  0  0  0
   -1.1749   -2.1491   -2.7689 C   0  0  0  0  0  0  0  0  0  0  0  0
   -0.8553   -3.4981   -2.9214 C   0  0  0  0  0  0  0  0  0  0  0  0
    0.4929   -3.8053   -2.8705 C   0  0  0  0  0  0  0  0  0  0  0  0
    1.4841   -2.9044   -2.6810 N   0  0  0  0  0  0  0  0  0  0  0  0
    1.1740   -1.5942   -2.5329 C   0  0  0  0  0  0  0  0  0  0  0  0
   -0.1607   -1.2176   -2.5878 C   0  0  0  0  0  0  0  0  0  0  0  0
   -0.2007    2.3020   -0.0130 C   0  0  0  0  0  0  0  0  0  0  0  0
   -1.4401    3.0791    0.1809 C   0  0  0  0  0  0  0  0  0  0  0  0
    0.6772    2.2780    1.0341 O   0  0  0  0  0  0  0  0  0  0  0  0
    3.8223    0.3567    1.1988 C   0  0  0  0  0  0  0  0  0  0  0  0
    4.9102    0.1355    2.0523 C   0  0  0  0  0  0  0  0  0  0  0  0
    5.9130   -0.7657    1.8075 O   0  0  0  0  0  0  0  0  0  0  0  0
    5.7995   -1.5813    0.6428 C   0  0  0  0  0  0  0  0  0  0  0  0
    7.3193    1.1627    5.5837 H   0  0  0  0  0  0  0  0  0  0  0  0
    6.4954    2.5116    4.7857 H   0  0  0  0  0  0  0  0  0  0  0  0
    5.5964    1.3953    5.8874 H   0  0  0  0  0  0  0  0  0  0  0  0
    4.0809    2.4031    4.4845 H   0  0  0  0  0  0  0  0  0  0  0  0
    2.1966    2.7592    2.9918 H   0  0  0  0  0  0  0  0  0  0  0  0
   -0.8408    2.0771   -2.7463 H   0  0  0  0  0  0  0  0  0  0  0  0
    0.6753    1.2809   -3.1276 H   0  0  0  0  0  0  0  0  0  0  0  0
   -5.5622    0.7150   -3.4642 H   0  0  0  0  0  0  0  0  0  0  0  0
   -4.6801   -0.7763   -3.6219 H   0  0  0  0  0  0  0  0  0  0  0  0
   -6.4523    1.4725   -1.1796 H   0  0  0  0  0  0  0  0  0  0  0  0
   -7.6302    0.6476    0.8263 H   0  0  0  0  0  0  0  0  0  0  0  0
   -7.4309   -1.7480    1.4937 H   0  0  0  0  0  0  0  0  0  0  0  0
   -4.8723   -2.5018   -1.8582 H   0  0  0  0  0  0  0  0  0  0  0  0
   -1.6148   -4.2518   -3.0709 H   0  0  0  0  0  0  0  0  0  0  0  0
    0.8274   -4.8341   -2.9808 H   0  0  0  0  0  0  0  0  0  0  0  0
    1.9926   -0.9072   -2.3654 H   0  0  0  0  0  0  0  0  0  0  0  0
   -1.9287    3.2806   -0.7786 H   0  0  0  0  0  0  0  0  0  0  0  0
   -2.1391    2.5355    0.8286 H   0  0  0  0  0  0  0  0  0  0  0  0
   -1.2108    4.0482    0.6520 H   0  0  0  0  0  0  0  0  0  0  0  0
    3.7125   -0.2029    0.2784 H   0  0  0  0  0  0  0  0  0  0  0  0
    5.8500   -0.9771   -0.2711 H   0  0  0  0  0  0  0  0  0  0  0  0
    4.8879   -2.1882    0.6697 H   0  0  0  0  0  0  0  0  0  0  0  0
    6.6519   -2.2663    0.6333 H   0  0  0  0  0  0  0  0  0  0  0  0
  1  2  1  0
  2  3  1  0
  3  4  2  0
  4  5  1  0
  5  6  2  0
  6  7  1  0
  7  8  2  0
  8  9  1  0
  9 10  1  0
 10 11  1  0
 11 12  1  0
 12 13  1  0
 13 14  1  0
 14 15  1  0
 15 16  2  0
 16 17  1  0
 17 18  2  0
 18 19  1  0
 19 20  1  0
 19 21  2  0
 12 22  2  0
 22 23  1  0
 23 24  2  0
 24 25  1  0
 25 26  2  0
 26 27  1  0
 27 28  2  0
  9 29  2  0
 29 30  1  0
 29 31  1  0
  6 32  1  0
 32 33  2  0
 33 34  1  0
 34 35  1  0
 33  3  1  0
 31  7  1  0
 28 11  1  0
 21 15  1  0
 28 23  1  0
  1 36  1  0
  1 37  1  0
  1 38  1  0
  4 39  1  0
  5 40  1  0
 10 41  1  0
 10 42  1  0
 14 43  1  0
 14 44  1  0
 16 45  1  0
 17 46  1  0
 18 47  1  0
 21 48  1  0
 24 49  1  0
 25 50  1  0
 27 51  1  0
 30 52  1  0
 30 53  1  0
 30 54  1  0
 32 55  1  0
 35 56  1  0
 35 57  1  0
 35 58  1  0
M  END
$$$$
