
     RDKit          3D

 29 30  0  0  0  0  0  0  0  0999 V2000
   -3.4764   -0.1178    0.5561 C   0  0  0  0  0  0  0  0  0  0  0  0
   -2.1900   -0.3894   -0.1711 C   0  0  0  0  0  0  0  0  0  0  0  0
   -1.0293   -0.7878    0.3875 C   0  0  0  0  0  0  0  0  0  0  0  0
   -0.8586   -1.1111    1.8489 C   0  0  0  0  0  0  0  0  0  0  0  0
    0.2251   -0.9641   -0.4483 C   0  0  0  0  0  0  0  0  0  0  0  0
    1.3332    0.0112   -0.0833 C   0  0  0  0  0  0  0  0  0  0  0  0
    2.5343   -0.4580    0.4730 C   0  0  0  0  0  0  0  0  0  0  0  0
    3.5555    0.4313    0.8140 C   0  0  0  0  0  0  0  0  0  0  0  0
    3.3905    1.7987    0.6036 C   0  0  0  0  0  0  0  0  0  0  0  0
    2.2051    2.2799    0.0524 C   0  0  0  0  0  0  0  0  0  0  0  0
    1.1828    1.3932   -0.2887 C   0  0  0  0  0  0  0  0  0  0  0  0
   -0.0580   -0.8858   -1.8663 N   0  0  0  0  0  0  0  0  0  0  0  0
   -1.2131   -0.4181   -2.3905 C   0  0  0  0  0  0  0  0  0  0  0  0
   -1.3795   -0.1658   -4.0244 S   0  0  0  0  0  0  0  0  0  0  0  0
   -2.2358   -0.1801   -1.5294 N   0  0  0  0  0  0  0  0  0  0  0  0
   -3.9328    0.8099    0.1921 H   0  0  0  0  0  0  0  0  0  0  0  0
   -3.3425    0.0083    1.6333 H   0  0  0  0  0  0  0  0  0  0  0  0
   -4.1846   -0.9356    0.3884 H   0  0  0  0  0  0  0  0  0  0  0  0
   -0.3213   -0.3061    2.3599 H   0  0  0  0  0  0  0  0  0  0  0  0
   -0.2868   -2.0381    1.9683 H   0  0  0  0  0  0  0  0  0  0  0  0
   -1.8075   -1.2704    2.3669 H   0  0  0  0  0  0  0  0  0  0  0  0
    0.5895   -1.9895   -0.3033 H   0  0  0  0  0  0  0  0  0  0  0  0
    2.6841   -1.5216    0.6456 H   0  0  0  0  0  0  0  0  0  0  0  0
    4.4813    0.0569    1.2433 H   0  0  0  0  0  0  0  0  0  0  0  0
    4.1863    2.4900    0.8680 H   0  0  0  0  0  0  0  0  0  0  0  0
    2.0752    3.3461   -0.1142 H   0  0  0  0  0  0  0  0  0  0  0  0
    0.2626    1.7836   -0.7197 H   0  0  0  0  0  0  0  0  0  0  0  0
    0.7124   -1.0076   -2.5094 H   0  0  0  0  0  0  0  0  0  0  0  0
   -3.1015    0.1377   -1.9524 H   0  0  0  0  0  0  0  0  0  0  0  0
  1  2  1  0
  2  3  2  0
  3  4  1  0
  3  5  1  0
  5  6  1  0
  6  7  2  0
  7  8  1  0
  8  9  2  0
  9 10  1  0
 10 11  2  0
  5 12  1  0
 12 13  1  0
 13 14  2  0
 13 15  1  0
 15  2  1  0
 11  6  1  0
  1 16  1  0
  1 17  1  0
  1 18  1  0
  4 19  1  0
  4 20  1  0
  4 21  1  0
  5 22  1  0
  7 23  1  0
  8 24  1  0
  9 25  1  0
 10 26  1  0
 11 27  1  0
 12 28  1  0
 15 29  1  0
M  END
$$$$
