
     RDKit          3D

 34 36  0  0  0  0  0  0  0  0999 V2000
    5.5006    2.3537   -0.7429 C   0  0  0  0  0  0  0  0  0  0  0  0
    4.7101    1.2422   -0.2673 N   0  0  0  0  0  0  0  0  0  0  0  0
    5.1988    0.0825    0.2613 C   0  0  0  0  0  0  0  0  0  0  0  0
    4.1123   -0.7354    0.4161 C   0  0  0  0  0  0  0  0  0  0  0  0
    4.1450   -2.4927    1.0629 Br  0  0  0  0  0  0  0  0  0  0  0  0
    2.9790    0.0119   -0.0035 C   0  0  0  0  0  0  0  0  0  0  0  0
    1.5676   -0.4029   -0.0118 C   0  0  0  0  0  0  0  0  0  0  0  0
    1.2233   -1.5781    0.0727 O   0  0  0  0  0  0  0  0  0  0  0  0
    0.7005    0.6734    0.0544 N   0  0  0  0  0  0  0  0  0  0  0  0
   -0.6717    0.5023    0.1040 C   0  0  0  0  0  0  0  0  0  0  0  0
   -1.4872    1.6456    1.0994 S   0  0  0  0  0  0  0  0  0  0  0  0
   -2.9161    0.7893    0.9370 C   0  0  0  0  0  0  0  0  0  0  0  0
   -2.8474   -0.2535    0.0519 C   0  0  0  0  0  0  0  0  0  0  0  0
   -1.5295   -0.4291   -0.4769 C   0  0  0  0  0  0  0  0  0  0  0  0
   -1.1530   -1.3563   -1.5320 C   0  0  0  0  0  0  0  0  0  0  0  0
   -1.6255   -2.6306   -1.3864 N   0  0  0  0  0  0  0  0  0  0  0  0
   -0.4245   -1.0425   -2.4732 O   0  0  0  0  0  0  0  0  0  0  0  0
   -4.1891   -0.8413   -0.1685 C   0  0  0  0  0  0  0  0  0  0  0  0
   -5.0017   -0.3017    1.0472 C   0  0  0  0  0  0  0  0  0  0  0  0
   -4.2627    0.9860    1.5362 C   0  0  0  0  0  0  0  0  0  0  0  0
    3.3654    1.2416   -0.4230 N   0  0  0  0  0  0  0  0  0  0  0  0
    4.8382    3.1398   -1.1070 H   0  0  0  0  0  0  0  0  0  0  0  0
    6.0978    2.7390    0.0941 H   0  0  0  0  0  0  0  0  0  0  0  0
    6.1464    2.0046   -1.5531 H   0  0  0  0  0  0  0  0  0  0  0  0
    6.2490   -0.0752    0.4463 H   0  0  0  0  0  0  0  0  0  0  0  0
    1.1048    1.5766    0.2760 H   0  0  0  0  0  0  0  0  0  0  0  0
   -1.8742   -2.9321   -0.4526 H   0  0  0  0  0  0  0  0  0  0  0  0
   -1.1178   -3.2981   -1.9440 H   0  0  0  0  0  0  0  0  0  0  0  0
   -4.2037   -1.9333   -0.2138 H   0  0  0  0  0  0  0  0  0  0  0  0
   -4.6164   -0.4513   -1.1025 H   0  0  0  0  0  0  0  0  0  0  0  0
   -4.9960   -1.0450    1.8593 H   0  0  0  0  0  0  0  0  0  0  0  0
   -6.0482   -0.0855    0.7922 H   0  0  0  0  0  0  0  0  0  0  0  0
   -4.2246    1.0215    2.6245 H   0  0  0  0  0  0  0  0  0  0  0  0
   -4.7496    1.8744    1.1230 H   0  0  0  0  0  0  0  0  0  0  0  0
  1  2  1  0
  2  3  1  0
  3  4  2  0
  4  5  1  0
  4  6  1  0
  6  7  1  0
  7  8  2  0
  7  9  1  0
  9 10  1  0
 10 11  1  0
 11 12  1  0
 12 13  2  0
 13 14  1  0
 14 15  1  0
 15 16  1  0
 15 17  2  0
 13 18  1  0
 18 19  1  0
 19 20  1  0
  6 21  2  0
 21  2  1  0
 14 10  2  0
 20 12  1  0
  1 22  1  0
  1 23  1  0
  1 24  1  0
  3 25  1  0
  9 26  1  0
 16 27  1  0
 16 28  1  0
 18 29  1  0
 18 30  1  0
 19 31  1  0
 19 32  1  0
 20 33  1  0
 20 34  1  0
M  END
$$$$
