
     RDKit          3D

 67 72  0  0  0  0  0  0  0  0999 V2000
    3.2955   -0.6357   -2.3363 O   0  0  0  0  0  0  0  0  0  0  0  0
    2.8014   -0.1290   -1.3236 C   0  0  0  0  0  0  0  0  0  0  0  0
    3.7151    0.3942   -0.2095 C   0  0  0  0  0  0  0  0  0  0  0  0
    4.0676   -0.7830    0.7198 C   0  0  0  0  0  0  0  0  0  0  0  0
    5.1629   -0.4546    1.7077 C   0  0  0  0  0  0  0  0  0  0  0  0
    4.8478   -0.0674    3.0170 C   0  0  0  0  0  0  0  0  0  0  0  0
    5.8608    0.2451    3.9242 C   0  0  0  0  0  0  0  0  0  0  0  0
    7.1964    0.1738    3.5316 C   0  0  0  0  0  0  0  0  0  0  0  0
    7.5197   -0.2061    2.2307 C   0  0  0  0  0  0  0  0  0  0  0  0
    6.5086   -0.5176    1.3210 C   0  0  0  0  0  0  0  0  0  0  0  0
    3.1115    1.5108    0.5081 N   0  0  0  0  0  0  0  0  0  0  0  0
    1.7804    1.3394    0.8658 C   0  0  0  0  0  0  0  0  0  0  0  0
    1.4363    1.9611    2.0027 N   0  0  0  0  0  0  0  0  0  0  0  0
    0.1475    1.9068    2.3280 C   0  0  0  0  0  0  0  0  0  0  0  0
   -0.8171    1.3359    1.6036 N   0  0  0  0  0  0  0  0  0  0  0  0
   -0.4563    0.7331    0.4474 C   0  0  0  0  0  0  0  0  0  0  0  0
   -1.5188    0.3355   -0.3960 N   0  0  0  0  0  0  0  0  0  0  0  0
   -2.7306   -0.1149    0.3418 C   0  0  0  0  0  0  0  0  0  0  0  0
   -3.8459    0.9511    0.4177 C   0  0  0  0  0  0  0  0  0  0  0  0
   -4.2509    1.3855   -0.9331 N   0  0  0  0  0  0  0  0  0  0  0  0
   -5.5363    1.8185   -1.2088 C   0  0  0  0  0  0  0  0  0  0  0  0
   -6.3916    2.2903   -0.1992 C   0  0  0  0  0  0  0  0  0  0  0  0
   -7.6935    2.7294   -0.4727 C   0  0  0  0  0  0  0  0  0  0  0  0
   -8.1779    2.7052   -1.7749 C   0  0  0  0  0  0  0  0  0  0  0  0
   -7.3588    2.2436   -2.7976 C   0  0  0  0  0  0  0  0  0  0  0  0
   -6.0571    1.8098   -2.5138 C   0  0  0  0  0  0  0  0  0  0  0  0
   -3.2105    1.3350   -1.9756 C   0  0  0  0  0  0  0  0  0  0  0  0
   -1.7981    1.4450   -1.3573 C   0  0  0  0  0  0  0  0  0  0  0  0
    0.8895    0.6248    0.0529 C   0  0  0  0  0  0  0  0  0  0  0  0
    1.4205   -0.1213   -1.0687 N   0  0  0  0  0  0  0  0  0  0  0  0
    0.6410   -1.0918   -1.8298 C   0  0  0  0  0  0  0  0  0  0  0  0
    0.7670   -2.4958   -1.2605 C   0  0  0  0  0  0  0  0  0  0  0  0
    1.6892   -3.4030   -1.8071 C   0  0  0  0  0  0  0  0  0  0  0  0
    1.8307   -4.6869   -1.2751 C   0  0  0  0  0  0  0  0  0  0  0  0
    1.0504   -5.0737   -0.1890 C   0  0  0  0  0  0  0  0  0  0  0  0
    1.2403   -6.8101    0.5339 Br  0  0  0  0  0  0  0  0  0  0  0  0
    0.1333   -4.1876    0.3704 C   0  0  0  0  0  0  0  0  0  0  0  0
   -0.0058   -2.9038   -0.1640 C   0  0  0  0  0  0  0  0  0  0  0  0
    4.6217    0.7747   -0.6953 H   0  0  0  0  0  0  0  0  0  0  0  0
    3.1814   -1.1352    1.2640 H   0  0  0  0  0  0  0  0  0  0  0  0
    4.3913   -1.6458    0.1217 H   0  0  0  0  0  0  0  0  0  0  0  0
    3.8096   -0.0056    3.3389 H   0  0  0  0  0  0  0  0  0  0  0  0
    5.6074    0.5411    4.9388 H   0  0  0  0  0  0  0  0  0  0  0  0
    7.9855    0.4127    4.2397 H   0  0  0  0  0  0  0  0  0  0  0  0
    8.5615   -0.2643    1.9255 H   0  0  0  0  0  0  0  0  0  0  0  0
    6.7793   -0.8150    0.3105 H   0  0  0  0  0  0  0  0  0  0  0  0
    3.6396    1.8879    1.2905 H   0  0  0  0  0  0  0  0  0  0  0  0
   -0.1484    2.3845    3.2544 H   0  0  0  0  0  0  0  0  0  0  0  0
   -3.1231   -0.9807   -0.2076 H   0  0  0  0  0  0  0  0  0  0  0  0
   -2.4911   -0.4921    1.3441 H   0  0  0  0  0  0  0  0  0  0  0  0
   -4.6906    0.4972    0.9494 H   0  0  0  0  0  0  0  0  0  0  0  0
   -3.5098    1.8215    0.9919 H   0  0  0  0  0  0  0  0  0  0  0  0
   -6.0484    2.3514    0.8300 H   0  0  0  0  0  0  0  0  0  0  0  0
   -8.3219    3.0948    0.3353 H   0  0  0  0  0  0  0  0  0  0  0  0
   -9.1875    3.0443   -1.9900 H   0  0  0  0  0  0  0  0  0  0  0  0
   -7.7280    2.2136   -3.8194 H   0  0  0  0  0  0  0  0  0  0  0  0
   -5.4622    1.4362   -3.3424 H   0  0  0  0  0  0  0  0  0  0  0  0
   -3.2997    0.3942   -2.5323 H   0  0  0  0  0  0  0  0  0  0  0  0
   -3.3277    2.1664   -2.6811 H   0  0  0  0  0  0  0  0  0  0  0  0
   -1.0556    1.4271   -2.1640 H   0  0  0  0  0  0  0  0  0  0  0  0
   -1.7198    2.4226   -0.8598 H   0  0  0  0  0  0  0  0  0  0  0  0
   -0.4061   -0.8311   -1.9510 H   0  0  0  0  0  0  0  0  0  0  0  0
    1.0158   -1.1018   -2.8626 H   0  0  0  0  0  0  0  0  0  0  0  0
    2.3119   -3.1097   -2.6517 H   0  0  0  0  0  0  0  0  0  0  0  0
    2.5518   -5.3720   -1.7140 H   0  0  0  0  0  0  0  0  0  0  0  0
   -0.4763   -4.4832    1.2198 H   0  0  0  0  0  0  0  0  0  0  0  0
   -0.7248   -2.2250    0.2848 H   0  0  0  0  0  0  0  0  0  0  0  0
  1  2  2  0
  2  3  1  0
  3  4  1  0
  4  5  1  0
  5  6  2  0
  6  7  1  0
  7  8  2  0
  8  9  1  0
  9 10  2  0
  3 11  1  0
 11 12  1  0
 12 13  2  0
 13 14  1  0
 14 15  2  0
 15 16  1  0
 16 17  1  0
 17 18  1  0
 18 19  1  0
 19 20  1  0
 20 21  1  0
 21 22  2  0
 22 23  1  0
 23 24  2  0
 24 25  1  0
 25 26  2  0
 20 27  1  0
 27 28  1  0
 16 29  2  0
 29 30  1  0
 30 31  1  0
 31 32  1  0
 32 33  2  0
 33 34  1  0
 34 35  2  0
 35 36  1  0
 35 37  1  0
 37 38  2  0
 30  2  1  0
 38 32  1  0
 10  5  1  0
 29 12  1  0
 28 17  1  0
 26 21  1  0
  3 39  1  0
  4 40  1  0
  4 41  1  0
  6 42  1  0
  7 43  1  0
  8 44  1  0
  9 45  1  0
 10 46  1  0
 11 47  1  0
 14 48  1  0
 18 49  1  0
 18 50  1  0
 19 51  1  0
 19 52  1  0
 22 53  1  0
 23 54  1  0
 24 55  1  0
 25 56  1  0
 26 57  1  0
 27 58  1  0
 27 59  1  0
 28 60  1  0
 28 61  1  0
 31 62  1  0
 31 63  1  0
 33 64  1  0
 34 65  1  0
 37 66  1  0
 38 67  1  0
M  END
$$$$
