
     RDKit          3D

 37 39  0  0  0  0  0  0  0  0999 V2000
   -0.0224    0.8861    4.7956 C   0  0  0  0  0  0  0  0  0  0  0  0
    1.5134    0.6312    3.8673 S   0  0  0  0  0  0  0  0  0  0  0  0
    0.8569    0.2816    2.2415 C   0  0  0  0  0  0  0  0  0  0  0  0
    1.7214   -0.1639    1.2640 C   0  0  0  0  0  0  0  0  0  0  0  0
    1.1976   -0.4091    0.0104 C   0  0  0  0  0  0  0  0  0  0  0  0
    1.9984   -0.8726   -1.0263 N   0  0  0  0  0  0  0  0  0  0  0  0
    1.3126   -1.2438   -2.2755 C   0  0  0  0  0  0  0  0  0  0  0  0
    2.3355   -1.8240   -3.2643 C   0  0  0  0  0  0  0  0  0  0  0  0
    3.3879   -0.9115   -3.6170 O   0  0  0  0  0  0  0  0  0  0  0  0
    3.6009    0.1158   -2.6398 C   0  0  0  0  0  0  0  0  0  0  0  0
    3.3649   -0.3461   -1.1912 C   0  0  0  0  0  0  0  0  0  0  0  0
   -0.1161   -0.2435   -0.2169 N   0  0  0  0  0  0  0  0  0  0  0  0
   -0.8926    0.1790    0.7984 C   0  0  0  0  0  0  0  0  0  0  0  0
   -2.3118    0.4049    0.5010 C   0  0  0  0  0  0  0  0  0  0  0  0
   -2.6628    1.1092   -0.6723 C   0  0  0  0  0  0  0  0  0  0  0  0
   -3.9952    1.3714   -1.0021 C   0  0  0  0  0  0  0  0  0  0  0  0
   -5.0142    0.9296   -0.1669 C   0  0  0  0  0  0  0  0  0  0  0  0
   -4.6990    0.2204    0.9906 C   0  0  0  0  0  0  0  0  0  0  0  0
   -3.3618   -0.0443    1.3228 C   0  0  0  0  0  0  0  0  0  0  0  0
   -3.0970   -0.9911    2.7500 Cl  0  0  0  0  0  0  0  0  0  0  0  0
   -0.4492    0.4794    2.0245 N   0  0  0  0  0  0  0  0  0  0  0  0
   -0.5806    1.7394    4.4006 H   0  0  0  0  0  0  0  0  0  0  0  0
    0.2263    1.0947    5.8398 H   0  0  0  0  0  0  0  0  0  0  0  0
   -0.6458   -0.0115    4.7653 H   0  0  0  0  0  0  0  0  0  0  0  0
    2.7661   -0.3351    1.4856 H   0  0  0  0  0  0  0  0  0  0  0  0
    0.8369   -0.3603   -2.7202 H   0  0  0  0  0  0  0  0  0  0  0  0
    0.5429   -2.0000   -2.0809 H   0  0  0  0  0  0  0  0  0  0  0  0
    2.8072   -2.7184   -2.8408 H   0  0  0  0  0  0  0  0  0  0  0  0
    1.8372   -2.1243   -4.1915 H   0  0  0  0  0  0  0  0  0  0  0  0
    4.6300    0.4705   -2.7563 H   0  0  0  0  0  0  0  0  0  0  0  0
    2.9392    0.9550   -2.8856 H   0  0  0  0  0  0  0  0  0  0  0  0
    4.0670   -1.1510   -0.9454 H   0  0  0  0  0  0  0  0  0  0  0  0
    3.5715    0.5014   -0.5280 H   0  0  0  0  0  0  0  0  0  0  0  0
   -1.8782    1.4657   -1.3396 H   0  0  0  0  0  0  0  0  0  0  0  0
   -4.2320    1.9201   -1.9104 H   0  0  0  0  0  0  0  0  0  0  0  0
   -6.0528    1.1293   -0.4182 H   0  0  0  0  0  0  0  0  0  0  0  0
   -5.5024   -0.1344    1.6320 H   0  0  0  0  0  0  0  0  0  0  0  0
  1  2  1  0
  2  3  1  0
  3  4  2  0
  4  5  1  0
  5  6  1  0
  6  7  1  0
  7  8  1  0
  8  9  1  0
  9 10  1  0
 10 11  1  0
  5 12  2  0
 12 13  1  0
 13 14  1  0
 14 15  2  0
 15 16  1  0
 16 17  2  0
 17 18  1  0
 18 19  2  0
 19 20  1  0
 13 21  2  0
 21  3  1  0
 11  6  1  0
 19 14  1  0
  1 22  1  0
  1 23  1  0
  1 24  1  0
  4 25  1  0
  7 26  1  0
  7 27  1  0
  8 28  1  0
  8 29  1  0
 10 30  1  0
 10 31  1  0
 11 32  1  0
 11 33  1  0
 15 34  1  0
 16 35  1  0
 17 36  1  0
 18 37  1  0
M  END
$$$$
