
     RDKit          3D

 36 37  0  0  0  0  0  0  0  0999 V2000
    0.6282    1.4942    2.7933 O   0  0  0  0  0  0  0  0  0  0  0  0
    0.1871    0.3628    2.6196 C   0  0  0  0  0  0  0  0  0  0  0  0
   -1.2579   -0.0209    2.9504 C   0  0  0  0  0  0  0  0  0  0  0  0
   -2.1823    0.2893    1.9071 O   0  0  0  0  0  0  0  0  0  0  0  0
   -2.0762   -0.4722    0.7956 C   0  0  0  0  0  0  0  0  0  0  0  0
   -1.2504   -1.3420    0.5695 O   0  0  0  0  0  0  0  0  0  0  0  0
   -3.0704   -0.0163   -0.1847 C   0  0  0  0  0  0  0  0  0  0  0  0
   -2.5895    0.5205   -1.3860 C   0  0  0  0  0  0  0  0  0  0  0  0
   -3.4942    0.9619   -2.3480 C   0  0  0  0  0  0  0  0  0  0  0  0
   -2.9132    1.6288   -3.8230 Cl  0  0  0  0  0  0  0  0  0  0  0  0
   -4.8675    0.8633   -2.1264 C   0  0  0  0  0  0  0  0  0  0  0  0
   -5.3435    0.3133   -0.9326 C   0  0  0  0  0  0  0  0  0  0  0  0
   -4.4460   -0.1328    0.0423 C   0  0  0  0  0  0  0  0  0  0  0  0
   -5.0945   -0.8551    1.4695 Cl  0  0  0  0  0  0  0  0  0  0  0  0
    0.9318   -0.6664    2.0797 N   0  0  0  0  0  0  0  0  0  0  0  0
    2.2793   -0.4499    1.5868 C   0  0  0  0  0  0  0  0  0  0  0  0
    2.3021    0.3075    0.2518 C   0  0  0  0  0  0  0  0  0  0  0  0
    3.5777    0.1854   -0.4305 N   0  0  0  0  0  0  0  0  0  0  0  0
    3.9872   -0.8988   -1.1729 C   0  0  0  0  0  0  0  0  0  0  0  0
    3.1585   -1.9478   -1.4381 O   0  0  0  0  0  0  0  0  0  0  0  0
    5.2530   -0.8408   -1.5959 C   0  0  0  0  0  0  0  0  0  0  0  0
    6.0331    0.6167   -1.0748 S   0  0  0  0  0  0  0  0  0  0  0  0
    4.5706    1.1397   -0.2196 C   0  0  0  0  0  0  0  0  0  0  0  0
    4.5034    2.1641    0.4388 O   0  0  0  0  0  0  0  0  0  0  0  0
   -1.3268   -1.0827    3.2158 H   0  0  0  0  0  0  0  0  0  0  0  0
   -1.5563    0.5441    3.8395 H   0  0  0  0  0  0  0  0  0  0  0  0
   -1.5194    0.5952   -1.5654 H   0  0  0  0  0  0  0  0  0  0  0  0
   -5.5723    1.2073   -2.8799 H   0  0  0  0  0  0  0  0  0  0  0  0
   -6.4168    0.2296   -0.7735 H   0  0  0  0  0  0  0  0  0  0  0  0
    0.3955   -1.4258    1.6604 H   0  0  0  0  0  0  0  0  0  0  0  0
    2.8553    0.0970    2.3422 H   0  0  0  0  0  0  0  0  0  0  0  0
    2.7276   -1.4427    1.4787 H   0  0  0  0  0  0  0  0  0  0  0  0
    2.0929    1.3693    0.4322 H   0  0  0  0  0  0  0  0  0  0  0  0
    1.5048   -0.0418   -0.4140 H   0  0  0  0  0  0  0  0  0  0  0  0
    2.2414   -1.6547   -1.3316 H   0  0  0  0  0  0  0  0  0  0  0  0
    5.7476   -1.5993   -2.1856 H   0  0  0  0  0  0  0  0  0  0  0  0
  1  2  2  0
  2  3  1  0
  3  4  1  0
  4  5  1  0
  5  6  2  0
  5  7  1  0
  7  8  2  0
  8  9  1  0
  9 10  1  0
  9 11  2  0
 11 12  1  0
 12 13  2  0
 13 14  1  0
  2 15  1  0
 15 16  1  0
 16 17  1  0
 17 18  1  0
 18 19  1  0
 19 20  1  0
 19 21  2  0
 21 22  1  0
 22 23  1  0
 23 24  2  0
 13  7  1  0
 23 18  1  0
  3 25  1  0
  3 26  1  0
  8 27  1  0
 11 28  1  0
 12 29  1  0
 15 30  1  0
 16 31  1  0
 16 32  1  0
 17 33  1  0
 17 34  1  0
 20 35  1  0
 21 36  1  0
M  END
$$$$
