
     RDKit          3D

 39 42  0  0  0  0  0  0  0  0999 V2000
    5.9405    1.2622   -0.6284 C   0  0  0  0  0  0  0  0  0  0  0  0
    5.7364    0.9589    0.7288 C   0  0  0  0  0  0  0  0  0  0  0  0
    4.4957    0.4997    1.1832 C   0  0  0  0  0  0  0  0  0  0  0  0
    3.4717    0.3506    0.2632 C   0  0  0  0  0  0  0  0  0  0  0  0
    3.6837    0.6571   -1.0989 C   0  0  0  0  0  0  0  0  0  0  0  0
    4.9088    1.1123   -1.5572 C   0  0  0  0  0  0  0  0  0  0  0  0
    2.4180    0.4125   -1.8954 C   0  0  0  0  0  0  0  0  0  0  0  0
    1.4622   -0.0707   -0.8240 C   0  0  0  0  0  0  0  0  0  0  0  0
    0.1373   -0.4490   -0.9686 C   0  0  0  0  0  0  0  0  0  0  0  0
   -0.5725   -0.8597    0.1718 C   0  0  0  0  0  0  0  0  0  0  0  0
   -2.0210   -1.2941    0.0541 C   0  0  0  0  0  0  0  0  0  0  0  0
   -2.8855   -0.2811   -0.5741 N   0  0  0  0  0  0  0  0  0  0  0  0
   -4.2289   -0.8278   -0.8653 C   0  0  0  0  0  0  0  0  0  0  0  0
   -5.1194   -1.0015    0.3772 C   0  0  0  0  0  0  0  0  0  0  0  0
   -5.2474    0.2249    1.1057 O   0  0  0  0  0  0  0  0  0  0  0  0
   -3.9612    0.7306    1.4850 C   0  0  0  0  0  0  0  0  0  0  0  0
   -3.0528    0.9309    0.2601 C   0  0  0  0  0  0  0  0  0  0  0  0
    0.0782   -0.8879    1.4266 C   0  0  0  0  0  0  0  0  0  0  0  0
    1.4183   -0.5047    1.5613 C   0  0  0  0  0  0  0  0  0  0  0  0
    2.1047   -0.0962    0.4314 C   0  0  0  0  0  0  0  0  0  0  0  0
    6.9142    1.6178   -0.9573 H   0  0  0  0  0  0  0  0  0  0  0  0
    6.5547    1.0835    1.4342 H   0  0  0  0  0  0  0  0  0  0  0  0
    4.3486    0.2687    2.2325 H   0  0  0  0  0  0  0  0  0  0  0  0
    5.0663    1.3466   -2.6046 H   0  0  0  0  0  0  0  0  0  0  0  0
    2.5790   -0.3638   -2.6491 H   0  0  0  0  0  0  0  0  0  0  0  0
    2.0577    1.3427   -2.3444 H   0  0  0  0  0  0  0  0  0  0  0  0
   -0.3476   -0.4191   -1.9402 H   0  0  0  0  0  0  0  0  0  0  0  0
   -2.0166   -2.2034   -0.5622 H   0  0  0  0  0  0  0  0  0  0  0  0
   -2.4006   -1.5972    1.0368 H   0  0  0  0  0  0  0  0  0  0  0  0
   -4.1501   -1.7764   -1.4092 H   0  0  0  0  0  0  0  0  0  0  0  0
   -4.7243   -0.1264   -1.5493 H   0  0  0  0  0  0  0  0  0  0  0  0
   -4.7348   -1.7792    1.0466 H   0  0  0  0  0  0  0  0  0  0  0  0
   -6.1247   -1.3050    0.0677 H   0  0  0  0  0  0  0  0  0  0  0  0
   -3.5105    0.0542    2.2197 H   0  0  0  0  0  0  0  0  0  0  0  0
   -4.1224    1.6925    1.9825 H   0  0  0  0  0  0  0  0  0  0  0  0
   -3.5062    1.6999   -0.3792 H   0  0  0  0  0  0  0  0  0  0  0  0
   -2.0858    1.3394    0.5729 H   0  0  0  0  0  0  0  0  0  0  0  0
   -0.4635   -1.2109    2.3133 H   0  0  0  0  0  0  0  0  0  0  0  0
    1.8999   -0.5308    2.5327 H   0  0  0  0  0  0  0  0  0  0  0  0
  1  2  2  0
  2  3  1  0
  3  4  2  0
  4  5  1  0
  5  6  2  0
  5  7  1  0
  7  8  1  0
  8  9  2  0
  9 10  1  0
 10 11  1  0
 11 12  1  0
 12 13  1  0
 13 14  1  0
 14 15  1  0
 15 16  1  0
 16 17  1  0
 10 18  2  0
 18 19  1  0
 19 20  2  0
  6  1  1  0
 20  8  1  0
 20  4  1  0
 17 12  1  0
  1 21  1  0
  2 22  1  0
  3 23  1  0
  6 24  1  0
  7 25  1  0
  7 26  1  0
  9 27  1  0
 11 28  1  0
 11 29  1  0
 13 30  1  0
 13 31  1  0
 14 32  1  0
 14 33  1  0
 16 34  1  0
 16 35  1  0
 17 36  1  0
 17 37  1  0
 18 38  1  0
 19 39  1  0
M  END
$$$$
