
     RDKit          3D

 57 59  0  0  0  0  0  0  0  0999 V2000
    7.7809   -1.9192   -3.1338 C   0  0  0  0  0  0  0  0  0  0  0  0
    6.7221   -2.6750   -2.5601 O   0  0  0  0  0  0  0  0  0  0  0  0
    6.3859   -2.3881   -1.2659 C   0  0  0  0  0  0  0  0  0  0  0  0
    6.9622   -1.4008   -0.4670 C   0  0  0  0  0  0  0  0  0  0  0  0
    6.5163   -1.2068    0.8464 C   0  0  0  0  0  0  0  0  0  0  0  0
    5.4967   -2.0056    1.3820 C   0  0  0  0  0  0  0  0  0  0  0  0
    4.9944   -1.7812    2.7850 C   0  0  0  0  0  0  0  0  0  0  0  0
    3.8470   -0.9118    2.7865 N   0  0  0  0  0  0  0  0  0  0  0  0
    2.5611   -1.3970    2.7559 C   0  0  0  0  0  0  0  0  0  0  0  0
    2.2198   -2.5652    2.8825 O   0  0  0  0  0  0  0  0  0  0  0  0
    1.4962   -0.3054    2.5033 C   0  0  0  0  0  0  0  0  0  0  0  0
    1.8372    0.8616    2.3724 O   0  0  0  0  0  0  0  0  0  0  0  0
    0.2125   -0.7998    2.4435 N   0  0  0  0  0  0  0  0  0  0  0  0
   -0.9010    0.0006    1.9629 C   0  0  0  0  0  0  0  0  0  0  0  0
   -1.1073   -0.1076    0.4372 C   0  0  0  0  0  0  0  0  0  0  0  0
    0.0084    0.4734   -0.2612 O   0  0  0  0  0  0  0  0  0  0  0  0
   -0.5258    0.9553   -1.4932 C   0  0  0  0  0  0  0  0  0  0  0  0
   -1.8658    1.5300   -1.0942 C   0  0  0  0  0  0  0  0  0  0  0  0
   -2.3039    0.6589    0.0156 N   0  0  0  0  0  0  0  0  0  0  0  0
   -3.6601   -0.3108   -0.2459 S   0  0  0  0  0  6  0  0  0  0  0  0
   -3.8938   -1.0820    0.9557 O   0  0  0  0  0  0  0  0  0  0  0  0
   -3.4834   -0.9555   -1.5303 O   0  0  0  0  0  0  0  0  0  0  0  0
   -4.9651    0.8822   -0.3818 C   0  0  0  0  0  0  0  0  0  0  0  0
   -5.2755    1.6771    0.7246 C   0  0  0  0  0  0  0  0  0  0  0  0
   -6.3023    2.6174    0.6229 C   0  0  0  0  0  0  0  0  0  0  0  0
   -7.0206    2.7656   -0.5690 C   0  0  0  0  0  0  0  0  0  0  0  0
   -7.9957    3.7226   -0.5281 O   0  0  0  0  0  0  0  0  0  0  0  0
   -8.7607    3.9180   -1.7110 C   0  0  0  0  0  0  0  0  0  0  0  0
   -6.7051    1.9598   -1.6676 C   0  0  0  0  0  0  0  0  0  0  0  0
   -5.6787    1.0124   -1.5753 C   0  0  0  0  0  0  0  0  0  0  0  0
    4.9177   -2.9892    0.5714 C   0  0  0  0  0  0  0  0  0  0  0  0
    5.3616   -3.1771   -0.7392 C   0  0  0  0  0  0  0  0  0  0  0  0
    7.9344   -2.2819   -4.1554 H   0  0  0  0  0  0  0  0  0  0  0  0
    7.5221   -0.8575   -3.1903 H   0  0  0  0  0  0  0  0  0  0  0  0
    8.7154   -2.0683   -2.5839 H   0  0  0  0  0  0  0  0  0  0  0  0
    7.7547   -0.7586   -0.8360 H   0  0  0  0  0  0  0  0  0  0  0  0
    6.9709   -0.4193    1.4453 H   0  0  0  0  0  0  0  0  0  0  0  0
    5.7687   -1.3065    3.3975 H   0  0  0  0  0  0  0  0  0  0  0  0
    4.7476   -2.7399    3.2554 H   0  0  0  0  0  0  0  0  0  0  0  0
    3.9570    0.0649    2.5277 H   0  0  0  0  0  0  0  0  0  0  0  0
    0.1206   -1.8109    2.5094 H   0  0  0  0  0  0  0  0  0  0  0  0
   -1.7900   -0.3446    2.4982 H   0  0  0  0  0  0  0  0  0  0  0  0
   -0.7209    1.0454    2.2402 H   0  0  0  0  0  0  0  0  0  0  0  0
   -1.1635   -1.1602    0.1317 H   0  0  0  0  0  0  0  0  0  0  0  0
   -0.6308    0.1136   -2.1884 H   0  0  0  0  0  0  0  0  0  0  0  0
    0.1435    1.7022   -1.9298 H   0  0  0  0  0  0  0  0  0  0  0  0
   -2.5574    1.5760   -1.9377 H   0  0  0  0  0  0  0  0  0  0  0  0
   -1.7510    2.5428   -0.6912 H   0  0  0  0  0  0  0  0  0  0  0  0
   -4.7288    1.5699    1.6581 H   0  0  0  0  0  0  0  0  0  0  0  0
   -6.5529    3.2370    1.4829 H   0  0  0  0  0  0  0  0  0  0  0  0
   -9.3103    3.0095   -1.9822 H   0  0  0  0  0  0  0  0  0  0  0  0
   -8.1274    4.2586   -2.5373 H   0  0  0  0  0  0  0  0  0  0  0  0
   -9.4963    4.7031   -1.5072 H   0  0  0  0  0  0  0  0  0  0  0  0
   -7.2427    2.0386   -2.6074 H   0  0  0  0  0  0  0  0  0  0  0  0
   -5.4492    0.3829   -2.4352 H   0  0  0  0  0  0  0  0  0  0  0  0
    4.1106   -3.6109    0.9554 H   0  0  0  0  0  0  0  0  0  0  0  0
    4.9004   -3.9427   -1.3579 H   0  0  0  0  0  0  0  0  0  0  0  0
  1  2  1  0
  2  3  1  0
  3  4  2  0
  4  5  1  0
  5  6  2  0
  6  7  1  0
  7  8  1  0
  8  9  1  0
  9 10  2  0
  9 11  1  0
 11 12  2  0
 11 13  1  0
 13 14  1  0
 14 15  1  0
 15 16  1  0
 16 17  1  0
 17 18  1  0
 18 19  1  0
 19 20  1  0
 20 21  2  0
 20 22  2  0
 20 23  1  0
 23 24  2  0
 24 25  1  0
 25 26  2  0
 26 27  1  0
 27 28  1  0
 26 29  1  0
 29 30  2  0
  6 31  1  0
 31 32  2  0
 32  3  1  0
 19 15  1  0
 30 23  1  0
  1 33  1  0
  1 34  1  0
  1 35  1  0
  4 36  1  0
  5 37  1  0
  7 38  1  0
  7 39  1  0
  8 40  1  0
 13 41  1  0
 14 42  1  0
 14 43  1  0
 15 44  1  0
 17 45  1  0
 17 46  1  0
 18 47  1  0
 18 48  1  0
 24 49  1  0
 25 50  1  0
 28 51  1  0
 28 52  1  0
 28 53  1  0
 29 54  1  0
 30 55  1  0
 31 56  1  0
 32 57  1  0
M  END
$$$$
