
     RDKit          3D

 36 37  0  0  0  0  0  0  0  0999 V2000
    1.8553    1.4497    1.2334 O   0  0  0  0  0  0  0  0  0  0  0  0
    0.8228    1.3358    0.5737 C   0  0  0  0  0  0  0  0  0  0  0  0
   -0.3870    2.2556    0.7523 C   0  0  0  0  0  0  0  0  0  0  0  0
   -1.6222    1.6987    0.2938 O   0  0  0  0  0  0  0  0  0  0  0  0
   -2.1797    0.7980    1.1419 C   0  0  0  0  0  0  0  0  0  0  0  0
   -1.6833    0.4043    2.1835 O   0  0  0  0  0  0  0  0  0  0  0  0
   -3.4835    0.3130    0.6139 C   0  0  0  0  0  0  0  0  0  0  0  0
   -4.1393   -0.7110    1.3127 C   0  0  0  0  0  0  0  0  0  0  0  0
   -5.3649   -1.2045    0.8572 C   0  0  0  0  0  0  0  0  0  0  0  0
   -5.9372   -0.6732   -0.2971 C   0  0  0  0  0  0  0  0  0  0  0  0
   -7.5946   -1.3390   -0.9145 Br  0  0  0  0  0  0  0  0  0  0  0  0
   -5.2969    0.3470   -0.9996 C   0  0  0  0  0  0  0  0  0  0  0  0
   -4.0702    0.8417   -0.5451 C   0  0  0  0  0  0  0  0  0  0  0  0
    0.7058    0.4161   -0.4510 N   0  0  0  0  0  0  0  0  0  0  0  0
    1.7054   -0.6238   -0.6135 C   0  0  0  0  0  0  0  0  0  0  0  0
    3.0678   -0.0856   -1.0775 C   0  0  0  0  0  0  0  0  0  0  0  0
    4.1667   -0.7811   -0.4411 N   0  0  0  0  0  0  0  0  0  0  0  0
    4.8093   -0.3703    0.7028 C   0  0  0  0  0  0  0  0  0  0  0  0
    4.4507    0.7629    1.3697 O   0  0  0  0  0  0  0  0  0  0  0  0
    5.8049   -1.1705    1.0953 C   0  0  0  0  0  0  0  0  0  0  0  0
    5.9765   -2.5398    0.0423 S   0  0  0  0  0  0  0  0  0  0  0  0
    4.6283   -1.9825   -0.9617 C   0  0  0  0  0  0  0  0  0  0  0  0
    4.2002   -2.5892   -1.9305 O   0  0  0  0  0  0  0  0  0  0  0  0
   -0.4661    2.5539    1.8043 H   0  0  0  0  0  0  0  0  0  0  0  0
   -0.1999    3.1602    0.1642 H   0  0  0  0  0  0  0  0  0  0  0  0
   -3.6992   -1.1297    2.2167 H   0  0  0  0  0  0  0  0  0  0  0  0
   -5.8619   -1.9986    1.4092 H   0  0  0  0  0  0  0  0  0  0  0  0
   -5.7445    0.7647   -1.8984 H   0  0  0  0  0  0  0  0  0  0  0  0
   -3.5909    1.6420   -1.1036 H   0  0  0  0  0  0  0  0  0  0  0  0
   -0.2237    0.2532   -0.8215 H   0  0  0  0  0  0  0  0  0  0  0  0
    1.7891   -1.1434    0.3487 H   0  0  0  0  0  0  0  0  0  0  0  0
    1.3166   -1.3414   -1.3440 H   0  0  0  0  0  0  0  0  0  0  0  0
    3.1825    0.9918   -0.9168 H   0  0  0  0  0  0  0  0  0  0  0  0
    3.1461   -0.2311   -2.1626 H   0  0  0  0  0  0  0  0  0  0  0  0
    3.4925    0.9350    1.2426 H   0  0  0  0  0  0  0  0  0  0  0  0
    6.4246   -1.0089    1.9657 H   0  0  0  0  0  0  0  0  0  0  0  0
  1  2  2  0
  2  3  1  0
  3  4  1  0
  4  5  1  0
  5  6  2  0
  5  7  1  0
  7  8  2  0
  8  9  1  0
  9 10  2  0
 10 11  1  0
 10 12  1  0
 12 13  2  0
  2 14  1  0
 14 15  1  0
 15 16  1  0
 16 17  1  0
 17 18  1  0
 18 19  1  0
 18 20  2  0
 20 21  1  0
 21 22  1  0
 22 23  2  0
 13  7  1  0
 22 17  1  0
  3 24  1  0
  3 25  1  0
  8 26  1  0
  9 27  1  0
 12 28  1  0
 13 29  1  0
 14 30  1  0
 15 31  1  0
 15 32  1  0
 16 33  1  0
 16 34  1  0
 19 35  1  0
 20 36  1  0
M  END
$$$$
