
     RDKit          3D

 44 44  0  0  0  0  0  0  0  0999 V2000
   -4.3187    0.8377    2.2452 C   0  0  0  0  0  0  0  0  0  0  0  0
   -4.4263   -0.1401    1.0837 C   0  0  0  0  0  0  0  0  0  0  0  0
   -3.9370    0.4619   -0.1636 N   0  0  0  0  0  0  0  0  0  0  0  0
   -4.9441    1.1572   -0.9753 C   0  0  0  0  0  0  0  0  0  0  0  0
   -5.5345    0.2261   -2.0246 C   0  0  0  0  0  0  0  0  0  0  0  0
   -2.5935    0.4207   -0.5268 C   0  0  0  0  0  0  0  0  0  0  0  0
   -2.1350    0.9048   -1.7639 C   0  0  0  0  0  0  0  0  0  0  0  0
   -0.7828    0.8727   -2.1300 C   0  0  0  0  0  0  0  0  0  0  0  0
    0.1667    0.3390   -1.2666 C   0  0  0  0  0  0  0  0  0  0  0  0
   -0.2421   -0.1708   -0.0420 C   0  0  0  0  0  0  0  0  0  0  0  0
    0.5810   -0.7171    0.9059 O   0  0  0  0  0  0  0  0  0  0  0  0
    1.8037   -1.2816    0.4536 C   0  0  0  0  0  0  0  0  0  0  0  0
    3.0094   -0.3267    0.4326 C   0  0  0  0  0  0  0  0  0  0  0  0
    2.9070    0.8603    0.7481 O   0  0  0  0  0  0  0  0  0  0  0  0
    4.2406   -0.8546    0.0329 N   0  0  0  0  0  0  0  0  0  0  0  0
    4.5120   -2.2768   -0.1320 C   0  0  0  0  0  0  0  0  0  0  0  0
    5.4018    0.0434    0.0516 C   0  0  0  0  0  0  0  0  0  0  0  0
    5.9644    0.2626    1.4561 C   0  0  0  0  0  0  0  0  0  0  0  0
    7.1805    1.0797    1.3956 C   0  0  0  0  0  0  0  0  0  0  0  0
    8.1553    1.7062    1.3372 N   0  0  0  0  0  0  0  0  0  0  0  0
   -1.5991   -0.1111    0.3160 C   0  0  0  0  0  0  0  0  0  0  0  0
   -4.7073    0.3804    3.1605 H   0  0  0  0  0  0  0  0  0  0  0  0
   -4.8966    1.7469    2.0491 H   0  0  0  0  0  0  0  0  0  0  0  0
   -3.2828    1.1375    2.4298 H   0  0  0  0  0  0  0  0  0  0  0  0
   -5.4805   -0.4223    0.9660 H   0  0  0  0  0  0  0  0  0  0  0  0
   -3.9115   -1.0800    1.3121 H   0  0  0  0  0  0  0  0  0  0  0  0
   -4.5416    2.0654   -1.4375 H   0  0  0  0  0  0  0  0  0  0  0  0
   -5.7593    1.5105   -0.3308 H   0  0  0  0  0  0  0  0  0  0  0  0
   -6.2982    0.7500   -2.6077 H   0  0  0  0  0  0  0  0  0  0  0  0
   -6.0038   -0.6456   -1.5565 H   0  0  0  0  0  0  0  0  0  0  0  0
   -4.7713   -0.1410   -2.7174 H   0  0  0  0  0  0  0  0  0  0  0  0
   -2.8225    1.3267   -2.4898 H   0  0  0  0  0  0  0  0  0  0  0  0
   -0.4764    1.2773   -3.0910 H   0  0  0  0  0  0  0  0  0  0  0  0
    1.2082    0.3612   -1.5653 H   0  0  0  0  0  0  0  0  0  0  0  0
    2.0420   -2.0745    1.1720 H   0  0  0  0  0  0  0  0  0  0  0  0
    1.6821   -1.7574   -0.5271 H   0  0  0  0  0  0  0  0  0  0  0  0
    5.0023   -2.6447    0.7738 H   0  0  0  0  0  0  0  0  0  0  0  0
    5.1748   -2.4173   -0.9908 H   0  0  0  0  0  0  0  0  0  0  0  0
    3.6048   -2.8574   -0.3013 H   0  0  0  0  0  0  0  0  0  0  0  0
    6.1657   -0.3667   -0.6208 H   0  0  0  0  0  0  0  0  0  0  0  0
    5.0997    1.0079   -0.3772 H   0  0  0  0  0  0  0  0  0  0  0  0
    5.2210    0.7484    2.0975 H   0  0  0  0  0  0  0  0  0  0  0  0
    6.1955   -0.7029    1.9206 H   0  0  0  0  0  0  0  0  0  0  0  0
   -1.8535   -0.4959    1.2983 H   0  0  0  0  0  0  0  0  0  0  0  0
  1  2  1  0
  2  3  1  0
  3  4  1  0
  4  5  1  0
  3  6  1  0
  6  7  2  0
  7  8  1  0
  8  9  2  0
  9 10  1  0
 10 11  1  0
 11 12  1  0
 12 13  1  0
 13 14  2  0
 13 15  1  0
 15 16  1  0
 15 17  1  0
 17 18  1  0
 18 19  1  0
 19 20  3  0
 10 21  2  0
 21  6  1  0
  1 22  1  0
  1 23  1  0
  1 24  1  0
  2 25  1  0
  2 26  1  0
  4 27  1  0
  4 28  1  0
  5 29  1  0
  5 30  1  0
  5 31  1  0
  7 32  1  0
  8 33  1  0
  9 34  1  0
 12 35  1  0
 12 36  1  0
 16 37  1  0
 16 38  1  0
 16 39  1  0
 17 40  1  0
 17 41  1  0
 18 42  1  0
 18 43  1  0
 21 44  1  0
M  END
$$$$
