
     RDKit          3D

 39 41  0  0  0  0  0  0  0  0999 V2000
    3.6863   -1.9748   -1.6342 O   0  0  0  0  0  0  0  0  0  0  0  0
    3.3024   -1.0686   -0.9115 C   0  0  0  0  0  0  0  0  0  0  0  0
    2.0127   -0.7688   -0.6339 O   0  0  0  0  0  0  0  0  0  0  0  0
    1.0682   -1.6284   -1.2752 C   0  0  0  0  0  0  0  0  0  0  0  0
   -0.3102   -1.1729   -0.8731 C   0  0  0  0  0  0  0  0  0  0  0  0
   -0.9083   -1.6610    0.2944 C   0  0  0  0  0  0  0  0  0  0  0  0
   -2.1795   -1.2215    0.6782 C   0  0  0  0  0  0  0  0  0  0  0  0
   -2.8825   -0.2772   -0.0865 C   0  0  0  0  0  0  0  0  0  0  0  0
   -4.2199    0.1849    0.3201 C   0  0  0  0  0  0  0  0  0  0  0  0
   -5.2556   -0.7298    0.5745 C   0  0  0  0  0  0  0  0  0  0  0  0
   -6.5258   -0.2923    0.9600 C   0  0  0  0  0  0  0  0  0  0  0  0
   -6.7816    1.0694    1.0991 C   0  0  0  0  0  0  0  0  0  0  0  0
   -5.7693    1.9932    0.8525 C   0  0  0  0  0  0  0  0  0  0  0  0
   -4.5001    1.5539    0.4660 C   0  0  0  0  0  0  0  0  0  0  0  0
   -2.2679    0.2160   -1.2483 C   0  0  0  0  0  0  0  0  0  0  0  0
   -0.9973   -0.2219   -1.6360 C   0  0  0  0  0  0  0  0  0  0  0  0
    4.2213   -0.1332   -0.2091 C   0  0  0  0  0  0  0  0  0  0  0  0
    3.7545    0.8984    0.6195 C   0  0  0  0  0  0  0  0  0  0  0  0
    4.6606    1.7498    1.2565 C   0  0  0  0  0  0  0  0  0  0  0  0
    6.0309    1.5748    1.0689 C   0  0  0  0  0  0  0  0  0  0  0  0
    6.4903    0.5516    0.2472 C   0  0  0  0  0  0  0  0  0  0  0  0
    7.8387    0.4192    0.0940 O   0  0  0  0  0  0  0  0  0  0  0  0
    5.6007   -0.3046   -0.3941 C   0  0  0  0  0  0  0  0  0  0  0  0
    1.2255   -2.6679   -0.9618 H   0  0  0  0  0  0  0  0  0  0  0  0
    1.1806   -1.5708   -2.3650 H   0  0  0  0  0  0  0  0  0  0  0  0
   -0.3865   -2.3837    0.9181 H   0  0  0  0  0  0  0  0  0  0  0  0
   -2.6153   -1.6131    1.5954 H   0  0  0  0  0  0  0  0  0  0  0  0
   -5.0803   -1.7977    0.4606 H   0  0  0  0  0  0  0  0  0  0  0  0
   -7.3142   -1.0162    1.1485 H   0  0  0  0  0  0  0  0  0  0  0  0
   -7.7689    1.4103    1.3992 H   0  0  0  0  0  0  0  0  0  0  0  0
   -5.9643    3.0567    0.9630 H   0  0  0  0  0  0  0  0  0  0  0  0
   -3.7202    2.2920    0.2894 H   0  0  0  0  0  0  0  0  0  0  0  0
   -2.7839    0.9451   -1.8701 H   0  0  0  0  0  0  0  0  0  0  0  0
   -0.5489    0.1866   -2.5391 H   0  0  0  0  0  0  0  0  0  0  0  0
    2.6894    1.0513    0.7789 H   0  0  0  0  0  0  0  0  0  0  0  0
    4.2986    2.5489    1.8987 H   0  0  0  0  0  0  0  0  0  0  0  0
    6.7399    2.2344    1.5623 H   0  0  0  0  0  0  0  0  0  0  0  0
    8.0163   -0.3290   -0.5004 H   0  0  0  0  0  0  0  0  0  0  0  0
    5.9637   -1.1032   -1.0355 H   0  0  0  0  0  0  0  0  0  0  0  0
  1  2  2  0
  2  3  1  0
  3  4  1  0
  4  5  1  0
  5  6  2  0
  6  7  1  0
  7  8  2  0
  8  9  1  0
  9 10  2  0
 10 11  1  0
 11 12  2  0
 12 13  1  0
 13 14  2  0
  8 15  1  0
 15 16  2  0
  2 17  1  0
 17 18  2  0
 18 19  1  0
 19 20  2  0
 20 21  1  0
 21 22  1  0
 21 23  2  0
 16  5  1  0
 23 17  1  0
 14  9  1  0
  4 24  1  0
  4 25  1  0
  6 26  1  0
  7 27  1  0
 10 28  1  0
 11 29  1  0
 12 30  1  0
 13 31  1  0
 14 32  1  0
 15 33  1  0
 16 34  1  0
 18 35  1  0
 19 36  1  0
 20 37  1  0
 22 38  1  0
 23 39  1  0
M  END
$$$$
