
     RDKit          3D

 60 65  0  0  0  0  0  0  0  0999 V2000
    1.7655   -4.0913   -1.0650 O   0  0  0  0  0  0  0  0  0  0  0  0
    2.1851   -2.9432   -0.9711 C   0  0  0  0  0  0  0  0  0  0  0  0
    1.3760   -1.9047   -0.5218 N   0  0  0  0  0  0  0  0  0  0  0  0
    1.7839   -0.5825   -0.4123 C   0  0  0  0  0  0  0  0  0  0  0  0
    0.7635    0.4380    0.0924 C   0  0  0  0  0  0  0  0  0  0  0  0
   -0.4542    0.5727   -0.8270 C   0  0  0  0  0  0  0  0  0  0  0  0
   -1.6169   -0.3547   -0.4961 C   0  0  0  0  0  0  0  0  0  0  0  0
   -1.9184   -0.3914    0.9516 N   0  0  0  0  0  0  0  0  0  0  0  0
   -2.9513    0.8178    1.5805 S   0  0  0  0  0  6  0  0  0  0  0  0
   -2.4347    2.0993    1.1516 O   0  0  0  0  0  0  0  0  0  0  0  0
   -3.1837    0.5328    2.9797 O   0  0  0  0  0  0  0  0  0  0  0  0
   -4.4760    0.5060    0.7285 C   0  0  0  0  0  0  0  0  0  0  0  0
   -5.1696   -0.6804    0.9950 C   0  0  0  0  0  0  0  0  0  0  0  0
   -6.3732   -0.9348    0.3369 C   0  0  0  0  0  0  0  0  0  0  0  0
   -6.8771   -0.0041   -0.5716 C   0  0  0  0  0  0  0  0  0  0  0  0
   -6.1668    1.1717   -0.8461 C   0  0  0  0  0  0  0  0  0  0  0  0
   -4.9723    1.4412   -0.1831 C   0  0  0  0  0  0  0  0  0  0  0  0
   -6.5906    2.1107   -1.7511 O   0  0  0  0  0  0  0  0  0  0  0  0
   -7.6311    1.5996   -2.5928 C   0  0  0  0  0  0  0  0  0  0  0  0
   -8.6642    0.8433   -1.7741 C   0  0  0  0  0  0  0  0  0  0  0  0
   -8.0754   -0.3110   -1.1638 O   0  0  0  0  0  0  0  0  0  0  0  0
   -0.7506   -0.7333    1.7929 C   0  0  0  0  0  0  0  0  0  0  0  0
    0.4009    0.2333    1.5658 C   0  0  0  0  0  0  0  0  0  0  0  0
    2.9863   -0.1696   -0.7126 N   0  0  0  0  0  0  0  0  0  0  0  0
    3.8018   -1.1646   -1.1382 C   0  0  0  0  0  0  0  0  0  0  0  0
    3.5105   -2.4969   -1.2956 C   0  0  0  0  0  0  0  0  0  0  0  0
    4.5953   -3.1754   -1.7570 N   0  0  0  0  0  0  0  0  0  0  0  0
    5.5859   -2.2927   -1.8913 N   0  0  0  0  0  0  0  0  0  0  0  0
    5.1159   -1.0819   -1.4992 N   0  0  0  0  0  0  0  0  0  0  0  0
    5.9616    0.0923   -1.5339 C   0  0  0  0  0  0  0  0  0  0  0  0
    6.5840    0.3612   -0.1866 C   0  0  0  0  0  0  0  0  0  0  0  0
    7.7480   -0.3172    0.2114 C   0  0  0  0  0  0  0  0  0  0  0  0
    8.3158   -0.0814    1.4664 C   0  0  0  0  0  0  0  0  0  0  0  0
    7.7237    0.8303    2.3381 C   0  0  0  0  0  0  0  0  0  0  0  0
    6.5670    1.4952    1.9501 C   0  0  0  0  0  0  0  0  0  0  0  0
    5.9930    2.3658    2.7908 F   0  0  0  0  0  0  0  0  0  0  0  0
    5.9924    1.2695    0.7032 C   0  0  0  0  0  0  0  0  0  0  0  0
    0.4442   -2.2015   -0.2854 H   0  0  0  0  0  0  0  0  0  0  0  0
    1.2952    1.4006    0.0385 H   0  0  0  0  0  0  0  0  0  0  0  0
   -0.1626    0.4218   -1.8738 H   0  0  0  0  0  0  0  0  0  0  0  0
   -0.8100    1.6084   -0.7653 H   0  0  0  0  0  0  0  0  0  0  0  0
   -1.3989   -1.3773   -0.8218 H   0  0  0  0  0  0  0  0  0  0  0  0
   -2.4988   -0.0592   -1.0725 H   0  0  0  0  0  0  0  0  0  0  0  0
   -4.7817   -1.3977    1.7154 H   0  0  0  0  0  0  0  0  0  0  0  0
   -6.9263   -1.8476    0.5424 H   0  0  0  0  0  0  0  0  0  0  0  0
   -4.4384    2.3659   -0.3871 H   0  0  0  0  0  0  0  0  0  0  0  0
   -8.0975    2.4515   -3.0973 H   0  0  0  0  0  0  0  0  0  0  0  0
   -7.1759    0.9570   -3.3564 H   0  0  0  0  0  0  0  0  0  0  0  0
   -9.0941    1.4743   -0.9864 H   0  0  0  0  0  0  0  0  0  0  0  0
   -9.4792    0.4986   -2.4181 H   0  0  0  0  0  0  0  0  0  0  0  0
   -0.4509   -1.7617    1.5669 H   0  0  0  0  0  0  0  0  0  0  0  0
   -1.0251   -0.7474    2.8530 H   0  0  0  0  0  0  0  0  0  0  0  0
    0.1234    1.2079    1.9879 H   0  0  0  0  0  0  0  0  0  0  0  0
    1.2763   -0.1077    2.1318 H   0  0  0  0  0  0  0  0  0  0  0  0
    5.3514    0.9404   -1.8655 H   0  0  0  0  0  0  0  0  0  0  0  0
    6.7350   -0.0620   -2.2955 H   0  0  0  0  0  0  0  0  0  0  0  0
    8.2155   -1.0435   -0.4529 H   0  0  0  0  0  0  0  0  0  0  0  0
    9.2159   -0.6137    1.7644 H   0  0  0  0  0  0  0  0  0  0  0  0
    8.1518    1.0219    3.3167 H   0  0  0  0  0  0  0  0  0  0  0  0
    5.0810    1.8011    0.4424 H   0  0  0  0  0  0  0  0  0  0  0  0
  1  2  2  0
  2  3  1  0
  3  4  1  0
  4  5  1  0
  5  6  1  0
  6  7  1  0
  7  8  1  0
  8  9  1  0
  9 10  2  0
  9 11  2  0
  9 12  1  0
 12 13  2  0
 13 14  1  0
 14 15  2  0
 15 16  1  0
 16 17  2  0
 16 18  1  0
 18 19  1  0
 19 20  1  0
 20 21  1  0
  8 22  1  0
 22 23  1  0
  4 24  2  0
 24 25  1  0
 25 26  2  0
 26 27  1  0
 27 28  2  0
 28 29  1  0
 29 30  1  0
 30 31  1  0
 31 32  2  0
 32 33  1  0
 33 34  2  0
 34 35  1  0
 35 36  1  0
 35 37  2  0
 26  2  1  0
 37 31  1  0
 23  5  1  0
 29 25  1  0
 17 12  1  0
 21 15  1  0
  3 38  1  0
  5 39  1  0
  6 40  1  0
  6 41  1  0
  7 42  1  0
  7 43  1  0
 13 44  1  0
 14 45  1  0
 17 46  1  0
 19 47  1  0
 19 48  1  0
 20 49  1  0
 20 50  1  0
 22 51  1  0
 22 52  1  0
 23 53  1  0
 23 54  1  0
 30 55  1  0
 30 56  1  0
 32 57  1  0
 33 58  1  0
 34 59  1  0
 37 60  1  0
M  END
$$$$
