
     RDKit          3D

 23 23  0  0  0  0  0  0  0  0999 V2000
   -2.0145    0.4838   -1.3328 C   0  0  0  0  0  0  0  0  0  0  0  0
   -1.5262   -0.1444   -0.0513 C   0  0  0  0  0  0  0  0  0  0  0  0
   -0.0788   -0.1320    0.1947 C   0  0  0  0  0  0  0  0  0  0  0  0
    0.8606    0.4265   -0.5867 C   0  0  0  0  0  0  0  0  0  0  0  0
    2.2388    0.3710   -0.2329 C   0  0  0  0  0  0  0  0  0  0  0  0
    3.3291    0.8942   -0.9203 C   0  0  0  0  0  0  0  0  0  0  0  0
    4.4987    0.5913   -0.1839 C   0  0  0  0  0  0  0  0  0  0  0  0
    4.0750   -0.1024    0.9195 C   0  0  0  0  0  0  0  0  0  0  0  0
    2.7279   -0.2409    0.9025 O   0  0  0  0  0  0  0  0  0  0  0  0
   -2.3179   -0.7208    0.8768 C   0  0  0  0  0  0  0  0  0  0  0  0
   -3.7880   -0.8267    0.8520 C   0  0  0  0  0  0  0  0  0  0  0  0
   -4.5799   -0.3404    0.0714 O   0  0  0  0  0  0  0  0  0  0  0  0
   -4.1990   -1.5817    1.8866 O   0  0  0  0  0  0  0  0  0  0  0  0
   -3.0820    0.3594   -1.5134 H   0  0  0  0  0  0  0  0  0  0  0  0
   -1.5110    0.0339   -2.1962 H   0  0  0  0  0  0  0  0  0  0  0  0
   -1.8117    1.5605   -1.3311 H   0  0  0  0  0  0  0  0  0  0  0  0
    0.2485   -0.6266    1.1111 H   0  0  0  0  0  0  0  0  0  0  0  0
    0.6051    0.9390   -1.5076 H   0  0  0  0  0  0  0  0  0  0  0  0
    3.2765    1.4363   -1.8546 H   0  0  0  0  0  0  0  0  0  0  0  0
    5.5200    0.8469   -0.4278 H   0  0  0  0  0  0  0  0  0  0  0  0
    4.5792   -0.5441    1.7675 H   0  0  0  0  0  0  0  0  0  0  0  0
   -1.8764   -1.1631    1.7666 H   0  0  0  0  0  0  0  0  0  0  0  0
   -5.1740   -1.5930    1.7899 H   0  0  0  0  0  0  0  0  0  0  0  0
  1  2  1  0
  2  3  1  0
  3  4  2  3
  4  5  1  0
  5  6  2  0
  6  7  1  0
  7  8  2  0
  8  9  1  0
  2 10  2  3
 10 11  1  0
 11 12  2  0
 11 13  1  0
  9  5  1  0
  1 14  1  0
  1 15  1  0
  1 16  1  0
  3 17  1  0
  4 18  1  0
  6 19  1  0
  7 20  1  0
  8 21  1  0
 10 22  1  0
 13 23  1  0
M  END
$$$$
