
     RDKit          3D

 44 46  0  0  0  0  0  0  0  0999 V2000
   -2.9755    2.5439   -2.3269 C   0  0  0  0  0  0  0  0  0  0  0  0
   -3.9944    1.5918   -1.6951 C   0  0  0  0  0  0  0  0  0  0  0  0
   -5.0022    2.3601   -0.8381 C   0  0  0  0  0  0  0  0  0  0  0  0
   -3.3088    0.4902   -0.9050 C   0  0  0  0  0  0  0  0  0  0  0  0
   -2.5348    0.7748    0.2317 C   0  0  0  0  0  0  0  0  0  0  0  0
   -1.9084   -0.2493    0.9431 C   0  0  0  0  0  0  0  0  0  0  0  0
   -2.0391   -1.5690    0.5077 C   0  0  0  0  0  0  0  0  0  0  0  0
   -1.2269   -2.8770    1.3970 S   0  0  0  0  0  6  0  0  0  0  0  0
   -0.9436   -2.4069    2.7354 O   0  0  0  0  0  0  0  0  0  0  0  0
   -1.9819   -4.0927    1.1734 O   0  0  0  0  0  0  0  0  0  0  0  0
    0.2252   -3.0686    0.5493 N   0  0  0  0  0  0  0  0  0  0  0  0
    1.0600   -1.9354    0.3426 C   0  0  0  0  0  0  0  0  0  0  0  0
    1.1865   -1.4147   -0.9439 C   0  0  0  0  0  0  0  0  0  0  0  0
    1.9581   -0.2736   -1.1538 C   0  0  0  0  0  0  0  0  0  0  0  0
    2.6073    0.3366   -0.0808 C   0  0  0  0  0  0  0  0  0  0  0  0
    3.3403    1.4496   -0.3881 O   0  0  0  0  0  0  0  0  0  0  0  0
    2.4890   -0.1745    1.2196 C   0  0  0  0  0  0  0  0  0  0  0  0
    3.2059    0.5958    2.6632 S   0  0  0  0  0  0  0  0  0  0  0  0
    4.9085    0.4629    2.3371 C   0  0  0  0  0  0  0  0  0  0  0  0
    5.4977    1.0956    1.2707 N   0  0  0  0  0  0  0  0  0  0  0  0
    6.7603    0.7558    1.3944 C   0  0  0  0  0  0  0  0  0  0  0  0
    6.9135   -0.0387    2.4869 N   0  0  0  0  0  0  0  0  0  0  0  0
    5.7413   -0.2392    3.1081 N   0  0  0  0  0  0  0  0  0  0  0  0
    1.7012   -1.3177    1.4186 C   0  0  0  0  0  0  0  0  0  0  0  0
   -2.8207   -1.8764   -0.6076 C   0  0  0  0  0  0  0  0  0  0  0  0
   -3.4483   -0.8468   -1.3112 C   0  0  0  0  0  0  0  0  0  0  0  0
   -3.4801    3.2812   -2.9608 H   0  0  0  0  0  0  0  0  0  0  0  0
   -2.2631    1.9952   -2.9527 H   0  0  0  0  0  0  0  0  0  0  0  0
   -2.4016    3.0916   -1.5714 H   0  0  0  0  0  0  0  0  0  0  0  0
   -4.5582    1.1315   -2.5166 H   0  0  0  0  0  0  0  0  0  0  0  0
   -5.5556    3.0804   -1.4501 H   0  0  0  0  0  0  0  0  0  0  0  0
   -4.5148    2.9164   -0.0311 H   0  0  0  0  0  0  0  0  0  0  0  0
   -5.7294    1.6779   -0.3827 H   0  0  0  0  0  0  0  0  0  0  0  0
   -2.4118    1.8002    0.5739 H   0  0  0  0  0  0  0  0  0  0  0  0
   -1.3154   -0.0083    1.8225 H   0  0  0  0  0  0  0  0  0  0  0  0
    0.1297   -3.7363   -0.2147 H   0  0  0  0  0  0  0  0  0  0  0  0
    0.6733   -1.8689   -1.7872 H   0  0  0  0  0  0  0  0  0  0  0  0
    2.0542    0.1466   -2.1511 H   0  0  0  0  0  0  0  0  0  0  0  0
    4.0422    1.5499    0.2900 H   0  0  0  0  0  0  0  0  0  0  0  0
    7.5786    1.0470    0.7507 H   0  0  0  0  0  0  0  0  0  0  0  0
    7.7587   -0.4491    2.8697 H   0  0  0  0  0  0  0  0  0  0  0  0
    1.5849   -1.7302    2.4197 H   0  0  0  0  0  0  0  0  0  0  0  0
   -2.9487   -2.9058   -0.9332 H   0  0  0  0  0  0  0  0  0  0  0  0
   -4.0530   -1.0960   -2.1812 H   0  0  0  0  0  0  0  0  0  0  0  0
  1  2  1  0
  2  3  1  0
  2  4  1  0
  4  5  2  0
  5  6  1  0
  6  7  2  0
  7  8  1  0
  8  9  2  0
  8 10  2  0
  8 11  1  0
 11 12  1  0
 12 13  2  0
 13 14  1  0
 14 15  2  0
 15 16  1  0
 15 17  1  0
 17 18  1  0
 18 19  1  0
 19 20  1  0
 20 21  2  0
 21 22  1  0
 22 23  1  0
 17 24  2  0
  7 25  1  0
 25 26  2  0
 26  4  1  0
 24 12  1  0
 23 19  2  0
  1 27  1  0
  1 28  1  0
  1 29  1  0
  2 30  1  0
  3 31  1  0
  3 32  1  0
  3 33  1  0
  5 34  1  0
  6 35  1  0
 11 36  1  0
 13 37  1  0
 14 38  1  0
 16 39  1  0
 21 40  1  0
 22 41  1  0
 24 42  1  0
 25 43  1  0
 26 44  1  0
M  END
$$$$
