
     RDKit          3D

 43 45  0  0  0  0  0  0  0  0999 V2000
   -5.4536   -2.2249   -1.2322 C   0  0  0  0  0  0  0  0  0  0  0  0
   -4.4858   -1.8089   -0.2770 O   0  0  0  0  0  0  0  0  0  0  0  0
   -3.9196   -0.5792   -0.4593 C   0  0  0  0  0  0  0  0  0  0  0  0
   -4.1850    0.2994   -1.5075 C   0  0  0  0  0  0  0  0  0  0  0  0
   -3.5305    1.5371   -1.5792 C   0  0  0  0  0  0  0  0  0  0  0  0
   -2.6062    1.9178   -0.6008 C   0  0  0  0  0  0  0  0  0  0  0  0
   -1.9110    3.0936   -0.6386 O   0  0  0  0  0  0  0  0  0  0  0  0
   -2.4984    4.1669   -1.3651 C   0  0  0  0  0  0  0  0  0  0  0  0
   -2.3370    1.0244    0.4419 C   0  0  0  0  0  0  0  0  0  0  0  0
   -1.1813    1.4412    1.7201 S   0  0  0  0  0  6  0  0  0  0  0  0
   -1.5298    2.7526    2.2275 O   0  0  0  0  0  0  0  0  0  0  0  0
   -1.0676    0.3189    2.6296 O   0  0  0  0  0  0  0  0  0  0  0  0
    0.2855    1.6095    0.8946 N   0  0  0  0  0  0  0  0  0  0  0  0
    1.0470    0.4418    0.6258 C   0  0  0  0  0  0  0  0  0  0  0  0
    0.7279   -0.3611   -0.4669 C   0  0  0  0  0  0  0  0  0  0  0  0
    1.4539   -1.5272   -0.7024 C   0  0  0  0  0  0  0  0  0  0  0  0
    2.4929   -1.8856    0.1553 C   0  0  0  0  0  0  0  0  0  0  0  0
    3.1559   -3.0402   -0.1610 O   0  0  0  0  0  0  0  0  0  0  0  0
    2.8139   -1.0950    1.2689 C   0  0  0  0  0  0  0  0  0  0  0  0
    4.0652   -1.5347    2.4660 S   0  0  0  0  0  0  0  0  0  0  0  0
    5.5170   -1.4603    1.5112 C   0  0  0  0  0  0  0  0  0  0  0  0
    6.4555   -0.4754    1.6317 N   0  0  0  0  0  0  0  0  0  0  0  0
    7.3609   -0.8209    0.7472 C   0  0  0  0  0  0  0  0  0  0  0  0
    6.9770   -1.9679    0.1278 N   0  0  0  0  0  0  0  0  0  0  0  0
    5.7951   -2.4025    0.6003 N   0  0  0  0  0  0  0  0  0  0  0  0
    2.0721    0.0724    1.4992 C   0  0  0  0  0  0  0  0  0  0  0  0
   -2.9929   -0.2130    0.5154 C   0  0  0  0  0  0  0  0  0  0  0  0
   -5.0097   -2.3155   -2.2290 H   0  0  0  0  0  0  0  0  0  0  0  0
   -5.8119   -3.2155   -0.9358 H   0  0  0  0  0  0  0  0  0  0  0  0
   -6.3146   -1.5483   -1.2424 H   0  0  0  0  0  0  0  0  0  0  0  0
   -4.8928    0.0527   -2.2925 H   0  0  0  0  0  0  0  0  0  0  0  0
   -3.7551    2.1783   -2.4263 H   0  0  0  0  0  0  0  0  0  0  0  0
   -1.9561    5.0812   -1.1060 H   0  0  0  0  0  0  0  0  0  0  0  0
   -2.3897    4.0099   -2.4428 H   0  0  0  0  0  0  0  0  0  0  0  0
   -3.5490    4.3124   -1.0913 H   0  0  0  0  0  0  0  0  0  0  0  0
    0.7730    2.4534    1.1907 H   0  0  0  0  0  0  0  0  0  0  0  0
   -0.0715   -0.0841   -1.1475 H   0  0  0  0  0  0  0  0  0  0  0  0
    1.2137   -2.1577   -1.5542 H   0  0  0  0  0  0  0  0  0  0  0  0
    4.0164   -3.0361    0.3107 H   0  0  0  0  0  0  0  0  0  0  0  0
    8.2804   -0.2996    0.5215 H   0  0  0  0  0  0  0  0  0  0  0  0
    7.4509   -2.4941   -0.5986 H   0  0  0  0  0  0  0  0  0  0  0  0
    2.2806    0.6860    2.3723 H   0  0  0  0  0  0  0  0  0  0  0  0
   -2.7861   -0.9016    1.3330 H   0  0  0  0  0  0  0  0  0  0  0  0
  1  2  1  0
  2  3  1  0
  3  4  2  0
  4  5  1  0
  5  6  2  0
  6  7  1  0
  7  8  1  0
  6  9  1  0
  9 10  1  0
 10 11  2  0
 10 12  2  0
 10 13  1  0
 13 14  1  0
 14 15  2  0
 15 16  1  0
 16 17  2  0
 17 18  1  0
 17 19  1  0
 19 20  1  0
 20 21  1  0
 21 22  1  0
 22 23  2  0
 23 24  1  0
 24 25  1  0
 19 26  2  0
  9 27  2  0
 27  3  1  0
 26 14  1  0
 25 21  2  0
  1 28  1  0
  1 29  1  0
  1 30  1  0
  4 31  1  0
  5 32  1  0
  8 33  1  0
  8 34  1  0
  8 35  1  0
 13 36  1  0
 15 37  1  0
 16 38  1  0
 18 39  1  0
 23 40  1  0
 24 41  1  0
 26 42  1  0
 27 43  1  0
M  END
$$$$
