
     RDKit          3D

 43 46  0  0  0  0  0  0  0  0999 V2000
   -1.7027   -0.4603   -1.7230 O   0  0  0  0  0  0  0  0  0  0  0  0
   -1.9042   -0.1060   -0.5650 C   0  0  0  0  0  0  0  0  0  0  0  0
   -0.9168    0.1431    0.3746 N   0  0  0  0  0  0  0  0  0  0  0  0
    0.4816    0.0430    0.1971 C   0  0  0  0  0  0  0  0  0  0  0  0
    1.1006   -0.3347   -0.9922 C   0  0  0  0  0  0  0  0  0  0  0  0
    2.4979   -0.4065   -1.0760 C   0  0  0  0  0  0  0  0  0  0  0  0
    3.3028   -0.1024    0.0266 C   0  0  0  0  0  0  0  0  0  0  0  0
    4.6959   -0.2017   -0.1488 N   0  0  0  0  0  0  0  0  0  0  0  0
    5.7010    0.0415    0.7728 C   0  0  0  0  0  0  0  0  0  0  0  0
    5.5079    0.3961    1.9325 O   0  0  0  0  0  0  0  0  0  0  0  0
    7.0590   -0.1575    0.2611 C   0  0  0  0  0  0  0  0  0  0  0  0
    8.2378    0.0148    0.9662 C   0  0  0  0  0  0  0  0  0  0  0  0
    9.3956   -0.2591    0.1829 C   0  0  0  0  0  0  0  0  0  0  0  0
    9.0690   -0.6334   -1.1003 C   0  0  0  0  0  0  0  0  0  0  0  0
    7.3786   -0.6524   -1.3514 S   0  0  0  0  0  0  0  0  0  0  0  0
    2.6854    0.2754    1.2165 C   0  0  0  0  0  0  0  0  0  0  0  0
    1.2880    0.3471    1.2999 C   0  0  0  0  0  0  0  0  0  0  0  0
   -3.3321    0.0743   -0.1234 C   0  0  0  0  0  0  0  0  0  0  0  0
   -3.7152    0.4734    1.1630 C   0  0  0  0  0  0  0  0  0  0  0  0
   -5.0705    0.6163    1.4881 C   0  0  0  0  0  0  0  0  0  0  0  0
   -6.0724    0.3650    0.5398 C   0  0  0  0  0  0  0  0  0  0  0  0
   -7.4339    0.5051    0.8548 C   0  0  0  0  0  0  0  0  0  0  0  0
   -8.4167    0.2504   -0.1030 C   0  0  0  0  0  0  0  0  0  0  0  0
   -8.0510   -0.1469   -1.3855 C   0  0  0  0  0  0  0  0  0  0  0  0
   -6.7018   -0.2902   -1.7129 C   0  0  0  0  0  0  0  0  0  0  0  0
   -5.7011   -0.0378   -0.7605 C   0  0  0  0  0  0  0  0  0  0  0  0
   -4.3379   -0.1773   -1.0736 C   0  0  0  0  0  0  0  0  0  0  0  0
   -1.1975    0.4296    1.2979 H   0  0  0  0  0  0  0  0  0  0  0  0
    0.5295   -0.5824   -1.8810 H   0  0  0  0  0  0  0  0  0  0  0  0
    2.9386   -0.7058   -2.0239 H   0  0  0  0  0  0  0  0  0  0  0  0
    5.0136   -0.4879   -1.0669 H   0  0  0  0  0  0  0  0  0  0  0  0
    8.2589    0.3260    2.0052 H   0  0  0  0  0  0  0  0  0  0  0  0
   10.4145   -0.1848    0.5437 H   0  0  0  0  0  0  0  0  0  0  0  0
    9.7429   -0.8973   -1.9042 H   0  0  0  0  0  0  0  0  0  0  0  0
    3.2571    0.5231    2.1052 H   0  0  0  0  0  0  0  0  0  0  0  0
    0.8485    0.6464    2.2479 H   0  0  0  0  0  0  0  0  0  0  0  0
   -2.9998    0.6852    1.9482 H   0  0  0  0  0  0  0  0  0  0  0  0
   -5.3395    0.9278    2.4958 H   0  0  0  0  0  0  0  0  0  0  0  0
   -7.7403    0.8146    1.8515 H   0  0  0  0  0  0  0  0  0  0  0  0
   -9.4671    0.3624    0.1530 H   0  0  0  0  0  0  0  0  0  0  0  0
   -8.8147   -0.3458   -2.1330 H   0  0  0  0  0  0  0  0  0  0  0  0
   -6.4353   -0.6018   -2.7209 H   0  0  0  0  0  0  0  0  0  0  0  0
   -4.0546   -0.4886   -2.0790 H   0  0  0  0  0  0  0  0  0  0  0  0
  1  2  2  0
  2  3  1  0
  3  4  1  0
  4  5  2  0
  5  6  1  0
  6  7  2  0
  7  8  1  0
  8  9  1  0
  9 10  2  0
  9 11  1  0
 11 12  2  0
 12 13  1  0
 13 14  2  0
 14 15  1  0
  7 16  1  0
 16 17  2  0
  2 18  1  0
 18 19  2  0
 19 20  1  0
 20 21  2  0
 21 22  1  0
 22 23  2  0
 23 24  1  0
 24 25  2  0
 25 26  1  0
 26 27  2  0
 17  4  1  0
 27 18  1  0
 15 11  1  0
 26 21  1  0
  3 28  1  0
  5 29  1  0
  6 30  1  0
  8 31  1  0
 12 32  1  0
 13 33  1  0
 14 34  1  0
 16 35  1  0
 17 36  1  0
 19 37  1  0
 20 38  1  0
 22 39  1  0
 23 40  1  0
 24 41  1  0
 25 42  1  0
 27 43  1  0
M  END
$$$$
