
     RDKit          3D

 44 46  0  0  0  0  0  0  0  0999 V2000
   -6.8670    1.2078    0.3258 C   0  0  0  0  0  0  0  0  0  0  0  0
   -5.4348    0.8330    0.0804 C   0  0  0  0  0  0  0  0  0  0  0  0
   -5.0907   -0.4920   -0.2145 C   0  0  0  0  0  0  0  0  0  0  0  0
   -3.7607   -0.8528   -0.4742 C   0  0  0  0  0  0  0  0  0  0  0  0
   -3.4324   -2.2881   -0.7701 C   0  0  0  0  0  0  0  0  0  0  0  0
   -2.7820    0.1523   -0.4894 C   0  0  0  0  0  0  0  0  0  0  0  0
   -1.4773   -0.1754   -0.7622 O   0  0  0  0  0  0  0  0  0  0  0  0
   -1.2262   -0.0860   -2.1692 C   0  0  0  0  0  0  0  0  0  0  0  0
    0.2714   -0.1991   -2.4675 C   0  0  0  0  0  0  0  0  0  0  0  0
    0.6688   -0.2256   -3.6292 O   0  0  0  0  0  0  0  0  0  0  0  0
    1.0362   -0.2509   -1.3262 N   0  0  0  0  0  0  0  0  0  0  0  0
    2.3975   -0.3319   -1.2271 C   0  0  0  0  0  0  0  0  0  0  0  0
    2.9852   -0.3900   -0.0575 N   0  0  0  0  0  0  0  0  0  0  0  0
    4.3656   -0.4590   -0.2170 C   0  0  0  0  0  0  0  0  0  0  0  0
    5.2723   -0.5207    0.9293 C   0  0  0  0  0  0  0  0  0  0  0  0
    6.4874   -1.2011    0.8693 C   0  0  0  0  0  0  0  0  0  0  0  0
    7.3033   -1.2223    1.9992 C   0  0  0  0  0  0  0  0  0  0  0  0
    6.8868   -0.5697    3.1525 C   0  0  0  0  0  0  0  0  0  0  0  0
    5.6646    0.0791    3.1300 C   0  0  0  0  0  0  0  0  0  0  0  0
    4.8545    0.1178    2.0508 N   0  0  0  0  0  0  0  0  0  0  0  0
    4.7858   -0.4472   -1.5347 C   0  0  0  0  0  0  0  0  0  0  0  0
    3.4292   -0.3597   -2.5796 S   0  0  0  0  0  0  0  0  0  0  0  0
   -3.0962    1.4805   -0.1600 C   0  0  0  0  0  0  0  0  0  0  0  0
   -2.0469    2.5548   -0.1251 C   0  0  0  0  0  0  0  0  0  0  0  0
   -4.4338    1.8119    0.0978 C   0  0  0  0  0  0  0  0  0  0  0  0
   -7.4133    0.3804    0.7906 H   0  0  0  0  0  0  0  0  0  0  0  0
   -7.3529    1.4661   -0.6200 H   0  0  0  0  0  0  0  0  0  0  0  0
   -6.9366    2.0639    1.0052 H   0  0  0  0  0  0  0  0  0  0  0  0
   -5.8677   -1.2545   -0.2337 H   0  0  0  0  0  0  0  0  0  0  0  0
   -2.4419   -2.5550   -0.3876 H   0  0  0  0  0  0  0  0  0  0  0  0
   -4.1497   -2.9608   -0.2876 H   0  0  0  0  0  0  0  0  0  0  0  0
   -3.4611   -2.4660   -1.8492 H   0  0  0  0  0  0  0  0  0  0  0  0
   -1.7264   -0.9096   -2.6905 H   0  0  0  0  0  0  0  0  0  0  0  0
   -1.5641    0.8757   -2.5736 H   0  0  0  0  0  0  0  0  0  0  0  0
    0.5557   -0.2390   -0.4328 H   0  0  0  0  0  0  0  0  0  0  0  0
    6.8009   -1.7246   -0.0269 H   0  0  0  0  0  0  0  0  0  0  0  0
    8.2532   -1.7492    1.9799 H   0  0  0  0  0  0  0  0  0  0  0  0
    7.4964   -0.5697    4.0490 H   0  0  0  0  0  0  0  0  0  0  0  0
    5.2905    0.6021    4.0057 H   0  0  0  0  0  0  0  0  0  0  0  0
    5.7883   -0.4705   -1.9352 H   0  0  0  0  0  0  0  0  0  0  0  0
   -2.3694    3.4012    0.4905 H   0  0  0  0  0  0  0  0  0  0  0  0
   -1.8484    2.9200   -1.1372 H   0  0  0  0  0  0  0  0  0  0  0  0
   -1.1154    2.1798    0.3117 H   0  0  0  0  0  0  0  0  0  0  0  0
   -4.6987    2.8440    0.3216 H   0  0  0  0  0  0  0  0  0  0  0  0
  1  2  1  0
  2  3  2  0
  3  4  1  0
  4  5  1  0
  4  6  2  0
  6  7  1  0
  7  8  1  0
  8  9  1  0
  9 10  2  0
  9 11  1  0
 11 12  1  0
 12 13  2  0
 13 14  1  0
 14 15  1  0
 15 16  2  0
 16 17  1  0
 17 18  2  0
 18 19  1  0
 19 20  2  0
 14 21  2  0
 21 22  1  0
  6 23  1  0
 23 24  1  0
 23 25  2  0
 25  2  1  0
 22 12  1  0
 20 15  1  0
  1 26  1  0
  1 27  1  0
  1 28  1  0
  3 29  1  0
  5 30  1  0
  5 31  1  0
  5 32  1  0
  8 33  1  0
  8 34  1  0
 11 35  1  0
 16 36  1  0
 17 37  1  0
 18 38  1  0
 19 39  1  0
 21 40  1  0
 24 41  1  0
 24 42  1  0
 24 43  1  0
 25 44  1  0
M  END
$$$$
