
     RDKit          3D

 54 56  0  0  0  0  0  0  0  0999 V2000
    7.2961    2.4420    0.4344 C   0  0  0  0  0  0  0  0  0  0  0  0
    7.1932    1.0431    0.6667 O   0  0  0  0  0  0  0  0  0  0  0  0
    5.9387    0.5015    0.6103 C   0  0  0  0  0  0  0  0  0  0  0  0
    4.7731    1.1700    0.2410 C   0  0  0  0  0  0  0  0  0  0  0  0
    3.5492    0.4922    0.2189 C   0  0  0  0  0  0  0  0  0  0  0  0
    3.4726   -0.8637    0.5618 C   0  0  0  0  0  0  0  0  0  0  0  0
    2.1509   -1.5907    0.5218 C   0  0  0  0  0  0  0  0  0  0  0  0
    2.0761   -2.6828   -0.5551 C   0  0  0  0  0  0  0  0  0  0  0  0
    2.2410   -2.1805   -1.9944 C   0  0  0  0  0  0  0  0  0  0  0  0
    1.1282   -1.2960   -2.4161 C   0  0  0  0  0  0  0  0  0  0  0  0
   -0.0916   -1.6053   -2.8010 N   0  0  0  0  0  0  0  0  0  0  0  0
   -0.7218   -0.4115   -3.0789 N   0  0  0  0  0  0  0  0  0  0  0  0
    0.1526    0.5446   -2.8360 C   0  0  0  0  0  0  0  0  0  0  0  0
   -0.1598    2.2372   -3.0338 S   0  0  0  0  0  0  0  0  0  0  0  0
   -1.9610    2.2170   -3.2463 C   0  0  0  0  0  0  0  0  0  0  0  0
   -2.6495    2.0744   -1.8957 C   0  0  0  0  0  0  0  0  0  0  0  0
   -2.8068    3.0585   -1.1752 O   0  0  0  0  0  0  0  0  0  0  0  0
   -3.0465    0.7801   -1.6060 N   0  0  0  0  0  0  0  0  0  0  0  0
   -3.7759    0.3241   -0.4766 C   0  0  0  0  0  0  0  0  0  0  0  0
   -4.2755    1.1831    0.5107 C   0  0  0  0  0  0  0  0  0  0  0  0
   -5.0051    0.6980    1.6169 C   0  0  0  0  0  0  0  0  0  0  0  0
   -5.5308    1.6790    2.6361 C   0  0  0  0  0  0  0  0  0  0  0  0
   -5.2359   -0.6829    1.7444 C   0  0  0  0  0  0  0  0  0  0  0  0
   -6.0088   -1.2478    2.9052 C   0  0  0  0  0  0  0  0  0  0  0  0
   -4.7495   -1.5471    0.7520 C   0  0  0  0  0  0  0  0  0  0  0  0
   -4.0338   -1.0495   -0.3435 C   0  0  0  0  0  0  0  0  0  0  0  0
   -3.4520   -2.3080   -1.6501 Br  0  0  0  0  0  0  0  0  0  0  0  0
    1.3571    0.0513   -2.4133 O   0  0  0  0  0  0  0  0  0  0  0  0
    4.6454   -1.5280    0.9401 C   0  0  0  0  0  0  0  0  0  0  0  0
    5.8660   -0.8490    0.9577 C   0  0  0  0  0  0  0  0  0  0  0  0
    7.0007    2.6944   -0.5904 H   0  0  0  0  0  0  0  0  0  0  0  0
    6.7116    3.0086    1.1674 H   0  0  0  0  0  0  0  0  0  0  0  0
    8.3464    2.7245    0.5572 H   0  0  0  0  0  0  0  0  0  0  0  0
    4.7785    2.2180   -0.0407 H   0  0  0  0  0  0  0  0  0  0  0  0
    2.6543    1.0373   -0.0751 H   0  0  0  0  0  0  0  0  0  0  0  0
    1.3272   -0.8764    0.3914 H   0  0  0  0  0  0  0  0  0  0  0  0
    1.9858   -2.0504    1.5065 H   0  0  0  0  0  0  0  0  0  0  0  0
    1.1099   -3.1956   -0.4556 H   0  0  0  0  0  0  0  0  0  0  0  0
    2.8487   -3.4405   -0.3626 H   0  0  0  0  0  0  0  0  0  0  0  0
    3.2032   -1.6726   -2.1248 H   0  0  0  0  0  0  0  0  0  0  0  0
    2.2618   -3.0485   -2.6671 H   0  0  0  0  0  0  0  0  0  0  0  0
   -2.2736    3.1738   -3.6781 H   0  0  0  0  0  0  0  0  0  0  0  0
   -2.2836    1.4404   -3.9480 H   0  0  0  0  0  0  0  0  0  0  0  0
   -2.7238    0.0397   -2.2318 H   0  0  0  0  0  0  0  0  0  0  0  0
   -4.1166    2.2567    0.4442 H   0  0  0  0  0  0  0  0  0  0  0  0
   -5.1110    1.4661    3.6306 H   0  0  0  0  0  0  0  0  0  0  0  0
   -6.6295    1.6261    2.6806 H   0  0  0  0  0  0  0  0  0  0  0  0
   -5.2603    2.7098    2.3759 H   0  0  0  0  0  0  0  0  0  0  0  0
   -5.5549   -0.9429    3.8544 H   0  0  0  0  0  0  0  0  0  0  0  0
   -7.0493   -0.9072    2.8703 H   0  0  0  0  0  0  0  0  0  0  0  0
   -6.0157   -2.3437    2.8880 H   0  0  0  0  0  0  0  0  0  0  0  0
   -4.9354   -2.6165    0.8282 H   0  0  0  0  0  0  0  0  0  0  0  0
    4.6202   -2.5782    1.2258 H   0  0  0  0  0  0  0  0  0  0  0  0
    6.7694   -1.3762    1.2476 H   0  0  0  0  0  0  0  0  0  0  0  0
  1  2  1  0
  2  3  1  0
  3  4  2  0
  4  5  1  0
  5  6  2  0
  6  7  1  0
  7  8  1  0
  8  9  1  0
  9 10  1  0
 10 11  2  0
 11 12  1  0
 12 13  2  0
 13 14  1  0
 14 15  1  0
 15 16  1  0
 16 17  2  0
 16 18  1  0
 18 19  1  0
 19 20  2  0
 20 21  1  0
 21 22  1  0
 21 23  2  0
 23 24  1  0
 23 25  1  0
 25 26  2  0
 26 27  1  0
 13 28  1  0
  6 29  1  0
 29 30  2  0
 30  3  1  0
 28 10  1  0
 26 19  1  0
  1 31  1  0
  1 32  1  0
  1 33  1  0
  4 34  1  0
  5 35  1  0
  7 36  1  0
  7 37  1  0
  8 38  1  0
  8 39  1  0
  9 40  1  0
  9 41  1  0
 15 42  1  0
 15 43  1  0
 18 44  1  0
 20 45  1  0
 22 46  1  0
 22 47  1  0
 22 48  1  0
 24 49  1  0
 24 50  1  0
 24 51  1  0
 25 52  1  0
 29 53  1  0
 30 54  1  0
M  END
$$$$
