
     RDKit          3D

 40 42  0  0  0  0  0  0  0  0999 V2000
   -2.5139   -0.7603    1.6056 C   0  0  0  0  0  0  0  0  0  0  0  0
   -2.9327   -0.4166    0.2443 N   0  0  0  0  0  0  0  0  0  0  0  0
   -2.0459   -0.6122   -0.8319 C   0  0  0  0  0  0  0  0  0  0  0  0
   -2.3599   -0.8882   -1.9882 O   0  0  0  0  0  0  0  0  0  0  0  0
   -0.5884   -0.4757   -0.5741 C   0  0  0  0  0  0  0  0  0  0  0  0
    0.2870   -1.4337   -1.0898 C   0  0  0  0  0  0  0  0  0  0  0  0
    1.6626   -1.3052   -0.8766 C   0  0  0  0  0  0  0  0  0  0  0  0
    2.1778   -0.2157   -0.1601 C   0  0  0  0  0  0  0  0  0  0  0  0
    3.5729   -0.1664    0.0104 N   0  0  0  0  0  0  0  0  0  0  0  0
    4.3260    0.7775    0.6867 C   0  0  0  0  0  0  0  0  0  0  0  0
    3.8791    1.7538    1.2795 O   0  0  0  0  0  0  0  0  0  0  0  0
    5.7498    0.4931    0.6349 C   0  0  0  0  0  0  0  0  0  0  0  0
    6.8332    1.1688    1.1642 C   0  0  0  0  0  0  0  0  0  0  0  0
    7.9887    0.4364    0.8020 C   0  0  0  0  0  0  0  0  0  0  0  0
    7.5456   -0.6423    0.0744 C   0  0  0  0  0  0  0  0  0  0  0  0
    6.1919   -0.6216   -0.0345 O   0  0  0  0  0  0  0  0  0  0  0  0
    1.2962    0.7519    0.3290 C   0  0  0  0  0  0  0  0  0  0  0  0
   -0.0819    0.6300    0.1161 C   0  0  0  0  0  0  0  0  0  0  0  0
   -4.3122   -0.0301    0.0407 C   0  0  0  0  0  0  0  0  0  0  0  0
   -5.2341   -0.0208    1.1041 C   0  0  0  0  0  0  0  0  0  0  0  0
   -6.5659    0.3749    0.9210 C   0  0  0  0  0  0  0  0  0  0  0  0
   -7.0075    0.7842   -0.3305 C   0  0  0  0  0  0  0  0  0  0  0  0
   -6.1146    0.8042   -1.3939 C   0  0  0  0  0  0  0  0  0  0  0  0
   -4.7836    0.4079   -1.2068 C   0  0  0  0  0  0  0  0  0  0  0  0
   -1.4971   -1.1573    1.6457 H   0  0  0  0  0  0  0  0  0  0  0  0
   -2.5714    0.1300    2.2392 H   0  0  0  0  0  0  0  0  0  0  0  0
   -3.1577   -1.5553    1.9963 H   0  0  0  0  0  0  0  0  0  0  0  0
   -0.1000   -2.2754   -1.6601 H   0  0  0  0  0  0  0  0  0  0  0  0
    2.3233   -2.0665   -1.2845 H   0  0  0  0  0  0  0  0  0  0  0  0
    4.1172   -0.9133   -0.4090 H   0  0  0  0  0  0  0  0  0  0  0  0
    6.7799    2.0827    1.7411 H   0  0  0  0  0  0  0  0  0  0  0  0
    9.0177    0.6665    1.0412 H   0  0  0  0  0  0  0  0  0  0  0  0
    8.0422   -1.4721   -0.4100 H   0  0  0  0  0  0  0  0  0  0  0  0
    1.6481    1.6245    0.8709 H   0  0  0  0  0  0  0  0  0  0  0  0
   -0.7491    1.4077    0.4802 H   0  0  0  0  0  0  0  0  0  0  0  0
   -4.9539   -0.3219    2.1080 H   0  0  0  0  0  0  0  0  0  0  0  0
   -7.2547    0.3626    1.7618 H   0  0  0  0  0  0  0  0  0  0  0  0
   -8.0393    1.0911   -0.4762 H   0  0  0  0  0  0  0  0  0  0  0  0
   -6.4434    1.1313   -2.3771 H   0  0  0  0  0  0  0  0  0  0  0  0
   -4.1319    0.4712   -2.0729 H   0  0  0  0  0  0  0  0  0  0  0  0
  1  2  1  0
  2  3  1  0
  3  4  2  0
  3  5  1  0
  5  6  2  0
  6  7  1  0
  7  8  2  0
  8  9  1  0
  9 10  1  0
 10 11  2  0
 10 12  1  0
 12 13  2  0
 13 14  1  0
 14 15  2  0
 15 16  1  0
  8 17  1  0
 17 18  2  0
  2 19  1  0
 19 20  2  0
 20 21  1  0
 21 22  2  0
 22 23  1  0
 23 24  2  0
 18  5  1  0
 24 19  1  0
 16 12  1  0
  1 25  1  0
  1 26  1  0
  1 27  1  0
  6 28  1  0
  7 29  1  0
  9 30  1  0
 13 31  1  0
 14 32  1  0
 15 33  1  0
 17 34  1  0
 18 35  1  0
 20 36  1  0
 21 37  1  0
 22 38  1  0
 23 39  1  0
 24 40  1  0
M  END
$$$$
