
     RDKit          3D

 44 45  0  0  0  0  0  0  0  0999 V2000
   -7.7515   -1.2410    0.9052 C   0  0  0  0  0  0  0  0  0  0  0  0
   -7.6748    0.0711    0.1374 C   0  0  0  0  0  0  0  0  0  0  0  0
   -6.4416    0.8887    0.5078 C   0  0  0  0  0  0  0  0  0  0  0  0
   -5.2670    0.1562    0.1353 O   0  0  0  0  0  0  0  0  0  0  0  0
   -4.1010    0.7843    0.4317 C   0  0  0  0  0  0  0  0  0  0  0  0
   -3.9999    1.8785    0.9620 O   0  0  0  0  0  0  0  0  0  0  0  0
   -2.9393   -0.0514    0.0175 C   0  0  0  0  0  0  0  0  0  0  0  0
   -3.1029   -1.3123   -0.5715 C   0  0  0  0  0  0  0  0  0  0  0  0
   -1.9860   -2.0587   -0.9416 C   0  0  0  0  0  0  0  0  0  0  0  0
   -0.7047   -1.5493   -0.7251 C   0  0  0  0  0  0  0  0  0  0  0  0
   -0.5228   -0.2907   -0.1373 C   0  0  0  0  0  0  0  0  0  0  0  0
    0.8044    0.1409    0.0420 N   0  0  0  0  0  0  0  0  0  0  0  0
    1.2544    1.3279    0.5897 C   0  0  0  0  0  0  0  0  0  0  0  0
    0.5615    2.2411    1.0280 O   0  0  0  0  0  0  0  0  0  0  0  0
    2.7829    1.4352    0.6147 C   0  0  0  0  0  0  0  0  0  0  0  0
    3.3988    0.2733    0.0602 O   0  0  0  0  0  0  0  0  0  0  0  0
    4.7658    0.2518    0.0281 C   0  0  0  0  0  0  0  0  0  0  0  0
    5.6139    1.2626    0.4875 C   0  0  0  0  0  0  0  0  0  0  0  0
    7.0034    1.1138    0.3954 C   0  0  0  0  0  0  0  0  0  0  0  0
    7.5425   -0.0537   -0.1596 C   0  0  0  0  0  0  0  0  0  0  0  0
    8.9991   -0.2110   -0.2567 N   0  0  0  0  0  4  0  0  0  0  0  0
    9.7076    0.7141    0.1647 O   0  0  0  0  0  0  0  0  0  0  0  0
    9.4333   -1.2596   -0.7543 O   0  0  0  0  0  1  0  0  0  0  0  0
    6.7008   -1.0708   -0.6220 C   0  0  0  0  0  0  0  0  0  0  0  0
    5.3159   -0.9103   -0.5246 C   0  0  0  0  0  0  0  0  0  0  0  0
   -1.6457    0.4537    0.2322 C   0  0  0  0  0  0  0  0  0  0  0  0
   -8.6619   -1.7844    0.6331 H   0  0  0  0  0  0  0  0  0  0  0  0
   -6.8956   -1.8852    0.6804 H   0  0  0  0  0  0  0  0  0  0  0  0
   -7.7731   -1.0618    1.9849 H   0  0  0  0  0  0  0  0  0  0  0  0
   -7.6562   -0.1554   -0.9350 H   0  0  0  0  0  0  0  0  0  0  0  0
   -8.5757    0.6609    0.3389 H   0  0  0  0  0  0  0  0  0  0  0  0
   -6.4617    1.8399   -0.0366 H   0  0  0  0  0  0  0  0  0  0  0  0
   -6.4297    1.0874    1.5860 H   0  0  0  0  0  0  0  0  0  0  0  0
   -4.0934   -1.7250   -0.7470 H   0  0  0  0  0  0  0  0  0  0  0  0
   -2.1133   -3.0371   -1.3986 H   0  0  0  0  0  0  0  0  0  0  0  0
    0.1499   -2.1521   -1.0233 H   0  0  0  0  0  0  0  0  0  0  0  0
    1.5418   -0.4872   -0.2651 H   0  0  0  0  0  0  0  0  0  0  0  0
    3.0503    2.3202    0.0258 H   0  0  0  0  0  0  0  0  0  0  0  0
    3.0773    1.5528    1.6640 H   0  0  0  0  0  0  0  0  0  0  0  0
    5.2319    2.1812    0.9235 H   0  0  0  0  0  0  0  0  0  0  0  0
    7.6458    1.9138    0.7594 H   0  0  0  0  0  0  0  0  0  0  0  0
    7.1003   -1.9849   -1.0563 H   0  0  0  0  0  0  0  0  0  0  0  0
    4.6608   -1.7012   -0.8842 H   0  0  0  0  0  0  0  0  0  0  0  0
   -1.5448    1.4337    0.6912 H   0  0  0  0  0  0  0  0  0  0  0  0
  1  2  1  0
  2  3  1  0
  3  4  1  0
  4  5  1  0
  5  6  2  0
  5  7  1  0
  7  8  2  0
  8  9  1  0
  9 10  2  0
 10 11  1  0
 11 12  1  0
 12 13  1  0
 13 14  2  0
 13 15  1  0
 15 16  1  0
 16 17  1  0
 17 18  2  0
 18 19  1  0
 19 20  2  0
 20 21  1  0
 21 22  2  0
 21 23  1  0
 20 24  1  0
 24 25  2  0
 11 26  2  0
 26  7  1  0
 25 17  1  0
  1 27  1  0
  1 28  1  0
  1 29  1  0
  2 30  1  0
  2 31  1  0
  3 32  1  0
  3 33  1  0
  8 34  1  0
  9 35  1  0
 10 36  1  0
 12 37  1  0
 15 38  1  0
 15 39  1  0
 18 40  1  0
 19 41  1  0
 24 42  1  0
 25 43  1  0
 26 44  1  0
M  CHG  2  21   1  23  -1
M  END
$$$$
