
     RDKit          3D

 60 63  0  0  0  0  0  0  0  0999 V2000
   -6.5591    4.4568   -0.9087 C   0  0  0  0  0  0  0  0  0  0  0  0
   -6.3952    3.0437   -0.8363 O   0  0  0  0  0  0  0  0  0  0  0  0
   -5.1525    2.5960   -0.5021 C   0  0  0  0  0  0  0  0  0  0  0  0
   -4.9275    1.2427   -0.7615 C   0  0  0  0  0  0  0  0  0  0  0  0
   -3.6981    0.6506   -0.4688 C   0  0  0  0  0  0  0  0  0  0  0  0
   -2.6820    1.4093    0.1086 C   0  0  0  0  0  0  0  0  0  0  0  0
   -1.4306    0.8128    0.4184 N   0  0  0  0  0  0  0  0  0  0  0  0
   -1.1895   -0.4274    1.0099 C   0  0  0  0  0  0  0  0  0  0  0  0
   -2.2096   -1.3673    1.5765 C   0  0  0  0  0  0  0  0  0  0  0  0
   -2.5025   -2.5625    0.7128 C   0  0  0  0  0  0  0  0  0  0  0  0
   -3.7137   -2.9593    0.1690 C   0  0  0  0  0  0  0  0  0  0  0  0
   -3.4987   -4.1404   -0.5717 C   0  0  0  0  0  0  0  0  0  0  0  0
   -2.1709   -4.4626   -0.4431 C   0  0  0  0  0  0  0  0  0  0  0  0
   -1.5761   -3.5244    0.3607 N   0  0  0  0  0  0  0  0  0  0  0  0
   -0.1874   -3.5885    0.7558 C   0  0  0  0  0  0  0  0  0  0  0  0
    0.1138   -0.5850    1.1730 N   0  0  0  0  0  0  0  0  0  0  0  0
    0.7566    0.4936    0.6530 N   0  0  0  0  0  0  0  0  0  0  0  0
   -0.1570    1.3265    0.2083 C   0  0  0  0  0  0  0  0  0  0  0  0
    0.2198    2.7618   -0.6937 S   0  0  0  0  0  0  0  0  0  0  0  0
    1.7138    2.2249   -1.5734 C   0  0  0  0  0  0  0  0  0  0  0  0
    2.9763    2.5668   -0.8013 C   0  0  0  0  0  0  0  0  0  0  0  0
    3.7214    3.4856   -1.1414 O   0  0  0  0  0  0  0  0  0  0  0  0
    3.2498    1.7349    0.2611 N   0  0  0  0  0  0  0  0  0  0  0  0
    4.5098    1.7749    0.9740 C   0  0  0  0  0  0  0  0  0  0  0  0
    5.6275    1.0348    0.2315 C   0  0  0  0  0  0  0  0  0  0  0  0
    5.3577   -0.4490    0.1096 C   0  0  0  0  0  0  0  0  0  0  0  0
    5.6387   -1.3112    1.1780 C   0  0  0  0  0  0  0  0  0  0  0  0
    5.3558   -2.6733    1.0799 C   0  0  0  0  0  0  0  0  0  0  0  0
    4.7880   -3.1860   -0.0840 C   0  0  0  0  0  0  0  0  0  0  0  0
    4.5014   -2.3380   -1.1509 C   0  0  0  0  0  0  0  0  0  0  0  0
    4.7861   -0.9750   -1.0567 C   0  0  0  0  0  0  0  0  0  0  0  0
   -2.9051    2.7678    0.3722 C   0  0  0  0  0  0  0  0  0  0  0  0
   -4.1365    3.3563    0.0659 C   0  0  0  0  0  0  0  0  0  0  0  0
   -7.5650    4.6566   -1.2819 H   0  0  0  0  0  0  0  0  0  0  0  0
   -5.8477    4.9007   -1.6089 H   0  0  0  0  0  0  0  0  0  0  0  0
   -6.4761    4.9127    0.0800 H   0  0  0  0  0  0  0  0  0  0  0  0
   -5.7166    0.6481   -1.2131 H   0  0  0  0  0  0  0  0  0  0  0  0
   -3.5478   -0.3843   -0.7537 H   0  0  0  0  0  0  0  0  0  0  0  0
   -3.1438   -0.8383    1.8020 H   0  0  0  0  0  0  0  0  0  0  0  0
   -1.8456   -1.7260    2.5501 H   0  0  0  0  0  0  0  0  0  0  0  0
   -4.6575   -2.4444    0.2885 H   0  0  0  0  0  0  0  0  0  0  0  0
   -4.2326   -4.6994   -1.1347 H   0  0  0  0  0  0  0  0  0  0  0  0
   -1.6074   -5.2914   -0.8452 H   0  0  0  0  0  0  0  0  0  0  0  0
    0.1575   -4.6171    0.6654 H   0  0  0  0  0  0  0  0  0  0  0  0
   -0.0889   -3.2746    1.7932 H   0  0  0  0  0  0  0  0  0  0  0  0
    0.3898   -2.9445    0.0884 H   0  0  0  0  0  0  0  0  0  0  0  0
    1.6956    1.1536   -1.8077 H   0  0  0  0  0  0  0  0  0  0  0  0
    1.7548    2.7561   -2.5304 H   0  0  0  0  0  0  0  0  0  0  0  0
    2.6137    0.9634    0.4575 H   0  0  0  0  0  0  0  0  0  0  0  0
    4.3344    1.3404    1.9632 H   0  0  0  0  0  0  0  0  0  0  0  0
    4.7984    2.8236    1.1086 H   0  0  0  0  0  0  0  0  0  0  0  0
    6.5778    1.1808    0.7624 H   0  0  0  0  0  0  0  0  0  0  0  0
    5.7710    1.4667   -0.7674 H   0  0  0  0  0  0  0  0  0  0  0  0
    6.0769   -0.9279    2.0960 H   0  0  0  0  0  0  0  0  0  0  0  0
    5.5771   -3.3324    1.9134 H   0  0  0  0  0  0  0  0  0  0  0  0
    4.5704   -4.2481   -0.1554 H   0  0  0  0  0  0  0  0  0  0  0  0
    4.0532   -2.7378   -2.0577 H   0  0  0  0  0  0  0  0  0  0  0  0
    4.5531   -0.3239   -1.8975 H   0  0  0  0  0  0  0  0  0  0  0  0
   -2.1507    3.3900    0.8517 H   0  0  0  0  0  0  0  0  0  0  0  0
   -4.2684    4.4075    0.2983 H   0  0  0  0  0  0  0  0  0  0  0  0
  1  2  1  0
  2  3  1  0
  3  4  2  0
  4  5  1  0
  5  6  2  0
  6  7  1  0
  7  8  1  0
  8  9  1  0
  9 10  1  0
 10 11  2  0
 11 12  1  0
 12 13  2  0
 13 14  1  0
 14 15  1  0
  8 16  2  0
 16 17  1  0
 17 18  2  0
 18 19  1  0
 19 20  1  0
 20 21  1  0
 21 22  2  0
 21 23  1  0
 23 24  1  0
 24 25  1  0
 25 26  1  0
 26 27  2  0
 27 28  1  0
 28 29  2  0
 29 30  1  0
 30 31  2  0
  6 32  1  0
 32 33  2  0
 33  3  1  0
 18  7  1  0
 31 26  1  0
 14 10  1  0
  1 34  1  0
  1 35  1  0
  1 36  1  0
  4 37  1  0
  5 38  1  0
  9 39  1  0
  9 40  1  0
 11 41  1  0
 12 42  1  0
 13 43  1  0
 15 44  1  0
 15 45  1  0
 15 46  1  0
 20 47  1  0
 20 48  1  0
 23 49  1  0
 24 50  1  0
 24 51  1  0
 25 52  1  0
 25 53  1  0
 27 54  1  0
 28 55  1  0
 29 56  1  0
 30 57  1  0
 31 58  1  0
 32 59  1  0
 33 60  1  0
M  END
$$$$
