
     RDKit          3D

 47 49  0  0  0  0  0  0  0  0999 V2000
   -2.2023   -1.5255   -2.4716 O   0  0  0  0  0  0  0  0  0  0  0  0
   -2.7995   -1.1084   -1.4829 C   0  0  0  0  0  0  0  0  0  0  0  0
   -4.3312   -1.1319   -1.4343 C   0  0  0  0  0  0  0  0  0  0  0  0
   -4.8218   -0.5932   -0.2077 O   0  0  0  0  0  0  0  0  0  0  0  0
   -6.1792   -0.5612   -0.0452 C   0  0  0  0  0  0  0  0  0  0  0  0
   -7.1279   -1.0049   -0.9687 C   0  0  0  0  0  0  0  0  0  0  0  0
   -8.4928   -0.9132   -0.6731 C   0  0  0  0  0  0  0  0  0  0  0  0
   -8.9070   -0.3782    0.5449 C   0  0  0  0  0  0  0  0  0  0  0  0
  -10.7509   -0.2564    0.9395 Br  0  0  0  0  0  0  0  0  0  0  0  0
   -7.9693    0.0668    1.4720 C   0  0  0  0  0  0  0  0  0  0  0  0
   -6.6079   -0.0262    1.1737 C   0  0  0  0  0  0  0  0  0  0  0  0
   -2.2311   -0.5874   -0.3351 N   0  0  0  0  0  0  0  0  0  0  0  0
   -0.8678   -0.4196   -0.0359 C   0  0  0  0  0  0  0  0  0  0  0  0
    0.1701   -0.7838   -0.8953 C   0  0  0  0  0  0  0  0  0  0  0  0
    1.5076   -0.5854   -0.5253 C   0  0  0  0  0  0  0  0  0  0  0  0
    1.8202   -0.0085    0.7108 C   0  0  0  0  0  0  0  0  0  0  0  0
    3.2274    0.2202    1.1588 C   0  0  0  0  0  0  0  0  0  0  0  0
    3.4586    0.2105    2.3625 O   0  0  0  0  0  0  0  0  0  0  0  0
    4.1384    0.4582    0.1483 N   0  0  0  0  0  0  0  0  0  0  0  0
    5.5380    0.6739    0.2538 C   0  0  0  0  0  0  0  0  0  0  0  0
    6.2118    0.6043    1.4798 C   0  0  0  0  0  0  0  0  0  0  0  0
    7.5916    0.8201    1.5588 C   0  0  0  0  0  0  0  0  0  0  0  0
    8.3241    1.1069    0.4130 C   0  0  0  0  0  0  0  0  0  0  0  0
    7.6778    1.1762   -0.8192 C   0  0  0  0  0  0  0  0  0  0  0  0
    6.2907    0.9606   -0.9107 C   0  0  0  0  0  0  0  0  0  0  0  0
    5.6243    1.0307   -2.2407 C   0  0  0  0  0  0  0  0  0  0  0  0
    4.4392    0.8312   -2.4503 O   0  0  0  0  0  0  0  0  0  0  0  0
    6.4597    1.3458   -3.2465 O   0  0  0  0  0  0  0  0  0  0  0  0
    0.7814    0.3425    1.5800 C   0  0  0  0  0  0  0  0  0  0  0  0
   -0.5515    0.1421    1.2066 C   0  0  0  0  0  0  0  0  0  0  0  0
   -4.6867   -0.5304   -2.2789 H   0  0  0  0  0  0  0  0  0  0  0  0
   -4.6379   -2.1794   -1.5357 H   0  0  0  0  0  0  0  0  0  0  0  0
   -6.8460   -1.4276   -1.9278 H   0  0  0  0  0  0  0  0  0  0  0  0
   -9.2222   -1.2620   -1.3999 H   0  0  0  0  0  0  0  0  0  0  0  0
   -8.2831    0.4853    2.4245 H   0  0  0  0  0  0  0  0  0  0  0  0
   -5.8777    0.3222    1.9002 H   0  0  0  0  0  0  0  0  0  0  0  0
   -2.9006   -0.2919    0.3705 H   0  0  0  0  0  0  0  0  0  0  0  0
   -0.0244   -1.2353   -1.8637 H   0  0  0  0  0  0  0  0  0  0  0  0
    2.2835   -0.9127   -1.2126 H   0  0  0  0  0  0  0  0  0  0  0  0
    3.7667    0.5504   -0.7974 H   0  0  0  0  0  0  0  0  0  0  0  0
    5.6902    0.3789    2.4050 H   0  0  0  0  0  0  0  0  0  0  0  0
    8.0893    0.7613    2.5243 H   0  0  0  0  0  0  0  0  0  0  0  0
    9.3964    1.2739    0.4784 H   0  0  0  0  0  0  0  0  0  0  0  0
    8.2675    1.3980   -1.7057 H   0  0  0  0  0  0  0  0  0  0  0  0
    5.8912    1.3573   -4.0450 H   0  0  0  0  0  0  0  0  0  0  0  0
    1.0069    0.7760    2.5528 H   0  0  0  0  0  0  0  0  0  0  0  0
   -1.3338    0.4298    1.9046 H   0  0  0  0  0  0  0  0  0  0  0  0
  1  2  2  0
  2  3  1  0
  3  4  1  0
  4  5  1  0
  5  6  2  0
  6  7  1  0
  7  8  2  0
  8  9  1  0
  8 10  1  0
 10 11  2  0
  2 12  1  0
 12 13  1  0
 13 14  2  0
 14 15  1  0
 15 16  2  0
 16 17  1  0
 17 18  2  0
 17 19  1  0
 19 20  1  0
 20 21  2  0
 21 22  1  0
 22 23  2  0
 23 24  1  0
 24 25  2  0
 25 26  1  0
 26 27  2  0
 26 28  1  0
 16 29  1  0
 29 30  2  0
 11  5  1  0
 30 13  1  0
 25 20  1  0
  3 31  1  0
  3 32  1  0
  6 33  1  0
  7 34  1  0
 10 35  1  0
 11 36  1  0
 12 37  1  0
 14 38  1  0
 15 39  1  0
 19 40  1  0
 21 41  1  0
 22 42  1  0
 23 43  1  0
 24 44  1  0
 28 45  1  0
 29 46  1  0
 30 47  1  0
M  END
$$$$
