
     RDKit          3D

 38 40  0  0  0  0  0  0  0  0999 V2000
    2.1602    2.5459    0.6280 C   0  0  0  0  0  0  0  0  0  0  0  0
    1.1717    1.5923    1.2394 C   0  0  0  0  0  0  0  0  0  0  0  0
   -0.0742    2.0811    1.6644 C   0  0  0  0  0  0  0  0  0  0  0  0
   -1.0146    1.2219    2.2363 C   0  0  0  0  0  0  0  0  0  0  0  0
   -2.2214    1.7212    2.6454 O   0  0  0  0  0  0  0  0  0  0  0  0
   -0.7317   -0.1384    2.4025 C   0  0  0  0  0  0  0  0  0  0  0  0
   -1.8923   -1.2737    3.1422 S   0  0  0  0  0  0  0  0  0  0  0  0
   -3.0419   -1.5360    1.8535 C   0  0  0  0  0  0  0  0  0  0  0  0
   -4.3259   -1.9503    2.1076 N   0  0  0  0  0  0  0  0  0  0  0  0
   -4.8458   -2.0731    0.9110 C   0  0  0  0  0  0  0  0  0  0  0  0
   -3.9103   -1.7606   -0.0205 N   0  0  0  0  0  0  0  0  0  0  0  0
   -2.7433   -1.4247    0.5504 N   0  0  0  0  0  0  0  0  0  0  0  0
    0.5170   -0.6235    1.9971 C   0  0  0  0  0  0  0  0  0  0  0  0
    1.4567    0.2257    1.4045 C   0  0  0  0  0  0  0  0  0  0  0  0
    2.6978   -0.3051    0.9455 N   0  0  0  0  0  0  0  0  0  0  0  0
    2.7251   -1.4840   -0.2620 S   0  0  0  0  0  6  0  0  0  0  0  0
    4.0924   -1.5267   -0.7386 O   0  0  0  0  0  0  0  0  0  0  0  0
    2.0599   -2.6809    0.2026 O   0  0  0  0  0  0  0  0  0  0  0  0
    1.7332   -0.7707   -1.5582 C   0  0  0  0  0  0  0  0  0  0  0  0
    0.3564   -1.0174   -1.5914 C   0  0  0  0  0  0  0  0  0  0  0  0
   -0.4192   -0.4555   -2.6065 C   0  0  0  0  0  0  0  0  0  0  0  0
    0.1857    0.3270   -3.5901 C   0  0  0  0  0  0  0  0  0  0  0  0
   -0.7756    1.0196   -4.8375 Cl  0  0  0  0  0  0  0  0  0  0  0  0
    1.5634    0.5503   -3.5727 C   0  0  0  0  0  0  0  0  0  0  0  0
    2.3447   -0.0037   -2.5560 C   0  0  0  0  0  0  0  0  0  0  0  0
    1.7428    3.5539    0.5330 H   0  0  0  0  0  0  0  0  0  0  0  0
    3.0547    2.6159    1.2551 H   0  0  0  0  0  0  0  0  0  0  0  0
    2.4434    2.2154   -0.3756 H   0  0  0  0  0  0  0  0  0  0  0  0
   -0.3054    3.1363    1.5444 H   0  0  0  0  0  0  0  0  0  0  0  0
   -2.2614    2.6724    2.4601 H   0  0  0  0  0  0  0  0  0  0  0  0
   -5.8540   -2.3771    0.6693 H   0  0  0  0  0  0  0  0  0  0  0  0
   -3.9906   -1.7613   -1.0306 H   0  0  0  0  0  0  0  0  0  0  0  0
    0.7528   -1.6758    2.1430 H   0  0  0  0  0  0  0  0  0  0  0  0
    3.5084    0.3084    0.9036 H   0  0  0  0  0  0  0  0  0  0  0  0
   -0.1204   -1.6315   -0.8288 H   0  0  0  0  0  0  0  0  0  0  0  0
   -1.4909   -0.6322   -2.6211 H   0  0  0  0  0  0  0  0  0  0  0  0
    2.0330    1.1500   -4.3485 H   0  0  0  0  0  0  0  0  0  0  0  0
    3.4194    0.1649   -2.5505 H   0  0  0  0  0  0  0  0  0  0  0  0
  1  2  1  0
  2  3  2  0
  3  4  1  0
  4  5  1  0
  4  6  2  0
  6  7  1  0
  7  8  1  0
  8  9  1  0
  9 10  2  0
 10 11  1  0
 11 12  1  0
  6 13  1  0
 13 14  2  0
 14 15  1  0
 15 16  1  0
 16 17  2  0
 16 18  2  0
 16 19  1  0
 19 20  2  0
 20 21  1  0
 21 22  2  0
 22 23  1  0
 22 24  1  0
 24 25  2  0
 14  2  1  0
 25 19  1  0
 12  8  2  0
  1 26  1  0
  1 27  1  0
  1 28  1  0
  3 29  1  0
  5 30  1  0
 10 31  1  0
 11 32  1  0
 13 33  1  0
 15 34  1  0
 20 35  1  0
 21 36  1  0
 24 37  1  0
 25 38  1  0
M  END
$$$$
