
     RDKit          3D

 60 63  0  0  0  0  0  0  0  0999 V2000
   -5.9374    4.9130    1.1714 C   0  0  0  0  0  0  0  0  0  0  0  0
   -5.3624    4.4416   -0.0429 O   0  0  0  0  0  0  0  0  0  0  0  0
   -4.3815    3.4949    0.0698 C   0  0  0  0  0  0  0  0  0  0  0  0
   -4.1145    2.7777   -1.0990 C   0  0  0  0  0  0  0  0  0  0  0  0
   -3.1363    1.7761   -1.1206 C   0  0  0  0  0  0  0  0  0  0  0  0
   -2.4050    1.4937    0.0370 C   0  0  0  0  0  0  0  0  0  0  0  0
   -1.4160    0.4739    0.0360 N   0  0  0  0  0  0  0  0  0  0  0  0
   -1.2143   -0.5120    1.0015 C   0  0  0  0  0  0  0  0  0  0  0  0
   -2.1360   -0.8439    2.1327 C   0  0  0  0  0  0  0  0  0  0  0  0
   -3.4177   -1.4644    1.6577 C   0  0  0  0  0  0  0  0  0  0  0  0
   -4.6937   -0.9303    1.6412 C   0  0  0  0  0  0  0  0  0  0  0  0
   -5.5598   -1.8897    1.0711 C   0  0  0  0  0  0  0  0  0  0  0  0
   -4.7997   -2.9897    0.7563 C   0  0  0  0  0  0  0  0  0  0  0  0
   -3.5062   -2.7365    1.1303 N   0  0  0  0  0  0  0  0  0  0  0  0
   -2.4224   -3.6807    0.9551 C   0  0  0  0  0  0  0  0  0  0  0  0
   -0.1667   -1.2455    0.6734 N   0  0  0  0  0  0  0  0  0  0  0  0
    0.2939   -0.8209   -0.5392 N   0  0  0  0  0  0  0  0  0  0  0  0
   -0.4533    0.1900   -0.9241 C   0  0  0  0  0  0  0  0  0  0  0  0
   -0.1249    1.1360   -2.3396 S   0  0  0  0  0  0  0  0  0  0  0  0
    0.7643   -0.0613   -3.3698 C   0  0  0  0  0  0  0  0  0  0  0  0
    2.2699    0.0229   -3.1801 C   0  0  0  0  0  0  0  0  0  0  0  0
    3.0164    0.3566   -4.0985 O   0  0  0  0  0  0  0  0  0  0  0  0
    2.7298   -0.3582   -1.9390 N   0  0  0  0  0  0  0  0  0  0  0  0
    4.1388   -0.5749   -1.6766 C   0  0  0  0  0  0  0  0  0  0  0  0
    4.4995   -0.2686   -0.2219 C   0  0  0  0  0  0  0  0  0  0  0  0
    5.9387   -0.6150    0.0650 C   0  0  0  0  0  0  0  0  0  0  0  0
    6.2733   -1.8616    0.6130 C   0  0  0  0  0  0  0  0  0  0  0  0
    7.6106   -2.2034    0.8299 C   0  0  0  0  0  0  0  0  0  0  0  0
    8.6251   -1.3032    0.5022 C   0  0  0  0  0  0  0  0  0  0  0  0
    8.3033   -0.0599   -0.0387 C   0  0  0  0  0  0  0  0  0  0  0  0
    6.9651    0.2828   -0.2605 C   0  0  0  0  0  0  0  0  0  0  0  0
   -2.6534    2.2299    1.2041 C   0  0  0  0  0  0  0  0  0  0  0  0
   -3.6401    3.2257    1.2185 C   0  0  0  0  0  0  0  0  0  0  0  0
   -5.2326    5.5495    1.7141 H   0  0  0  0  0  0  0  0  0  0  0  0
   -6.8073    5.5211    0.9124 H   0  0  0  0  0  0  0  0  0  0  0  0
   -6.2865    4.0828    1.7924 H   0  0  0  0  0  0  0  0  0  0  0  0
   -4.6861    2.9928   -1.9997 H   0  0  0  0  0  0  0  0  0  0  0  0
   -3.0035    1.2117   -2.0409 H   0  0  0  0  0  0  0  0  0  0  0  0
   -2.3442    0.0325    2.7525 H   0  0  0  0  0  0  0  0  0  0  0  0
   -1.6290   -1.5462    2.8085 H   0  0  0  0  0  0  0  0  0  0  0  0
   -4.9746    0.0551    1.9889 H   0  0  0  0  0  0  0  0  0  0  0  0
   -6.6233   -1.7877    0.9019 H   0  0  0  0  0  0  0  0  0  0  0  0
   -5.0760   -3.9310    0.3006 H   0  0  0  0  0  0  0  0  0  0  0  0
   -1.8843   -3.4113    0.0472 H   0  0  0  0  0  0  0  0  0  0  0  0
   -2.8370   -4.6869    0.8579 H   0  0  0  0  0  0  0  0  0  0  0  0
   -1.7704   -3.6528    1.8283 H   0  0  0  0  0  0  0  0  0  0  0  0
    0.5489    0.1790   -4.4139 H   0  0  0  0  0  0  0  0  0  0  0  0
    0.4221   -1.0884   -3.1997 H   0  0  0  0  0  0  0  0  0  0  0  0
    2.0505   -0.7363   -1.2743 H   0  0  0  0  0  0  0  0  0  0  0  0
    4.3387   -1.6261   -1.9157 H   0  0  0  0  0  0  0  0  0  0  0  0
    4.7446    0.0334   -2.3621 H   0  0  0  0  0  0  0  0  0  0  0  0
    4.3233    0.7925   -0.0017 H   0  0  0  0  0  0  0  0  0  0  0  0
    3.8377   -0.8242    0.4594 H   0  0  0  0  0  0  0  0  0  0  0  0
    5.4940   -2.5779    0.8655 H   0  0  0  0  0  0  0  0  0  0  0  0
    7.8636   -3.1758    1.2468 H   0  0  0  0  0  0  0  0  0  0  0  0
    9.6668   -1.5740    0.6631 H   0  0  0  0  0  0  0  0  0  0  0  0
    9.0946    0.6432   -0.2961 H   0  0  0  0  0  0  0  0  0  0  0  0
    6.7331    1.2509   -0.6995 H   0  0  0  0  0  0  0  0  0  0  0  0
   -2.0617    2.0880    2.1044 H   0  0  0  0  0  0  0  0  0  0  0  0
   -3.7887    3.7912    2.1338 H   0  0  0  0  0  0  0  0  0  0  0  0
  1  2  1  0
  2  3  1  0
  3  4  2  0
  4  5  1  0
  5  6  2  0
  6  7  1  0
  7  8  1  0
  8  9  1  0
  9 10  1  0
 10 11  2  0
 11 12  1  0
 12 13  2  0
 13 14  1  0
 14 15  1  0
  8 16  2  0
 16 17  1  0
 17 18  2  0
 18 19  1  0
 19 20  1  0
 20 21  1  0
 21 22  2  0
 21 23  1  0
 23 24  1  0
 24 25  1  0
 25 26  1  0
 26 27  2  0
 27 28  1  0
 28 29  2  0
 29 30  1  0
 30 31  2  0
  6 32  1  0
 32 33  2  0
 33  3  1  0
 18  7  1  0
 31 26  1  0
 14 10  1  0
  1 34  1  0
  1 35  1  0
  1 36  1  0
  4 37  1  0
  5 38  1  0
  9 39  1  0
  9 40  1  0
 11 41  1  0
 12 42  1  0
 13 43  1  0
 15 44  1  0
 15 45  1  0
 15 46  1  0
 20 47  1  0
 20 48  1  0
 23 49  1  0
 24 50  1  0
 24 51  1  0
 25 52  1  0
 25 53  1  0
 27 54  1  0
 28 55  1  0
 29 56  1  0
 30 57  1  0
 31 58  1  0
 32 59  1  0
 33 60  1  0
M  END
$$$$
