
     RDKit          3D

 38 38  0  0  0  0  0  0  0  0999 V2000
    4.7089   -1.2437   -3.8117 C   0  0  0  0  0  0  0  0  0  0  0  0
    4.6251   -1.1353   -2.3009 C   0  0  0  0  0  0  0  0  0  0  0  0
    3.3044   -0.7356   -1.9073 O   0  0  0  0  0  0  0  0  0  0  0  0
    3.0855    0.6071   -1.8469 C   0  0  0  0  0  0  0  0  0  0  0  0
    3.8853    1.4735   -2.1761 O   0  0  0  0  0  0  0  0  0  0  0  0
    1.6854    0.8940   -1.3936 C   0  0  0  0  0  0  0  0  0  0  0  0
    1.4092    0.4721    0.0259 C   0  0  0  0  0  0  0  0  0  0  0  0
    2.3060    0.1821    0.8148 O   0  0  0  0  0  0  0  0  0  0  0  0
   -0.0096    0.4225    0.4981 C   0  0  0  0  0  0  0  0  0  0  0  0
   -1.0601    0.9870   -0.2397 C   0  0  0  0  0  0  0  0  0  0  0  0
   -2.3714    0.9132    0.2376 C   0  0  0  0  0  0  0  0  0  0  0  0
   -3.4665    1.4233   -0.4106 O   0  0  0  0  0  0  0  0  0  0  0  0
   -3.2354    2.3417   -1.4701 C   0  0  0  0  0  0  0  0  0  0  0  0
   -2.6210    0.2520    1.4528 C   0  0  0  0  0  0  0  0  0  0  0  0
   -3.9079    0.2155    1.9431 O   0  0  0  0  0  0  0  0  0  0  0  0
   -4.5544   -0.9838    1.5203 C   0  0  0  0  0  0  0  0  0  0  0  0
   -1.5753   -0.2907    2.2172 C   0  0  0  0  0  0  0  0  0  0  0  0
   -1.9295   -0.8854    3.3999 O   0  0  0  0  0  0  0  0  0  0  0  0
   -0.8798   -1.2721    4.2775 C   0  0  0  0  0  0  0  0  0  0  0  0
   -0.2719   -0.2069    1.7262 C   0  0  0  0  0  0  0  0  0  0  0  0
    3.9470   -1.9329   -4.1904 H   0  0  0  0  0  0  0  0  0  0  0  0
    5.6946   -1.6027   -4.1208 H   0  0  0  0  0  0  0  0  0  0  0  0
    4.5252   -0.2745   -4.2859 H   0  0  0  0  0  0  0  0  0  0  0  0
    4.8102   -2.1159   -1.8504 H   0  0  0  0  0  0  0  0  0  0  0  0
    5.3842   -0.4508   -1.9050 H   0  0  0  0  0  0  0  0  0  0  0  0
    1.0074    0.3862   -2.0879 H   0  0  0  0  0  0  0  0  0  0  0  0
    1.5217    1.9747   -1.4711 H   0  0  0  0  0  0  0  0  0  0  0  0
   -0.8560    1.4845   -1.1797 H   0  0  0  0  0  0  0  0  0  0  0  0
   -2.8057    1.8334   -2.3392 H   0  0  0  0  0  0  0  0  0  0  0  0
   -2.6022    3.1746   -1.1464 H   0  0  0  0  0  0  0  0  0  0  0  0
   -4.2025    2.7555   -1.7714 H   0  0  0  0  0  0  0  0  0  0  0  0
   -5.5752   -0.9701    1.9139 H   0  0  0  0  0  0  0  0  0  0  0  0
   -4.0513   -1.8716    1.9184 H   0  0  0  0  0  0  0  0  0  0  0  0
   -4.6148   -1.0410    0.4279 H   0  0  0  0  0  0  0  0  0  0  0  0
   -1.3356   -1.6362    5.2033 H   0  0  0  0  0  0  0  0  0  0  0  0
   -0.2405   -0.4206    4.5336 H   0  0  0  0  0  0  0  0  0  0  0  0
   -0.2949   -2.0929    3.8501 H   0  0  0  0  0  0  0  0  0  0  0  0
    0.5617   -0.6303    2.2799 H   0  0  0  0  0  0  0  0  0  0  0  0
  1  2  1  0
  2  3  1  0
  3  4  1  0
  4  5  2  0
  4  6  1  0
  6  7  1  0
  7  8  2  0
  7  9  1  0
  9 10  2  0
 10 11  1  0
 11 12  1  0
 12 13  1  0
 11 14  2  0
 14 15  1  0
 15 16  1  0
 14 17  1  0
 17 18  1  0
 18 19  1  0
 17 20  2  0
 20  9  1  0
  1 21  1  0
  1 22  1  0
  1 23  1  0
  2 24  1  0
  2 25  1  0
  6 26  1  0
  6 27  1  0
 10 28  1  0
 13 29  1  0
 13 30  1  0
 13 31  1  0
 16 32  1  0
 16 33  1  0
 16 34  1  0
 19 35  1  0
 19 36  1  0
 19 37  1  0
 20 38  1  0
M  END
$$$$
