
     RDKit          3D

 33 34  0  0  0  0  0  0  0  0999 V2000
   -1.7651    4.1942    0.4439 C   0  0  0  0  0  0  0  0  0  0  0  0
   -0.9906    3.0227    0.1870 O   0  0  0  0  0  0  0  0  0  0  0  0
   -0.5115    2.4373    1.3104 C   0  0  0  0  0  0  0  0  0  0  0  0
   -0.5655    2.8532    2.4539 O   0  0  0  0  0  0  0  0  0  0  0  0
    0.2503    1.2472    0.9147 C   0  0  0  0  0  0  0  0  0  0  0  0
    1.6141    1.2649    1.2000 C   0  0  0  0  0  0  0  0  0  0  0  0
    2.3638    0.1912    0.7805 C   0  0  0  0  0  0  0  0  0  0  0  0
    3.7118    0.2342    1.0626 O   0  0  0  0  0  0  0  0  0  0  0  0
    4.4199   -0.9183    0.6167 C   0  0  0  0  0  0  0  0  0  0  0  0
    1.8457   -0.8577    0.1108 N   0  0  0  0  0  0  0  0  0  0  0  0
    0.5114   -0.8690   -0.1428 C   0  0  0  0  0  0  0  0  0  0  0  0
   -0.3250    0.1546    0.2604 C   0  0  0  0  0  0  0  0  0  0  0  0
   -1.7663    0.0097    0.0258 C   0  0  0  0  0  0  0  0  0  0  0  0
   -2.5596    0.7421    0.6085 O   0  0  0  0  0  0  0  0  0  0  0  0
   -2.1584   -1.0126   -0.8251 N   0  0  0  0  0  0  0  0  0  0  0  0
   -3.5735   -1.1223   -1.1327 C   0  0  0  0  0  0  0  0  0  0  0  0
   -1.3416   -2.0698   -1.2025 C   0  0  0  0  0  0  0  0  0  0  0  0
   -1.7858   -3.0440   -1.8126 O   0  0  0  0  0  0  0  0  0  0  0  0
   -0.0118   -1.9765   -0.8404 N   0  0  0  0  0  0  0  0  0  0  0  0
    0.9158   -3.0362   -1.2101 C   0  0  0  0  0  0  0  0  0  0  0  0
   -2.5898    3.9722    1.1286 H   0  0  0  0  0  0  0  0  0  0  0  0
   -1.1291    4.9878    0.8480 H   0  0  0  0  0  0  0  0  0  0  0  0
   -2.1870    4.5361   -0.5052 H   0  0  0  0  0  0  0  0  0  0  0  0
    2.0759    2.0959    1.7231 H   0  0  0  0  0  0  0  0  0  0  0  0
    4.3741   -1.0138   -0.4736 H   0  0  0  0  0  0  0  0  0  0  0  0
    5.4703   -0.7933    0.8965 H   0  0  0  0  0  0  0  0  0  0  0  0
    4.0499   -1.8256    1.1070 H   0  0  0  0  0  0  0  0  0  0  0  0
   -3.7205   -1.5723   -2.1192 H   0  0  0  0  0  0  0  0  0  0  0  0
   -4.0430   -1.7613   -0.3779 H   0  0  0  0  0  0  0  0  0  0  0  0
   -4.0562   -0.1405   -1.1194 H   0  0  0  0  0  0  0  0  0  0  0  0
    1.3960   -3.4327   -0.3095 H   0  0  0  0  0  0  0  0  0  0  0  0
    1.6717   -2.6336   -1.8927 H   0  0  0  0  0  0  0  0  0  0  0  0
    0.4095   -3.8637   -1.7147 H   0  0  0  0  0  0  0  0  0  0  0  0
  1  2  1  0
  2  3  1  0
  3  4  2  0
  3  5  1  0
  5  6  2  0
  6  7  1  0
  7  8  1  0
  8  9  1  0
  7 10  2  0
 10 11  1  0
 11 12  2  0
 12 13  1  0
 13 14  2  0
 13 15  1  0
 15 16  1  0
 15 17  1  0
 17 18  2  0
 17 19  1  0
 19 20  1  0
 12  5  1  0
 19 11  1  0
  1 21  1  0
  1 22  1  0
  1 23  1  0
  6 24  1  0
  9 25  1  0
  9 26  1  0
  9 27  1  0
 16 28  1  0
 16 29  1  0
 16 30  1  0
 20 31  1  0
 20 32  1  0
 20 33  1  0
M  END
$$$$
