
     RDKit          3D

 46 49  0  0  0  0  0  0  0  0999 V2000
    1.3382    0.3715   -0.9270 O   0  0  0  0  0  0  0  0  0  0  0  0
    1.7794    1.4603   -1.2830 C   0  0  0  0  0  0  0  0  0  0  0  0
    0.9175    2.5537   -1.9186 C   0  0  0  0  0  0  0  0  0  0  0  0
   -0.7763    1.9975   -2.2692 S   0  0  0  0  0  0  0  0  0  0  0  0
   -1.4416    2.0120   -0.6726 C   0  0  0  0  0  0  0  0  0  0  0  0
   -1.0329    2.7716    0.3172 N   0  0  0  0  0  0  0  0  0  0  0  0
   -1.8209    2.4972    1.4064 N   0  0  0  0  0  0  0  0  0  0  0  0
   -2.6941    1.5687    1.0627 C   0  0  0  0  0  0  0  0  0  0  0  0
   -3.7450    0.9961    1.9587 C   0  0  0  0  0  0  0  0  0  0  0  0
   -3.4226   -0.3913    2.4368 C   0  0  0  0  0  0  0  0  0  0  0  0
   -2.2299   -0.8753    2.9493 C   0  0  0  0  0  0  0  0  0  0  0  0
   -2.3067   -2.2545    3.2955 C   0  0  0  0  0  0  0  0  0  0  0  0
   -3.5583   -2.7762    3.0497 C   0  0  0  0  0  0  0  0  0  0  0  0
   -4.6335   -1.6077    2.4150 S   0  0  0  0  0  0  0  0  0  0  0  0
   -2.4938    1.2378   -0.2640 N   0  0  0  0  0  0  0  0  0  0  0  0
   -3.2749    0.3114   -1.0631 C   0  0  0  0  0  0  0  0  0  0  0  0
   -2.7753   -1.0830   -0.9744 C   0  0  0  0  0  0  0  0  0  0  0  0
   -1.5631   -1.6649   -0.6614 C   0  0  0  0  0  0  0  0  0  0  0  0
   -1.7455   -3.0630   -0.7806 C   0  0  0  0  0  0  0  0  0  0  0  0
   -3.0540   -3.2489   -1.1597 C   0  0  0  0  0  0  0  0  0  0  0  0
   -3.6871   -2.0544   -1.2870 O   0  0  0  0  0  0  0  0  0  0  0  0
    3.1125    1.8532   -1.2032 N   0  0  0  0  0  0  0  0  0  0  0  0
    4.2080    1.0901   -0.7462 C   0  0  0  0  0  0  0  0  0  0  0  0
    5.4744    1.6889   -0.8147 C   0  0  0  0  0  0  0  0  0  0  0  0
    6.6180    0.9941   -0.4102 C   0  0  0  0  0  0  0  0  0  0  0  0
    6.4974   -0.3049    0.0767 C   0  0  0  0  0  0  0  0  0  0  0  0
    8.0399   -1.2655    0.5978 Br  0  0  0  0  0  0  0  0  0  0  0  0
    5.2458   -0.9070    0.1617 C   0  0  0  0  0  0  0  0  0  0  0  0
    4.1038   -0.2082   -0.2399 C   0  0  0  0  0  0  0  0  0  0  0  0
    1.3745    2.8263   -2.8748 H   0  0  0  0  0  0  0  0  0  0  0  0
    0.9193    3.4445   -1.2780 H   0  0  0  0  0  0  0  0  0  0  0  0
   -3.8430    1.6457    2.8404 H   0  0  0  0  0  0  0  0  0  0  0  0
   -4.7158    1.0311    1.4509 H   0  0  0  0  0  0  0  0  0  0  0  0
   -1.3353   -0.2667    3.0603 H   0  0  0  0  0  0  0  0  0  0  0  0
   -1.4820   -2.8305    3.7002 H   0  0  0  0  0  0  0  0  0  0  0  0
   -3.8985   -3.7889    3.2143 H   0  0  0  0  0  0  0  0  0  0  0  0
   -3.2686    0.6504   -2.1053 H   0  0  0  0  0  0  0  0  0  0  0  0
   -4.3163    0.3769   -0.7234 H   0  0  0  0  0  0  0  0  0  0  0  0
   -0.6510   -1.1493   -0.3854 H   0  0  0  0  0  0  0  0  0  0  0  0
   -1.0130   -3.8434   -0.6245 H   0  0  0  0  0  0  0  0  0  0  0  0
   -3.6533   -4.1215   -1.3763 H   0  0  0  0  0  0  0  0  0  0  0  0
    3.3308    2.7894   -1.5149 H   0  0  0  0  0  0  0  0  0  0  0  0
    5.5921    2.7000   -1.1913 H   0  0  0  0  0  0  0  0  0  0  0  0
    7.5910    1.4729   -0.4783 H   0  0  0  0  0  0  0  0  0  0  0  0
    5.1410   -1.9203    0.5413 H   0  0  0  0  0  0  0  0  0  0  0  0
    3.1489   -0.7158   -0.1562 H   0  0  0  0  0  0  0  0  0  0  0  0
  1  2  2  0
  2  3  1  0
  3  4  1  0
  4  5  1  0
  5  6  2  0
  6  7  1  0
  7  8  2  0
  8  9  1  0
  9 10  1  0
 10 11  2  0
 11 12  1  0
 12 13  2  0
 13 14  1  0
  8 15  1  0
 15 16  1  0
 16 17  1  0
 17 18  2  0
 18 19  1  0
 19 20  2  0
 20 21  1  0
  2 22  1  0
 22 23  1  0
 23 24  2  0
 24 25  1  0
 25 26  2  0
 26 27  1  0
 26 28  1  0
 28 29  2  0
 15  5  1  0
 21 17  1  0
 29 23  1  0
 14 10  1  0
  3 30  1  0
  3 31  1  0
  9 32  1  0
  9 33  1  0
 11 34  1  0
 12 35  1  0
 13 36  1  0
 16 37  1  0
 16 38  1  0
 18 39  1  0
 19 40  1  0
 20 41  1  0
 22 42  1  0
 24 43  1  0
 25 44  1  0
 28 45  1  0
 29 46  1  0
M  END
$$$$
