
     RDKit          3D

 57 61  0  0  0  0  0  0  0  0999 V2000
    0.0910    0.1046    1.7134 O   0  0  0  0  0  0  0  0  0  0  0  0
    0.3255    0.9277    0.5544 C   0  0  0  0  0  0  0  0  0  0  0  0
    1.1777    2.1359    0.9904 C   0  0  0  0  0  0  0  0  0  0  0  0
    2.3819    1.7141    1.6930 N   0  0  0  0  0  0  0  0  0  0  0  0
    3.4590    1.1270    1.0734 C   0  0  0  0  0  0  0  0  0  0  0  0
    3.5064    1.0808   -0.2305 N   0  0  0  0  0  0  0  0  0  0  0  0
    4.5984    0.4700   -0.8806 C   0  0  0  0  0  0  0  0  0  0  0  0
    4.6077    0.4409   -2.2762 C   0  0  0  0  0  0  0  0  0  0  0  0
    5.6645   -0.1552   -2.9697 C   0  0  0  0  0  0  0  0  0  0  0  0
    6.7263   -0.7303   -2.2700 C   0  0  0  0  0  0  0  0  0  0  0  0
    6.7382   -0.7138   -0.8748 C   0  0  0  0  0  0  0  0  0  0  0  0
    5.6742   -0.1145   -0.1947 C   0  0  0  0  0  0  0  0  0  0  0  0
    5.6050   -0.0545    1.2070 N   0  0  0  0  0  0  0  0  0  0  0  0
    6.4838   -0.5284    2.1516 C   0  0  0  0  0  0  0  0  0  0  0  0
    5.9816   -0.2235    3.3987 C   0  0  0  0  0  0  0  0  0  0  0  0
    4.7555    0.4561    3.2049 C   0  0  0  0  0  0  0  0  0  0  0  0
    4.5398    0.5444    1.8415 C   0  0  0  0  0  0  0  0  0  0  0  0
   -1.0239    1.4132   -0.0285 C   0  0  0  0  0  0  0  0  0  0  0  0
   -1.7328    0.4344   -0.8841 N   0  0  0  0  0  0  0  0  0  0  0  0
   -2.0968   -0.8205   -0.1830 C   0  0  0  0  0  0  0  0  0  0  0  0
   -3.2183   -0.6779    0.8735 C   0  0  0  0  0  0  0  0  0  0  0  0
   -4.4319   -0.0566    0.2982 N   0  0  0  0  0  0  0  0  0  0  0  0
   -5.4550   -0.8480   -0.2305 C   0  0  0  0  0  0  0  0  0  0  0  0
   -6.7266   -0.2893   -0.4545 C   0  0  0  0  0  0  0  0  0  0  0  0
   -7.7890   -1.0391   -0.9718 C   0  0  0  0  0  0  0  0  0  0  0  0
   -7.6077   -2.3829   -1.2715 C   0  0  0  0  0  0  0  0  0  0  0  0
   -6.3695   -2.9710   -1.0427 C   0  0  0  0  0  0  0  0  0  0  0  0
   -5.3124   -2.2124   -0.5220 C   0  0  0  0  0  0  0  0  0  0  0  0
   -4.1404    1.2051   -0.4212 C   0  0  0  0  0  0  0  0  0  0  0  0
   -2.9814    1.0226   -1.4367 C   0  0  0  0  0  0  0  0  0  0  0  0
    0.9584   -0.2936    1.9126 H   0  0  0  0  0  0  0  0  0  0  0  0
    0.8614    0.3248   -0.1877 H   0  0  0  0  0  0  0  0  0  0  0  0
    1.4342    2.7642    0.1297 H   0  0  0  0  0  0  0  0  0  0  0  0
    0.6002    2.7591    1.6836 H   0  0  0  0  0  0  0  0  0  0  0  0
    2.2783    1.5762    2.6898 H   0  0  0  0  0  0  0  0  0  0  0  0
    3.7822    0.8871   -2.8246 H   0  0  0  0  0  0  0  0  0  0  0  0
    5.6568   -0.1695   -4.0567 H   0  0  0  0  0  0  0  0  0  0  0  0
    7.5461   -1.1924   -2.8151 H   0  0  0  0  0  0  0  0  0  0  0  0
    7.5743   -1.1671   -0.3531 H   0  0  0  0  0  0  0  0  0  0  0  0
    7.3950   -1.0396    1.8766 H   0  0  0  0  0  0  0  0  0  0  0  0
    6.4515   -0.4628    4.3443 H   0  0  0  0  0  0  0  0  0  0  0  0
    4.1082    0.8408    3.9815 H   0  0  0  0  0  0  0  0  0  0  0  0
   -1.6626    1.7482    0.7969 H   0  0  0  0  0  0  0  0  0  0  0  0
   -0.8168    2.2894   -0.6563 H   0  0  0  0  0  0  0  0  0  0  0  0
   -1.2176   -1.2946    0.2623 H   0  0  0  0  0  0  0  0  0  0  0  0
   -2.4239   -1.5321   -0.9520 H   0  0  0  0  0  0  0  0  0  0  0  0
   -2.8681   -0.0376    1.6923 H   0  0  0  0  0  0  0  0  0  0  0  0
   -3.4373   -1.6452    1.3400 H   0  0  0  0  0  0  0  0  0  0  0  0
   -6.9148    0.7488   -0.1917 H   0  0  0  0  0  0  0  0  0  0  0  0
   -8.7566   -0.5703   -1.1269 H   0  0  0  0  0  0  0  0  0  0  0  0
   -8.4285   -2.9712   -1.6714 H   0  0  0  0  0  0  0  0  0  0  0  0
   -6.2181   -4.0237   -1.2663 H   0  0  0  0  0  0  0  0  0  0  0  0
   -4.3677   -2.7231   -0.3695 H   0  0  0  0  0  0  0  0  0  0  0  0
   -3.8674    1.9650    0.3205 H   0  0  0  0  0  0  0  0  0  0  0  0
   -5.0100    1.6076   -0.9521 H   0  0  0  0  0  0  0  0  0  0  0  0
   -2.7601    1.9855   -1.9133 H   0  0  0  0  0  0  0  0  0  0  0  0
   -3.3279    0.3673   -2.2469 H   0  0  0  0  0  0  0  0  0  0  0  0
  1  2  1  0
  2  3  1  0
  3  4  1  0
  4  5  1  0
  5  6  2  0
  6  7  1  0
  7  8  2  0
  8  9  1  0
  9 10  2  0
 10 11  1  0
 11 12  2  0
 12 13  1  0
 13 14  1  0
 14 15  2  0
 15 16  1  0
 16 17  2  0
  2 18  1  0
 18 19  1  0
 19 20  1  0
 20 21  1  0
 21 22  1  0
 22 23  1  0
 23 24  2  0
 24 25  1  0
 25 26  2  0
 26 27  1  0
 27 28  2  0
 22 29  1  0
 29 30  1  0
 17  5  1  0
 30 19  1  0
 12  7  1  0
 17 13  1  0
 28 23  1  0
  1 31  1  0
  2 32  1  0
  3 33  1  0
  3 34  1  0
  4 35  1  0
  8 36  1  0
  9 37  1  0
 10 38  1  0
 11 39  1  0
 14 40  1  0
 15 41  1  0
 16 42  1  0
 18 43  1  0
 18 44  1  0
 20 45  1  0
 20 46  1  0
 21 47  1  0
 21 48  1  0
 24 49  1  0
 25 50  1  0
 26 51  1  0
 27 52  1  0
 28 53  1  0
 29 54  1  0
 29 55  1  0
 30 56  1  0
 30 57  1  0
M  END
$$$$
