
     RDKit          3D

 34 36  0  0  0  0  0  0  0  0999 V2000
    5.2096    0.5507   -1.8726 C   0  0  0  0  0  0  0  0  0  0  0  0
    4.6232    0.6524   -0.5576 N   0  0  0  0  0  0  0  0  0  0  0  0
    5.2662    0.9500    0.6035 C   0  0  0  0  0  0  0  0  0  0  0  0
    4.2949    0.9338    1.5714 C   0  0  0  0  0  0  0  0  0  0  0  0
    4.5634    1.2745    3.3918 Br  0  0  0  0  0  0  0  0  0  0  0  0
    3.0804    0.6161    0.9171 C   0  0  0  0  0  0  0  0  0  0  0  0
    1.7197    0.4692    1.4760 C   0  0  0  0  0  0  0  0  0  0  0  0
    1.4954    0.6030    2.6729 O   0  0  0  0  0  0  0  0  0  0  0  0
    0.8012    0.1691    0.4855 N   0  0  0  0  0  0  0  0  0  0  0  0
   -0.5641   -0.0271    0.6032 C   0  0  0  0  0  0  0  0  0  0  0  0
   -1.3444    0.1119    2.1235 S   0  0  0  0  0  0  0  0  0  0  0  0
   -2.8235   -0.2049    1.4302 C   0  0  0  0  0  0  0  0  0  0  0  0
   -2.7737   -0.4307    0.0829 C   0  0  0  0  0  0  0  0  0  0  0  0
   -1.4453   -0.3486   -0.4365 C   0  0  0  0  0  0  0  0  0  0  0  0
   -0.9962   -0.5331   -1.8144 C   0  0  0  0  0  0  0  0  0  0  0  0
   -1.8734   -1.1400   -2.6673 N   0  0  0  0  0  0  0  0  0  0  0  0
    0.1189   -0.2109   -2.2144 O   0  0  0  0  0  0  0  0  0  0  0  0
   -4.1417   -0.6756   -0.4489 C   0  0  0  0  0  0  0  0  0  0  0  0
   -5.0540   -0.2101    0.7280 C   0  0  0  0  0  0  0  0  0  0  0  0
   -4.1818   -0.2656    2.0161 C   0  0  0  0  0  0  0  0  0  0  0  0
    3.3034    0.4398   -0.4077 N   0  0  0  0  0  0  0  0  0  0  0  0
    4.7282    1.2862   -2.5220 H   0  0  0  0  0  0  0  0  0  0  0  0
    5.0419   -0.4623   -2.2468 H   0  0  0  0  0  0  0  0  0  0  0  0
    6.2816    0.7531   -1.8095 H   0  0  0  0  0  0  0  0  0  0  0  0
    6.3283    1.1448    0.6456 H   0  0  0  0  0  0  0  0  0  0  0  0
    1.1964    0.1047   -0.4572 H   0  0  0  0  0  0  0  0  0  0  0  0
   -2.6461   -1.6825   -2.3150 H   0  0  0  0  0  0  0  0  0  0  0  0
   -1.4954   -1.3952   -3.5696 H   0  0  0  0  0  0  0  0  0  0  0  0
   -4.2914   -1.7429   -0.6434 H   0  0  0  0  0  0  0  0  0  0  0  0
   -4.3539   -0.1047   -1.3570 H   0  0  0  0  0  0  0  0  0  0  0  0
   -5.9635   -0.8127    0.8135 H   0  0  0  0  0  0  0  0  0  0  0  0
   -5.3624    0.8288    0.5499 H   0  0  0  0  0  0  0  0  0  0  0  0
   -4.4063    0.5705    2.6839 H   0  0  0  0  0  0  0  0  0  0  0  0
   -4.3357   -1.2118    2.5448 H   0  0  0  0  0  0  0  0  0  0  0  0
  1  2  1  0
  2  3  1  0
  3  4  2  0
  4  5  1  0
  4  6  1  0
  6  7  1  0
  7  8  2  0
  7  9  1  0
  9 10  1  0
 10 11  1  0
 11 12  1  0
 12 13  2  0
 13 14  1  0
 14 15  1  0
 15 16  1  0
 15 17  2  0
 13 18  1  0
 18 19  1  0
 19 20  1  0
  6 21  2  0
 21  2  1  0
 14 10  2  0
 20 12  1  0
  1 22  1  0
  1 23  1  0
  1 24  1  0
  3 25  1  0
  9 26  1  0
 16 27  1  0
 16 28  1  0
 18 29  1  0
 18 30  1  0
 19 31  1  0
 19 32  1  0
 20 33  1  0
 20 34  1  0
M  END
$$$$
