
     RDKit          3D

 34 34  0  0  0  0  0  0  0  0999 V2000
    6.0622   -0.0830    0.8333 C   0  0  0  0  0  0  0  0  0  0  0  0
    5.3333   -0.4186   -0.4586 C   0  0  0  0  0  0  0  0  0  0  0  0
    3.8212   -0.5534   -0.2872 C   0  0  0  0  0  0  0  0  0  0  0  0
    3.1340    0.7499    0.1117 C   0  0  0  0  0  0  0  0  0  0  0  0
    1.7143    0.5440    0.2021 O   0  0  0  0  0  0  0  0  0  0  0  0
    1.0182    0.7108   -0.9492 C   0  0  0  0  0  0  0  0  0  0  0  0
    1.4872    1.0096   -2.0362 O   0  0  0  0  0  0  0  0  0  0  0  0
   -0.4335    0.4730   -0.7233 C   0  0  0  0  0  0  0  0  0  0  0  0
   -0.9569    0.1290    0.5276 C   0  0  0  0  0  0  0  0  0  0  0  0
   -2.3331   -0.0848    0.6867 C   0  0  0  0  0  0  0  0  0  0  0  0
   -3.2032    0.0417   -0.3977 C   0  0  0  0  0  0  0  0  0  0  0  0
   -4.5965   -0.1580   -0.3194 N   0  0  0  0  0  0  0  0  0  0  0  0
   -5.3381   -0.4906    0.8002 C   0  0  0  0  0  0  0  0  0  0  0  0
   -6.8091   -0.6162    0.4906 C   0  0  0  0  0  0  0  0  0  0  0  0
   -4.9207   -0.6543    1.9405 O   0  0  0  0  0  0  0  0  0  0  0  0
   -2.6763    0.3856   -1.6490 C   0  0  0  0  0  0  0  0  0  0  0  0
   -1.3032    0.6000   -1.8121 C   0  0  0  0  0  0  0  0  0  0  0  0
    5.7918    0.9117    1.1997 H   0  0  0  0  0  0  0  0  0  0  0  0
    7.1441   -0.0916    0.6669 H   0  0  0  0  0  0  0  0  0  0  0  0
    5.8338   -0.8143    1.6150 H   0  0  0  0  0  0  0  0  0  0  0  0
    5.5562    0.3455   -1.2123 H   0  0  0  0  0  0  0  0  0  0  0  0
    5.7257   -1.3674   -0.8439 H   0  0  0  0  0  0  0  0  0  0  0  0
    3.3913   -0.9157   -1.2293 H   0  0  0  0  0  0  0  0  0  0  0  0
    3.5916   -1.3280    0.4552 H   0  0  0  0  0  0  0  0  0  0  0  0
    3.4627    1.0686    1.1060 H   0  0  0  0  0  0  0  0  0  0  0  0
    3.3714    1.5649   -0.5823 H   0  0  0  0  0  0  0  0  0  0  0  0
   -0.3108    0.0210    1.3957 H   0  0  0  0  0  0  0  0  0  0  0  0
   -2.6903   -0.3506    1.6772 H   0  0  0  0  0  0  0  0  0  0  0  0
   -5.1108   -0.0353   -1.1826 H   0  0  0  0  0  0  0  0  0  0  0  0
   -6.9623   -1.1272   -0.4642 H   0  0  0  0  0  0  0  0  0  0  0  0
   -7.2589    0.3795    0.4528 H   0  0  0  0  0  0  0  0  0  0  0  0
   -7.2969   -1.2053    1.2731 H   0  0  0  0  0  0  0  0  0  0  0  0
   -3.3221    0.4929   -2.5169 H   0  0  0  0  0  0  0  0  0  0  0  0
   -0.9162    0.8666   -2.7941 H   0  0  0  0  0  0  0  0  0  0  0  0
  1  2  1  0
  2  3  1  0
  3  4  1  0
  4  5  1  0
  5  6  1  0
  6  7  2  0
  6  8  1  0
  8  9  2  0
  9 10  1  0
 10 11  2  0
 11 12  1  0
 12 13  1  0
 13 14  1  0
 13 15  2  0
 11 16  1  0
 16 17  2  0
 17  8  1  0
  1 18  1  0
  1 19  1  0
  1 20  1  0
  2 21  1  0
  2 22  1  0
  3 23  1  0
  3 24  1  0
  4 25  1  0
  4 26  1  0
  9 27  1  0
 10 28  1  0
 12 29  1  0
 14 30  1  0
 14 31  1  0
 14 32  1  0
 16 33  1  0
 17 34  1  0
M  END
$$$$
