
     RDKit          3D

 43 43  0  0  0  0  0  0  0  0999 V2000
   -4.7998    3.1569    2.3821 C   0  0  0  0  0  0  0  0  0  0  0  0
   -4.7795    1.8543    1.6404 C   0  0  0  0  0  0  0  0  0  0  0  0
   -5.9517    1.7467    0.3703 Cl  0  0  0  0  0  0  0  0  0  0  0  0
   -3.9248    0.8512    1.9068 C   0  0  0  0  0  0  0  0  0  0  0  0
   -3.8598   -0.4892    1.2386 C   0  0  0  0  0  0  0  0  0  0  0  0
   -2.7235   -0.6719    0.2184 N   0  0  0  0  0  4  0  0  0  0  0  0
   -2.7544   -2.1306   -0.2540 C   0  0  0  0  0  0  0  0  0  0  0  0
   -2.9425    0.2353   -0.9901 C   0  0  0  0  0  0  0  0  0  0  0  0
   -1.3363   -0.3497    0.8760 C   0  0  0  0  0  0  0  0  0  0  0  0
   -0.1034   -0.5335   -0.0081 C   0  0  0  0  0  0  0  0  0  0  0  0
    0.0257   -1.4257   -0.8349 O   0  0  0  0  0  0  0  0  0  0  0  0
    0.8152    0.4345    0.2658 O   0  0  0  0  0  0  0  0  0  0  0  0
    2.0196    0.4093   -0.5272 C   0  0  0  0  0  0  0  0  0  0  0  0
    3.0570   -0.5128    0.1111 C   0  0  0  0  0  0  0  0  0  0  0  0
    4.3514   -0.5146   -0.6564 C   0  0  0  0  0  0  0  0  0  0  0  0
    4.5877   -1.4774   -1.6473 C   0  0  0  0  0  0  0  0  0  0  0  0
    5.7786   -1.4628   -2.3749 C   0  0  0  0  0  0  0  0  0  0  0  0
    6.7445   -0.4908   -2.1175 C   0  0  0  0  0  0  0  0  0  0  0  0
    6.5201    0.4688   -1.1318 C   0  0  0  0  0  0  0  0  0  0  0  0
    5.3266    0.4624   -0.4079 C   0  0  0  0  0  0  0  0  0  0  0  0
   -4.6526    3.9938    1.6891 H   0  0  0  0  0  0  0  0  0  0  0  0
   -4.0066    3.2102    3.1354 H   0  0  0  0  0  0  0  0  0  0  0  0
   -5.7585    3.2950    2.8937 H   0  0  0  0  0  0  0  0  0  0  0  0
   -3.2382    0.9840    2.7425 H   0  0  0  0  0  0  0  0  0  0  0  0
   -4.7941   -0.7315    0.7161 H   0  0  0  0  0  0  0  0  0  0  0  0
   -3.7167   -1.2611    2.0072 H   0  0  0  0  0  0  0  0  0  0  0  0
   -3.7925   -2.4143   -0.4508 H   0  0  0  0  0  0  0  0  0  0  0  0
   -2.1821   -2.2328   -1.1780 H   0  0  0  0  0  0  0  0  0  0  0  0
   -2.3380   -2.7580    0.5408 H   0  0  0  0  0  0  0  0  0  0  0  0
   -2.8216    1.2764   -0.6746 H   0  0  0  0  0  0  0  0  0  0  0  0
   -2.1988   -0.0080   -1.7522 H   0  0  0  0  0  0  0  0  0  0  0  0
   -3.9504    0.0607   -1.3834 H   0  0  0  0  0  0  0  0  0  0  0  0
   -1.3843    0.6987    1.1923 H   0  0  0  0  0  0  0  0  0  0  0  0
   -1.2386   -0.9931    1.7576 H   0  0  0  0  0  0  0  0  0  0  0  0
    1.7972    0.1285   -1.5645 H   0  0  0  0  0  0  0  0  0  0  0  0
    2.3930    1.4397   -0.5582 H   0  0  0  0  0  0  0  0  0  0  0  0
    3.2395   -0.2047    1.1511 H   0  0  0  0  0  0  0  0  0  0  0  0
    2.6636   -1.5352    0.1922 H   0  0  0  0  0  0  0  0  0  0  0  0
    3.8489   -2.2513   -1.8565 H   0  0  0  0  0  0  0  0  0  0  0  0
    5.9558   -2.2139   -3.1422 H   0  0  0  0  0  0  0  0  0  0  0  0
    7.6753   -0.4858   -2.6801 H   0  0  0  0  0  0  0  0  0  0  0  0
    7.2786    1.2179   -0.9197 H   0  0  0  0  0  0  0  0  0  0  0  0
    5.1700    1.2245    0.3549 H   0  0  0  0  0  0  0  0  0  0  0  0
  1  2  1  0
  2  3  1  0
  2  4  2  3
  4  5  1  0
  5  6  1  0
  6  7  1  0
  6  8  1  0
  6  9  1  0
  9 10  1  0
 10 11  2  0
 10 12  1  0
 12 13  1  0
 13 14  1  0
 14 15  1  0
 15 16  2  0
 16 17  1  0
 17 18  2  0
 18 19  1  0
 19 20  2  0
 20 15  1  0
  1 21  1  0
  1 22  1  0
  1 23  1  0
  4 24  1  0
  5 25  1  0
  5 26  1  0
  7 27  1  0
  7 28  1  0
  7 29  1  0
  8 30  1  0
  8 31  1  0
  8 32  1  0
  9 33  1  0
  9 34  1  0
 13 35  1  0
 13 36  1  0
 14 37  1  0
 14 38  1  0
 16 39  1  0
 17 40  1  0
 18 41  1  0
 19 42  1  0
 20 43  1  0
M  CHG  1   6   1
M  END
$$$$
