
     RDKit          3D

 23 23  0  0  0  0  0  0  0  0999 V2000
   -1.4733    2.3675   -1.9931 O   0  0  0  0  0  0  0  0  0  0  0  0
   -0.9047    1.6488   -1.1914 C   0  0  0  0  0  0  0  0  0  0  0  0
    0.1758    2.0713   -0.5100 O   0  0  0  0  0  0  0  0  0  0  0  0
   -1.3661    0.3124   -0.7650 C   0  0  0  0  0  0  0  0  0  0  0  0
   -2.7504    0.1512   -0.5931 C   0  0  0  0  0  0  0  0  0  0  0  0
   -3.2719   -1.0829   -0.2063 C   0  0  0  0  0  0  0  0  0  0  0  0
   -2.4168   -2.1634   -0.0061 C   0  0  0  0  0  0  0  0  0  0  0  0
   -1.0409   -2.0107   -0.1953 C   0  0  0  0  0  0  0  0  0  0  0  0
   -0.4946   -0.7745   -0.5685 C   0  0  0  0  0  0  0  0  0  0  0  0
    0.8923   -0.7117   -0.8033 N   0  0  0  0  0  0  0  0  0  0  0  0
    1.6120   -0.2879    0.1875 C   0  0  0  0  0  0  0  0  0  0  0  0
    3.0876   -0.1227    0.0407 C   0  0  0  0  0  0  0  0  0  0  0  0
    3.3715    1.2981    0.3792 N   0  0  0  0  0  4  0  0  0  0  0  0
    3.4995    2.0976   -0.5569 O   0  0  0  0  0  0  0  0  0  0  0  0
    3.4681    1.5778    1.5821 O   0  0  0  0  0  1  0  0  0  0  0  0
    0.3683    2.9562   -0.8890 H   0  0  0  0  0  0  0  0  0  0  0  0
   -3.4231    0.9898   -0.7646 H   0  0  0  0  0  0  0  0  0  0  0  0
   -4.3445   -1.2030   -0.0732 H   0  0  0  0  0  0  0  0  0  0  0  0
   -2.8207   -3.1313    0.2813 H   0  0  0  0  0  0  0  0  0  0  0  0
   -0.3859   -2.8692   -0.0669 H   0  0  0  0  0  0  0  0  0  0  0  0
    1.1691   -0.0433    1.1725 H   0  0  0  0  0  0  0  0  0  0  0  0
    3.4311   -0.3192   -0.9774 H   0  0  0  0  0  0  0  0  0  0  0  0
    3.6177   -0.7508    0.7605 H   0  0  0  0  0  0  0  0  0  0  0  0
  1  2  2  0
  2  3  1  0
  2  4  1  0
  4  5  2  0
  5  6  1  0
  6  7  2  0
  7  8  1  0
  8  9  2  0
  9 10  1  0
 10 11  2  3
 11 12  1  0
 12 13  1  0
 13 14  2  0
 13 15  1  0
  9  4  1  0
  3 16  1  0
  5 17  1  0
  6 18  1  0
  7 19  1  0
  8 20  1  0
 11 21  1  0
 12 22  1  0
 12 23  1  0
M  CHG  2  13   1  15  -1
M  END
$$$$
