
     RDKit          3D

 39 40  0  0  0  0  0  0  0  0999 V2000
   -1.5441   -0.4035   -2.3402 C   0  0  0  0  0  0  0  0  0  0  0  0
   -2.4280   -0.1124   -1.1441 C   0  0  0  0  0  0  0  0  0  0  0  0
   -1.9287    0.1308    0.0831 C   0  0  0  0  0  0  0  0  0  0  0  0
   -0.4691    0.2014    0.3570 C   0  0  0  0  0  0  0  0  0  0  0  0
    0.3573    0.8894   -0.3690 N   0  0  0  0  0  0  0  0  0  0  0  0
    1.6841    0.8209   -0.0262 N   0  0  0  0  0  0  0  0  0  0  0  0
    2.3480   -0.3564    0.2977 C   0  0  0  0  0  0  0  0  0  0  0  0
    1.7972   -1.4420    0.4720 O   0  0  0  0  0  0  0  0  0  0  0  0
    3.8388   -0.2653    0.4274 C   0  0  0  0  0  0  0  0  0  0  0  0
    4.5048   -1.3934    0.9367 C   0  0  0  0  0  0  0  0  0  0  0  0
    5.8905   -1.3848    1.0898 C   0  0  0  0  0  0  0  0  0  0  0  0
    6.7693   -2.9098    1.7792 Br  0  0  0  0  0  0  0  0  0  0  0  0
    6.6344   -0.2611    0.7393 C   0  0  0  0  0  0  0  0  0  0  0  0
    5.9885    0.8651    0.2282 C   0  0  0  0  0  0  0  0  0  0  0  0
    4.5987    0.8618    0.0717 C   0  0  0  0  0  0  0  0  0  0  0  0
    3.9952    1.9780   -0.4463 O   0  0  0  0  0  0  0  0  0  0  0  0
   -2.8511    0.2811    1.2304 C   0  0  0  0  0  0  0  0  0  0  0  0
   -2.3957    0.3774    2.3700 O   0  0  0  0  0  0  0  0  0  0  0  0
   -4.1997    0.3033    0.9447 N   0  0  0  0  0  0  0  0  0  0  0  0
   -5.1318    0.4740    2.0433 C   0  0  0  0  0  0  0  0  0  0  0  0
   -4.7344    0.0492   -0.3090 C   0  0  0  0  0  0  0  0  0  0  0  0
   -5.9521   -0.0229   -0.4880 O   0  0  0  0  0  0  0  0  0  0  0  0
   -3.8138   -0.1333   -1.3440 N   0  0  0  0  0  0  0  0  0  0  0  0
   -4.3651   -0.3769   -2.6767 C   0  0  0  0  0  0  0  0  0  0  0  0
   -1.4950    0.4697   -2.9986 H   0  0  0  0  0  0  0  0  0  0  0  0
   -0.5238   -0.6867   -2.0705 H   0  0  0  0  0  0  0  0  0  0  0  0
   -1.9221   -1.2563   -2.9137 H   0  0  0  0  0  0  0  0  0  0  0  0
   -0.1531   -0.3251    1.2758 H   0  0  0  0  0  0  0  0  0  0  0  0
    2.2573    1.5793   -0.3975 H   0  0  0  0  0  0  0  0  0  0  0  0
    3.9361   -2.2790    1.2159 H   0  0  0  0  0  0  0  0  0  0  0  0
    7.7153   -0.2540    0.8588 H   0  0  0  0  0  0  0  0  0  0  0  0
    6.5859    1.7312   -0.0433 H   0  0  0  0  0  0  0  0  0  0  0  0
    4.6744    2.6512   -0.6347 H   0  0  0  0  0  0  0  0  0  0  0  0
   -4.6596    0.9505    2.9069 H   0  0  0  0  0  0  0  0  0  0  0  0
   -5.5015   -0.5133    2.3382 H   0  0  0  0  0  0  0  0  0  0  0  0
   -5.9822    1.0868    1.7277 H   0  0  0  0  0  0  0  0  0  0  0  0
   -4.2114   -1.4285   -2.9375 H   0  0  0  0  0  0  0  0  0  0  0  0
   -5.4378   -0.1697   -2.7255 H   0  0  0  0  0  0  0  0  0  0  0  0
   -3.8757    0.2731   -3.4085 H   0  0  0  0  0  0  0  0  0  0  0  0
  1  2  1  0
  2  3  2  0
  3  4  1  0
  4  5  2  3
  5  6  1  0
  6  7  1  0
  7  8  2  0
  7  9  1  0
  9 10  2  0
 10 11  1  0
 11 12  1  0
 11 13  2  0
 13 14  1  0
 14 15  2  0
 15 16  1  0
  3 17  1  0
 17 18  2  0
 17 19  1  0
 19 20  1  0
 19 21  1  0
 21 22  2  0
 21 23  1  0
 23 24  1  0
 23  2  1  0
 15  9  1  0
  1 25  1  0
  1 26  1  0
  1 27  1  0
  4 28  1  0
  6 29  1  0
 10 30  1  0
 13 31  1  0
 14 32  1  0
 16 33  1  0
 20 34  1  0
 20 35  1  0
 20 36  1  0
 24 37  1  0
 24 38  1  0
 24 39  1  0
M  END
$$$$
