
     RDKit          3D

 33 35  0  0  0  0  0  0  0  0999 V2000
    6.0390   -0.5512    0.4496 C   0  0  0  0  0  0  0  0  0  0  0  0
    4.9718   -0.0645   -0.3549 O   0  0  0  0  0  0  0  0  0  0  0  0
    3.7023   -0.2772    0.1068 C   0  0  0  0  0  0  0  0  0  0  0  0
    3.3584   -0.9287    1.2906 C   0  0  0  0  0  0  0  0  0  0  0  0
    2.0128   -1.0843    1.6391 C   0  0  0  0  0  0  0  0  0  0  0  0
    1.0025   -0.5809    0.8107 C   0  0  0  0  0  0  0  0  0  0  0  0
    1.3380    0.0825   -0.3754 C   0  0  0  0  0  0  0  0  0  0  0  0
    2.6904    0.2190   -0.7221 C   0  0  0  0  0  0  0  0  0  0  0  0
    0.2629    0.5831   -1.2968 C   0  0  0  0  0  0  0  0  0  0  0  0
   -0.9705    1.0308   -0.5160 C   0  0  0  0  0  0  0  0  0  0  0  0
   -1.4672   -0.0423    0.4132 C   0  0  0  0  0  0  0  0  0  0  0  0
   -2.7379   -0.4225    0.6468 C   0  0  0  0  0  0  0  0  0  0  0  0
   -3.8945    0.1743    0.0703 C   0  0  0  0  0  0  0  0  0  0  0  0
   -5.1924   -0.3293    0.0553 C   0  0  0  0  0  0  0  0  0  0  0  0
   -6.0228    0.6078   -0.6031 C   0  0  0  0  0  0  0  0  0  0  0  0
   -5.2023    1.6475   -0.9533 C   0  0  0  0  0  0  0  0  0  0  0  0
   -3.9325    1.4022   -0.5526 O   0  0  0  0  0  0  0  0  0  0  0  0
   -0.4191   -0.7823    1.1971 C   0  0  0  0  0  0  0  0  0  0  0  0
   -0.7015   -1.5246    2.1328 O   0  0  0  0  0  0  0  0  0  0  0  0
    6.9778   -0.3018   -0.0542 H   0  0  0  0  0  0  0  0  0  0  0  0
    5.9934   -1.6408    0.5485 H   0  0  0  0  0  0  0  0  0  0  0  0
    6.0478   -0.0643    1.4303 H   0  0  0  0  0  0  0  0  0  0  0  0
    4.1080   -1.3333    1.9626 H   0  0  0  0  0  0  0  0  0  0  0  0
    1.7555   -1.6037    2.5606 H   0  0  0  0  0  0  0  0  0  0  0  0
    2.9688    0.7162   -1.6497 H   0  0  0  0  0  0  0  0  0  0  0  0
    0.6330    1.4316   -1.8848 H   0  0  0  0  0  0  0  0  0  0  0  0
    0.0009   -0.2174   -1.9999 H   0  0  0  0  0  0  0  0  0  0  0  0
   -1.7207    1.3282   -1.2520 H   0  0  0  0  0  0  0  0  0  0  0  0
   -0.7307    1.9218    0.0788 H   0  0  0  0  0  0  0  0  0  0  0  0
   -2.9306   -1.2420    1.3380 H   0  0  0  0  0  0  0  0  0  0  0  0
   -5.4974   -1.2770    0.4785 H   0  0  0  0  0  0  0  0  0  0  0  0
   -7.0842    0.5349   -0.7920 H   0  0  0  0  0  0  0  0  0  0  0  0
   -5.3589    2.5884   -1.4619 H   0  0  0  0  0  0  0  0  0  0  0  0
  1  2  1  0
  2  3  1  0
  3  4  2  0
  4  5  1  0
  5  6  2  0
  6  7  1  0
  7  8  2  0
  7  9  1  0
  9 10  1  0
 10 11  1  0
 11 12  2  3
 12 13  1  0
 13 14  2  0
 14 15  1  0
 15 16  2  0
 16 17  1  0
 11 18  1  0
 18 19  2  0
  8  3  1  0
 17 13  1  0
 18  6  1  0
  1 20  1  0
  1 21  1  0
  1 22  1  0
  4 23  1  0
  5 24  1  0
  8 25  1  0
  9 26  1  0
  9 27  1  0
 10 28  1  0
 10 29  1  0
 12 30  1  0
 14 31  1  0
 15 32  1  0
 16 33  1  0
M  END
$$$$
