
     RDKit          3D

 46 49  0  0  0  0  0  0  0  0999 V2000
    1.8112    1.6792   -0.3300 O   0  0  0  0  0  0  0  0  0  0  0  0
    1.7542    1.2530   -1.4772 C   0  0  0  0  0  0  0  0  0  0  0  0
    0.4724    0.7806   -2.1487 C   0  0  0  0  0  0  0  0  0  0  0  0
   -0.5922    0.5148   -1.1620 N   0  0  0  0  0  4  0  0  0  0  0  0
   -1.8561    1.0974   -1.1094 C   0  0  0  0  0  0  0  0  0  0  0  0
   -2.5302    0.6133    0.0072 C   0  0  0  0  0  0  0  0  0  0  0  0
   -3.9736    1.0237    0.4786 C   0  0  0  0  0  0  0  0  0  0  0  0
   -4.7409    1.9019   -0.2951 C   0  0  0  0  0  0  0  0  0  0  0  0
   -6.0252    2.2706    0.1228 C   0  0  0  0  0  0  0  0  0  0  0  0
   -6.5524    1.7698    1.3151 C   0  0  0  0  0  0  0  0  0  0  0  0
   -8.1409    2.2661    1.7678 Cl  0  0  0  0  0  0  0  0  0  0  0  0
   -5.7856    0.8975    2.0912 C   0  0  0  0  0  0  0  0  0  0  0  0
   -6.3560    0.2369    3.5824 Cl  0  0  0  0  0  0  0  0  0  0  0  0
   -4.4994    0.5271    1.6727 C   0  0  0  0  0  0  0  0  0  0  0  0
   -1.6277   -0.2758    0.5632 N   0  0  0  0  0  0  0  0  0  0  0  0
   -0.4804   -0.2935   -0.1108 C   0  0  0  0  0  0  0  0  0  0  0  0
    0.5287   -1.2088    0.4749 C   0  0  0  0  0  0  0  0  0  0  0  0
   -0.3249   -2.0390    1.4525 C   0  0  0  0  0  0  0  0  0  0  0  0
   -1.5905   -1.1762    1.7091 C   0  0  0  0  0  0  0  0  0  0  0  0
    2.8098    1.0791   -2.3157 O   0  0  0  0  0  0  0  0  0  0  0  0
    4.1035    1.2325   -1.7088 C   0  0  0  0  0  0  0  0  0  0  0  0
    4.4631   -0.0499   -1.0007 C   0  0  0  0  0  0  0  0  0  0  0  0
    4.7478   -1.2100   -1.7358 C   0  0  0  0  0  0  0  0  0  0  0  0
    5.0491   -2.4053   -1.0815 C   0  0  0  0  0  0  0  0  0  0  0  0
    5.0668   -2.4538    0.3109 C   0  0  0  0  0  0  0  0  0  0  0  0
    4.7829   -1.3078    1.0515 C   0  0  0  0  0  0  0  0  0  0  0  0
    4.4813   -0.1110    0.3996 C   0  0  0  0  0  0  0  0  0  0  0  0
    0.1353    1.5463   -2.8533 H   0  0  0  0  0  0  0  0  0  0  0  0
    0.6581   -0.1604   -2.6769 H   0  0  0  0  0  0  0  0  0  0  0  0
   -2.1149    1.8085   -1.8758 H   0  0  0  0  0  0  0  0  0  0  0  0
   -4.3774    2.3169   -1.2315 H   0  0  0  0  0  0  0  0  0  0  0  0
   -6.6142    2.9530   -0.4890 H   0  0  0  0  0  0  0  0  0  0  0  0
   -3.9298   -0.1380    2.3093 H   0  0  0  0  0  0  0  0  0  0  0  0
    1.2594   -0.5867    0.9948 H   0  0  0  0  0  0  0  0  0  0  0  0
    0.9816   -1.8006   -0.3213 H   0  0  0  0  0  0  0  0  0  0  0  0
    0.2072   -2.2973    2.3718 H   0  0  0  0  0  0  0  0  0  0  0  0
   -0.6251   -2.9722    0.9617 H   0  0  0  0  0  0  0  0  0  0  0  0
   -2.4875   -1.7979    1.7484 H   0  0  0  0  0  0  0  0  0  0  0  0
   -1.4846   -0.5816    2.6211 H   0  0  0  0  0  0  0  0  0  0  0  0
    4.8268    1.4264   -2.5086 H   0  0  0  0  0  0  0  0  0  0  0  0
    4.1319    2.1031   -1.0424 H   0  0  0  0  0  0  0  0  0  0  0  0
    4.7490   -1.1869   -2.8239 H   0  0  0  0  0  0  0  0  0  0  0  0
    5.2875   -3.2970   -1.6582 H   0  0  0  0  0  0  0  0  0  0  0  0
    5.3217   -3.3816    0.8184 H   0  0  0  0  0  0  0  0  0  0  0  0
    4.8144   -1.3429    2.1381 H   0  0  0  0  0  0  0  0  0  0  0  0
    4.2661    0.7765    0.9937 H   0  0  0  0  0  0  0  0  0  0  0  0
  1  2  2  0
  2  3  1  0
  3  4  1  0
  4  5  1  0
  5  6  2  0
  6  7  1  0
  7  8  2  0
  8  9  1  0
  9 10  2  0
 10 11  1  0
 10 12  1  0
 12 13  1  0
 12 14  2  0
  6 15  1  0
 15 16  1  0
 16 17  1  0
 17 18  1  0
 18 19  1  0
  2 20  1  0
 20 21  1  0
 21 22  1  0
 22 23  2  0
 23 24  1  0
 24 25  2  0
 25 26  1  0
 26 27  2  0
 16  4  2  0
 27 22  1  0
 14  7  1  0
 19 15  1  0
  3 28  1  0
  3 29  1  0
  5 30  1  0
  8 31  1  0
  9 32  1  0
 14 33  1  0
 17 34  1  0
 17 35  1  0
 18 36  1  0
 18 37  1  0
 19 38  1  0
 19 39  1  0
 21 40  1  0
 21 41  1  0
 23 42  1  0
 24 43  1  0
 25 44  1  0
 26 45  1  0
 27 46  1  0
M  CHG  1   4   1
M  END
$$$$
