
     RDKit          3D

 61 65  0  0  0  0  0  0  0  0999 V2000
   -7.3747    4.4879    0.1105 C   0  0  0  0  0  0  0  0  0  0  0  0
   -6.5233    3.2529    0.0984 C   0  0  0  0  0  0  0  0  0  0  0  0
   -7.0913    2.0060   -0.1662 C   0  0  0  0  0  0  0  0  0  0  0  0
   -6.2918    0.8577   -0.2110 C   0  0  0  0  0  0  0  0  0  0  0  0
   -4.9018    0.9130   -0.0023 C   0  0  0  0  0  0  0  0  0  0  0  0
   -4.0800   -0.3176   -0.0620 C   0  0  0  0  0  0  0  0  0  0  0  0
   -2.8665   -0.4570    0.5885 C   0  0  0  0  0  0  0  0  0  0  0  0
   -2.1688   -1.6543    0.4393 C   0  0  0  0  0  0  0  0  0  0  0  0
   -0.8434   -1.7352    1.0818 C   0  0  0  0  0  0  0  0  0  0  0  0
   -0.7917   -1.8968    2.2911 O   0  0  0  0  0  0  0  0  0  0  0  0
    0.1989   -1.5844    0.1913 N   0  0  0  0  0  0  0  0  0  0  0  0
    1.5767   -1.5643    0.4836 C   0  0  0  0  0  0  0  0  0  0  0  0
    2.4539   -1.3516   -0.5907 C   0  0  0  0  0  0  0  0  0  0  0  0
    3.8352   -1.3004   -0.3861 C   0  0  0  0  0  0  0  0  0  0  0  0
    4.3418   -1.4527    0.9065 C   0  0  0  0  0  0  0  0  0  0  0  0
    6.0974   -1.3853    1.1878 S   0  0  0  0  0  6  0  0  0  0  0  0
    6.3878   -2.2927    2.2788 O   0  0  0  0  0  0  0  0  0  0  0  0
    6.7617   -1.5159   -0.0917 O   0  0  0  0  0  0  0  0  0  0  0  0
    6.3630    0.1752    1.7869 N   0  0  0  0  0  0  0  0  0  0  0  0
    5.7121    1.2338    1.0381 C   0  0  0  0  0  0  0  0  0  0  0  0
    4.5788    1.8519    1.4535 O   0  0  0  0  0  0  0  0  0  0  0  0
    4.2010    2.8006    0.5263 N   0  0  0  0  0  0  0  0  0  0  0  0
    5.1420    2.7731   -0.4243 C   0  0  0  0  0  0  0  0  0  0  0  0
    5.0343    3.6933   -1.5793 C   0  0  0  0  0  0  0  0  0  0  0  0
    6.1397    1.7996   -0.1403 C   0  0  0  0  0  0  0  0  0  0  0  0
    7.3470    1.4834   -0.9304 C   0  0  0  0  0  0  0  0  0  0  0  0
    3.4835   -1.6952    1.9815 C   0  0  0  0  0  0  0  0  0  0  0  0
    2.1023   -1.7418    1.7673 C   0  0  0  0  0  0  0  0  0  0  0  0
   -2.6853   -2.7231   -0.3155 C   0  0  0  0  0  0  0  0  0  0  0  0
   -2.0525   -3.9812   -0.4779 C   0  0  0  0  0  0  0  0  0  0  0  0
   -2.6370   -4.9804   -1.2547 C   0  0  0  0  0  0  0  0  0  0  0  0
   -3.8562   -4.7377   -1.8697 C   0  0  0  0  0  0  0  0  0  0  0  0
   -4.4854   -3.5012   -1.6989 C   0  0  0  0  0  0  0  0  0  0  0  0
   -3.9246   -2.4900   -0.9316 C   0  0  0  0  0  0  0  0  0  0  0  0
   -4.5883   -1.3269   -0.8143 N   0  0  0  0  0  0  0  0  0  0  0  0
   -4.3477    2.1818    0.2429 C   0  0  0  0  0  0  0  0  0  0  0  0
   -5.1432    3.3344    0.2923 C   0  0  0  0  0  0  0  0  0  0  0  0
   -7.5412    4.8376   -0.9142 H   0  0  0  0  0  0  0  0  0  0  0  0
   -8.3428    4.2861    0.5826 H   0  0  0  0  0  0  0  0  0  0  0  0
   -6.8967    5.2912    0.6807 H   0  0  0  0  0  0  0  0  0  0  0  0
   -8.1606    1.9135   -0.3431 H   0  0  0  0  0  0  0  0  0  0  0  0
   -6.7684   -0.0997   -0.4153 H   0  0  0  0  0  0  0  0  0  0  0  0
   -2.4554    0.3319    1.2079 H   0  0  0  0  0  0  0  0  0  0  0  0
   -0.0512   -1.4470   -0.7819 H   0  0  0  0  0  0  0  0  0  0  0  0
    2.0747   -1.2165   -1.6028 H   0  0  0  0  0  0  0  0  0  0  0  0
    4.4989   -1.1318   -1.2322 H   0  0  0  0  0  0  0  0  0  0  0  0
    6.1735    0.1970    2.7888 H   0  0  0  0  0  0  0  0  0  0  0  0
    4.7883    4.7077   -1.2467 H   0  0  0  0  0  0  0  0  0  0  0  0
    5.9694    3.7446   -2.1420 H   0  0  0  0  0  0  0  0  0  0  0  0
    4.2491    3.3536   -2.2594 H   0  0  0  0  0  0  0  0  0  0  0  0
    7.0813    0.8926   -1.8089 H   0  0  0  0  0  0  0  0  0  0  0  0
    8.0791    0.9191   -0.3460 H   0  0  0  0  0  0  0  0  0  0  0  0
    7.8379    2.4019   -1.2669 H   0  0  0  0  0  0  0  0  0  0  0  0
    3.8708   -1.8494    2.9870 H   0  0  0  0  0  0  0  0  0  0  0  0
    1.4612   -1.9218    2.6268 H   0  0  0  0  0  0  0  0  0  0  0  0
   -1.1056   -4.1976    0.0153 H   0  0  0  0  0  0  0  0  0  0  0  0
   -2.1453   -5.9437   -1.3704 H   0  0  0  0  0  0  0  0  0  0  0  0
   -4.3278   -5.5073   -2.4766 H   0  0  0  0  0  0  0  0  0  0  0  0
   -5.4441   -3.3214   -2.1790 H   0  0  0  0  0  0  0  0  0  0  0  0
   -3.2774    2.3043    0.3815 H   0  0  0  0  0  0  0  0  0  0  0  0
   -4.6714    4.2964    0.4785 H   0  0  0  0  0  0  0  0  0  0  0  0
  1  2  1  0
  2  3  2  0
  3  4  1  0
  4  5  2  0
  5  6  1  0
  6  7  2  0
  7  8  1  0
  8  9  1  0
  9 10  2  0
  9 11  1  0
 11 12  1  0
 12 13  2  0
 13 14  1  0
 14 15  2  0
 15 16  1  0
 16 17  2  0
 16 18  2  0
 16 19  1  0
 19 20  1  0
 20 21  1  0
 21 22  1  0
 22 23  2  0
 23 24  1  0
 23 25  1  0
 25 26  1  0
 15 27  1  0
 27 28  2  0
  8 29  2  0
 29 30  1  0
 30 31  2  0
 31 32  1  0
 32 33  2  0
 33 34  1  0
 34 35  2  0
  5 36  1  0
 36 37  2  0
 37  2  1  0
 35  6  1  0
 28 12  1  0
 34 29  1  0
 25 20  2  0
  1 38  1  0
  1 39  1  0
  1 40  1  0
  3 41  1  0
  4 42  1  0
  7 43  1  0
 11 44  1  0
 13 45  1  0
 14 46  1  0
 19 47  1  0
 24 48  1  0
 24 49  1  0
 24 50  1  0
 26 51  1  0
 26 52  1  0
 26 53  1  0
 27 54  1  0
 28 55  1  0
 30 56  1  0
 31 57  1  0
 32 58  1  0
 33 59  1  0
 36 60  1  0
 37 61  1  0
M  END
$$$$
