
     RDKit          3D

 51 55  0  0  0  0  0  0  0  0999 V2000
   -3.6341   -2.4352    0.4508 C   0  0  0  0  0  0  0  0  0  0  0  0
   -2.9403   -1.2915   -0.2471 C   0  0  0  0  0  0  0  0  0  0  0  0
   -1.5693   -1.2289   -0.0436 N   0  0  0  0  0  0  0  0  0  0  0  0
   -0.8037   -0.2572   -0.5853 C   0  0  0  0  0  0  0  0  0  0  0  0
    0.5395    0.0451   -0.5235 C   0  0  0  0  0  0  0  0  0  0  0  0
    1.5353   -0.6913    0.2318 C   0  0  0  0  0  0  0  0  0  0  0  0
    1.2388   -1.6501    0.9405 O   0  0  0  0  0  0  0  0  0  0  0  0
    2.8307   -0.2509    0.0917 N   0  0  0  0  0  0  0  0  0  0  0  0
    3.9173   -0.9578    0.7252 C   0  0  0  0  0  0  0  0  0  0  0  0
    5.2073   -0.1988    0.5663 C   0  0  0  0  0  0  0  0  0  0  0  0
    5.5240    0.8544    1.4560 C   0  0  0  0  0  0  0  0  0  0  0  0
    6.7021    1.5932    1.3071 C   0  0  0  0  0  0  0  0  0  0  0  0
    7.5364    1.2644    0.2617 C   0  0  0  0  0  0  0  0  0  0  0  0
    7.2333    0.2490   -0.6137 C   0  0  0  0  0  0  0  0  0  0  0  0
    6.0798   -0.4973   -0.4930 C   0  0  0  0  0  0  0  0  0  0  0  0
    8.1823    0.0918   -1.5749 O   0  0  0  0  0  0  0  0  0  0  0  0
    9.1216    1.1212   -1.1995 C   0  0  0  0  0  0  0  0  0  0  0  0
    8.7149    1.8728   -0.0371 O   0  0  0  0  0  0  0  0  0  0  0  0
    0.6457    1.1940   -1.3439 C   0  0  0  0  0  0  0  0  0  0  0  0
   -0.5142    1.5755   -1.8868 N   0  0  0  0  0  0  0  0  0  0  0  0
   -1.4106    0.6767   -1.3937 N   0  0  0  0  0  0  0  0  0  0  0  0
   -2.7815    0.6978   -1.6989 C   0  0  0  0  0  0  0  0  0  0  0  0
   -3.2451    1.5248   -2.4748 O   0  0  0  0  0  0  0  0  0  0  0  0
   -3.5881   -0.3815   -1.0187 C   0  0  0  0  0  0  0  0  0  0  0  0
   -5.0726   -0.3282   -1.2852 C   0  0  0  0  0  0  0  0  0  0  0  0
   -5.9217    0.0176   -0.0811 C   0  0  0  0  0  0  0  0  0  0  0  0
   -7.0240   -0.7816    0.2618 C   0  0  0  0  0  0  0  0  0  0  0  0
   -7.8260   -0.4558    1.3593 C   0  0  0  0  0  0  0  0  0  0  0  0
   -7.5452    0.6771    2.1218 C   0  0  0  0  0  0  0  0  0  0  0  0
   -6.4644    1.4876    1.7833 C   0  0  0  0  0  0  0  0  0  0  0  0
   -5.6686    1.1582    0.6890 C   0  0  0  0  0  0  0  0  0  0  0  0
   -4.6399    1.9620    0.3862 F   0  0  0  0  0  0  0  0  0  0  0  0
   -4.6454   -2.6184    0.0813 H   0  0  0  0  0  0  0  0  0  0  0  0
   -3.6896   -2.2405    1.5268 H   0  0  0  0  0  0  0  0  0  0  0  0
   -3.0747   -3.3654    0.2993 H   0  0  0  0  0  0  0  0  0  0  0  0
   -1.1515   -1.9217    0.5843 H   0  0  0  0  0  0  0  0  0  0  0  0
    3.0631    0.4447   -0.6014 H   0  0  0  0  0  0  0  0  0  0  0  0
    3.6845   -1.1065    1.7864 H   0  0  0  0  0  0  0  0  0  0  0  0
    3.9910   -1.9537    0.2724 H   0  0  0  0  0  0  0  0  0  0  0  0
    4.8446    1.1002    2.2710 H   0  0  0  0  0  0  0  0  0  0  0  0
    6.9513    2.3992    1.9882 H   0  0  0  0  0  0  0  0  0  0  0  0
    5.8653   -1.2898   -1.2026 H   0  0  0  0  0  0  0  0  0  0  0  0
    9.2374    1.8134   -2.0414 H   0  0  0  0  0  0  0  0  0  0  0  0
   10.0910    0.6530   -0.9932 H   0  0  0  0  0  0  0  0  0  0  0  0
    1.5255    1.7795   -1.5777 H   0  0  0  0  0  0  0  0  0  0  0  0
   -5.3800   -1.3002   -1.6938 H   0  0  0  0  0  0  0  0  0  0  0  0
   -5.3214    0.3904   -2.0752 H   0  0  0  0  0  0  0  0  0  0  0  0
   -7.2684   -1.6652   -0.3243 H   0  0  0  0  0  0  0  0  0  0  0  0
   -8.6751   -1.0851    1.6163 H   0  0  0  0  0  0  0  0  0  0  0  0
   -8.1711    0.9314    2.9733 H   0  0  0  0  0  0  0  0  0  0  0  0
   -6.2362    2.3780    2.3607 H   0  0  0  0  0  0  0  0  0  0  0  0
  1  2  1  0
  2  3  1  0
  3  4  1  0
  4  5  2  0
  5  6  1  0
  6  7  2  0
  6  8  1  0
  8  9  1  0
  9 10  1  0
 10 11  2  0
 11 12  1  0
 12 13  2  0
 13 14  1  0
 14 15  2  0
 14 16  1  0
 16 17  1  0
 17 18  1  0
  5 19  1  0
 19 20  2  0
 20 21  1  0
 21 22  1  0
 22 23  2  0
 22 24  1  0
 24 25  1  0
 25 26  1  0
 26 27  2  0
 27 28  1  0
 28 29  2  0
 29 30  1  0
 30 31  2  0
 31 32  1  0
 24  2  2  0
 31 26  1  0
 21  4  1  0
 15 10  1  0
 18 13  1  0
  1 33  1  0
  1 34  1  0
  1 35  1  0
  3 36  1  0
  8 37  1  0
  9 38  1  0
  9 39  1  0
 11 40  1  0
 12 41  1  0
 15 42  1  0
 17 43  1  0
 17 44  1  0
 19 45  1  0
 25 46  1  0
 25 47  1  0
 27 48  1  0
 28 49  1  0
 29 50  1  0
 30 51  1  0
M  END
$$$$
