
     RDKit          3D

 34 37  0  0  0  0  0  0  0  0999 V2000
   -3.4237   -2.1562    1.9630 C   0  0  0  0  0  0  0  0  0  0  0  0
   -2.9134   -0.9300    1.4547 O   0  0  0  0  0  0  0  0  0  0  0  0
   -3.5902   -0.3472    0.4133 C   0  0  0  0  0  0  0  0  0  0  0  0
   -4.7806   -0.8355   -0.1355 C   0  0  0  0  0  0  0  0  0  0  0  0
   -5.3992   -0.1634   -1.1946 C   0  0  0  0  0  0  0  0  0  0  0  0
   -4.8312    0.9999   -1.7066 C   0  0  0  0  0  0  0  0  0  0  0  0
   -5.6729    1.9035   -3.1375 Br  0  0  0  0  0  0  0  0  0  0  0  0
   -3.6475    1.5022   -1.1724 C   0  0  0  0  0  0  0  0  0  0  0  0
   -3.0214    0.8310   -0.1131 C   0  0  0  0  0  0  0  0  0  0  0  0
   -1.7679    1.3840    0.4185 C   0  0  0  0  0  0  0  0  0  0  0  0
   -0.5433    0.9329    0.1146 C   0  0  0  0  0  0  0  0  0  0  0  0
   -0.1414   -0.3709   -0.9894 S   0  0  0  0  0  0  0  0  0  0  0  0
    1.5210   -0.1432   -0.6376 C   0  0  0  0  0  0  0  0  0  0  0  0
    2.6345   -0.6968   -1.0197 N   0  0  0  0  0  0  0  0  0  0  0  0
    3.5687    0.0383   -0.3047 C   0  0  0  0  0  0  0  0  0  0  0  0
    5.1045   -0.2392   -0.4110 C   0  0  0  0  0  0  0  0  0  0  0  0
    6.0984    0.4444    0.2637 C   0  0  0  0  0  0  0  0  0  0  0  0
    7.3302   -0.1340   -0.1282 C   0  0  0  0  0  0  0  0  0  0  0  0
    7.0146   -1.1338   -1.0167 C   0  0  0  0  0  0  0  0  0  0  0  0
    5.6710   -1.2063   -1.1950 O   0  0  0  0  0  0  0  0  0  0  0  0
    3.0574    1.0073    0.4849 N   0  0  0  0  0  0  0  0  0  0  0  0
    1.7441    0.8528    0.2417 N   0  0  0  0  0  0  0  0  0  0  0  0
    0.6649    1.5488    0.7416 C   0  0  0  0  0  0  0  0  0  0  0  0
    0.7509    2.4735    1.5289 O   0  0  0  0  0  0  0  0  0  0  0  0
   -4.4156   -2.0166    2.4048 H   0  0  0  0  0  0  0  0  0  0  0  0
   -2.7507   -2.4939    2.7570 H   0  0  0  0  0  0  0  0  0  0  0  0
   -3.4387   -2.9299    1.1884 H   0  0  0  0  0  0  0  0  0  0  0  0
   -5.2569   -1.7364    0.2376 H   0  0  0  0  0  0  0  0  0  0  0  0
   -6.3238   -0.5569   -1.6102 H   0  0  0  0  0  0  0  0  0  0  0  0
   -3.2103    2.4108   -1.5795 H   0  0  0  0  0  0  0  0  0  0  0  0
   -1.8955    2.2030    1.1244 H   0  0  0  0  0  0  0  0  0  0  0  0
    5.9424    1.2620    0.9544 H   0  0  0  0  0  0  0  0  0  0  0  0
    8.3232    0.1432    0.1962 H   0  0  0  0  0  0  0  0  0  0  0  0
    7.5985   -1.8475   -1.5812 H   0  0  0  0  0  0  0  0  0  0  0  0
  1  2  1  0
  2  3  1  0
  3  4  2  0
  4  5  1  0
  5  6  2  0
  6  7  1  0
  6  8  1  0
  8  9  2  0
  9 10  1  0
 10 11  2  3
 11 12  1  0
 12 13  1  0
 13 14  2  0
 14 15  1  0
 15 16  1  0
 16 17  2  0
 17 18  1  0
 18 19  2  0
 19 20  1  0
 15 21  2  0
 21 22  1  0
 22 23  1  0
 23 24  2  0
  9  3  1  0
 23 11  1  0
 22 13  1  0
 20 16  1  0
  1 25  1  0
  1 26  1  0
  1 27  1  0
  4 28  1  0
  5 29  1  0
  8 30  1  0
 10 31  1  0
 17 32  1  0
 18 33  1  0
 19 34  1  0
M  END
$$$$
