
     RDKit          3D

 58 59  0  0  0  0  0  0  0  0999 V2000
    9.7624   -1.7091   -1.5816 C   0  0  0  0  0  0  0  0  0  0  0  0
    9.6711   -0.5931   -0.5524 C   0  0  0  0  0  0  0  0  0  0  0  0
    8.5336    0.3914   -0.8222 C   0  0  0  0  0  0  0  0  0  0  0  0
    7.1447   -0.2260   -0.6687 C   0  0  0  0  0  0  0  0  0  0  0  0
    6.1796    0.8038   -0.8910 O   0  0  0  0  0  0  0  0  0  0  0  0
    4.8610    0.4523   -0.7967 C   0  0  0  0  0  0  0  0  0  0  0  0
    4.3709   -0.8045   -0.4349 C   0  0  0  0  0  0  0  0  0  0  0  0
    2.9907   -1.0296   -0.3672 C   0  0  0  0  0  0  0  0  0  0  0  0
    2.0927    0.0040   -0.6607 C   0  0  0  0  0  0  0  0  0  0  0  0
    0.6211   -0.2058   -0.6028 C   0  0  0  0  0  0  0  0  0  0  0  0
   -0.1299    0.4240   -1.3377 O   0  0  0  0  0  0  0  0  0  0  0  0
    0.1793   -1.1121    0.3401 N   0  0  0  0  0  0  0  0  0  0  0  0
   -1.2441   -1.2376    0.6128 C   0  0  0  0  0  0  0  0  0  0  0  0
   -1.6632   -0.3047    1.7426 C   0  0  0  0  0  0  0  0  0  0  0  0
   -0.8982    0.1944    2.5588 O   0  0  0  0  0  0  0  0  0  0  0  0
   -3.0195   -0.1747    1.7634 O   0  0  0  0  0  0  0  0  0  0  0  0
   -3.5019    0.6935    2.7904 C   0  0  0  0  0  0  0  0  0  0  0  0
   -5.0235    0.7444    2.7659 C   0  0  0  0  0  0  0  0  0  0  0  0
   -5.6831    0.7883    3.8102 O   0  0  0  0  0  0  0  0  0  0  0  0
   -5.7146    0.7071    1.4419 C   0  0  0  0  0  0  0  0  0  0  0  0
   -6.8247   -0.0445    1.2759 C   0  0  0  0  0  0  0  0  0  0  0  0
   -7.3863   -0.7642    2.3293 N   0  0  0  0  0  0  0  0  0  0  0  0
   -7.4090   -0.1114    0.0134 N   0  0  0  0  0  0  0  0  0  0  0  0
   -8.5868   -0.9545   -0.1878 C   0  0  0  0  0  0  0  0  0  0  0  0
   -6.8851    0.5222   -1.1160 C   0  0  0  0  0  0  0  0  0  0  0  0
   -7.4255    0.4574   -2.2217 O   0  0  0  0  0  0  0  0  0  0  0  0
   -5.7202    1.2439   -0.9235 N   0  0  0  0  0  0  0  0  0  0  0  0
   -5.1592    1.9430   -2.0655 C   0  0  0  0  0  0  0  0  0  0  0  0
   -5.1753    1.4885    0.3150 C   0  0  0  0  0  0  0  0  0  0  0  0
   -4.3001    2.3272    0.5238 O   0  0  0  0  0  0  0  0  0  0  0  0
    2.5812    1.2566   -1.0408 C   0  0  0  0  0  0  0  0  0  0  0  0
    3.9600    1.4778   -1.0990 C   0  0  0  0  0  0  0  0  0  0  0  0
   10.6376   -2.3361   -1.3808 H   0  0  0  0  0  0  0  0  0  0  0  0
    8.8786   -2.3560   -1.5557 H   0  0  0  0  0  0  0  0  0  0  0  0
    9.8623   -1.3002   -2.5922 H   0  0  0  0  0  0  0  0  0  0  0  0
    9.5591   -1.0274    0.4473 H   0  0  0  0  0  0  0  0  0  0  0  0
   10.6176   -0.0406   -0.5538 H   0  0  0  0  0  0  0  0  0  0  0  0
    8.6355    0.8255   -1.8244 H   0  0  0  0  0  0  0  0  0  0  0  0
    8.6219    1.2354   -0.1252 H   0  0  0  0  0  0  0  0  0  0  0  0
    7.0047   -1.0230   -1.4076 H   0  0  0  0  0  0  0  0  0  0  0  0
    7.0400   -0.6281    0.3462 H   0  0  0  0  0  0  0  0  0  0  0  0
    5.0338   -1.6329   -0.2046 H   0  0  0  0  0  0  0  0  0  0  0  0
    2.6321   -2.0238   -0.1117 H   0  0  0  0  0  0  0  0  0  0  0  0
    0.7986   -1.2881    1.1227 H   0  0  0  0  0  0  0  0  0  0  0  0
   -1.4322   -2.2692    0.9255 H   0  0  0  0  0  0  0  0  0  0  0  0
   -1.8204   -1.0078   -0.2884 H   0  0  0  0  0  0  0  0  0  0  0  0
   -3.1041    1.7067    2.6726 H   0  0  0  0  0  0  0  0  0  0  0  0
   -3.2043    0.2915    3.7658 H   0  0  0  0  0  0  0  0  0  0  0  0
   -8.4015   -0.7184    2.3278 H   0  0  0  0  0  0  0  0  0  0  0  0
   -7.0411   -0.4404    3.2445 H   0  0  0  0  0  0  0  0  0  0  0  0
   -8.3589   -1.9760    0.1326 H   0  0  0  0  0  0  0  0  0  0  0  0
   -9.4221   -0.5525    0.3943 H   0  0  0  0  0  0  0  0  0  0  0  0
   -8.8978   -0.9994   -1.2351 H   0  0  0  0  0  0  0  0  0  0  0  0
   -4.0992    2.1672   -1.9096 H   0  0  0  0  0  0  0  0  0  0  0  0
   -5.2611    1.3414   -2.9739 H   0  0  0  0  0  0  0  0  0  0  0  0
   -5.7059    2.8826   -2.1993 H   0  0  0  0  0  0  0  0  0  0  0  0
    1.8935    2.0641   -1.2839 H   0  0  0  0  0  0  0  0  0  0  0  0
    4.3349    2.4580   -1.3868 H   0  0  0  0  0  0  0  0  0  0  0  0
  1  2  1  0
  2  3  1  0
  3  4  1  0
  4  5  1  0
  5  6  1  0
  6  7  2  0
  7  8  1  0
  8  9  2  0
  9 10  1  0
 10 11  2  0
 10 12  1  0
 12 13  1  0
 13 14  1  0
 14 15  2  0
 14 16  1  0
 16 17  1  0
 17 18  1  0
 18 19  2  0
 18 20  1  0
 20 21  2  0
 21 22  1  0
 21 23  1  0
 23 24  1  0
 23 25  1  0
 25 26  2  0
 25 27  1  0
 27 28  1  0
 27 29  1  0
 29 30  2  0
  9 31  1  0
 31 32  2  0
 32  6  1  0
 29 20  1  0
  1 33  1  0
  1 34  1  0
  1 35  1  0
  2 36  1  0
  2 37  1  0
  3 38  1  0
  3 39  1  0
  4 40  1  0
  4 41  1  0
  7 42  1  0
  8 43  1  0
 12 44  1  0
 13 45  1  0
 13 46  1  0
 17 47  1  0
 17 48  1  0
 22 49  1  0
 22 50  1  0
 24 51  1  0
 24 52  1  0
 24 53  1  0
 28 54  1  0
 28 55  1  0
 28 56  1  0
 31 57  1  0
 32 58  1  0
M  END
$$$$
