
     RDKit          3D

 55 58  0  0  0  0  0  0  0  0999 V2000
    2.6421   -2.4620   -2.3283 O   0  0  0  0  0  0  0  0  0  0  0  0
    1.9144   -1.6703   -1.7231 C   0  0  0  0  0  0  0  0  0  0  0  0
    0.4065   -1.7843   -1.7438 C   0  0  0  0  0  0  0  0  0  0  0  0
   -0.3828   -0.3594   -2.5391 S   0  0  0  0  0  0  0  0  0  0  0  0
   -0.7205    0.5891   -1.1372 C   0  0  0  0  0  0  0  0  0  0  0  0
    0.1808    0.9651   -0.2664 N   0  0  0  0  0  0  0  0  0  0  0  0
   -0.4599    1.7094    0.6897 N   0  0  0  0  0  0  0  0  0  0  0  0
   -1.7477    1.7612    0.3953 C   0  0  0  0  0  0  0  0  0  0  0  0
   -2.7353    2.5396    1.1383 C   0  0  0  0  0  0  0  0  0  0  0  0
   -2.5623    3.9285    1.2311 C   0  0  0  0  0  0  0  0  0  0  0  0
   -3.4684    4.7143    1.9495 C   0  0  0  0  0  0  0  0  0  0  0  0
   -4.5480    4.1162    2.5972 C   0  0  0  0  0  0  0  0  0  0  0  0
   -4.7265    2.7351    2.5258 C   0  0  0  0  0  0  0  0  0  0  0  0
   -3.8210    1.9537    1.8039 C   0  0  0  0  0  0  0  0  0  0  0  0
   -4.0017    0.5995    1.7451 O   0  0  0  0  0  0  0  0  0  0  0  0
   -1.9601    1.0274   -0.7578 N   0  0  0  0  0  0  0  0  0  0  0  0
   -3.2166    0.8549   -1.4664 C   0  0  0  0  0  0  0  0  0  0  0  0
   -3.6401   -0.5903   -1.6393 C   0  0  0  0  0  0  0  0  0  0  0  0
   -4.2452   -0.9855   -2.8460 C   0  0  0  0  0  0  0  0  0  0  0  0
   -4.6618   -2.3040   -3.0372 C   0  0  0  0  0  0  0  0  0  0  0  0
   -4.4822   -3.2444   -2.0250 C   0  0  0  0  0  0  0  0  0  0  0  0
   -3.8946   -2.8669   -0.8192 C   0  0  0  0  0  0  0  0  0  0  0  0
   -3.4790   -1.5478   -0.6267 C   0  0  0  0  0  0  0  0  0  0  0  0
    2.4326   -0.6758   -0.9222 N   0  0  0  0  0  0  0  0  0  0  0  0
    3.8068   -0.7257   -0.6310 N   0  0  0  0  0  0  0  0  0  0  0  0
    4.1994   -0.2936    0.6230 C   0  0  0  0  0  0  0  0  0  0  0  0
    3.4465    0.3137    1.3843 O   0  0  0  0  0  0  0  0  0  0  0  0
    5.5822   -0.6241    1.0747 C   0  0  0  0  0  0  0  0  0  0  0  0
    6.5608   -1.1052    0.1899 C   0  0  0  0  0  0  0  0  0  0  0  0
    7.8410   -1.4287    0.6592 C   0  0  0  0  0  0  0  0  0  0  0  0
    8.1589   -1.2614    2.0064 C   0  0  0  0  0  0  0  0  0  0  0  0
    7.2035   -0.7621    2.8895 C   0  0  0  0  0  0  0  0  0  0  0  0
    5.9275   -0.4412    2.4277 C   0  0  0  0  0  0  0  0  0  0  0  0
    5.0575    0.0546    3.3650 O   0  0  0  0  0  0  0  0  0  0  0  0
    0.0338   -1.9461   -0.7266 H   0  0  0  0  0  0  0  0  0  0  0  0
    0.1423   -2.6768   -2.3217 H   0  0  0  0  0  0  0  0  0  0  0  0
   -1.7128    4.4067    0.7435 H   0  0  0  0  0  0  0  0  0  0  0  0
   -3.3241    5.7911    2.0123 H   0  0  0  0  0  0  0  0  0  0  0  0
   -5.2487    4.7270    3.1627 H   0  0  0  0  0  0  0  0  0  0  0  0
   -5.5707    2.2869    3.0420 H   0  0  0  0  0  0  0  0  0  0  0  0
   -4.6647    0.3431    2.4109 H   0  0  0  0  0  0  0  0  0  0  0  0
   -4.0124    1.3998   -0.9499 H   0  0  0  0  0  0  0  0  0  0  0  0
   -3.0770    1.3402   -2.4425 H   0  0  0  0  0  0  0  0  0  0  0  0
   -4.3907   -0.2690   -3.6497 H   0  0  0  0  0  0  0  0  0  0  0  0
   -5.1231   -2.5993   -3.9764 H   0  0  0  0  0  0  0  0  0  0  0  0
   -4.8042   -4.2710   -2.1753 H   0  0  0  0  0  0  0  0  0  0  0  0
   -3.7685   -3.5988   -0.0240 H   0  0  0  0  0  0  0  0  0  0  0  0
   -3.0286   -1.2791    0.3305 H   0  0  0  0  0  0  0  0  0  0  0  0
    1.8554   -0.0419   -0.3567 H   0  0  0  0  0  0  0  0  0  0  0  0
    4.3102   -1.4584   -1.1259 H   0  0  0  0  0  0  0  0  0  0  0  0
    6.3636   -1.2255   -0.8711 H   0  0  0  0  0  0  0  0  0  0  0  0
    8.5927   -1.8083   -0.0314 H   0  0  0  0  0  0  0  0  0  0  0  0
    9.1542   -1.5118    2.3695 H   0  0  0  0  0  0  0  0  0  0  0  0
    7.4516   -0.6162    3.9377 H   0  0  0  0  0  0  0  0  0  0  0  0
    4.2147    0.2779    2.9042 H   0  0  0  0  0  0  0  0  0  0  0  0
  1  2  2  0
  2  3  1  0
  3  4  1  0
  4  5  1  0
  5  6  2  0
  6  7  1  0
  7  8  2  0
  8  9  1  0
  9 10  2  0
 10 11  1  0
 11 12  2  0
 12 13  1  0
 13 14  2  0
 14 15  1  0
  8 16  1  0
 16 17  1  0
 17 18  1  0
 18 19  2  0
 19 20  1  0
 20 21  2  0
 21 22  1  0
 22 23  2  0
  2 24  1  0
 24 25  1  0
 25 26  1  0
 26 27  2  0
 26 28  1  0
 28 29  2  0
 29 30  1  0
 30 31  2  0
 31 32  1  0
 32 33  2  0
 33 34  1  0
 16  5  1  0
 23 18  1  0
 33 28  1  0
 14  9  1  0
  3 35  1  0
  3 36  1  0
 10 37  1  0
 11 38  1  0
 12 39  1  0
 13 40  1  0
 15 41  1  0
 17 42  1  0
 17 43  1  0
 19 44  1  0
 20 45  1  0
 21 46  1  0
 22 47  1  0
 23 48  1  0
 24 49  1  0
 25 50  1  0
 29 51  1  0
 30 52  1  0
 31 53  1  0
 32 54  1  0
 34 55  1  0
M  END
$$$$
