
     RDKit          3D

 53 56  0  0  0  0  0  0  0  0999 V2000
   -7.9064    1.7959    1.8135 C   0  0  0  0  0  0  0  0  0  0  0  0
   -6.6224    1.3444    1.1831 C   0  0  0  0  0  0  0  0  0  0  0  0
   -5.8325    2.2465    0.4634 C   0  0  0  0  0  0  0  0  0  0  0  0
   -4.6447    1.8293   -0.1505 C   0  0  0  0  0  0  0  0  0  0  0  0
   -4.2383    0.4932   -0.0717 C   0  0  0  0  0  0  0  0  0  0  0  0
   -3.0263    0.0211   -0.6663 N   0  0  0  0  0  0  0  0  0  0  0  0
   -2.5116   -1.1631   -0.2368 N   0  0  0  0  0  0  0  0  0  0  0  0
   -1.2974   -1.2363   -0.7832 C   0  0  0  0  0  0  0  0  0  0  0  0
   -0.3135   -2.2878   -0.5626 C   0  0  0  0  0  0  0  0  0  0  0  0
   -0.4829   -3.2337    0.2024 O   0  0  0  0  0  0  0  0  0  0  0  0
    0.8591   -2.1006   -1.3235 N   0  0  0  0  0  0  0  0  0  0  0  0
    1.9362   -3.0812   -1.1921 C   0  0  0  0  0  0  0  0  0  0  0  0
    2.9349   -2.7039   -0.0966 C   0  0  0  0  0  0  0  0  0  0  0  0
    3.7197   -3.5199    0.3823 O   0  0  0  0  0  0  0  0  0  0  0  0
    2.9775   -1.3615    0.2155 N   0  0  0  0  0  0  0  0  0  0  0  0
    3.9148   -0.8119    1.1735 C   0  0  0  0  0  0  0  0  0  0  0  0
    5.3173   -0.6328    0.5868 C   0  0  0  0  0  0  0  0  0  0  0  0
    6.2417    0.0169    1.5739 C   0  0  0  0  0  0  0  0  0  0  0  0
    6.9767   -0.5872    2.5750 C   0  0  0  0  0  0  0  0  0  0  0  0
    7.7328    0.3529    3.3321 C   0  0  0  0  0  0  0  0  0  0  0  0
    7.5556    1.6425    2.8788 C   0  0  0  0  0  0  0  0  0  0  0  0
    6.4821    1.7138    1.5504 S   0  0  0  0  0  0  0  0  0  0  0  0
    1.1093   -1.0075   -2.1674 N   0  0  0  0  0  0  0  0  0  0  0  0
    0.2086   -0.0804   -2.3510 C   0  0  0  0  0  0  0  0  0  0  0  0
    0.5324    1.0541   -3.2810 C   0  0  0  0  0  0  0  0  0  0  0  0
   -1.0515   -0.1702   -1.6550 C   0  0  0  0  0  0  0  0  0  0  0  0
   -2.2123    0.5862   -1.6575 C   0  0  0  0  0  0  0  0  0  0  0  0
   -2.6094    1.7208   -2.5312 C   0  0  0  0  0  0  0  0  0  0  0  0
   -5.0276   -0.4079    0.6624 C   0  0  0  0  0  0  0  0  0  0  0  0
   -6.2144    0.0113    1.2714 C   0  0  0  0  0  0  0  0  0  0  0  0
   -8.2066    1.1231    2.6247 H   0  0  0  0  0  0  0  0  0  0  0  0
   -7.7942    2.7965    2.2436 H   0  0  0  0  0  0  0  0  0  0  0  0
   -8.7037    1.8168    1.0637 H   0  0  0  0  0  0  0  0  0  0  0  0
   -6.1302    3.2911    0.3906 H   0  0  0  0  0  0  0  0  0  0  0  0
   -4.0492    2.5924   -0.6358 H   0  0  0  0  0  0  0  0  0  0  0  0
    2.4712   -3.1485   -2.1452 H   0  0  0  0  0  0  0  0  0  0  0  0
    1.5157   -4.0623   -0.9501 H   0  0  0  0  0  0  0  0  0  0  0  0
    2.4362   -0.7387   -0.3776 H   0  0  0  0  0  0  0  0  0  0  0  0
    3.9498   -1.4780    2.0438 H   0  0  0  0  0  0  0  0  0  0  0  0
    3.5016    0.1463    1.5063 H   0  0  0  0  0  0  0  0  0  0  0  0
    5.7290   -1.6083    0.2965 H   0  0  0  0  0  0  0  0  0  0  0  0
    5.2619   -0.0428   -0.3373 H   0  0  0  0  0  0  0  0  0  0  0  0
    6.9633   -1.6554    2.7638 H   0  0  0  0  0  0  0  0  0  0  0  0
    8.3710    0.0964    4.1694 H   0  0  0  0  0  0  0  0  0  0  0  0
    8.0035    2.5474    3.2652 H   0  0  0  0  0  0  0  0  0  0  0  0
   -0.0441    0.9438   -4.2032 H   0  0  0  0  0  0  0  0  0  0  0  0
    1.5967    1.0442   -3.5352 H   0  0  0  0  0  0  0  0  0  0  0  0
    0.2968    2.0111   -2.8094 H   0  0  0  0  0  0  0  0  0  0  0  0
   -2.3087    2.6753   -2.0889 H   0  0  0  0  0  0  0  0  0  0  0  0
   -3.6858    1.7282   -2.7270 H   0  0  0  0  0  0  0  0  0  0  0  0
   -2.1348    1.6440   -3.5138 H   0  0  0  0  0  0  0  0  0  0  0  0
   -4.7375   -1.4536    0.7624 H   0  0  0  0  0  0  0  0  0  0  0  0
   -6.8095   -0.7122    1.8230 H   0  0  0  0  0  0  0  0  0  0  0  0
  1  2  1  0
  2  3  2  0
  3  4  1  0
  4  5  2  0
  5  6  1  0
  6  7  1  0
  7  8  2  0
  8  9  1  0
  9 10  2  0
  9 11  1  0
 11 12  1  0
 12 13  1  0
 13 14  2  0
 13 15  1  0
 15 16  1  0
 16 17  1  0
 17 18  1  0
 18 19  2  0
 19 20  1  0
 20 21  2  0
 21 22  1  0
 11 23  1  0
 23 24  2  0
 24 25  1  0
 24 26  1  0
 26 27  2  0
 27 28  1  0
  5 29  1  0
 29 30  2  0
 30  2  1  0
 27  6  1  0
 26  8  1  0
 22 18  1  0
  1 31  1  0
  1 32  1  0
  1 33  1  0
  3 34  1  0
  4 35  1  0
 12 36  1  0
 12 37  1  0
 15 38  1  0
 16 39  1  0
 16 40  1  0
 17 41  1  0
 17 42  1  0
 19 43  1  0
 20 44  1  0
 21 45  1  0
 25 46  1  0
 25 47  1  0
 25 48  1  0
 28 49  1  0
 28 50  1  0
 28 51  1  0
 29 52  1  0
 30 53  1  0
M  END
$$$$
