
     RDKit          3D

 33 35  0  0  0  0  0  0  0  0999 V2000
    5.0156    1.0661   -1.3927 C   0  0  0  0  0  0  0  0  0  0  0  0
    4.3049    0.3849   -0.3353 N   0  0  0  0  0  0  0  0  0  0  0  0
    4.8504   -0.2696    0.7267 C   0  0  0  0  0  0  0  0  0  0  0  0
    3.7806   -0.7609    1.4464 C   0  0  0  0  0  0  0  0  0  0  0  0
    3.8671   -1.5543    2.6249 N   0  0  0  0  0  4  0  0  0  0  0  0
    4.5590   -1.1003    3.5447 O   0  0  0  0  0  0  0  0  0  0  0  0
    3.3094   -2.6562    2.5953 O   0  0  0  0  0  1  0  0  0  0  0  0
    2.6228   -0.3257    0.7672 C   0  0  0  0  0  0  0  0  0  0  0  0
    1.2136   -0.5097    1.1526 C   0  0  0  0  0  0  0  0  0  0  0  0
    0.9111   -0.9710    2.2432 O   0  0  0  0  0  0  0  0  0  0  0  0
    0.3663   -0.0663    0.1531 N   0  0  0  0  0  0  0  0  0  0  0  0
   -1.0178   -0.0722    0.1423 C   0  0  0  0  0  0  0  0  0  0  0  0
   -1.9150   -0.7225    1.4582 S   0  0  0  0  0  0  0  0  0  0  0  0
   -3.3569   -0.3679    0.6984 C   0  0  0  0  0  0  0  0  0  0  0  0
   -3.2106    0.2256   -0.5231 C   0  0  0  0  0  0  0  0  0  0  0  0
   -1.8512    0.4047   -0.8652 C   0  0  0  0  0  0  0  0  0  0  0  0
   -1.3837    0.9954   -2.0810 C   0  0  0  0  0  0  0  0  0  0  0  0
   -0.9865    1.4718   -3.0619 N   0  0  0  0  0  0  0  0  0  0  0  0
   -4.5309    0.5066   -1.1413 C   0  0  0  0  0  0  0  0  0  0  0  0
   -5.5089    0.3042    0.0596 C   0  0  0  0  0  0  0  0  0  0  0  0
   -4.7645   -0.5827    1.1054 C   0  0  0  0  0  0  0  0  0  0  0  0
    2.9564    0.3600   -0.3527 N   0  0  0  0  0  0  0  0  0  0  0  0
    4.7542    0.5927   -2.3423 H   0  0  0  0  0  0  0  0  0  0  0  0
    6.0912    0.9856   -1.2177 H   0  0  0  0  0  0  0  0  0  0  0  0
    4.7130    2.1161   -1.3885 H   0  0  0  0  0  0  0  0  0  0  0  0
    5.9187   -0.3459    0.8792 H   0  0  0  0  0  0  0  0  0  0  0  0
    0.8537    0.3265   -0.6516 H   0  0  0  0  0  0  0  0  0  0  0  0
   -4.7442   -0.2176   -1.9345 H   0  0  0  0  0  0  0  0  0  0  0  0
   -4.6048    1.5204   -1.5442 H   0  0  0  0  0  0  0  0  0  0  0  0
   -6.4637   -0.1313   -0.2509 H   0  0  0  0  0  0  0  0  0  0  0  0
   -5.7245    1.2818    0.5110 H   0  0  0  0  0  0  0  0  0  0  0  0
   -4.9768   -0.2544    2.1263 H   0  0  0  0  0  0  0  0  0  0  0  0
   -5.0479   -1.6337    0.9886 H   0  0  0  0  0  0  0  0  0  0  0  0
  1  2  1  0
  2  3  1  0
  3  4  2  0
  4  5  1  0
  5  6  2  0
  5  7  1  0
  4  8  1  0
  8  9  1  0
  9 10  2  0
  9 11  1  0
 11 12  1  0
 12 13  1  0
 13 14  1  0
 14 15  2  0
 15 16  1  0
 16 17  1  0
 17 18  3  0
 15 19  1  0
 19 20  1  0
 20 21  1  0
  8 22  2  0
 22  2  1  0
 16 12  2  0
 21 14  1  0
  1 23  1  0
  1 24  1  0
  1 25  1  0
  3 26  1  0
 11 27  1  0
 19 28  1  0
 19 29  1  0
 20 30  1  0
 20 31  1  0
 21 32  1  0
 21 33  1  0
M  CHG  2   5   1   7  -1
M  END
$$$$
