
     RDKit          3D

 62 66  0  0  0  0  0  0  0  0999 V2000
   -2.7682    5.5088   -1.7188 C   0  0  0  0  0  0  0  0  0  0  0  0
   -3.8970    4.9137   -2.3470 O   0  0  0  0  0  0  0  0  0  0  0  0
   -4.0481    3.5621   -2.1959 C   0  0  0  0  0  0  0  0  0  0  0  0
   -5.1811    3.0332   -2.8024 C   0  0  0  0  0  0  0  0  0  0  0  0
   -5.4701    1.6681   -2.7303 C   0  0  0  0  0  0  0  0  0  0  0  0
   -4.5888    0.8233   -2.0308 C   0  0  0  0  0  0  0  0  0  0  0  0
   -4.7443   -0.8741   -1.8130 S   0  0  0  0  0  0  0  0  0  0  0  0
   -3.3018   -0.9766   -0.9022 C   0  0  0  0  0  0  0  0  0  0  0  0
   -2.8761   -2.2956   -0.4165 C   0  0  0  0  0  0  0  0  0  0  0  0
   -1.9645   -3.0343   -1.1887 C   0  0  0  0  0  0  0  0  0  0  0  0
   -1.5262   -4.2863   -0.7620 C   0  0  0  0  0  0  0  0  0  0  0  0
   -1.9926   -4.8084    0.4408 C   0  0  0  0  0  0  0  0  0  0  0  0
   -2.8965   -4.0818    1.2215 C   0  0  0  0  0  0  0  0  0  0  0  0
   -3.3462   -2.8235    0.8038 C   0  0  0  0  0  0  0  0  0  0  0  0
   -4.2184   -2.0371    1.5144 O   0  0  0  0  0  0  0  0  0  0  0  0
   -4.7881   -2.5872    2.6937 C   0  0  0  0  0  0  0  0  0  0  0  0
   -2.6939    0.2598   -0.7645 C   0  0  0  0  0  0  0  0  0  0  0  0
   -1.4367    0.4181   -0.0438 C   0  0  0  0  0  0  0  0  0  0  0  0
   -0.2534    0.6634   -0.7475 C   0  0  0  0  0  0  0  0  0  0  0  0
    0.9565    0.8270   -0.0627 C   0  0  0  0  0  0  0  0  0  0  0  0
    0.9907    0.7514    1.3301 C   0  0  0  0  0  0  0  0  0  0  0  0
    2.0960    0.8844    2.1232 O   0  0  0  0  0  0  0  0  0  0  0  0
    3.3404    1.2386    1.5125 C   0  0  0  0  0  0  0  0  0  0  0  0
    4.1021   -0.0154    1.0526 C   0  0  0  0  0  0  0  0  0  0  0  0
    5.3552    0.2920    0.3523 N   0  0  0  0  0  0  0  0  0  0  0  0
    5.9883   -0.9167   -0.1819 C   0  0  0  0  0  0  0  0  0  0  0  0
    7.3879   -0.4392   -0.5327 C   0  0  0  0  0  0  0  0  0  0  0  0
    7.6609    0.7167    0.4227 C   0  0  0  0  0  0  0  0  0  0  0  0
    6.3736    0.8944    1.2160 C   0  0  0  0  0  0  0  0  0  0  0  0
   -0.1949    0.5055    2.0291 C   0  0  0  0  0  0  0  0  0  0  0  0
   -1.4046    0.3426    1.3503 C   0  0  0  0  0  0  0  0  0  0  0  0
   -3.4379    1.3168   -1.4139 C   0  0  0  0  0  0  0  0  0  0  0  0
   -3.1787    2.7135   -1.5045 C   0  0  0  0  0  0  0  0  0  0  0  0
   -2.8049    5.3763   -0.6324 H   0  0  0  0  0  0  0  0  0  0  0  0
   -1.8336    5.1179   -2.1347 H   0  0  0  0  0  0  0  0  0  0  0  0
   -2.7995    6.5832   -1.9241 H   0  0  0  0  0  0  0  0  0  0  0  0
   -5.8587    3.6922   -3.3409 H   0  0  0  0  0  0  0  0  0  0  0  0
   -6.3614    1.2693   -3.2058 H   0  0  0  0  0  0  0  0  0  0  0  0
   -1.5936   -2.6307   -2.1282 H   0  0  0  0  0  0  0  0  0  0  0  0
   -0.8212   -4.8509   -1.3663 H   0  0  0  0  0  0  0  0  0  0  0  0
   -1.6498   -5.7840    0.7767 H   0  0  0  0  0  0  0  0  0  0  0  0
   -3.2257   -4.5254    2.1550 H   0  0  0  0  0  0  0  0  0  0  0  0
   -5.4929   -1.8539    3.0975 H   0  0  0  0  0  0  0  0  0  0  0  0
   -4.0213   -2.7641    3.4550 H   0  0  0  0  0  0  0  0  0  0  0  0
   -5.3491   -3.5017    2.4748 H   0  0  0  0  0  0  0  0  0  0  0  0
   -0.2635    0.7219   -1.8336 H   0  0  0  0  0  0  0  0  0  0  0  0
    1.8500    1.0019   -0.6526 H   0  0  0  0  0  0  0  0  0  0  0  0
    3.9205    1.7455    2.2924 H   0  0  0  0  0  0  0  0  0  0  0  0
    3.2119    1.9759    0.7114 H   0  0  0  0  0  0  0  0  0  0  0  0
    3.4536   -0.5901    0.3802 H   0  0  0  0  0  0  0  0  0  0  0  0
    4.2760   -0.6687    1.9184 H   0  0  0  0  0  0  0  0  0  0  0  0
    6.0443   -1.7124    0.5721 H   0  0  0  0  0  0  0  0  0  0  0  0
    5.4636   -1.3037   -1.0610 H   0  0  0  0  0  0  0  0  0  0  0  0
    7.4262   -0.0802   -1.5681 H   0  0  0  0  0  0  0  0  0  0  0  0
    8.1274   -1.2391   -0.4273 H   0  0  0  0  0  0  0  0  0  0  0  0
    8.5079    0.5028    1.0826 H   0  0  0  0  0  0  0  0  0  0  0  0
    7.8990    1.6222   -0.1471 H   0  0  0  0  0  0  0  0  0  0  0  0
    6.4551    0.3664    2.1747 H   0  0  0  0  0  0  0  0  0  0  0  0
    6.1771    1.9523    1.4160 H   0  0  0  0  0  0  0  0  0  0  0  0
   -0.1774    0.4405    3.1142 H   0  0  0  0  0  0  0  0  0  0  0  0
   -2.3157    0.1540    1.9136 H   0  0  0  0  0  0  0  0  0  0  0  0
   -2.2879    3.0935   -1.0164 H   0  0  0  0  0  0  0  0  0  0  0  0
  1  2  1  0
  2  3  1  0
  3  4  2  0
  4  5  1  0
  5  6  2  0
  6  7  1  0
  7  8  1  0
  8  9  1  0
  9 10  2  0
 10 11  1  0
 11 12  2  0
 12 13  1  0
 13 14  2  0
 14 15  1  0
 15 16  1  0
  8 17  2  0
 17 18  1  0
 18 19  2  0
 19 20  1  0
 20 21  2  0
 21 22  1  0
 22 23  1  0
 23 24  1  0
 24 25  1  0
 25 26  1  0
 26 27  1  0
 27 28  1  0
 28 29  1  0
 21 30  1  0
 30 31  2  0
 17 32  1  0
 32 33  2  0
 33  3  1  0
 32  6  1  0
 14  9  1  0
 31 18  1  0
 29 25  1  0
  1 34  1  0
  1 35  1  0
  1 36  1  0
  4 37  1  0
  5 38  1  0
 10 39  1  0
 11 40  1  0
 12 41  1  0
 13 42  1  0
 16 43  1  0
 16 44  1  0
 16 45  1  0
 19 46  1  0
 20 47  1  0
 23 48  1  0
 23 49  1  0
 24 50  1  0
 24 51  1  0
 26 52  1  0
 26 53  1  0
 27 54  1  0
 27 55  1  0
 28 56  1  0
 28 57  1  0
 29 58  1  0
 29 59  1  0
 30 60  1  0
 31 61  1  0
 33 62  1  0
M  END
$$$$
