
     RDKit          3D

 45 44  0  0  0  0  0  0  0  0999 V2000
    4.2718   -2.0587    2.9890 C   0  0  0  0  0  0  0  0  0  0  0  0
    3.5596   -2.6896    1.8027 C   0  0  0  0  0  0  0  0  0  0  0  0
    4.2854   -2.4798    0.4702 C   0  0  0  0  0  0  0  0  0  0  0  0
    4.4296   -1.0192    0.0412 C   0  0  0  0  0  0  0  0  0  0  0  0
    3.1565   -0.3585   -0.1238 N   0  0  0  0  0  0  0  0  0  0  0  0
    2.3993   -0.4828   -1.2472 C   0  0  0  0  0  0  0  0  0  0  0  0
    2.7171   -1.0909   -2.2568 O   0  0  0  0  0  0  0  0  0  0  0  0
    1.2281    0.1726   -1.0633 O   0  0  0  0  0  0  0  0  0  0  0  0
    0.3436    0.1173   -2.1954 C   0  0  0  0  0  0  0  0  0  0  0  0
   -0.9184    0.9467   -1.9038 C   0  0  0  0  0  0  0  0  0  0  0  0
   -0.6208    2.4116   -1.5315 C   0  0  0  0  0  0  0  0  0  0  0  0
    0.1119    3.1794   -2.6214 C   0  0  0  0  0  0  0  0  0  0  0  0
   -1.6827    0.3189   -0.8300 N   0  0  0  0  0  0  0  0  0  0  0  0
   -3.0278    0.4668   -0.6913 C   0  0  0  0  0  0  0  0  0  0  0  0
   -3.7661    1.0106   -1.4972 O   0  0  0  0  0  0  0  0  0  0  0  0
   -3.4079   -0.0752    0.4904 O   0  0  0  0  0  0  0  0  0  0  0  0
   -4.8122    0.0021    0.7973 C   0  0  0  0  0  0  0  0  0  0  0  0
   -5.1236    1.3550    1.4276 C   0  0  0  0  0  0  0  0  0  0  0  0
   -5.1220   -1.1294    1.7701 C   0  0  0  0  0  0  0  0  0  0  0  0
    3.7635   -2.3307    3.9197 H   0  0  0  0  0  0  0  0  0  0  0  0
    4.2742   -0.9670    2.9211 H   0  0  0  0  0  0  0  0  0  0  0  0
    5.3079   -2.4051    3.0554 H   0  0  0  0  0  0  0  0  0  0  0  0
    2.5364   -2.3015    1.7434 H   0  0  0  0  0  0  0  0  0  0  0  0
    3.4739   -3.7682    1.9819 H   0  0  0  0  0  0  0  0  0  0  0  0
    3.7417   -3.0328   -0.3059 H   0  0  0  0  0  0  0  0  0  0  0  0
    5.2846   -2.9280    0.5313 H   0  0  0  0  0  0  0  0  0  0  0  0
    5.0075   -0.4449    0.7713 H   0  0  0  0  0  0  0  0  0  0  0  0
    4.9684   -0.9770   -0.9123 H   0  0  0  0  0  0  0  0  0  0  0  0
    2.7260    0.1203    0.6542 H   0  0  0  0  0  0  0  0  0  0  0  0
    0.8549    0.5049   -3.0839 H   0  0  0  0  0  0  0  0  0  0  0  0
    0.0644   -0.9283   -2.3767 H   0  0  0  0  0  0  0  0  0  0  0  0
   -1.5486    0.9361   -2.8021 H   0  0  0  0  0  0  0  0  0  0  0  0
   -1.5657    2.9298   -1.3238 H   0  0  0  0  0  0  0  0  0  0  0  0
   -0.0405    2.4595   -0.6017 H   0  0  0  0  0  0  0  0  0  0  0  0
    0.1969    4.2350   -2.3439 H   0  0  0  0  0  0  0  0  0  0  0  0
    1.1254    2.7958   -2.7707 H   0  0  0  0  0  0  0  0  0  0  0  0
   -0.4265    3.1218   -3.5726 H   0  0  0  0  0  0  0  0  0  0  0  0
   -1.1960   -0.0264   -0.0139 H   0  0  0  0  0  0  0  0  0  0  0  0
   -5.4131   -0.1458   -0.1084 H   0  0  0  0  0  0  0  0  0  0  0  0
   -4.9048    2.1704    0.7305 H   0  0  0  0  0  0  0  0  0  0  0  0
   -4.5028    1.5259    2.3141 H   0  0  0  0  0  0  0  0  0  0  0  0
   -6.1766    1.4239    1.7174 H   0  0  0  0  0  0  0  0  0  0  0  0
   -4.8765   -2.0968    1.3187 H   0  0  0  0  0  0  0  0  0  0  0  0
   -4.5164   -1.0442    2.6792 H   0  0  0  0  0  0  0  0  0  0  0  0
   -6.1795   -1.1344    2.0512 H   0  0  0  0  0  0  0  0  0  0  0  0
  1  2  1  0
  2  3  1  0
  3  4  1  0
  4  5  1  0
  5  6  1  0
  6  7  2  0
  6  8  1  0
  8  9  1  0
  9 10  1  0
 10 11  1  0
 11 12  1  0
 10 13  1  0
 13 14  1  0
 14 15  2  0
 14 16  1  0
 16 17  1  0
 17 18  1  0
 17 19  1  0
  1 20  1  0
  1 21  1  0
  1 22  1  0
  2 23  1  0
  2 24  1  0
  3 25  1  0
  3 26  1  0
  4 27  1  0
  4 28  1  0
  5 29  1  0
  9 30  1  0
  9 31  1  0
 10 32  1  0
 11 33  1  0
 11 34  1  0
 12 35  1  0
 12 36  1  0
 12 37  1  0
 13 38  1  0
 17 39  1  0
 18 40  1  0
 18 41  1  0
 18 42  1  0
 19 43  1  0
 19 44  1  0
 19 45  1  0
M  END
$$$$
