
     RDKit          3D

 53 56  0  0  0  0  0  0  0  0999 V2000
   -8.5659    1.1218    0.2755 C   0  0  0  0  0  0  0  0  0  0  0  0
   -7.0827    0.9335    0.1658 C   0  0  0  0  0  0  0  0  0  0  0  0
   -6.4681   -0.2118    0.6740 C   0  0  0  0  0  0  0  0  0  0  0  0
   -5.0867   -0.3869    0.5492 C   0  0  0  0  0  0  0  0  0  0  0  0
   -4.2857    0.5806   -0.0893 C   0  0  0  0  0  0  0  0  0  0  0  0
   -2.8800    0.3317   -0.2128 N   0  0  0  0  0  0  0  0  0  0  0  0
   -2.4219   -0.9134    0.0924 N   0  0  0  0  0  0  0  0  0  0  0  0
   -1.1523   -0.9330   -0.3055 C   0  0  0  0  0  0  0  0  0  0  0  0
   -0.2547   -2.0795   -0.2573 C   0  0  0  0  0  0  0  0  0  0  0  0
   -0.5810   -3.1859    0.1587 O   0  0  0  0  0  0  0  0  0  0  0  0
    1.0288   -1.7816   -0.7499 N   0  0  0  0  0  0  0  0  0  0  0  0
    2.0195   -2.8509   -0.7872 C   0  0  0  0  0  0  0  0  0  0  0  0
    2.8495   -2.9089    0.4922 C   0  0  0  0  0  0  0  0  0  0  0  0
    3.4046   -3.9389    0.8696 O   0  0  0  0  0  0  0  0  0  0  0  0
    3.0712   -1.6851    1.0887 N   0  0  0  0  0  0  0  0  0  0  0  0
    3.9875   -1.5234    2.1986 C   0  0  0  0  0  0  0  0  0  0  0  0
    5.4592   -1.7676    1.8443 C   0  0  0  0  0  0  0  0  0  0  0  0
    6.0578   -0.6829    0.9880 C   0  0  0  0  0  0  0  0  0  0  0  0
    6.8758    0.3561    1.3817 C   0  0  0  0  0  0  0  0  0  0  0  0
    7.3157    1.1552    0.2875 C   0  0  0  0  0  0  0  0  0  0  0  0
    6.8099    0.7050   -0.9134 C   0  0  0  0  0  0  0  0  0  0  0  0
    5.8045   -0.6634   -0.7085 S   0  0  0  0  0  0  0  0  0  0  0  0
    1.4437   -0.5255   -1.2130 N   0  0  0  0  0  0  0  0  0  0  0  0
    0.6150    0.4854   -1.2572 C   0  0  0  0  0  0  0  0  0  0  0  0
    1.1177    1.7935   -1.8074 C   0  0  0  0  0  0  0  0  0  0  0  0
   -0.7362    0.3144   -0.7825 C   0  0  0  0  0  0  0  0  0  0  0  0
   -1.8234    1.1586   -0.6191 C   0  0  0  0  0  0  0  0  0  0  0  0
   -1.9143    2.6276   -0.7728 C   0  0  0  0  0  0  0  0  0  0  0  0
   -4.9094    1.7155   -0.6200 C   0  0  0  0  0  0  0  0  0  0  0  0
   -6.2945    1.8911   -0.4844 C   0  0  0  0  0  0  0  0  0  0  0  0
   -9.0170    0.3675    0.9210 H   0  0  0  0  0  0  0  0  0  0  0  0
   -8.7964    2.1042    0.7029 H   0  0  0  0  0  0  0  0  0  0  0  0
   -9.0270    1.0443   -0.7133 H   0  0  0  0  0  0  0  0  0  0  0  0
   -7.0542   -0.9850    1.1661 H   0  0  0  0  0  0  0  0  0  0  0  0
   -4.6487   -1.2979    0.9599 H   0  0  0  0  0  0  0  0  0  0  0  0
    1.5211   -3.8150   -0.9250 H   0  0  0  0  0  0  0  0  0  0  0  0
    2.6942   -2.6798   -1.6314 H   0  0  0  0  0  0  0  0  0  0  0  0
    2.7815   -0.8659    0.5580 H   0  0  0  0  0  0  0  0  0  0  0  0
    3.6855   -2.2363    2.9769 H   0  0  0  0  0  0  0  0  0  0  0  0
    3.8403   -0.5108    2.5945 H   0  0  0  0  0  0  0  0  0  0  0  0
    5.5956   -2.7406    1.3607 H   0  0  0  0  0  0  0  0  0  0  0  0
    6.0292   -1.8166    2.7819 H   0  0  0  0  0  0  0  0  0  0  0  0
    7.1708    0.5209    2.4101 H   0  0  0  0  0  0  0  0  0  0  0  0
    7.9843    2.0055    0.3701 H   0  0  0  0  0  0  0  0  0  0  0  0
    6.9964    1.1001   -1.9045 H   0  0  0  0  0  0  0  0  0  0  0  0
    1.2831    2.5032   -0.9858 H   0  0  0  0  0  0  0  0  0  0  0  0
    0.3991    2.2115   -2.5169 H   0  0  0  0  0  0  0  0  0  0  0  0
    2.0676    1.6435   -2.3311 H   0  0  0  0  0  0  0  0  0  0  0  0
   -2.2741    2.8927   -1.7662 H   0  0  0  0  0  0  0  0  0  0  0  0
   -2.5610    3.0754   -0.0166 H   0  0  0  0  0  0  0  0  0  0  0  0
   -0.9390    3.0954   -0.6394 H   0  0  0  0  0  0  0  0  0  0  0  0
   -4.3747    2.4730   -1.1815 H   0  0  0  0  0  0  0  0  0  0  0  0
   -6.7602    2.7793   -0.9087 H   0  0  0  0  0  0  0  0  0  0  0  0
  1  2  1  0
  2  3  2  0
  3  4  1  0
  4  5  2  0
  5  6  1  0
  6  7  1  0
  7  8  2  0
  8  9  1  0
  9 10  2  0
  9 11  1  0
 11 12  1  0
 12 13  1  0
 13 14  2  0
 13 15  1  0
 15 16  1  0
 16 17  1  0
 17 18  1  0
 18 19  2  0
 19 20  1  0
 20 21  2  0
 21 22  1  0
 11 23  1  0
 23 24  2  0
 24 25  1  0
 24 26  1  0
 26 27  2  0
 27 28  1  0
  5 29  1  0
 29 30  2  0
 30  2  1  0
 27  6  1  0
 26  8  1  0
 22 18  1  0
  1 31  1  0
  1 32  1  0
  1 33  1  0
  3 34  1  0
  4 35  1  0
 12 36  1  0
 12 37  1  0
 15 38  1  0
 16 39  1  0
 16 40  1  0
 17 41  1  0
 17 42  1  0
 19 43  1  0
 20 44  1  0
 21 45  1  0
 25 46  1  0
 25 47  1  0
 25 48  1  0
 28 49  1  0
 28 50  1  0
 28 51  1  0
 29 52  1  0
 30 53  1  0
M  END
$$$$
