
     RDKit          3D

 65 70  0  0  0  0  0  0  0  0999 V2000
   -6.0689   -4.4023    0.0938 C   0  0  0  0  0  0  0  0  0  0  0  0
   -4.6605   -4.4719    0.2784 O   0  0  0  0  0  0  0  0  0  0  0  0
   -3.9363   -3.3710   -0.0890 C   0  0  0  0  0  0  0  0  0  0  0  0
   -2.5541   -3.4970    0.0825 C   0  0  0  0  0  0  0  0  0  0  0  0
   -1.6866   -2.4558   -0.2644 C   0  0  0  0  0  0  0  0  0  0  0  0
   -2.1972   -1.2580   -0.7677 C   0  0  0  0  0  0  0  0  0  0  0  0
   -3.5840   -1.1401   -0.9182 C   0  0  0  0  0  0  0  0  0  0  0  0
   -4.4525   -2.1844   -0.6043 C   0  0  0  0  0  0  0  0  0  0  0  0
   -4.1213    0.0126   -1.4348 O   0  0  0  0  0  0  0  0  0  0  0  0
   -3.5497    1.1593   -0.7969 C   0  0  0  0  0  0  0  0  0  0  0  0
   -2.0222    1.2216   -0.8856 C   0  0  0  0  0  0  0  0  0  0  0  0
   -1.3628   -0.1028   -1.2661 C   0  0  0  0  0  0  0  0  0  0  0  0
   -0.0109   -0.0197   -0.7059 N   0  0  0  0  0  0  0  0  0  0  0  0
    1.0139   -0.7121   -1.3158 C   0  0  0  0  0  0  0  0  0  0  0  0
    0.8234   -1.3607   -2.3454 O   0  0  0  0  0  0  0  0  0  0  0  0
    2.3825   -0.7329   -0.7371 C   0  0  0  0  0  0  0  0  0  0  0  0
    3.4141   -1.0556   -1.6459 C   0  0  0  0  0  0  0  0  0  0  0  0
    4.7286   -1.2617   -1.2212 C   0  0  0  0  0  0  0  0  0  0  0  0
    5.7753   -1.5718   -2.0515 O   0  0  0  0  0  0  0  0  0  0  0  0
    5.4893   -1.7821   -3.4277 C   0  0  0  0  0  0  0  0  0  0  0  0
    5.0288   -1.1623    0.1449 C   0  0  0  0  0  0  0  0  0  0  0  0
    6.3365   -1.3863    0.4936 O   0  0  0  0  0  0  0  0  0  0  0  0
    6.6747   -1.3625    1.8727 C   0  0  0  0  0  0  0  0  0  0  0  0
    4.0095   -0.8434    1.0488 C   0  0  0  0  0  0  0  0  0  0  0  0
    2.6895   -0.5990    0.6201 C   0  0  0  0  0  0  0  0  0  0  0  0
    1.7996   -0.2459    1.6442 N   0  0  0  0  0  0  0  0  0  0  0  0
    0.6226    0.4411    1.6101 C   0  0  0  0  0  0  0  0  0  0  0  0
    0.0783    0.6419    2.6998 O   0  0  0  0  0  0  0  0  0  0  0  0
    0.1137    1.0591    0.2943 C   0  0  0  0  0  0  0  0  0  0  0  0
    1.0421    2.1884   -0.1878 C   0  0  0  0  0  0  0  0  0  0  0  0
   -1.3678    1.5556    0.4760 C   0  0  0  0  0  0  0  0  0  0  0  0
   -1.5870    2.9817    0.9623 C   0  0  0  0  0  0  0  0  0  0  0  0
   -1.6275    4.0904    0.1020 C   0  0  0  0  0  0  0  0  0  0  0  0
   -1.8339    5.3800    0.6005 C   0  0  0  0  0  0  0  0  0  0  0  0
   -2.0032    5.5847    1.9663 C   0  0  0  0  0  0  0  0  0  0  0  0
   -1.9653    4.4996    2.8354 C   0  0  0  0  0  0  0  0  0  0  0  0
   -1.7595    3.2113    2.3375 C   0  0  0  0  0  0  0  0  0  0  0  0
   -6.3231   -4.2702   -0.9632 H   0  0  0  0  0  0  0  0  0  0  0  0
   -6.5088   -3.6105    0.7090 H   0  0  0  0  0  0  0  0  0  0  0  0
   -6.4964   -5.3547    0.4220 H   0  0  0  0  0  0  0  0  0  0  0  0
   -2.1452   -4.4264    0.4724 H   0  0  0  0  0  0  0  0  0  0  0  0
   -0.6174   -2.6102   -0.1546 H   0  0  0  0  0  0  0  0  0  0  0  0
   -5.5138   -2.0364   -0.7648 H   0  0  0  0  0  0  0  0  0  0  0  0
   -3.9733    2.0426   -1.2892 H   0  0  0  0  0  0  0  0  0  0  0  0
   -3.9130    1.1949    0.2388 H   0  0  0  0  0  0  0  0  0  0  0  0
   -1.7342    1.9605   -1.6433 H   0  0  0  0  0  0  0  0  0  0  0  0
   -1.3012   -0.1879   -2.3591 H   0  0  0  0  0  0  0  0  0  0  0  0
    3.1555   -1.1618   -2.6966 H   0  0  0  0  0  0  0  0  0  0  0  0
    4.7862   -2.6105   -3.5642 H   0  0  0  0  0  0  0  0  0  0  0  0
    6.4248   -2.0553   -3.9253 H   0  0  0  0  0  0  0  0  0  0  0  0
    5.1190   -0.8650   -3.8973 H   0  0  0  0  0  0  0  0  0  0  0  0
    6.5166   -0.3667    2.2993 H   0  0  0  0  0  0  0  0  0  0  0  0
    6.1203   -2.1251    2.4296 H   0  0  0  0  0  0  0  0  0  0  0  0
    7.7402   -1.5960    1.9602 H   0  0  0  0  0  0  0  0  0  0  0  0
    4.2370   -0.7502    2.1064 H   0  0  0  0  0  0  0  0  0  0  0  0
    2.0892   -0.4158    2.6015 H   0  0  0  0  0  0  0  0  0  0  0  0
    1.1272    2.9800    0.5647 H   0  0  0  0  0  0  0  0  0  0  0  0
    2.0649    1.8584   -0.3818 H   0  0  0  0  0  0  0  0  0  0  0  0
    0.6797    2.6285   -1.1230 H   0  0  0  0  0  0  0  0  0  0  0  0
   -1.8598    0.8994    1.2117 H   0  0  0  0  0  0  0  0  0  0  0  0
   -1.4896    3.9827   -0.9702 H   0  0  0  0  0  0  0  0  0  0  0  0
   -1.8604    6.2270   -0.0807 H   0  0  0  0  0  0  0  0  0  0  0  0
   -2.1633    6.5875    2.3530 H   0  0  0  0  0  0  0  0  0  0  0  0
   -2.0959    4.6517    3.9038 H   0  0  0  0  0  0  0  0  0  0  0  0
   -1.7370    2.3815    3.0432 H   0  0  0  0  0  0  0  0  0  0  0  0
  1  2  1  0
  2  3  1  0
  3  4  2  0
  4  5  1  0
  5  6  2  0
  6  7  1  0
  7  8  2  0
  7  9  1  0
  9 10  1  0
 10 11  1  0
 11 12  1  0
 12 13  1  0
 13 14  1  0
 14 15  2  0
 14 16  1  0
 16 17  2  0
 17 18  1  0
 18 19  1  0
 19 20  1  0
 18 21  2  0
 21 22  1  0
 22 23  1  0
 21 24  1  0
 24 25  2  0
 25 26  1  0
 26 27  1  0
 27 28  2  0
 27 29  1  0
 29 30  1  0
 29 31  1  0
 31 32  1  0
 32 33  2  0
 33 34  1  0
 34 35  2  0
 35 36  1  0
 36 37  2  0
  8  3  1  0
 31 11  1  0
 37 32  1  0
 12  6  1  0
 29 13  1  0
 25 16  1  0
  1 38  1  0
  1 39  1  0
  1 40  1  0
  4 41  1  0
  5 42  1  0
  8 43  1  0
 10 44  1  0
 10 45  1  0
 11 46  1  0
 12 47  1  0
 17 48  1  0
 20 49  1  0
 20 50  1  0
 20 51  1  0
 23 52  1  0
 23 53  1  0
 23 54  1  0
 24 55  1  0
 26 56  1  0
 30 57  1  0
 30 58  1  0
 30 59  1  0
 31 60  1  0
 33 61  1  0
 34 62  1  0
 35 63  1  0
 36 64  1  0
 37 65  1  0
M  END
$$$$
