
     RDKit          3D

 57 60  0  0  0  0  0  0  0  0999 V2000
   -8.7362    2.0432    1.9354 C   0  0  0  0  0  0  0  0  0  0  0  0
   -8.1179    0.7231    2.3695 C   0  0  0  0  0  0  0  0  0  0  0  0
   -6.8173    0.4520    1.6588 C   0  0  0  0  0  0  0  0  0  0  0  0
   -5.6026    0.8661    2.2121 C   0  0  0  0  0  0  0  0  0  0  0  0
   -4.3953    0.6236    1.5442 C   0  0  0  0  0  0  0  0  0  0  0  0
   -4.3617   -0.0380    0.3033 C   0  0  0  0  0  0  0  0  0  0  0  0
   -3.0973   -0.3101   -0.4156 C   0  0  0  0  0  0  0  0  0  0  0  0
   -1.8860   -0.4987    0.2259 C   0  0  0  0  0  0  0  0  0  0  0  0
   -0.7501   -0.7338   -0.5500 C   0  0  0  0  0  0  0  0  0  0  0  0
    0.5289   -0.8575    0.1848 C   0  0  0  0  0  0  0  0  0  0  0  0
    0.6231   -1.7336    1.0321 O   0  0  0  0  0  0  0  0  0  0  0  0
    1.4595    0.1076   -0.1490 N   0  0  0  0  0  0  0  0  0  0  0  0
    2.7619    0.2534    0.3696 C   0  0  0  0  0  0  0  0  0  0  0  0
    3.5006    1.3655   -0.0606 C   0  0  0  0  0  0  0  0  0  0  0  0
    4.8004    1.5850    0.4059 C   0  0  0  0  0  0  0  0  0  0  0  0
    5.3728    0.6766    1.2985 C   0  0  0  0  0  0  0  0  0  0  0  0
    7.0026    0.9755    1.9313 S   0  0  0  0  0  6  0  0  0  0  0  0
    7.1824    0.2474    3.1666 O   0  0  0  0  0  0  0  0  0  0  0  0
    7.2305    2.4061    1.8747 O   0  0  0  0  0  0  0  0  0  0  0  0
    7.9952    0.3337    0.7645 N   0  0  0  0  0  0  0  0  0  0  0  0
    8.0921   -1.0257    0.4483 C   0  0  0  0  0  0  0  0  0  0  0  0
    9.1631   -1.3432   -0.5563 C   0  0  0  0  0  0  0  0  0  0  0  0
    7.3604   -1.8822    0.9194 O   0  0  0  0  0  0  0  0  0  0  0  0
    4.6459   -0.4287    1.7418 C   0  0  0  0  0  0  0  0  0  0  0  0
    3.3453   -0.6407    1.2711 C   0  0  0  0  0  0  0  0  0  0  0  0
   -0.8267   -0.8330   -1.9543 C   0  0  0  0  0  0  0  0  0  0  0  0
    0.2607   -1.1411   -2.8128 C   0  0  0  0  0  0  0  0  0  0  0  0
    0.0881   -1.2094   -4.1935 C   0  0  0  0  0  0  0  0  0  0  0  0
   -1.1681   -0.9799   -4.7352 C   0  0  0  0  0  0  0  0  0  0  0  0
   -2.2439   -0.6953   -3.8911 C   0  0  0  0  0  0  0  0  0  0  0  0
   -2.0998   -0.6258   -2.5118 C   0  0  0  0  0  0  0  0  0  0  0  0
   -3.1886   -0.3644   -1.7690 N   0  0  0  0  0  0  0  0  0  0  0  0
   -5.5965   -0.4314   -0.2445 C   0  0  0  0  0  0  0  0  0  0  0  0
   -6.8052   -0.1926    0.4192 C   0  0  0  0  0  0  0  0  0  0  0  0
   -8.9504    2.0475    0.8613 H   0  0  0  0  0  0  0  0  0  0  0  0
   -9.6763    2.2138    2.4690 H   0  0  0  0  0  0  0  0  0  0  0  0
   -8.0673    2.8842    2.1479 H   0  0  0  0  0  0  0  0  0  0  0  0
   -7.9524    0.7316    3.4536 H   0  0  0  0  0  0  0  0  0  0  0  0
   -8.8202   -0.0972    2.1767 H   0  0  0  0  0  0  0  0  0  0  0  0
   -5.5848    1.3853    3.1680 H   0  0  0  0  0  0  0  0  0  0  0  0
   -3.4792    0.9794    2.0099 H   0  0  0  0  0  0  0  0  0  0  0  0
   -1.8058   -0.4760    1.3080 H   0  0  0  0  0  0  0  0  0  0  0  0
    1.1619    0.8156   -0.8105 H   0  0  0  0  0  0  0  0  0  0  0  0
    3.0699    2.0846   -0.7531 H   0  0  0  0  0  0  0  0  0  0  0  0
    5.3479    2.4659    0.0784 H   0  0  0  0  0  0  0  0  0  0  0  0
    8.5927    1.0259    0.3256 H   0  0  0  0  0  0  0  0  0  0  0  0
    9.2155   -2.4245   -0.7093 H   0  0  0  0  0  0  0  0  0  0  0  0
   10.1312   -0.9914   -0.1891 H   0  0  0  0  0  0  0  0  0  0  0  0
    8.9300   -0.8595   -1.5084 H   0  0  0  0  0  0  0  0  0  0  0  0
    5.0828   -1.1372    2.4442 H   0  0  0  0  0  0  0  0  0  0  0  0
    2.8160   -1.5193    1.6290 H   0  0  0  0  0  0  0  0  0  0  0  0
    1.2493   -1.3531   -2.4091 H   0  0  0  0  0  0  0  0  0  0  0  0
    0.9280   -1.4517   -4.8399 H   0  0  0  0  0  0  0  0  0  0  0  0
   -1.3217   -1.0342   -5.8102 H   0  0  0  0  0  0  0  0  0  0  0  0
   -3.2291   -0.5297   -4.3228 H   0  0  0  0  0  0  0  0  0  0  0  0
   -5.6227   -0.9391   -1.2080 H   0  0  0  0  0  0  0  0  0  0  0  0
   -7.7356   -0.5149   -0.0434 H   0  0  0  0  0  0  0  0  0  0  0  0
  1  2  1  0
  2  3  1  0
  3  4  2  0
  4  5  1  0
  5  6  2  0
  6  7  1  0
  7  8  2  0
  8  9  1  0
  9 10  1  0
 10 11  2  0
 10 12  1  0
 12 13  1  0
 13 14  2  0
 14 15  1  0
 15 16  2  0
 16 17  1  0
 17 18  2  0
 17 19  2  0
 17 20  1  0
 20 21  1  0
 21 22  1  0
 21 23  2  0
 16 24  1  0
 24 25  2  0
  9 26  2  0
 26 27  1  0
 27 28  2  0
 28 29  1  0
 29 30  2  0
 30 31  1  0
 31 32  2  0
  6 33  1  0
 33 34  2  0
 34  3  1  0
 32  7  1  0
 25 13  1  0
 31 26  1  0
  1 35  1  0
  1 36  1  0
  1 37  1  0
  2 38  1  0
  2 39  1  0
  4 40  1  0
  5 41  1  0
  8 42  1  0
 12 43  1  0
 14 44  1  0
 15 45  1  0
 20 46  1  0
 22 47  1  0
 22 48  1  0
 22 49  1  0
 24 50  1  0
 25 51  1  0
 27 52  1  0
 28 53  1  0
 29 54  1  0
 30 55  1  0
 33 56  1  0
 34 57  1  0
M  END
$$$$
