
     RDKit          3D

 63 67  0  0  0  0  0  0  0  0999 V2000
    7.0665   -1.1277   -4.0300 C   0  0  0  0  0  0  0  0  0  0  0  0
    6.0640   -2.1451   -3.5181 C   0  0  0  0  0  0  0  0  0  0  0  0
    5.1761   -1.5321   -2.5732 O   0  0  0  0  0  0  0  0  0  0  0  0
    5.6077   -1.5157   -1.2785 C   0  0  0  0  0  0  0  0  0  0  0  0
    6.6742   -1.9798   -0.8941 O   0  0  0  0  0  0  0  0  0  0  0  0
    4.6462   -0.8779   -0.3882 C   0  0  0  0  0  0  0  0  0  0  0  0
    3.3940   -0.2752   -0.7035 C   0  0  0  0  0  0  0  0  0  0  0  0
    2.8227    0.1822    0.4704 C   0  0  0  0  0  0  0  0  0  0  0  0
    1.5642    0.8624    0.7383 C   0  0  0  0  0  0  0  0  0  0  0  0
    0.5982    1.0743   -0.2489 N   0  0  0  0  0  0  0  0  0  0  0  0
   -0.4289    2.1128   -0.0090 C   0  0  0  0  0  0  0  0  0  0  0  0
   -1.7376    1.4626    0.4762 C   0  0  0  0  0  0  0  0  0  0  0  0
   -2.3668    0.5845   -0.5431 N   0  0  0  0  0  0  0  0  0  0  0  0
   -3.1394   -0.4851    0.1140 C   0  0  0  0  0  0  0  0  0  0  0  0
   -4.2054   -1.1395   -0.7895 C   0  0  0  0  0  0  0  0  0  0  0  0
   -5.4168   -0.2599   -1.0404 C   0  0  0  0  0  0  0  0  0  0  0  0
   -5.3471    0.6910   -2.0742 C   0  0  0  0  0  0  0  0  0  0  0  0
   -6.4248    1.5294   -2.3552 C   0  0  0  0  0  0  0  0  0  0  0  0
   -7.5918    1.4338   -1.6069 C   0  0  0  0  0  0  0  0  0  0  0  0
   -7.6787    0.5019   -0.5730 C   0  0  0  0  0  0  0  0  0  0  0  0
   -6.5995   -0.3517   -0.2695 C   0  0  0  0  0  0  0  0  0  0  0  0
   -6.7531   -1.3513    0.8558 C   0  0  0  0  0  0  0  0  0  0  0  0
   -6.7996   -2.6376    0.4082 F   0  0  0  0  0  0  0  0  0  0  0  0
   -5.7291   -1.3055    1.7542 F   0  0  0  0  0  0  0  0  0  0  0  0
   -7.8887   -1.1785    1.5912 F   0  0  0  0  0  0  0  0  0  0  0  0
   -1.3588    0.0785   -1.4997 C   0  0  0  0  0  0  0  0  0  0  0  0
    0.0636   -0.1283   -0.9307 C   0  0  0  0  0  0  0  0  0  0  0  0
    1.3313    1.2819    1.9569 N   0  0  0  0  0  0  0  0  0  0  0  0
    2.2579    1.0461    2.9908 C   0  0  0  0  0  0  0  0  0  0  0  0
    1.9548    1.5102    4.2720 C   0  0  0  0  0  0  0  0  0  0  0  0
    2.8331    1.2903    5.3365 C   0  0  0  0  0  0  0  0  0  0  0  0
    4.0274    0.5998    5.1279 C   0  0  0  0  0  0  0  0  0  0  0  0
    4.3517    0.1282    3.8556 C   0  0  0  0  0  0  0  0  0  0  0  0
    3.4633    0.3568    2.8005 C   0  0  0  0  0  0  0  0  0  0  0  0
    3.7172   -0.0674    1.4864 N   0  0  0  0  0  0  0  0  0  0  0  0
    4.8045   -0.7352    0.9811 C   0  0  0  0  0  0  0  0  0  0  0  0
    7.6871   -0.7426   -3.2148 H   0  0  0  0  0  0  0  0  0  0  0  0
    6.5506   -0.2683   -4.4704 H   0  0  0  0  0  0  0  0  0  0  0  0
    7.7193   -1.5727   -4.7865 H   0  0  0  0  0  0  0  0  0  0  0  0
    5.4484   -2.5041   -4.3496 H   0  0  0  0  0  0  0  0  0  0  0  0
    6.5638   -3.0207   -3.0881 H   0  0  0  0  0  0  0  0  0  0  0  0
    2.9661   -0.1833   -1.6928 H   0  0  0  0  0  0  0  0  0  0  0  0
   -0.6010    2.6627   -0.9429 H   0  0  0  0  0  0  0  0  0  0  0  0
   -0.0871    2.8628    0.7138 H   0  0  0  0  0  0  0  0  0  0  0  0
   -1.5172    0.8956    1.3907 H   0  0  0  0  0  0  0  0  0  0  0  0
   -2.4557    2.2461    0.7427 H   0  0  0  0  0  0  0  0  0  0  0  0
   -3.6543   -0.0755    0.9929 H   0  0  0  0  0  0  0  0  0  0  0  0
   -2.4570   -1.2610    0.4846 H   0  0  0  0  0  0  0  0  0  0  0  0
   -3.7810   -1.4442   -1.7536 H   0  0  0  0  0  0  0  0  0  0  0  0
   -4.5228   -2.0808   -0.3267 H   0  0  0  0  0  0  0  0  0  0  0  0
   -4.4372    0.7877   -2.6646 H   0  0  0  0  0  0  0  0  0  0  0  0
   -6.3498    2.2583   -3.1584 H   0  0  0  0  0  0  0  0  0  0  0  0
   -8.4337    2.0859   -1.8254 H   0  0  0  0  0  0  0  0  0  0  0  0
   -8.6024    0.4436    0.0019 H   0  0  0  0  0  0  0  0  0  0  0  0
   -1.2949    0.8135   -2.3131 H   0  0  0  0  0  0  0  0  0  0  0  0
   -1.6872   -0.8487   -1.9814 H   0  0  0  0  0  0  0  0  0  0  0  0
    0.7246   -0.4004   -1.7587 H   0  0  0  0  0  0  0  0  0  0  0  0
    0.0404   -0.9716   -0.2285 H   0  0  0  0  0  0  0  0  0  0  0  0
    1.0248    2.0469    4.4389 H   0  0  0  0  0  0  0  0  0  0  0  0
    2.5833    1.6591    6.3277 H   0  0  0  0  0  0  0  0  0  0  0  0
    4.7077    0.4316    5.9595 H   0  0  0  0  0  0  0  0  0  0  0  0
    5.2878   -0.4027    3.7178 H   0  0  0  0  0  0  0  0  0  0  0  0
    5.6251   -1.0505    1.6106 H   0  0  0  0  0  0  0  0  0  0  0  0
  1  2  1  0
  2  3  1  0
  3  4  1  0
  4  5  2  0
  4  6  1  0
  6  7  1  0
  7  8  2  0
  8  9  1  0
  9 10  1  0
 10 11  1  0
 11 12  1  0
 12 13  1  0
 13 14  1  0
 14 15  1  0
 15 16  1  0
 16 17  2  0
 17 18  1  0
 18 19  2  0
 19 20  1  0
 20 21  2  0
 21 22  1  0
 22 23  1  0
 22 24  1  0
 22 25  1  0
 13 26  1  0
 26 27  1  0
  9 28  2  0
 28 29  1  0
 29 30  2  0
 30 31  1  0
 31 32  2  0
 32 33  1  0
 33 34  2  0
 34 35  1  0
 35 36  1  0
 36  6  2  0
 35  8  1  0
 27 10  1  0
 34 29  1  0
 21 16  1  0
  1 37  1  0
  1 38  1  0
  1 39  1  0
  2 40  1  0
  2 41  1  0
  7 42  1  0
 11 43  1  0
 11 44  1  0
 12 45  1  0
 12 46  1  0
 14 47  1  0
 14 48  1  0
 15 49  1  0
 15 50  1  0
 17 51  1  0
 18 52  1  0
 19 53  1  0
 20 54  1  0
 26 55  1  0
 26 56  1  0
 27 57  1  0
 27 58  1  0
 30 59  1  0
 31 60  1  0
 32 61  1  0
 33 62  1  0
 36 63  1  0
M  END
$$$$
