
     RDKit          3D

 57 60  0  0  0  0  0  0  0  0999 V2000
    8.5805    2.0838   -0.1382 C   0  0  0  0  0  0  0  0  0  0  0  0
    7.6179    3.0917    0.4693 C   0  0  0  0  0  0  0  0  0  0  0  0
    6.3345    3.0060   -0.1498 O   0  0  0  0  0  0  0  0  0  0  0  0
    5.4844    2.0081    0.2296 C   0  0  0  0  0  0  0  0  0  0  0  0
    4.4171    1.7970   -0.6421 C   0  0  0  0  0  0  0  0  0  0  0  0
    3.4684    0.8052   -0.3814 C   0  0  0  0  0  0  0  0  0  0  0  0
    3.5617    0.0192    0.7711 C   0  0  0  0  0  0  0  0  0  0  0  0
    2.5657   -0.9563    0.9584 N   0  0  0  0  0  0  0  0  0  0  0  0
    2.3683   -1.7803    2.0500 C   0  0  0  0  0  0  0  0  0  0  0  0
    3.0408   -1.7936    3.0794 O   0  0  0  0  0  0  0  0  0  0  0  0
    1.2204   -2.7652    1.8643 C   0  0  0  0  0  0  0  0  0  0  0  0
   -0.4027   -1.9744    2.0818 S   0  0  0  0  0  0  0  0  0  0  0  0
   -0.7389   -1.4399    0.4668 C   0  0  0  0  0  0  0  0  0  0  0  0
    0.1959   -1.1920   -0.4233 N   0  0  0  0  0  0  0  0  0  0  0  0
   -0.4125   -0.8882   -1.6020 N   0  0  0  0  0  0  0  0  0  0  0  0
   -1.7214   -0.9510   -1.4231 C   0  0  0  0  0  0  0  0  0  0  0  0
   -2.7295   -0.5148   -2.4405 C   0  0  0  0  0  0  0  0  0  0  0  0
   -3.5627    0.6567   -2.0018 C   0  0  0  0  0  0  0  0  0  0  0  0
   -3.1929    1.7843   -1.2824 C   0  0  0  0  0  0  0  0  0  0  0  0
   -4.3383    2.5931   -1.1154 C   0  0  0  0  0  0  0  0  0  0  0  0
   -5.3775    1.9623   -1.7570 C   0  0  0  0  0  0  0  0  0  0  0  0
   -4.9005    0.8000   -2.3080 N   0  0  0  0  0  0  0  0  0  0  0  0
   -5.6958   -0.0957   -3.1191 C   0  0  0  0  0  0  0  0  0  0  0  0
   -1.9938   -1.3469   -0.1151 N   0  0  0  0  0  0  0  0  0  0  0  0
   -3.2650   -1.5989    0.4636 C   0  0  0  0  0  0  0  0  0  0  0  0
   -4.2044   -2.3770   -0.2310 C   0  0  0  0  0  0  0  0  0  0  0  0
   -5.4668   -2.5976    0.3212 C   0  0  0  0  0  0  0  0  0  0  0  0
   -5.7844   -2.0410    1.5557 C   0  0  0  0  0  0  0  0  0  0  0  0
   -7.0004   -2.2439    2.0760 F   0  0  0  0  0  0  0  0  0  0  0  0
   -4.8595   -1.2760    2.2571 C   0  0  0  0  0  0  0  0  0  0  0  0
   -3.5913   -1.0564    1.7158 C   0  0  0  0  0  0  0  0  0  0  0  0
    4.6225    0.2377    1.6483 C   0  0  0  0  0  0  0  0  0  0  0  0
    5.5807    1.2274    1.3791 C   0  0  0  0  0  0  0  0  0  0  0  0
    9.6000    2.2562    0.2156 H   0  0  0  0  0  0  0  0  0  0  0  0
    8.2939    1.0591    0.1166 H   0  0  0  0  0  0  0  0  0  0  0  0
    8.5656    2.1557   -1.2304 H   0  0  0  0  0  0  0  0  0  0  0  0
    7.9933    4.0987    0.2528 H   0  0  0  0  0  0  0  0  0  0  0  0
    7.5661    3.0194    1.5595 H   0  0  0  0  0  0  0  0  0  0  0  0
    4.3282    2.4030   -1.5406 H   0  0  0  0  0  0  0  0  0  0  0  0
    2.6527    0.6624   -1.0873 H   0  0  0  0  0  0  0  0  0  0  0  0
    1.8601   -1.0037    0.2235 H   0  0  0  0  0  0  0  0  0  0  0  0
    1.3028   -3.2678    0.8938 H   0  0  0  0  0  0  0  0  0  0  0  0
    1.3189   -3.5429    2.6309 H   0  0  0  0  0  0  0  0  0  0  0  0
   -3.3463   -1.3682   -2.7326 H   0  0  0  0  0  0  0  0  0  0  0  0
   -2.1933   -0.2144   -3.3498 H   0  0  0  0  0  0  0  0  0  0  0  0
   -2.1969    2.0003   -0.9128 H   0  0  0  0  0  0  0  0  0  0  0  0
   -4.3969    3.5430   -0.5955 H   0  0  0  0  0  0  0  0  0  0  0  0
   -6.4122    2.2586   -1.8744 H   0  0  0  0  0  0  0  0  0  0  0  0
   -5.7569   -1.0611   -2.6133 H   0  0  0  0  0  0  0  0  0  0  0  0
   -6.6984    0.3177   -3.2478 H   0  0  0  0  0  0  0  0  0  0  0  0
   -5.2146   -0.1952   -4.0953 H   0  0  0  0  0  0  0  0  0  0  0  0
   -3.9618   -2.8523   -1.1775 H   0  0  0  0  0  0  0  0  0  0  0  0
   -6.2063   -3.2027   -0.1988 H   0  0  0  0  0  0  0  0  0  0  0  0
   -5.1358   -0.8453    3.2158 H   0  0  0  0  0  0  0  0  0  0  0  0
   -2.9007   -0.4172    2.2632 H   0  0  0  0  0  0  0  0  0  0  0  0
    4.7377   -0.3470    2.5559 H   0  0  0  0  0  0  0  0  0  0  0  0
    6.3801    1.3605    2.1000 H   0  0  0  0  0  0  0  0  0  0  0  0
  1  2  1  0
  2  3  1  0
  3  4  1  0
  4  5  2  0
  5  6  1  0
  6  7  2  0
  7  8  1  0
  8  9  1  0
  9 10  2  0
  9 11  1  0
 11 12  1  0
 12 13  1  0
 13 14  2  0
 14 15  1  0
 15 16  2  0
 16 17  1  0
 17 18  1  0
 18 19  2  0
 19 20  1  0
 20 21  2  0
 21 22  1  0
 22 23  1  0
 16 24  1  0
 24 25  1  0
 25 26  2  0
 26 27  1  0
 27 28  2  0
 28 29  1  0
 28 30  1  0
 30 31  2  0
  7 32  1  0
 32 33  2  0
 33  4  1  0
 24 13  1  0
 31 25  1  0
 22 18  1  0
  1 34  1  0
  1 35  1  0
  1 36  1  0
  2 37  1  0
  2 38  1  0
  5 39  1  0
  6 40  1  0
  8 41  1  0
 11 42  1  0
 11 43  1  0
 17 44  1  0
 17 45  1  0
 19 46  1  0
 20 47  1  0
 21 48  1  0
 23 49  1  0
 23 50  1  0
 23 51  1  0
 26 52  1  0
 27 53  1  0
 30 54  1  0
 31 55  1  0
 32 56  1  0
 33 57  1  0
M  END
$$$$
