
     RDKit          3D

 41 44  0  0  0  0  0  0  0  0999 V2000
    0.6097   -1.1965   -1.9887 O   0  0  0  0  0  0  0  0  0  0  0  0
    0.4090   -0.0731   -1.5340 C   0  0  0  0  0  0  0  0  0  0  0  0
   -0.9305    0.6380   -1.7645 C   0  0  0  0  0  0  0  0  0  0  0  0
   -1.7671    0.6570   -0.5585 N   0  0  0  0  0  0  0  0  0  0  0  0
   -1.4671    1.5982    0.4204 C   0  0  0  0  0  0  0  0  0  0  0  0
   -0.5617    2.4267    0.2749 O   0  0  0  0  0  0  0  0  0  0  0  0
   -2.2151    1.5151    1.7300 C   0  0  0  0  0  0  0  0  0  0  0  0
   -3.5349    2.2519    1.6837 C   0  0  0  0  0  0  0  0  0  0  0  0
   -4.6029    1.8729    0.2627 S   0  0  0  0  0  0  0  0  0  0  0  0
   -4.1601    0.1665   -0.0547 C   0  0  0  0  0  0  0  0  0  0  0  0
   -5.2098   -0.7644   -0.0090 C   0  0  0  0  0  0  0  0  0  0  0  0
   -5.0035   -2.0909   -0.3837 C   0  0  0  0  0  0  0  0  0  0  0  0
   -3.7513   -2.4944   -0.8308 C   0  0  0  0  0  0  0  0  0  0  0  0
   -2.7012   -1.5757   -0.8937 C   0  0  0  0  0  0  0  0  0  0  0  0
   -2.8795   -0.2407   -0.4923 C   0  0  0  0  0  0  0  0  0  0  0  0
    1.2945    0.6783   -0.7800 N   0  0  0  0  0  0  0  0  0  0  0  0
    2.6036    0.3405   -0.3870 C   0  0  0  0  0  0  0  0  0  0  0  0
    3.2728    1.2665    0.4452 C   0  0  0  0  0  0  0  0  0  0  0  0
    4.5774    1.0295    0.8924 C   0  0  0  0  0  0  0  0  0  0  0  0
    5.1853   -0.1375    0.4910 C   0  0  0  0  0  0  0  0  0  0  0  0
    4.5425   -1.0422   -0.3194 C   0  0  0  0  0  0  0  0  0  0  0  0
    3.2551   -0.8340   -0.7753 C   0  0  0  0  0  0  0  0  0  0  0  0
    5.3175   -2.1255   -0.5997 O   0  0  0  0  0  0  0  0  0  0  0  0
    6.5190   -1.7965    0.1265 C   0  0  0  0  0  0  0  0  0  0  0  0
    6.4417   -0.5354    0.8232 O   0  0  0  0  0  0  0  0  0  0  0  0
   -0.7281    1.6689   -2.0813 H   0  0  0  0  0  0  0  0  0  0  0  0
   -1.4565    0.1591   -2.5986 H   0  0  0  0  0  0  0  0  0  0  0  0
   -2.3418    0.4684    2.0295 H   0  0  0  0  0  0  0  0  0  0  0  0
   -1.5803    1.9567    2.5086 H   0  0  0  0  0  0  0  0  0  0  0  0
   -3.3542    3.3323    1.6618 H   0  0  0  0  0  0  0  0  0  0  0  0
   -4.0991    2.0425    2.5988 H   0  0  0  0  0  0  0  0  0  0  0  0
   -6.2070   -0.4565    0.3002 H   0  0  0  0  0  0  0  0  0  0  0  0
   -5.8246   -2.8025   -0.3437 H   0  0  0  0  0  0  0  0  0  0  0  0
   -3.5859   -3.5263   -1.1326 H   0  0  0  0  0  0  0  0  0  0  0  0
   -1.7328   -1.9394   -1.2295 H   0  0  0  0  0  0  0  0  0  0  0  0
    0.9290    1.5623   -0.4189 H   0  0  0  0  0  0  0  0  0  0  0  0
    2.7775    2.1851    0.7542 H   0  0  0  0  0  0  0  0  0  0  0  0
    5.0917    1.7382    1.5310 H   0  0  0  0  0  0  0  0  0  0  0  0
    2.7975   -1.5781   -1.4147 H   0  0  0  0  0  0  0  0  0  0  0  0
    6.7150   -2.5892    0.8578 H   0  0  0  0  0  0  0  0  0  0  0  0
    7.3560   -1.7557   -0.5801 H   0  0  0  0  0  0  0  0  0  0  0  0
  1  2  2  0
  2  3  1  0
  3  4  1  0
  4  5  1  0
  5  6  2  0
  5  7  1  0
  7  8  1  0
  8  9  1  0
  9 10  1  0
 10 11  2  0
 11 12  1  0
 12 13  2  0
 13 14  1  0
 14 15  2  0
  2 16  1  0
 16 17  1  0
 17 18  2  0
 18 19  1  0
 19 20  2  0
 20 21  1  0
 21 22  2  0
 21 23  1  0
 23 24  1  0
 24 25  1  0
 15  4  1  0
 22 17  1  0
 15 10  1  0
 25 20  1  0
  3 26  1  0
  3 27  1  0
  7 28  1  0
  7 29  1  0
  8 30  1  0
  8 31  1  0
 11 32  1  0
 12 33  1  0
 13 34  1  0
 14 35  1  0
 16 36  1  0
 18 37  1  0
 19 38  1  0
 22 39  1  0
 24 40  1  0
 24 41  1  0
M  END
$$$$
