
     RDKit          3D

 53 58  0  0  0  0  0  0  0  0999 V2000
    1.3099   -1.6526   -0.8272 O   0  0  0  0  0  0  0  0  0  0  0  0
    1.6507   -0.6004   -0.2850 C   0  0  0  0  0  0  0  0  0  0  0  0
    1.0198    0.7420   -0.6979 C   0  0  0  0  0  0  0  0  0  0  0  0
   -0.4161    0.5998   -0.9873 N   0  0  0  0  0  4  0  0  0  0  0  0
   -1.4771    1.0477   -0.2025 C   0  0  0  0  0  0  0  0  0  0  0  0
   -2.6739    0.6848   -0.8089 C   0  0  0  0  0  0  0  0  0  0  0  0
   -4.1207    1.0029   -0.2798 C   0  0  0  0  0  0  0  0  0  0  0  0
   -5.2489    0.6314   -1.0179 C   0  0  0  0  0  0  0  0  0  0  0  0
   -6.5292    0.9211   -0.5362 C   0  0  0  0  0  0  0  0  0  0  0  0
   -6.6773    1.5807    0.6767 C   0  0  0  0  0  0  0  0  0  0  0  0
   -7.9040    1.8564    1.1342 F   0  0  0  0  0  0  0  0  0  0  0  0
   -5.5670    1.9595    1.4192 C   0  0  0  0  0  0  0  0  0  0  0  0
   -4.2847    1.6727    0.9423 C   0  0  0  0  0  0  0  0  0  0  0  0
   -2.2617    0.0117   -1.9447 N   0  0  0  0  0  0  0  0  0  0  0  0
   -0.9346   -0.0100   -2.0505 C   0  0  0  0  0  0  0  0  0  0  0  0
   -0.4619   -0.6602   -3.2958 C   0  0  0  0  0  0  0  0  0  0  0  0
   -1.7330   -1.3807   -3.7845 C   0  0  0  0  0  0  0  0  0  0  0  0
   -2.9052   -0.6594   -3.0667 C   0  0  0  0  0  0  0  0  0  0  0  0
    2.6611   -0.4658    0.6722 N   0  0  0  0  0  0  0  0  0  0  0  0
    2.3175   -0.0268    2.0007 C   0  0  0  0  0  0  0  0  0  0  0  0
    0.9765   -0.1375    2.4347 C   0  0  0  0  0  0  0  0  0  0  0  0
    0.5785    0.2802    3.7072 C   0  0  0  0  0  0  0  0  0  0  0  0
    1.5144    0.8130    4.5807 C   0  0  0  0  0  0  0  0  0  0  0  0
    2.8463    0.9060    4.1855 C   0  0  0  0  0  0  0  0  0  0  0  0
    3.2555    0.4773    2.9112 C   0  0  0  0  0  0  0  0  0  0  0  0
    4.9702    0.6494    2.5241 S   0  0  0  0  0  0  0  0  0  0  0  0
    5.1069   -0.4928    1.1742 C   0  0  0  0  0  0  0  0  0  0  0  0
    6.4087   -0.9202    0.8564 C   0  0  0  0  0  0  0  0  0  0  0  0
    6.6440   -1.7384   -0.2431 C   0  0  0  0  0  0  0  0  0  0  0  0
    5.5795   -2.1241   -1.0420 C   0  0  0  0  0  0  0  0  0  0  0  0
    4.2823   -1.6992   -0.7338 C   0  0  0  0  0  0  0  0  0  0  0  0
    4.0092   -0.8912    0.3899 C   0  0  0  0  0  0  0  0  0  0  0  0
    1.5187    1.0825   -1.6120 H   0  0  0  0  0  0  0  0  0  0  0  0
    1.1546    1.5153    0.0634 H   0  0  0  0  0  0  0  0  0  0  0  0
   -1.2427    1.5848    0.7012 H   0  0  0  0  0  0  0  0  0  0  0  0
   -5.1749    0.1261   -1.9721 H   0  0  0  0  0  0  0  0  0  0  0  0
   -7.4148    0.6392   -1.0995 H   0  0  0  0  0  0  0  0  0  0  0  0
   -5.7101    2.4760    2.3645 H   0  0  0  0  0  0  0  0  0  0  0  0
   -3.4404    1.9834    1.5505 H   0  0  0  0  0  0  0  0  0  0  0  0
    0.3611   -1.3393   -3.0833 H   0  0  0  0  0  0  0  0  0  0  0  0
   -0.1571    0.1462   -3.9667 H   0  0  0  0  0  0  0  0  0  0  0  0
   -1.7027   -2.4253   -3.4524 H   0  0  0  0  0  0  0  0  0  0  0  0
   -1.8346   -1.3766   -4.8730 H   0  0  0  0  0  0  0  0  0  0  0  0
   -3.3603    0.0954   -3.7145 H   0  0  0  0  0  0  0  0  0  0  0  0
   -3.6512   -1.3770   -2.7178 H   0  0  0  0  0  0  0  0  0  0  0  0
    0.2197   -0.6144    1.8160 H   0  0  0  0  0  0  0  0  0  0  0  0
   -0.4541    0.1626    4.0285 H   0  0  0  0  0  0  0  0  0  0  0  0
    1.2195    1.1331    5.5778 H   0  0  0  0  0  0  0  0  0  0  0  0
    3.5734    1.3088    4.8903 H   0  0  0  0  0  0  0  0  0  0  0  0
    7.2569   -0.6066    1.4638 H   0  0  0  0  0  0  0  0  0  0  0  0
    7.6546   -2.0659   -0.4757 H   0  0  0  0  0  0  0  0  0  0  0  0
    5.7524   -2.7654   -1.9039 H   0  0  0  0  0  0  0  0  0  0  0  0
    3.4964   -2.0602   -1.3905 H   0  0  0  0  0  0  0  0  0  0  0  0
  1  2  2  0
  2  3  1  0
  3  4  1  0
  4  5  1  0
  5  6  2  0
  6  7  1  0
  7  8  2  0
  8  9  1  0
  9 10  2  0
 10 11  1  0
 10 12  1  0
 12 13  2  0
  6 14  1  0
 14 15  1  0
 15 16  1  0
 16 17  1  0
 17 18  1  0
  2 19  1  0
 19 20  1  0
 20 21  2  0
 21 22  1  0
 22 23  2  0
 23 24  1  0
 24 25  2  0
 25 26  1  0
 26 27  1  0
 27 28  2  0
 28 29  1  0
 29 30  2  0
 30 31  1  0
 31 32  2  0
 15  4  2  0
 32 19  1  0
 13  7  1  0
 18 14  1  0
 25 20  1  0
 32 27  1  0
  3 33  1  0
  3 34  1  0
  5 35  1  0
  8 36  1  0
  9 37  1  0
 12 38  1  0
 13 39  1  0
 16 40  1  0
 16 41  1  0
 17 42  1  0
 17 43  1  0
 18 44  1  0
 18 45  1  0
 21 46  1  0
 22 47  1  0
 23 48  1  0
 24 49  1  0
 28 50  1  0
 29 51  1  0
 30 52  1  0
 31 53  1  0
M  CHG  1   4   1
M  END
$$$$
