
     RDKit          3D

 38 40  0  0  0  0  0  0  0  0999 V2000
   -7.2781    1.4956    0.4006 C   0  0  0  0  0  0  0  0  0  0  0  0
   -6.4042    0.3183    0.0142 C   0  0  0  0  0  0  0  0  0  0  0  0
   -6.1216    0.4103   -1.3796 O   0  0  0  0  0  0  0  0  0  0  0  0
   -5.3458   -0.6862   -1.8756 C   0  0  0  0  0  0  0  0  0  0  0  0
   -3.8933   -0.4263   -1.6417 C   0  0  0  0  0  0  0  0  0  0  0  0
   -3.1605    0.4558   -2.2924 N   0  0  0  0  0  0  0  0  0  0  0  0
   -1.8467    0.4526   -1.8673 N   0  0  0  0  0  0  0  0  0  0  0  0
   -1.6332   -0.4321   -0.9196 C   0  0  0  0  0  0  0  0  0  0  0  0
   -0.4019   -0.6055   -0.3462 N   0  0  0  0  0  0  0  0  0  0  0  0
   -0.0553   -1.4893    0.6484 C   0  0  0  0  0  0  0  0  0  0  0  0
   -0.7922   -2.2949    1.2102 O   0  0  0  0  0  0  0  0  0  0  0  0
    1.4232   -1.3950    1.0389 C   0  0  0  0  0  0  0  0  0  0  0  0
    2.0975   -0.4021    0.2701 O   0  0  0  0  0  0  0  0  0  0  0  0
    3.4301   -0.2179    0.5237 C   0  0  0  0  0  0  0  0  0  0  0  0
    4.1903   -0.9237    1.4758 C   0  0  0  0  0  0  0  0  0  0  0  0
    5.5532   -0.6476    1.6477 C   0  0  0  0  0  0  0  0  0  0  0  0
    6.1176    0.3301    0.8592 C   0  0  0  0  0  0  0  0  0  0  0  0
    5.3791    1.0204   -0.0703 C   0  0  0  0  0  0  0  0  0  0  0  0
    4.0369    0.7700   -0.2611 C   0  0  0  0  0  0  0  0  0  0  0  0
    6.1210    1.9402   -0.7430 O   0  0  0  0  0  0  0  0  0  0  0  0
    7.4127    1.7491   -0.1288 C   0  0  0  0  0  0  0  0  0  0  0  0
    7.4170    0.7270    0.8901 O   0  0  0  0  0  0  0  0  0  0  0  0
   -3.0077   -1.3356   -0.4810 S   0  0  0  0  0  0  0  0  0  0  0  0
   -6.7707    2.4408    0.1807 H   0  0  0  0  0  0  0  0  0  0  0  0
   -8.2085    1.4914   -0.1770 H   0  0  0  0  0  0  0  0  0  0  0  0
   -7.5238    1.4662    1.4658 H   0  0  0  0  0  0  0  0  0  0  0  0
   -5.4756    0.3481    0.5924 H   0  0  0  0  0  0  0  0  0  0  0  0
   -6.9314   -0.6183    0.2259 H   0  0  0  0  0  0  0  0  0  0  0  0
   -5.5193   -0.7380   -2.9560 H   0  0  0  0  0  0  0  0  0  0  0  0
   -5.6913   -1.6339   -1.4470 H   0  0  0  0  0  0  0  0  0  0  0  0
    0.3234    0.0033   -0.7101 H   0  0  0  0  0  0  0  0  0  0  0  0
    1.4571   -1.1361    2.1035 H   0  0  0  0  0  0  0  0  0  0  0  0
    1.8662   -2.3806    0.8550 H   0  0  0  0  0  0  0  0  0  0  0  0
    3.7522   -1.6957    2.1009 H   0  0  0  0  0  0  0  0  0  0  0  0
    6.1478   -1.1853    2.3781 H   0  0  0  0  0  0  0  0  0  0  0  0
    3.4729    1.3272   -1.0007 H   0  0  0  0  0  0  0  0  0  0  0  0
    7.7296    2.6961    0.3232 H   0  0  0  0  0  0  0  0  0  0  0  0
    8.1334    1.4718   -0.9067 H   0  0  0  0  0  0  0  0  0  0  0  0
  1  2  1  0
  2  3  1  0
  3  4  1  0
  4  5  1  0
  5  6  2  0
  6  7  1  0
  7  8  2  0
  8  9  1  0
  9 10  1  0
 10 11  2  0
 10 12  1  0
 12 13  1  0
 13 14  1  0
 14 15  2  0
 15 16  1  0
 16 17  2  0
 17 18  1  0
 18 19  2  0
 18 20  1  0
 20 21  1  0
 21 22  1  0
  8 23  1  0
 23  5  1  0
 19 14  1  0
 22 17  1  0
  1 24  1  0
  1 25  1  0
  1 26  1  0
  2 27  1  0
  2 28  1  0
  4 29  1  0
  4 30  1  0
  9 31  1  0
 12 32  1  0
 12 33  1  0
 15 34  1  0
 16 35  1  0
 19 36  1  0
 21 37  1  0
 21 38  1  0
M  END
$$$$
