
     RDKit          3D

 39 40  0  0  0  0  0  0  0  0999 V2000
   -0.9804   -3.0952    0.7885 C   0  0  0  0  0  0  0  0  0  0  0  0
   -1.2653   -1.7438    0.1318 C   0  0  0  0  0  0  0  0  0  0  0  0
   -2.1409   -2.0044   -0.9749 O   0  0  0  0  0  0  0  0  0  0  0  0
   -3.0955   -1.0297   -1.1173 C   0  0  0  0  0  0  0  0  0  0  0  0
   -2.7651    0.1470   -1.7952 C   0  0  0  0  0  0  0  0  0  0  0  0
   -3.7283    1.1447   -1.9663 C   0  0  0  0  0  0  0  0  0  0  0  0
   -5.0275    0.9475   -1.4717 C   0  0  0  0  0  0  0  0  0  0  0  0
   -6.0419    1.9954   -1.6552 N   0  0  0  0  0  4  0  0  0  0  0  0
   -5.6591    3.0966   -2.0723 O   0  0  0  0  0  0  0  0  0  0  0  0
   -7.2177    1.7123   -1.3823 O   0  0  0  0  0  1  0  0  0  0  0  0
   -5.3721   -0.2420   -0.8170 C   0  0  0  0  0  0  0  0  0  0  0  0
   -4.4027   -1.2331   -0.6499 C   0  0  0  0  0  0  0  0  0  0  0  0
   -4.8488   -2.6899    0.1592 Cl  0  0  0  0  0  0  0  0  0  0  0  0
    0.0706   -1.0911   -0.3061 C   0  0  0  0  0  0  0  0  0  0  0  0
    0.3728   -0.9644   -1.4902 O   0  0  0  0  0  0  0  0  0  0  0  0
    0.8371   -0.6652    0.7734 N   0  0  0  0  0  0  0  0  0  0  0  0
    2.0971   -0.0323    0.7369 C   0  0  0  0  0  0  0  0  0  0  0  0
    2.7956    0.2621   -0.4352 C   0  0  0  0  0  0  0  0  0  0  0  0
    4.0437    0.9007   -0.3857 C   0  0  0  0  0  0  0  0  0  0  0  0
    4.6168    1.2400    0.8452 C   0  0  0  0  0  0  0  0  0  0  0  0
    5.9359    1.9225    0.9631 C   0  0  0  0  0  0  0  0  0  0  0  0
    6.7533    1.9343   -0.1335 N   0  0  0  0  0  0  0  0  0  0  0  0
    6.3015    2.4381    2.0128 O   0  0  0  0  0  0  0  0  0  0  0  0
    3.9184    0.9505    2.0220 C   0  0  0  0  0  0  0  0  0  0  0  0
    2.6688    0.3184    1.9668 C   0  0  0  0  0  0  0  0  0  0  0  0
   -1.9168   -3.5802    1.0954 H   0  0  0  0  0  0  0  0  0  0  0  0
   -0.3373   -2.9988    1.6676 H   0  0  0  0  0  0  0  0  0  0  0  0
   -0.4881   -3.7690    0.0748 H   0  0  0  0  0  0  0  0  0  0  0  0
   -1.7451   -1.0795    0.8692 H   0  0  0  0  0  0  0  0  0  0  0  0
   -1.7625    0.2955   -2.1933 H   0  0  0  0  0  0  0  0  0  0  0  0
   -3.4536    2.0587   -2.4899 H   0  0  0  0  0  0  0  0  0  0  0  0
   -6.3812   -0.4054   -0.4423 H   0  0  0  0  0  0  0  0  0  0  0  0
    0.4500   -0.8132    1.6979 H   0  0  0  0  0  0  0  0  0  0  0  0
    2.4030    0.0087   -1.4131 H   0  0  0  0  0  0  0  0  0  0  0  0
    4.5361    1.1363   -1.3235 H   0  0  0  0  0  0  0  0  0  0  0  0
    7.6835    2.3052    0.0211 H   0  0  0  0  0  0  0  0  0  0  0  0
    6.6384    1.3016   -0.9118 H   0  0  0  0  0  0  0  0  0  0  0  0
    4.3503    1.2091    2.9903 H   0  0  0  0  0  0  0  0  0  0  0  0
    2.1571    0.1121    2.9027 H   0  0  0  0  0  0  0  0  0  0  0  0
  1  2  1  0
  2  3  1  0
  3  4  1  0
  4  5  2  0
  5  6  1  0
  6  7  2  0
  7  8  1  0
  8  9  2  0
  8 10  1  0
  7 11  1  0
 11 12  2  0
 12 13  1  0
  2 14  1  0
 14 15  2  0
 14 16  1  0
 16 17  1  0
 17 18  2  0
 18 19  1  0
 19 20  2  0
 20 21  1  0
 21 22  1  0
 21 23  2  0
 20 24  1  0
 24 25  2  0
 12  4  1  0
 25 17  1  0
  1 26  1  0
  1 27  1  0
  1 28  1  0
  2 29  1  0
  5 30  1  0
  6 31  1  0
 11 32  1  0
 16 33  1  0
 18 34  1  0
 19 35  1  0
 22 36  1  0
 22 37  1  0
 24 38  1  0
 25 39  1  0
M  CHG  2   8   1  10  -1
M  END
$$$$
