
     RDKit          3D

 41 42  0  0  0  0  0  0  0  0999 V2000
   -4.8212    0.6894    1.8329 C   0  0  0  0  0  0  0  0  0  0  0  0
   -4.3383    1.5204    0.6540 C   0  0  0  0  0  0  0  0  0  0  0  0
   -3.6734    0.6853   -0.3554 N   0  0  0  0  0  0  0  0  0  0  0  0
   -4.5416    0.0647   -1.3665 C   0  0  0  0  0  0  0  0  0  0  0  0
   -4.6657   -1.4391   -1.1594 C   0  0  0  0  0  0  0  0  0  0  0  0
   -2.2925    0.5134   -0.3618 C   0  0  0  0  0  0  0  0  0  0  0  0
   -1.4878    0.8530    0.7386 C   0  0  0  0  0  0  0  0  0  0  0  0
   -0.0940    0.6807    0.7381 C   0  0  0  0  0  0  0  0  0  0  0  0
    0.5574    0.1451   -0.3712 C   0  0  0  0  0  0  0  0  0  0  0  0
    2.0191    0.0040   -0.3437 C   0  0  0  0  0  0  0  0  0  0  0  0
    2.6750   -1.0211   -0.9094 C   0  0  0  0  0  0  0  0  0  0  0  0
    4.1538   -1.1673   -0.9160 C   0  0  0  0  0  0  0  0  0  0  0  0
    4.6982   -1.7276   -1.8631 O   0  0  0  0  0  0  0  0  0  0  0  0
    4.9730   -0.6528    0.1990 C   0  0  0  0  0  0  0  0  0  0  0  0
    6.2414   -0.1316   -0.0618 C   0  0  0  0  0  0  0  0  0  0  0  0
    7.0193    0.3357    0.9948 C   0  0  0  0  0  0  0  0  0  0  0  0
    6.5021    0.2538    2.2784 C   0  0  0  0  0  0  0  0  0  0  0  0
    5.2866   -0.2630    2.5673 N   0  0  0  0  0  0  0  0  0  0  0  0
    4.5542   -0.7188    1.5214 C   0  0  0  0  0  0  0  0  0  0  0  0
   -0.2124   -0.1856   -1.4845 C   0  0  0  0  0  0  0  0  0  0  0  0
   -1.6058   -0.0080   -1.4710 C   0  0  0  0  0  0  0  0  0  0  0  0
   -4.0032    0.1332    2.3006 H   0  0  0  0  0  0  0  0  0  0  0  0
   -5.2706    1.3376    2.5919 H   0  0  0  0  0  0  0  0  0  0  0  0
   -5.5807   -0.0337    1.5199 H   0  0  0  0  0  0  0  0  0  0  0  0
   -3.6907    2.3353    0.9975 H   0  0  0  0  0  0  0  0  0  0  0  0
   -5.2015    2.0279    0.2050 H   0  0  0  0  0  0  0  0  0  0  0  0
   -5.5506    0.4922   -1.3099 H   0  0  0  0  0  0  0  0  0  0  0  0
   -4.1959    0.2932   -2.3806 H   0  0  0  0  0  0  0  0  0  0  0  0
   -3.7043   -1.9493   -1.2683 H   0  0  0  0  0  0  0  0  0  0  0  0
   -5.0529   -1.6713   -0.1626 H   0  0  0  0  0  0  0  0  0  0  0  0
   -5.3545   -1.8637   -1.8967 H   0  0  0  0  0  0  0  0  0  0  0  0
   -1.9269    1.2497    1.6488 H   0  0  0  0  0  0  0  0  0  0  0  0
    0.4651    0.9628    1.6276 H   0  0  0  0  0  0  0  0  0  0  0  0
    2.5470    0.8001    0.1758 H   0  0  0  0  0  0  0  0  0  0  0  0
    2.1588   -1.7951   -1.4696 H   0  0  0  0  0  0  0  0  0  0  0  0
    6.6213   -0.0916   -1.0802 H   0  0  0  0  0  0  0  0  0  0  0  0
    8.0067    0.7492    0.8210 H   0  0  0  0  0  0  0  0  0  0  0  0
    7.0712    0.6060    3.1346 H   0  0  0  0  0  0  0  0  0  0  0  0
    3.6017   -1.1592    1.8022 H   0  0  0  0  0  0  0  0  0  0  0  0
    0.2499   -0.5732   -2.3891 H   0  0  0  0  0  0  0  0  0  0  0  0
   -2.1373   -0.2804   -2.3775 H   0  0  0  0  0  0  0  0  0  0  0  0
  1  2  1  0
  2  3  1  0
  3  4  1  0
  4  5  1  0
  3  6  1  0
  6  7  2  0
  7  8  1  0
  8  9  2  0
  9 10  1  0
 10 11  2  3
 11 12  1  0
 12 13  2  0
 12 14  1  0
 14 15  2  0
 15 16  1  0
 16 17  2  0
 17 18  1  0
 18 19  2  0
  9 20  1  0
 20 21  2  0
 21  6  1  0
 19 14  1  0
  1 22  1  0
  1 23  1  0
  1 24  1  0
  2 25  1  0
  2 26  1  0
  4 27  1  0
  4 28  1  0
  5 29  1  0
  5 30  1  0
  5 31  1  0
  7 32  1  0
  8 33  1  0
 10 34  1  0
 11 35  1  0
 15 36  1  0
 16 37  1  0
 17 38  1  0
 19 39  1  0
 20 40  1  0
 21 41  1  0
M  END
$$$$
