
     RDKit          3D

 56 61  0  0  0  0  0  0  0  0999 V2000
   -5.9741   -2.3349    1.3139 C   0  0  0  0  0  0  0  0  0  0  0  0
   -4.8027   -1.4875    1.7115 C   0  0  0  0  0  0  0  0  0  0  0  0
   -4.9097   -0.4975    2.7067 C   0  0  0  0  0  0  0  0  0  0  0  0
   -6.4094   -0.1954    3.5151 Cl  0  0  0  0  0  0  0  0  0  0  0  0
   -3.8033    0.2867    3.0902 C   0  0  0  0  0  0  0  0  0  0  0  0
   -2.5526    0.0987    2.5007 C   0  0  0  0  0  0  0  0  0  0  0  0
   -2.4320   -0.8820    1.5286 C   0  0  0  0  0  0  0  0  0  0  0  0
   -3.5414   -1.6550    1.1519 C   0  0  0  0  0  0  0  0  0  0  0  0
   -3.1633   -2.5641    0.1668 N   0  0  0  0  0  0  0  0  0  0  0  0
   -1.8075   -2.4567   -0.1546 C   0  0  0  0  0  0  0  0  0  0  0  0
   -1.2409   -3.1427   -0.9915 O   0  0  0  0  0  0  0  0  0  0  0  0
   -1.2312   -1.3257    0.7392 C   0  0  0  0  0  0  0  0  0  0  0  0
   -0.0762   -1.7995    1.5676 N   0  0  0  0  0  0  0  0  0  0  0  0
    1.1968   -1.3897    0.8417 C   0  0  2  0  0  0  0  0  0  0  0  0
    2.3170   -1.1076    1.8580 C   0  0  0  0  0  0  0  0  0  0  0  0
    3.7184   -1.2539    1.3069 C   0  0  0  0  0  0  0  0  0  0  0  0
    4.5784   -0.1502    1.2388 C   0  0  0  0  0  0  0  0  0  0  0  0
    5.8791   -0.2921    0.7514 C   0  0  0  0  0  0  0  0  0  0  0  0
    6.3365   -1.5401    0.3335 C   0  0  0  0  0  0  0  0  0  0  0  0
    5.4939   -2.6475    0.4037 C   0  0  0  0  0  0  0  0  0  0  0  0
    4.1930   -2.5066    0.8902 C   0  0  0  0  0  0  0  0  0  0  0  0
    0.7211   -0.2236    0.0506 C   0  0  0  0  0  0  0  0  0  0  0  0
   -0.6749   -0.1893   -0.0116 C   0  0  0  0  0  0  0  0  0  0  0  0
   -1.0622    0.8989   -0.7523 C   0  0  0  0  0  0  0  0  0  0  0  0
   -2.2784    1.3200   -1.0917 O   0  0  0  0  0  0  0  0  0  0  0  0
    0.1138    1.5205   -1.2128 N   0  0  0  0  0  0  0  0  0  0  0  0
    0.1903    2.6071   -2.1413 C   0  0  0  0  0  0  0  0  0  0  0  0
   -0.8030    3.5933   -2.1743 C   0  0  0  0  0  0  0  0  0  0  0  0
   -0.7133    4.6517   -3.0826 C   0  0  0  0  0  0  0  0  0  0  0  0
    0.3587    4.7263   -3.9697 C   0  0  0  0  0  0  0  0  0  0  0  0
    1.3414    3.7392   -3.9566 C   0  0  0  0  0  0  0  0  0  0  0  0
    1.2587    2.6806   -3.0490 C   0  0  0  0  0  0  0  0  0  0  0  0
    1.2114    0.8668   -0.6149 C   0  0  0  0  0  0  0  0  0  0  0  0
    2.4685    1.3007   -0.6735 O   0  0  0  0  0  0  0  0  0  0  0  0
   -6.2279   -3.0280    2.1225 H   0  0  0  0  0  0  0  0  0  0  0  0
   -5.7741   -2.9271    0.4162 H   0  0  0  0  0  0  0  0  0  0  0  0
   -6.8440   -1.7116    1.0844 H   0  0  0  0  0  0  0  0  0  0  0  0
   -3.9184    1.0481    3.8595 H   0  0  0  0  0  0  0  0  0  0  0  0
   -1.7044    0.7086    2.7986 H   0  0  0  0  0  0  0  0  0  0  0  0
   -3.7543   -3.2520   -0.2753 H   0  0  0  0  0  0  0  0  0  0  0  0
   -0.0972   -1.2581    2.4291 H   0  0  0  0  0  0  0  0  0  0  0  0
    1.4622   -2.2098    0.1638 H   0  0  0  0  0  0  0  0  0  0  0  0
    2.2454   -1.8186    2.6935 H   0  0  0  0  0  0  0  0  0  0  0  0
    2.1876   -0.1133    2.3061 H   0  0  0  0  0  0  0  0  0  0  0  0
    4.2348    0.8329    1.5529 H   0  0  0  0  0  0  0  0  0  0  0  0
    6.5333    0.5739    0.6952 H   0  0  0  0  0  0  0  0  0  0  0  0
    7.3478   -1.6498   -0.0479 H   0  0  0  0  0  0  0  0  0  0  0  0
    5.8486   -3.6223    0.0793 H   0  0  0  0  0  0  0  0  0  0  0  0
    3.5520   -3.3843    0.9437 H   0  0  0  0  0  0  0  0  0  0  0  0
   -2.9326    0.7090   -0.7105 H   0  0  0  0  0  0  0  0  0  0  0  0
   -1.6420    3.5785   -1.4842 H   0  0  0  0  0  0  0  0  0  0  0  0
   -1.4846    5.4175   -3.0974 H   0  0  0  0  0  0  0  0  0  0  0  0
    0.4207    5.5469   -4.6798 H   0  0  0  0  0  0  0  0  0  0  0  0
    2.1640    3.7826   -4.6664 H   0  0  0  0  0  0  0  0  0  0  0  0
    2.0095    1.8943   -3.1070 H   0  0  0  0  0  0  0  0  0  0  0  0
    2.4725    2.2336   -0.9506 H   0  0  0  0  0  0  0  0  0  0  0  0
  1  2  1  0
  2  3  2  0
  3  4  1  0
  3  5  1  0
  5  6  2  0
  6  7  1  0
  7  8  2  0
  8  9  1  0
  9 10  1  0
 10 11  2  0
 10 12  1  0
 12 13  1  0
 13 14  1  0
 14 15  1  0
 15 16  1  0
 16 17  2  0
 17 18  1  0
 18 19  2  0
 19 20  1  0
 20 21  2  0
 14 22  1  0
 22 23  1  0
 23 24  2  0
 24 25  1  0
 24 26  1  0
 26 27  1  0
 27 28  2  0
 28 29  1  0
 29 30  2  0
 30 31  1  0
 31 32  2  0
 26 33  1  0
 33 34  1  0
  8  2  1  0
 23 12  1  0
 32 27  1  0
 12  7  1  0
 21 16  1  0
 33 22  2  0
  1 35  1  0
  1 36  1  0
  1 37  1  0
  5 38  1  0
  6 39  1  0
  9 40  1  0
 13 41  1  0
 14 42  1  6
 15 43  1  0
 15 44  1  0
 17 45  1  0
 18 46  1  0
 19 47  1  0
 20 48  1  0
 21 49  1  0
 25 50  1  0
 28 51  1  0
 29 52  1  0
 30 53  1  0
 31 54  1  0
 32 55  1  0
 34 56  1  0
M  END
$$$$
