
     RDKit          3D

 41 43  0  0  0  0  0  0  0  0999 V2000
   -0.3314    0.8021    3.3029 C   0  0  0  0  0  0  0  0  0  0  0  0
   -1.2414    0.5646    2.1346 C   0  0  0  0  0  0  0  0  0  0  0  0
   -2.2504   -0.3975    2.2092 C   0  0  0  0  0  0  0  0  0  0  0  0
   -3.1182   -0.6021    1.1328 C   0  0  0  0  0  0  0  0  0  0  0  0
   -2.9999    0.1448   -0.0515 C   0  0  0  0  0  0  0  0  0  0  0  0
   -3.9841   -0.1152   -1.1562 C   0  0  0  0  0  0  0  0  0  0  0  0
   -1.9878    1.1208   -0.1188 C   0  0  0  0  0  0  0  0  0  0  0  0
   -1.7467    2.1502   -1.5637 S   0  0  0  0  0  6  0  0  0  0  0  0
   -3.0465    2.4938   -2.1007 O   0  0  0  0  0  0  0  0  0  0  0  0
   -0.7948    3.1895   -1.2314 O   0  0  0  0  0  0  0  0  0  0  0  0
   -1.0347    1.1012   -2.6781 N   0  0  0  0  0  0  0  0  0  0  0  0
    0.0719    0.2847   -2.3085 C   0  0  0  0  0  0  0  0  0  0  0  0
    0.0069   -1.0785   -2.5997 C   0  0  0  0  0  0  0  0  0  0  0  0
    1.0628   -1.9182   -2.2486 C   0  0  0  0  0  0  0  0  0  0  0  0
    2.1820   -1.3956   -1.6049 C   0  0  0  0  0  0  0  0  0  0  0  0
    3.1606   -2.2968   -1.2860 O   0  0  0  0  0  0  0  0  0  0  0  0
    2.2745   -0.0257   -1.3227 C   0  0  0  0  0  0  0  0  0  0  0  0
    3.7028    0.7341   -0.5651 S   0  0  0  0  0  0  0  0  0  0  0  0
    3.7084   -0.0096    1.0077 C   0  0  0  0  0  0  0  0  0  0  0  0
    3.3427    0.6323    2.1564 N   0  0  0  0  0  0  0  0  0  0  0  0
    3.5161   -0.2872    3.0762 C   0  0  0  0  0  0  0  0  0  0  0  0
    3.9655   -1.4311    2.4966 N   0  0  0  0  0  0  0  0  0  0  0  0
    4.0977   -1.2818    1.1666 N   0  0  0  0  0  0  0  0  0  0  0  0
    1.2142    0.8115   -1.7012 C   0  0  0  0  0  0  0  0  0  0  0  0
   -1.1261    1.3329    0.9724 C   0  0  0  0  0  0  0  0  0  0  0  0
   -0.8614    1.3564    4.0837 H   0  0  0  0  0  0  0  0  0  0  0  0
    0.0199   -0.1500    3.7139 H   0  0  0  0  0  0  0  0  0  0  0  0
    0.5519    1.3783    3.0093 H   0  0  0  0  0  0  0  0  0  0  0  0
   -2.3739   -0.9926    3.1117 H   0  0  0  0  0  0  0  0  0  0  0  0
   -3.8986   -1.3551    1.2314 H   0  0  0  0  0  0  0  0  0  0  0  0
   -4.7194    0.6930   -1.2087 H   0  0  0  0  0  0  0  0  0  0  0  0
   -4.5326   -1.0487   -0.9866 H   0  0  0  0  0  0  0  0  0  0  0  0
   -3.4797   -0.2266   -2.1194 H   0  0  0  0  0  0  0  0  0  0  0  0
   -1.7127    0.7279   -3.3392 H   0  0  0  0  0  0  0  0  0  0  0  0
   -0.8632   -1.5050   -3.0904 H   0  0  0  0  0  0  0  0  0  0  0  0
    1.0137   -2.9813   -2.4686 H   0  0  0  0  0  0  0  0  0  0  0  0
    3.7347   -1.8948   -0.5989 H   0  0  0  0  0  0  0  0  0  0  0  0
    3.3407   -0.1851    4.1377 H   0  0  0  0  0  0  0  0  0  0  0  0
    4.1971   -2.3202    2.9270 H   0  0  0  0  0  0  0  0  0  0  0  0
    1.2916    1.8819   -1.5246 H   0  0  0  0  0  0  0  0  0  0  0  0
   -0.3525    2.0983    0.9177 H   0  0  0  0  0  0  0  0  0  0  0  0
  1  2  1  0
  2  3  2  0
  3  4  1  0
  4  5  2  0
  5  6  1  0
  5  7  1  0
  7  8  1  0
  8  9  2  0
  8 10  2  0
  8 11  1  0
 11 12  1  0
 12 13  2  0
 13 14  1  0
 14 15  2  0
 15 16  1  0
 15 17  1  0
 17 18  1  0
 18 19  1  0
 19 20  1  0
 20 21  2  0
 21 22  1  0
 22 23  1  0
 17 24  2  0
  7 25  2  0
 25  2  1  0
 24 12  1  0
 23 19  2  0
  1 26  1  0
  1 27  1  0
  1 28  1  0
  3 29  1  0
  4 30  1  0
  6 31  1  0
  6 32  1  0
  6 33  1  0
 11 34  1  0
 13 35  1  0
 14 36  1  0
 16 37  1  0
 21 38  1  0
 22 39  1  0
 24 40  1  0
 25 41  1  0
M  END
$$$$
