
     RDKit          3D

 53 55  0  0  0  0  0  0  0  0999 V2000
    8.2175    3.2911    1.6106 C   0  0  0  0  0  0  0  0  0  0  0  0
    7.9720    1.9483    2.0100 O   0  0  0  0  0  0  0  0  0  0  0  0
    6.6882    1.4917    1.8931 C   0  0  0  0  0  0  0  0  0  0  0  0
    5.6076    2.2063    1.3702 C   0  0  0  0  0  0  0  0  0  0  0  0
    4.3414    1.6165    1.3055 C   0  0  0  0  0  0  0  0  0  0  0  0
    4.1626    0.3075    1.7617 C   0  0  0  0  0  0  0  0  0  0  0  0
    2.5472   -0.4227    1.6699 S   0  0  0  0  0  6  0  0  0  0  0  0
    1.6076    0.5481    2.1836 O   0  0  0  0  0  0  0  0  0  0  0  0
    2.6173   -1.7678    2.1998 O   0  0  0  0  0  0  0  0  0  0  0  0
    2.3075   -0.5540    0.0028 N   0  0  0  0  0  0  0  0  0  0  0  0
    3.2017   -1.4696   -0.7390 C   0  0  0  0  0  0  0  0  0  0  0  0
    2.2647   -2.5088   -1.3115 C   0  0  0  0  0  0  0  0  0  0  0  0
    1.0566   -1.7791   -1.5304 O   0  0  0  0  0  0  0  0  0  0  0  0
    0.9224   -0.9384   -0.3638 C   0  0  0  0  0  0  0  0  0  0  0  0
    0.0809    0.2989   -0.7324 C   0  0  0  0  0  0  0  0  0  0  0  0
   -1.2285   -0.0276   -1.2714 N   0  0  0  0  0  0  0  0  0  0  0  0
   -2.2174   -0.5723   -0.4872 C   0  0  0  0  0  0  0  0  0  0  0  0
   -2.1681   -0.7208    0.7251 O   0  0  0  0  0  0  0  0  0  0  0  0
   -3.4598   -1.0370   -1.2812 C   0  0  0  0  0  0  0  0  0  0  0  0
   -3.4874   -0.9265   -2.4991 O   0  0  0  0  0  0  0  0  0  0  0  0
   -4.4563   -1.5504   -0.4870 N   0  0  0  0  0  0  0  0  0  0  0  0
   -5.7522   -1.9060   -1.0035 C   0  0  0  0  0  0  0  0  0  0  0  0
   -6.7189   -0.7552   -0.8926 C   0  0  0  0  0  0  0  0  0  0  0  0
   -6.8750    0.1082   -1.9925 C   0  0  0  0  0  0  0  0  0  0  0  0
   -7.7455    1.1978   -1.9321 C   0  0  0  0  0  0  0  0  0  0  0  0
   -8.4682    1.4478   -0.7690 C   0  0  0  0  0  0  0  0  0  0  0  0
   -8.3146    0.6117    0.3362 C   0  0  0  0  0  0  0  0  0  0  0  0
   -7.4423   -0.4803    0.2783 C   0  0  0  0  0  0  0  0  0  0  0  0
   -7.2859   -1.4551    1.6966 Cl  0  0  0  0  0  0  0  0  0  0  0  0
    5.2316   -0.4127    2.2946 C   0  0  0  0  0  0  0  0  0  0  0  0
    6.4923    0.1844    2.3531 C   0  0  0  0  0  0  0  0  0  0  0  0
    7.6306    3.9954    2.2094 H   0  0  0  0  0  0  0  0  0  0  0  0
    9.2760    3.5044    1.7883 H   0  0  0  0  0  0  0  0  0  0  0  0
    8.0258    3.4249    0.5409 H   0  0  0  0  0  0  0  0  0  0  0  0
    5.7158    3.2235    1.0078 H   0  0  0  0  0  0  0  0  0  0  0  0
    3.5012    2.1795    0.9043 H   0  0  0  0  0  0  0  0  0  0  0  0
    3.6740   -0.8897   -1.5397 H   0  0  0  0  0  0  0  0  0  0  0  0
    3.9921   -1.9255   -0.1385 H   0  0  0  0  0  0  0  0  0  0  0  0
    2.6260   -2.9363   -2.2504 H   0  0  0  0  0  0  0  0  0  0  0  0
    2.0663   -3.3179   -0.5995 H   0  0  0  0  0  0  0  0  0  0  0  0
    0.4376   -1.5384    0.4151 H   0  0  0  0  0  0  0  0  0  0  0  0
    0.5891    0.8855   -1.5060 H   0  0  0  0  0  0  0  0  0  0  0  0
   -0.0605    0.9412    0.1428 H   0  0  0  0  0  0  0  0  0  0  0  0
   -1.3414   -0.1420   -2.2756 H   0  0  0  0  0  0  0  0  0  0  0  0
   -4.3166   -1.4880    0.5183 H   0  0  0  0  0  0  0  0  0  0  0  0
   -6.1093   -2.7826   -0.4538 H   0  0  0  0  0  0  0  0  0  0  0  0
   -5.6569   -2.2195   -2.0502 H   0  0  0  0  0  0  0  0  0  0  0  0
   -6.3058   -0.0637   -2.9058 H   0  0  0  0  0  0  0  0  0  0  0  0
   -7.8537    1.8536   -2.7928 H   0  0  0  0  0  0  0  0  0  0  0  0
   -9.1445    2.2974   -0.7194 H   0  0  0  0  0  0  0  0  0  0  0  0
   -8.8745    0.8197    1.2447 H   0  0  0  0  0  0  0  0  0  0  0  0
    5.0979   -1.4256    2.6667 H   0  0  0  0  0  0  0  0  0  0  0  0
    7.3320   -0.3699    2.7672 H   0  0  0  0  0  0  0  0  0  0  0  0
  1  2  1  0
  2  3  1  0
  3  4  2  0
  4  5  1  0
  5  6  2  0
  6  7  1  0
  7  8  2  0
  7  9  2  0
  7 10  1  0
 10 11  1  0
 11 12  1  0
 12 13  1  0
 13 14  1  0
 14 15  1  0
 15 16  1  0
 16 17  1  0
 17 18  2  0
 17 19  1  0
 19 20  2  0
 19 21  1  0
 21 22  1  0
 22 23  1  0
 23 24  2  0
 24 25  1  0
 25 26  2  0
 26 27  1  0
 27 28  2  0
 28 29  1  0
  6 30  1  0
 30 31  2  0
 31  3  1  0
 14 10  1  0
 28 23  1  0
  1 32  1  0
  1 33  1  0
  1 34  1  0
  4 35  1  0
  5 36  1  0
 11 37  1  0
 11 38  1  0
 12 39  1  0
 12 40  1  0
 14 41  1  0
 15 42  1  0
 15 43  1  0
 16 44  1  0
 21 45  1  0
 22 46  1  0
 22 47  1  0
 24 48  1  0
 25 49  1  0
 26 50  1  0
 27 51  1  0
 30 52  1  0
 31 53  1  0
M  END
$$$$
