
     RDKit          3D

 46 49  0  0  0  0  0  0  0  0999 V2000
    3.9295    1.6222    0.5582 O   0  0  0  0  0  0  0  0  0  0  0  0
    3.1664    0.8442    1.1224 C   0  0  0  0  0  0  0  0  0  0  0  0
    2.3221   -0.1400    0.3299 C   0  0  0  0  0  0  0  0  0  0  0  0
    0.6184    0.4790    0.2305 S   0  0  0  0  0  0  0  0  0  0  0  0
   -0.1550   -0.9027   -0.4559 C   0  0  0  0  0  0  0  0  0  0  0  0
    0.1465   -2.1486   -0.1829 N   0  0  0  0  0  0  0  0  0  0  0  0
   -0.6930   -2.9498   -0.9118 N   0  0  0  0  0  0  0  0  0  0  0  0
   -1.4953   -2.1759   -1.6189 C   0  0  0  0  0  0  0  0  0  0  0  0
   -2.5442   -2.6599   -2.5663 C   0  0  0  0  0  0  0  0  0  0  0  0
   -3.9409   -2.5023   -2.0318 C   0  0  0  0  0  0  0  0  0  0  0  0
   -4.4399   -2.8809   -0.7991 C   0  0  0  0  0  0  0  0  0  0  0  0
   -5.8223   -2.5699   -0.6540 C   0  0  0  0  0  0  0  0  0  0  0  0
   -6.3393   -1.9765   -1.7834 C   0  0  0  0  0  0  0  0  0  0  0  0
   -5.1634   -1.8010   -3.0104 S   0  0  0  0  0  0  0  0  0  0  0  0
   -1.1919   -0.8565   -1.3483 N   0  0  0  0  0  0  0  0  0  0  0  0
   -1.8578    0.3215   -1.8735 C   0  0  0  0  0  0  0  0  0  0  0  0
   -1.3444    0.6711   -3.2214 C   0  0  0  0  0  0  0  0  0  0  0  0
   -1.8938    0.6421   -4.4875 C   0  0  0  0  0  0  0  0  0  0  0  0
   -0.8899    1.1087   -5.3700 C   0  0  0  0  0  0  0  0  0  0  0  0
    0.2011    1.4025   -4.5878 C   0  0  0  0  0  0  0  0  0  0  0  0
   -0.0671    1.1441   -3.2826 O   0  0  0  0  0  0  0  0  0  0  0  0
    2.9694    0.7321    2.4923 N   0  0  0  0  0  0  0  0  0  0  0  0
    3.5912    1.4746    3.5177 C   0  0  0  0  0  0  0  0  0  0  0  0
    4.5177    2.4955    3.2904 C   0  0  0  0  0  0  0  0  0  0  0  0
    5.0952    3.1848    4.3636 C   0  0  0  0  0  0  0  0  0  0  0  0
    4.7517    2.8576    5.6753 C   0  0  0  0  0  0  0  0  0  0  0  0
    3.8281    1.8424    5.9070 C   0  0  0  0  0  0  0  0  0  0  0  0
    3.4027    1.4272    7.5244 Cl  0  0  0  0  0  0  0  0  0  0  0  0
    3.2467    1.1540    4.8394 C   0  0  0  0  0  0  0  0  0  0  0  0
    2.7421   -0.2417   -0.6765 H   0  0  0  0  0  0  0  0  0  0  0  0
    2.3656   -1.1195    0.8177 H   0  0  0  0  0  0  0  0  0  0  0  0
   -2.4244   -2.1563   -3.5318 H   0  0  0  0  0  0  0  0  0  0  0  0
   -2.3750   -3.7269   -2.7623 H   0  0  0  0  0  0  0  0  0  0  0  0
   -3.8360   -3.3543   -0.0318 H   0  0  0  0  0  0  0  0  0  0  0  0
   -6.4076   -2.7743    0.2340 H   0  0  0  0  0  0  0  0  0  0  0  0
   -7.3547   -1.6428   -1.9495 H   0  0  0  0  0  0  0  0  0  0  0  0
   -2.9323    0.1229   -1.8991 H   0  0  0  0  0  0  0  0  0  0  0  0
   -1.7200    1.1563   -1.1799 H   0  0  0  0  0  0  0  0  0  0  0  0
   -2.8941    0.3235   -4.7462 H   0  0  0  0  0  0  0  0  0  0  0  0
   -0.9523    1.2229   -6.4447 H   0  0  0  0  0  0  0  0  0  0  0  0
    1.1910    1.7849   -4.7948 H   0  0  0  0  0  0  0  0  0  0  0  0
    2.2869    0.0440    2.7908 H   0  0  0  0  0  0  0  0  0  0  0  0
    4.8114    2.7869    2.2867 H   0  0  0  0  0  0  0  0  0  0  0  0
    5.8143    3.9772    4.1689 H   0  0  0  0  0  0  0  0  0  0  0  0
    5.2062    3.3932    6.5040 H   0  0  0  0  0  0  0  0  0  0  0  0
    2.5300    0.3643    5.0502 H   0  0  0  0  0  0  0  0  0  0  0  0
  1  2  2  0
  2  3  1  0
  3  4  1  0
  4  5  1  0
  5  6  2  0
  6  7  1  0
  7  8  2  0
  8  9  1  0
  9 10  1  0
 10 11  2  0
 11 12  1  0
 12 13  2  0
 13 14  1  0
  8 15  1  0
 15 16  1  0
 16 17  1  0
 17 18  2  0
 18 19  1  0
 19 20  2  0
 20 21  1  0
  2 22  1  0
 22 23  1  0
 23 24  2  0
 24 25  1  0
 25 26  2  0
 26 27  1  0
 27 28  1  0
 27 29  2  0
 15  5  1  0
 21 17  1  0
 29 23  1  0
 14 10  1  0
  3 30  1  0
  3 31  1  0
  9 32  1  0
  9 33  1  0
 11 34  1  0
 12 35  1  0
 13 36  1  0
 16 37  1  0
 16 38  1  0
 18 39  1  0
 19 40  1  0
 20 41  1  0
 22 42  1  0
 24 43  1  0
 25 44  1  0
 26 45  1  0
 29 46  1  0
M  END
$$$$
