
     RDKit          3D

 64 69  0  0  0  0  0  0  0  0999 V2000
    4.1228    1.4188   -1.6799 F   0  0  0  0  0  0  0  0  0  0  0  0
    5.2888    2.0493   -1.3622 C   0  0  0  0  0  0  0  0  0  0  0  0
    4.9481    3.0673   -0.5238 F   0  0  0  0  0  0  0  0  0  0  0  0
    5.7050    2.6471   -2.5153 F   0  0  0  0  0  0  0  0  0  0  0  0
    6.3164    1.1168   -0.7570 C   0  0  0  0  0  0  0  0  0  0  0  0
    7.6136    1.0833   -1.3042 C   0  0  0  0  0  0  0  0  0  0  0  0
    8.5980    0.2493   -0.7748 C   0  0  0  0  0  0  0  0  0  0  0  0
    8.3050   -0.5634    0.3135 C   0  0  0  0  0  0  0  0  0  0  0  0
    7.0291   -0.5434    0.8733 C   0  0  0  0  0  0  0  0  0  0  0  0
    6.0238    0.2922    0.3538 C   0  0  0  0  0  0  0  0  0  0  0  0
    4.6525    0.2498    1.0006 C   0  0  0  0  0  0  0  0  0  0  0  0
    3.7982   -0.9130    0.4603 C   0  0  0  0  0  0  0  0  0  0  0  0
    2.4771   -1.0102    1.1065 N   0  0  0  0  0  0  0  0  0  0  0  0
    1.7804   -2.2613    0.7219 C   0  0  0  0  0  0  0  0  0  0  0  0
    0.6812   -2.0978   -0.3473 C   0  0  0  0  0  0  0  0  0  0  0  0
   -0.3607   -1.1596    0.1050 N   0  0  0  0  0  0  0  0  0  0  0  0
   -1.5417   -1.0528   -0.6239 C   0  0  0  0  0  0  0  0  0  0  0  0
   -1.5654   -1.5693   -1.8294 N   0  0  0  0  0  0  0  0  0  0  0  0
   -2.7088   -1.4607   -2.6420 C   0  0  0  0  0  0  0  0  0  0  0  0
   -2.6661   -2.0131   -3.9236 C   0  0  0  0  0  0  0  0  0  0  0  0
   -3.7678   -1.9206   -4.7775 C   0  0  0  0  0  0  0  0  0  0  0  0
   -4.9281   -1.2709   -4.3549 C   0  0  0  0  0  0  0  0  0  0  0  0
   -4.9933   -0.7124   -3.0780 C   0  0  0  0  0  0  0  0  0  0  0  0
   -3.8823   -0.8132   -2.2349 C   0  0  0  0  0  0  0  0  0  0  0  0
   -3.8655   -0.2939   -0.9303 N   0  0  0  0  0  0  0  0  0  0  0  0
   -4.8599    0.3615   -0.2439 C   0  0  0  0  0  0  0  0  0  0  0  0
   -4.4168    0.6156    1.0406 C   0  0  0  0  0  0  0  0  0  0  0  0
   -5.2093    1.2882    2.0619 C   0  0  0  0  0  0  0  0  0  0  0  0
   -6.6045    1.1581    2.1035 C   0  0  0  0  0  0  0  0  0  0  0  0
   -7.3518    1.8109    3.0877 C   0  0  0  0  0  0  0  0  0  0  0  0
   -6.7132    2.5989    4.0423 C   0  0  0  0  0  0  0  0  0  0  0  0
   -5.3270    2.7327    4.0155 C   0  0  0  0  0  0  0  0  0  0  0  0
   -4.5791    2.0802    3.0316 C   0  0  0  0  0  0  0  0  0  0  0  0
   -3.0908    0.1059    1.1124 C   0  0  0  0  0  0  0  0  0  0  0  0
   -2.7535   -0.4147   -0.1255 C   0  0  0  0  0  0  0  0  0  0  0  0
    0.1168   -0.0775    0.9770 C   0  0  0  0  0  0  0  0  0  0  0  0
    1.6327    0.1695    0.8061 C   0  0  0  0  0  0  0  0  0  0  0  0
    7.8658    1.7146   -2.1558 H   0  0  0  0  0  0  0  0  0  0  0  0
    9.5932    0.2357   -1.2114 H   0  0  0  0  0  0  0  0  0  0  0  0
    9.0705   -1.2136    0.7289 H   0  0  0  0  0  0  0  0  0  0  0  0
    6.8187   -1.1876    1.7258 H   0  0  0  0  0  0  0  0  0  0  0  0
    4.7769    0.1425    2.0863 H   0  0  0  0  0  0  0  0  0  0  0  0
    4.1487    1.2111    0.8628 H   0  0  0  0  0  0  0  0  0  0  0  0
    3.6914   -0.8377   -0.6294 H   0  0  0  0  0  0  0  0  0  0  0  0
    4.3508   -1.8422    0.6526 H   0  0  0  0  0  0  0  0  0  0  0  0
    2.4895   -3.0339    0.4003 H   0  0  0  0  0  0  0  0  0  0  0  0
    1.3125   -2.6545    1.6342 H   0  0  0  0  0  0  0  0  0  0  0  0
    1.1245   -1.7443   -1.2866 H   0  0  0  0  0  0  0  0  0  0  0  0
    0.2340   -3.0813   -0.5350 H   0  0  0  0  0  0  0  0  0  0  0  0
   -1.7627   -2.5173   -4.2565 H   0  0  0  0  0  0  0  0  0  0  0  0
   -3.7174   -2.3555   -5.7722 H   0  0  0  0  0  0  0  0  0  0  0  0
   -5.7824   -1.2003   -5.0230 H   0  0  0  0  0  0  0  0  0  0  0  0
   -5.9068   -0.2138   -2.7719 H   0  0  0  0  0  0  0  0  0  0  0  0
   -5.8060    0.5905   -0.7129 H   0  0  0  0  0  0  0  0  0  0  0  0
   -7.1250    0.5370    1.3793 H   0  0  0  0  0  0  0  0  0  0  0  0
   -8.4325    1.7012    3.1087 H   0  0  0  0  0  0  0  0  0  0  0  0
   -7.2949    3.1067    4.8070 H   0  0  0  0  0  0  0  0  0  0  0  0
   -4.8254    3.3476    4.7582 H   0  0  0  0  0  0  0  0  0  0  0  0
   -3.5004    2.2089    3.0253 H   0  0  0  0  0  0  0  0  0  0  0  0
   -2.4556    0.1127    1.9869 H   0  0  0  0  0  0  0  0  0  0  0  0
   -0.0991   -0.3350    2.0199 H   0  0  0  0  0  0  0  0  0  0  0  0
   -0.3963    0.8631    0.7480 H   0  0  0  0  0  0  0  0  0  0  0  0
    1.8020    0.5070   -0.2251 H   0  0  0  0  0  0  0  0  0  0  0  0
    1.9221    0.9913    1.4701 H   0  0  0  0  0  0  0  0  0  0  0  0
  1  2  1  0
  2  3  1  0
  2  4  1  0
  2  5  1  0
  5  6  2  0
  6  7  1  0
  7  8  2  0
  8  9  1  0
  9 10  2  0
 10 11  1  0
 11 12  1  0
 12 13  1  0
 13 14  1  0
 14 15  1  0
 15 16  1  0
 16 17  1  0
 17 18  2  0
 18 19  1  0
 19 20  2  0
 20 21  1  0
 21 22  2  0
 22 23  1  0
 23 24  2  0
 24 25  1  0
 25 26  1  0
 26 27  2  0
 27 28  1  0
 28 29  2  0
 29 30  1  0
 30 31  2  0
 31 32  1  0
 32 33  2  0
 27 34  1  0
 34 35  2  0
 16 36  1  0
 36 37  1  0
 10  5  1  0
 37 13  1  0
 35 17  1  0
 24 19  1  0
 35 25  1  0
 33 28  1  0
  6 38  1  0
  7 39  1  0
  8 40  1  0
  9 41  1  0
 11 42  1  0
 11 43  1  0
 12 44  1  0
 12 45  1  0
 14 46  1  0
 14 47  1  0
 15 48  1  0
 15 49  1  0
 20 50  1  0
 21 51  1  0
 22 52  1  0
 23 53  1  0
 26 54  1  0
 29 55  1  0
 30 56  1  0
 31 57  1  0
 32 58  1  0
 33 59  1  0
 34 60  1  0
 36 61  1  0
 36 62  1  0
 37 63  1  0
 37 64  1  0
M  END
$$$$
