
     RDKit          3D

 49 52  0  0  0  0  0  0  0  0999 V2000
    3.9979    0.0629    3.5188 C   0  0  0  0  0  0  0  0  0  0  0  0
    4.7111   -1.1263    2.9290 C   0  0  0  0  0  0  0  0  0  0  0  0
    5.6131   -1.8301    3.7498 C   0  0  0  0  0  0  0  0  0  0  0  0
    6.3062   -2.9335    3.2591 C   0  0  0  0  0  0  0  0  0  0  0  0
    7.4064   -3.7775    4.2758 Cl  0  0  0  0  0  0  0  0  0  0  0  0
    6.1136   -3.3518    1.9498 C   0  0  0  0  0  0  0  0  0  0  0  0
    5.2148   -2.6665    1.1259 C   0  0  0  0  0  0  0  0  0  0  0  0
    4.5012   -1.5572    1.5987 C   0  0  0  0  0  0  0  0  0  0  0  0
    3.5767   -0.8510    0.7960 N   0  0  0  0  0  0  0  0  0  0  0  0
    3.2108   -1.1073   -0.5194 C   0  0  0  0  0  0  0  0  0  0  0  0
    3.6256   -2.0169   -1.2314 O   0  0  0  0  0  0  0  0  0  0  0  0
    2.1874   -0.1120   -1.0420 C   0  0  0  0  0  0  0  0  0  0  0  0
    0.5261   -0.6611   -0.5537 S   0  0  0  0  0  0  0  0  0  0  0  0
   -0.4050    0.7060   -1.0520 C   0  0  0  0  0  0  0  0  0  0  0  0
    0.0829    1.8672   -1.4179 N   0  0  0  0  0  0  0  0  0  0  0  0
   -0.9716    2.6901   -1.7126 N   0  0  0  0  0  0  0  0  0  0  0  0
   -2.0897    2.0144   -1.5222 C   0  0  0  0  0  0  0  0  0  0  0  0
   -3.4683    2.5565   -1.7115 C   0  0  0  0  0  0  0  0  0  0  0  0
   -4.1185    2.0804   -2.9821 C   0  0  0  0  0  0  0  0  0  0  0  0
   -3.5973    2.0646   -4.2632 C   0  0  0  0  0  0  0  0  0  0  0  0
   -4.5179    1.5458   -5.2178 C   0  0  0  0  0  0  0  0  0  0  0  0
   -5.7160    1.1904   -4.6385 C   0  0  0  0  0  0  0  0  0  0  0  0
   -5.7293    1.4913   -2.9559 S   0  0  0  0  0  0  0  0  0  0  0  0
   -1.7720    0.7359   -1.1089 N   0  0  0  0  0  0  0  0  0  0  0  0
   -2.6947   -0.3550   -0.8581 C   0  0  0  0  0  0  0  0  0  0  0  0
   -3.3346   -0.2313    0.4749 C   0  0  0  0  0  0  0  0  0  0  0  0
   -4.6461   -0.1033    0.8879 C   0  0  0  0  0  0  0  0  0  0  0  0
   -4.6147   -0.0406    2.3023 C   0  0  0  0  0  0  0  0  0  0  0  0
   -3.2916   -0.1450    2.6626 C   0  0  0  0  0  0  0  0  0  0  0  0
   -2.5084   -0.2658    1.5607 O   0  0  0  0  0  0  0  0  0  0  0  0
    2.9252   -0.1404    3.6020 H   0  0  0  0  0  0  0  0  0  0  0  0
    4.1599    0.9530    2.8992 H   0  0  0  0  0  0  0  0  0  0  0  0
    4.3720    0.3013    4.5210 H   0  0  0  0  0  0  0  0  0  0  0  0
    5.7808   -1.5117    4.7768 H   0  0  0  0  0  0  0  0  0  0  0  0
    6.6523   -4.2091    1.5567 H   0  0  0  0  0  0  0  0  0  0  0  0
    5.0948   -3.0345    0.1113 H   0  0  0  0  0  0  0  0  0  0  0  0
    3.0816   -0.0903    1.2460 H   0  0  0  0  0  0  0  0  0  0  0  0
    2.4082    0.8812   -0.6370 H   0  0  0  0  0  0  0  0  0  0  0  0
    2.2668   -0.0603   -2.1330 H   0  0  0  0  0  0  0  0  0  0  0  0
   -3.4128    3.6520   -1.7483 H   0  0  0  0  0  0  0  0  0  0  0  0
   -4.0808    2.3169   -0.8345 H   0  0  0  0  0  0  0  0  0  0  0  0
   -2.5967    2.4080   -4.5044 H   0  0  0  0  0  0  0  0  0  0  0  0
   -4.3128    1.4421   -6.2777 H   0  0  0  0  0  0  0  0  0  0  0  0
   -6.5885    0.7764   -5.1257 H   0  0  0  0  0  0  0  0  0  0  0  0
   -3.4415   -0.3519   -1.6565 H   0  0  0  0  0  0  0  0  0  0  0  0
   -2.1656   -1.3088   -0.9384 H   0  0  0  0  0  0  0  0  0  0  0  0
   -5.5184   -0.0599    0.2492 H   0  0  0  0  0  0  0  0  0  0  0  0
   -5.4522    0.0625    2.9788 H   0  0  0  0  0  0  0  0  0  0  0  0
   -2.7702   -0.1523    3.6107 H   0  0  0  0  0  0  0  0  0  0  0  0
  1  2  1  0
  2  3  2  0
  3  4  1  0
  4  5  1  0
  4  6  2  0
  6  7  1  0
  7  8  2  0
  8  9  1  0
  9 10  1  0
 10 11  2  0
 10 12  1  0
 12 13  1  0
 13 14  1  0
 14 15  2  0
 15 16  1  0
 16 17  2  0
 17 18  1  0
 18 19  1  0
 19 20  2  0
 20 21  1  0
 21 22  2  0
 22 23  1  0
 17 24  1  0
 24 25  1  0
 25 26  1  0
 26 27  2  0
 27 28  1  0
 28 29  2  0
 29 30  1  0
  8  2  1  0
 24 14  1  0
 30 26  1  0
 23 19  1  0
  1 31  1  0
  1 32  1  0
  1 33  1  0
  3 34  1  0
  6 35  1  0
  7 36  1  0
  9 37  1  0
 12 38  1  0
 12 39  1  0
 18 40  1  0
 18 41  1  0
 20 42  1  0
 21 43  1  0
 22 44  1  0
 25 45  1  0
 25 46  1  0
 27 47  1  0
 28 48  1  0
 29 49  1  0
M  END
$$$$
