
     RDKit          3D

 49 51  0  0  0  0  0  0  0  0999 V2000
    1.0247    6.6376    0.6459 C   0  0  0  0  0  0  0  0  0  0  0  0
    0.9699    5.5019   -0.2053 O   0  0  0  0  0  0  0  0  0  0  0  0
    1.2347    4.2743    0.3500 C   0  0  0  0  0  0  0  0  0  0  0  0
    1.4707    4.0597    1.7141 C   0  0  0  0  0  0  0  0  0  0  0  0
    1.7211    2.7727    2.1933 C   0  0  0  0  0  0  0  0  0  0  0  0
    1.7283    1.6989    1.3035 C   0  0  0  0  0  0  0  0  0  0  0  0
    2.0472    0.0605    1.9057 S   0  0  0  0  0  6  0  0  0  0  0  0
    2.5190   -0.7571    0.8087 O   0  0  0  0  0  0  0  0  0  0  0  0
    2.8156    0.1829    3.1266 O   0  0  0  0  0  0  0  0  0  0  0  0
    0.5078   -0.4566    2.3741 N   0  0  0  0  0  0  0  0  0  0  0  0
   -0.3932   -0.8744    1.3579 C   0  0  0  0  0  0  0  0  0  0  0  0
   -1.3672    0.0114    0.9176 C   0  0  0  0  0  0  0  0  0  0  0  0
   -2.2610   -0.3929   -0.0684 C   0  0  0  0  0  0  0  0  0  0  0  0
   -2.1635   -1.6734   -0.6422 C   0  0  0  0  0  0  0  0  0  0  0  0
   -1.1440   -2.5605   -0.2299 C   0  0  0  0  0  0  0  0  0  0  0  0
   -0.2911   -2.1526    0.8041 C   0  0  0  0  0  0  0  0  0  0  0  0
   -1.0536   -3.8582   -0.8303 N   0  0  0  0  0  0  0  0  0  0  0  0
    0.0423   -4.7198   -0.8187 C   0  0  0  0  0  0  0  0  0  0  0  0
    1.4319   -4.1395   -0.7015 C   0  0  0  0  0  0  0  0  0  0  0  0
   -0.0773   -5.9378   -0.9871 O   0  0  0  0  0  0  0  0  0  0  0  0
   -2.2763   -4.3582   -1.4633 C   0  0  0  0  0  0  0  0  0  0  0  0
   -2.8354   -3.3243   -2.4244 C   0  0  0  0  0  0  0  0  0  0  0  0
   -3.2091   -2.0683   -1.6569 C   0  0  0  0  0  0  0  0  0  0  0  0
    1.5145    1.8967   -0.0644 C   0  0  0  0  0  0  0  0  0  0  0  0
    1.2570    3.1828   -0.5462 C   0  0  0  0  0  0  0  0  0  0  0  0
    1.0117    3.4793   -1.8642 O   0  0  0  0  0  0  0  0  0  0  0  0
    1.0665    2.4136   -2.8027 C   0  0  0  0  0  0  0  0  0  0  0  0
    2.0186    6.7522    1.0909 H   0  0  0  0  0  0  0  0  0  0  0  0
    0.2481    6.5900    1.4162 H   0  0  0  0  0  0  0  0  0  0  0  0
    0.8308    7.5238    0.0339 H   0  0  0  0  0  0  0  0  0  0  0  0
    1.4650    4.8749    2.4303 H   0  0  0  0  0  0  0  0  0  0  0  0
    1.9053    2.6181    3.2544 H   0  0  0  0  0  0  0  0  0  0  0  0
    0.5433   -1.0022    3.2348 H   0  0  0  0  0  0  0  0  0  0  0  0
   -1.4530    1.0045    1.3506 H   0  0  0  0  0  0  0  0  0  0  0  0
   -3.0434    0.2932   -0.3880 H   0  0  0  0  0  0  0  0  0  0  0  0
    0.4486   -2.8247    1.2213 H   0  0  0  0  0  0  0  0  0  0  0  0
    1.8066   -4.2621    0.3170 H   0  0  0  0  0  0  0  0  0  0  0  0
    1.4717   -3.0939   -1.0140 H   0  0  0  0  0  0  0  0  0  0  0  0
    2.0925   -4.6919   -1.3786 H   0  0  0  0  0  0  0  0  0  0  0  0
   -2.9942   -4.6055   -0.6713 H   0  0  0  0  0  0  0  0  0  0  0  0
   -2.0766   -5.2800   -2.0206 H   0  0  0  0  0  0  0  0  0  0  0  0
   -3.7129   -3.7176   -2.9491 H   0  0  0  0  0  0  0  0  0  0  0  0
   -2.0813   -3.0834   -3.1847 H   0  0  0  0  0  0  0  0  0  0  0  0
   -4.1525   -2.2373   -1.1224 H   0  0  0  0  0  0  0  0  0  0  0  0
   -3.3724   -1.2501   -2.3685 H   0  0  0  0  0  0  0  0  0  0  0  0
    1.5413    1.0375   -0.7272 H   0  0  0  0  0  0  0  0  0  0  0  0
    0.2936    1.6660   -2.5957 H   0  0  0  0  0  0  0  0  0  0  0  0
    2.0623    1.9590   -2.8276 H   0  0  0  0  0  0  0  0  0  0  0  0
    0.8672    2.8310   -3.7944 H   0  0  0  0  0  0  0  0  0  0  0  0
  1  2  1  0
  2  3  1  0
  3  4  2  0
  4  5  1  0
  5  6  2  0
  6  7  1  0
  7  8  2  0
  7  9  2  0
  7 10  1  0
 10 11  1  0
 11 12  2  0
 12 13  1  0
 13 14  2  0
 14 15  1  0
 15 16  2  0
 15 17  1  0
 17 18  1  0
 18 19  1  0
 18 20  2  0
 17 21  1  0
 21 22  1  0
 22 23  1  0
  6 24  1  0
 24 25  2  0
 25 26  1  0
 26 27  1  0
 25  3  1  0
 16 11  1  0
 23 14  1  0
  1 28  1  0
  1 29  1  0
  1 30  1  0
  4 31  1  0
  5 32  1  0
 10 33  1  0
 12 34  1  0
 13 35  1  0
 16 36  1  0
 19 37  1  0
 19 38  1  0
 19 39  1  0
 21 40  1  0
 21 41  1  0
 22 42  1  0
 22 43  1  0
 23 44  1  0
 23 45  1  0
 24 46  1  0
 27 47  1  0
 27 48  1  0
 27 49  1  0
M  END
$$$$
