
     RDKit          3D

 46 49  0  0  0  0  0  0  0  0999 V2000
    1.1843   -1.5511    0.1091 O   0  0  0  0  0  0  0  0  0  0  0  0
    1.6090   -0.4582   -0.2441 C   0  0  0  0  0  0  0  0  0  0  0  0
    0.9267    0.8703    0.0553 C   0  0  0  0  0  0  0  0  0  0  0  0
   -0.4432    0.6859    0.5723 N   0  0  0  0  0  4  0  0  0  0  0  0
   -1.6317    1.0540   -0.0569 C   0  0  0  0  0  0  0  0  0  0  0  0
   -2.7040    0.6666    0.7394 C   0  0  0  0  0  0  0  0  0  0  0  0
   -4.2304    0.8551    0.4082 C   0  0  0  0  0  0  0  0  0  0  0  0
   -4.6174    1.5300   -0.7556 C   0  0  0  0  0  0  0  0  0  0  0  0
   -5.9747    1.7000   -1.0526 C   0  0  0  0  0  0  0  0  0  0  0  0
   -6.9552    1.1965   -0.1949 C   0  0  0  0  0  0  0  0  0  0  0  0
   -8.6073    1.4440   -0.6233 Cl  0  0  0  0  0  0  0  0  0  0  0  0
   -6.5707    0.5174    0.9637 C   0  0  0  0  0  0  0  0  0  0  0  0
   -7.7162   -0.1430    2.0754 Cl  0  0  0  0  0  0  0  0  0  0  0  0
   -5.2112    0.3469    1.2621 C   0  0  0  0  0  0  0  0  0  0  0  0
   -2.0916    0.0977    1.8415 N   0  0  0  0  0  0  0  0  0  0  0  0
   -0.7669    0.0807    1.7121 C   0  0  0  0  0  0  0  0  0  0  0  0
   -0.0756   -0.5471    2.8634 C   0  0  0  0  0  0  0  0  0  0  0  0
   -1.2002   -0.6095    3.9151 C   0  0  0  0  0  0  0  0  0  0  0  0
   -2.5168   -0.5084    3.0978 C   0  0  0  0  0  0  0  0  0  0  0  0
    2.7626   -0.2436   -0.9247 O   0  0  0  0  0  0  0  0  0  0  0  0
    3.4901   -1.4347   -1.2512 C   0  0  0  0  0  0  0  0  0  0  0  0
    4.7154   -1.0153   -2.0160 C   0  0  0  0  0  0  0  0  0  0  0  0
    5.8967   -0.6797   -1.3389 C   0  0  0  0  0  0  0  0  0  0  0  0
    7.0264   -0.2691   -2.0484 C   0  0  0  0  0  0  0  0  0  0  0  0
    6.9846   -0.1827   -3.4384 C   0  0  0  0  0  0  0  0  0  0  0  0
    5.8134   -0.5043   -4.1212 C   0  0  0  0  0  0  0  0  0  0  0  0
    4.6821   -0.9152   -3.4143 C   0  0  0  0  0  0  0  0  0  0  0  0
    1.5035    1.4093    0.8130 H   0  0  0  0  0  0  0  0  0  0  0  0
    0.8734    1.4631   -0.8634 H   0  0  0  0  0  0  0  0  0  0  0  0
   -1.5641    1.5411   -1.0150 H   0  0  0  0  0  0  0  0  0  0  0  0
   -3.8936    1.9427   -1.4534 H   0  0  0  0  0  0  0  0  0  0  0  0
   -6.2647    2.2294   -1.9593 H   0  0  0  0  0  0  0  0  0  0  0  0
   -4.9528   -0.1987    2.1606 H   0  0  0  0  0  0  0  0  0  0  0  0
    0.2420   -1.5409    2.5442 H   0  0  0  0  0  0  0  0  0  0  0  0
    0.7660    0.0796    3.1602 H   0  0  0  0  0  0  0  0  0  0  0  0
   -1.1544   -1.5068    4.5379 H   0  0  0  0  0  0  0  0  0  0  0  0
   -1.1231    0.2636    4.5739 H   0  0  0  0  0  0  0  0  0  0  0  0
   -3.2476    0.1213    3.6100 H   0  0  0  0  0  0  0  0  0  0  0  0
   -2.9299   -1.4994    2.8883 H   0  0  0  0  0  0  0  0  0  0  0  0
    3.7780   -1.9640   -0.3346 H   0  0  0  0  0  0  0  0  0  0  0  0
    2.8699   -2.1017   -1.8622 H   0  0  0  0  0  0  0  0  0  0  0  0
    5.9494   -0.7397   -0.2542 H   0  0  0  0  0  0  0  0  0  0  0  0
    7.9421   -0.0182   -1.5183 H   0  0  0  0  0  0  0  0  0  0  0  0
    7.8665    0.1339   -3.9904 H   0  0  0  0  0  0  0  0  0  0  0  0
    5.7839   -0.4367   -5.2061 H   0  0  0  0  0  0  0  0  0  0  0  0
    3.7774   -1.1609   -3.9659 H   0  0  0  0  0  0  0  0  0  0  0  0
  1  2  2  0
  2  3  1  0
  3  4  1  0
  4  5  1  0
  5  6  2  0
  6  7  1  0
  7  8  2  0
  8  9  1  0
  9 10  2  0
 10 11  1  0
 10 12  1  0
 12 13  1  0
 12 14  2  0
  6 15  1  0
 15 16  1  0
 16 17  1  0
 17 18  1  0
 18 19  1  0
  2 20  1  0
 20 21  1  0
 21 22  1  0
 22 23  2  0
 23 24  1  0
 24 25  2  0
 25 26  1  0
 26 27  2  0
 16  4  2  0
 27 22  1  0
 14  7  1  0
 19 15  1  0
  3 28  1  0
  3 29  1  0
  5 30  1  0
  8 31  1  0
  9 32  1  0
 14 33  1  0
 17 34  1  0
 17 35  1  0
 18 36  1  0
 18 37  1  0
 19 38  1  0
 19 39  1  0
 21 40  1  0
 21 41  1  0
 23 42  1  0
 24 43  1  0
 25 44  1  0
 26 45  1  0
 27 46  1  0
M  CHG  1   4   1
M  END
$$$$
