
     RDKit          3D

 42 43  0  0  0  0  0  0  0  0999 V2000
   -5.8545    0.2162    0.7823 C   0  0  0  0  0  0  0  0  0  0  0  0
   -4.5524    0.0192    0.0751 C   0  0  0  0  0  0  0  0  0  0  0  0
   -3.5926    0.9327   -0.1818 C   0  0  0  0  0  0  0  0  0  0  0  0
   -3.7125    2.3929    0.1692 C   0  0  0  0  0  0  0  0  0  0  0  0
   -2.2819    0.5884   -0.8826 C   0  0  0  0  0  0  0  0  0  0  0  0
   -1.8948   -0.8300   -0.8513 N   0  0  0  0  0  0  0  0  0  0  0  0
   -0.8174   -1.1142   -1.8265 C   0  0  0  0  0  0  0  0  0  0  0  0
    0.5756   -0.5400   -1.4750 C   0  0  0  0  0  0  0  0  0  0  0  0
    0.9882   -0.9411   -0.1110 N   0  0  0  0  0  0  0  0  0  0  0  0
    2.3203   -0.6149    0.1919 C   0  0  0  0  0  0  0  0  0  0  0  0
    2.6928    0.2260    1.2506 C   0  0  0  0  0  0  0  0  0  0  0  0
    4.0367    0.5334    1.5076 C   0  0  0  0  0  0  0  0  0  0  0  0
    5.0547   -0.0148    0.7251 C   0  0  0  0  0  0  0  0  0  0  0  0
    6.4909    0.3431    0.9721 C   0  0  0  0  0  0  0  0  0  0  0  0
    4.7043   -0.8640   -0.3265 C   0  0  0  0  0  0  0  0  0  0  0  0
    3.3596   -1.1623   -0.5788 C   0  0  0  0  0  0  0  0  0  0  0  0
   -0.0404   -0.6790    0.9148 C   0  0  0  0  0  0  0  0  0  0  0  0
   -1.4125   -1.2530    0.4866 C   0  0  0  0  0  0  0  0  0  0  0  0
   -5.9092    1.1530    1.3415 H   0  0  0  0  0  0  0  0  0  0  0  0
   -6.6799    0.1860    0.0648 H   0  0  0  0  0  0  0  0  0  0  0  0
   -6.0012   -0.5936    1.5038 H   0  0  0  0  0  0  0  0  0  0  0  0
   -4.3898   -1.0074   -0.2629 H   0  0  0  0  0  0  0  0  0  0  0  0
   -3.4554    3.0104   -0.6988 H   0  0  0  0  0  0  0  0  0  0  0  0
   -4.7195    2.6881    0.4731 H   0  0  0  0  0  0  0  0  0  0  0  0
   -3.0261    2.6352    0.9881 H   0  0  0  0  0  0  0  0  0  0  0  0
   -1.4818    1.2186   -0.4756 H   0  0  0  0  0  0  0  0  0  0  0  0
   -2.4139    0.9021   -1.9278 H   0  0  0  0  0  0  0  0  0  0  0  0
   -1.1138   -0.7667   -2.8221 H   0  0  0  0  0  0  0  0  0  0  0  0
   -0.7278   -2.2048   -1.9137 H   0  0  0  0  0  0  0  0  0  0  0  0
    0.5574    0.5539   -1.5505 H   0  0  0  0  0  0  0  0  0  0  0  0
    1.2779   -0.9085   -2.2305 H   0  0  0  0  0  0  0  0  0  0  0  0
    1.9473    0.6850    1.8919 H   0  0  0  0  0  0  0  0  0  0  0  0
    4.2769    1.2076    2.3273 H   0  0  0  0  0  0  0  0  0  0  0  0
    6.7850    1.1737    0.3235 H   0  0  0  0  0  0  0  0  0  0  0  0
    7.1447   -0.5112    0.7735 H   0  0  0  0  0  0  0  0  0  0  0  0
    6.6510    0.6367    2.0133 H   0  0  0  0  0  0  0  0  0  0  0  0
    5.4717   -1.3092   -0.9558 H   0  0  0  0  0  0  0  0  0  0  0  0
    3.1287   -1.8593   -1.3814 H   0  0  0  0  0  0  0  0  0  0  0  0
   -0.1395    0.3971    1.0988 H   0  0  0  0  0  0  0  0  0  0  0  0
    0.2459   -1.1590    1.8580 H   0  0  0  0  0  0  0  0  0  0  0  0
   -2.1539   -1.0188    1.2577 H   0  0  0  0  0  0  0  0  0  0  0  0
   -1.3391   -2.3473    0.4802 H   0  0  0  0  0  0  0  0  0  0  0  0
  1  2  1  0
  2  3  2  3
  3  4  1  0
  3  5  1  0
  5  6  1  0
  6  7  1  0
  7  8  1  0
  8  9  1  0
  9 10  1  0
 10 11  2  0
 11 12  1  0
 12 13  2  0
 13 14  1  0
 13 15  1  0
 15 16  2  0
  9 17  1  0
 17 18  1  0
 18  6  1  0
 16 10  1  0
  1 19  1  0
  1 20  1  0
  1 21  1  0
  2 22  1  0
  4 23  1  0
  4 24  1  0
  4 25  1  0
  5 26  1  0
  5 27  1  0
  7 28  1  0
  7 29  1  0
  8 30  1  0
  8 31  1  0
 11 32  1  0
 12 33  1  0
 14 34  1  0
 14 35  1  0
 14 36  1  0
 15 37  1  0
 16 38  1  0
 17 39  1  0
 17 40  1  0
 18 41  1  0
 18 42  1  0
M  END
$$$$
