
     RDKit          3D

 29 29  0  0  0  0  0  0  0  0999 V2000
   -2.2130   -3.0632   -1.5308 C   0  0  0  0  0  0  0  0  0  0  0  0
   -2.6297   -2.5888   -0.5087 C   0  0  0  0  0  0  0  0  0  0  0  0
   -3.1488   -2.0264    0.7455 C   0  0  0  0  0  0  0  0  0  0  0  0
   -2.2244   -1.0720    1.3434 N   0  0  0  0  0  0  0  0  0  0  0  0
   -2.3971    0.3130    0.9118 C   0  0  0  0  0  0  0  0  0  0  0  0
   -2.0159    0.6443   -0.5361 C   0  0  0  0  0  0  0  0  0  0  0  0
   -0.5459    0.3983   -0.8702 C   0  0  0  0  0  0  0  0  0  0  0  0
    0.2603    1.2276   -0.0353 O   0  0  0  0  0  0  0  0  0  0  0  0
    1.6214    1.1179   -0.1372 C   0  0  0  0  0  0  0  0  0  0  0  0
    2.2847    0.3129   -1.0694 C   0  0  0  0  0  0  0  0  0  0  0  0
    3.6830    0.2693   -1.0974 C   0  0  0  0  0  0  0  0  0  0  0  0
    4.4234    1.0308   -0.1961 C   0  0  0  0  0  0  0  0  0  0  0  0
    6.1419    0.9704   -0.2390 Cl  0  0  0  0  0  0  0  0  0  0  0  0
    3.7822    1.8392    0.7358 C   0  0  0  0  0  0  0  0  0  0  0  0
    2.3862    1.8818    0.7626 C   0  0  0  0  0  0  0  0  0  0  0  0
    1.6329    2.9022    1.9399 Cl  0  0  0  0  0  0  0  0  0  0  0  0
   -1.8494   -3.4918   -2.4362 H   0  0  0  0  0  0  0  0  0  0  0  0
   -3.2859   -2.8472    1.4590 H   0  0  0  0  0  0  0  0  0  0  0  0
   -4.1411   -1.5858    0.5965 H   0  0  0  0  0  0  0  0  0  0  0  0
   -1.2625   -1.3831    1.2296 H   0  0  0  0  0  0  0  0  0  0  0  0
   -1.8016    0.9412    1.5852 H   0  0  0  0  0  0  0  0  0  0  0  0
   -3.4375    0.6169    1.0827 H   0  0  0  0  0  0  0  0  0  0  0  0
   -2.2307    1.7095   -0.6924 H   0  0  0  0  0  0  0  0  0  0  0  0
   -2.6526    0.0940   -1.2365 H   0  0  0  0  0  0  0  0  0  0  0  0
   -0.2933   -0.6565   -0.7192 H   0  0  0  0  0  0  0  0  0  0  0  0
   -0.3805    0.6647   -1.9210 H   0  0  0  0  0  0  0  0  0  0  0  0
    1.7457   -0.2916   -1.7920 H   0  0  0  0  0  0  0  0  0  0  0  0
    4.1867   -0.3606   -1.8269 H   0  0  0  0  0  0  0  0  0  0  0  0
    4.3617    2.4329    1.4372 H   0  0  0  0  0  0  0  0  0  0  0  0
  1  2  3  0
  2  3  1  0
  3  4  1  0
  4  5  1  0
  5  6  1  0
  6  7  1  0
  7  8  1  0
  8  9  1  0
  9 10  2  0
 10 11  1  0
 11 12  2  0
 12 13  1  0
 12 14  1  0
 14 15  2  0
 15 16  1  0
 15  9  1  0
  1 17  1  0
  3 18  1  0
  3 19  1  0
  4 20  1  0
  5 21  1  0
  5 22  1  0
  6 23  1  0
  6 24  1  0
  7 25  1  0
  7 26  1  0
 10 27  1  0
 11 28  1  0
 14 29  1  0
M  END
$$$$
