
     RDKit          3D

 56 60  0  0  0  0  0  0  0  0999 V2000
   -5.7501   -0.6784    1.9177 C   0  0  0  0  0  0  0  0  0  0  0  0
   -4.2947   -0.6025    1.5494 C   0  0  0  0  0  0  0  0  0  0  0  0
   -3.3731   -1.3359    2.3140 C   0  0  0  0  0  0  0  0  0  0  0  0
   -2.0048   -1.2937    2.0306 C   0  0  0  0  0  0  0  0  0  0  0  0
   -1.5154   -0.5189    0.9722 C   0  0  0  0  0  0  0  0  0  0  0  0
   -0.0810   -0.4712    0.6727 C   0  0  0  0  0  0  0  0  0  0  0  0
    0.5709    0.5457    1.2734 N   0  0  0  0  0  0  0  0  0  0  0  0
    1.9112    0.7162    1.0684 N   0  0  0  0  0  0  0  0  0  0  0  0
    2.6081   -0.1187    0.2689 C   0  0  0  0  0  0  0  0  0  0  0  0
    3.9936    0.1057    0.0373 N   0  0  0  0  0  0  0  0  0  0  0  0
    4.8620    0.9647    0.7513 C   0  0  0  0  0  0  0  0  0  0  0  0
    6.0069    1.4745    0.0909 C   0  0  0  0  0  0  0  0  0  0  0  0
    6.9367    2.2830    0.7545 C   0  0  0  0  0  0  0  0  0  0  0  0
    6.7174    2.5451    2.0868 C   0  0  0  0  0  0  0  0  0  0  0  0
    5.6328    2.0290    2.7519 C   0  0  0  0  0  0  0  0  0  0  0  0
    4.7003    1.2310    2.1191 C   0  0  0  0  0  0  0  0  0  0  0  0
    5.6135    2.3862    4.0650 O   0  0  0  0  0  0  0  0  0  0  0  0
    6.7897    3.2166    4.1383 C   0  0  0  0  0  0  0  0  0  0  0  0
    7.5133    3.2976    2.8922 O   0  0  0  0  0  0  0  0  0  0  0  0
    1.9678   -1.2084   -0.3684 C   0  0  0  0  0  0  0  0  0  0  0  0
    2.6490   -2.1404   -1.1926 C   0  0  0  0  0  0  0  0  0  0  0  0
    1.9829   -3.1947   -1.8182 C   0  0  0  0  0  0  0  0  0  0  0  0
    0.6180   -3.3520   -1.6345 C   0  0  0  0  0  0  0  0  0  0  0  0
   -0.0764   -2.4607   -0.8173 C   0  0  0  0  0  0  0  0  0  0  0  0
    0.5788   -1.3843   -0.1680 C   0  0  0  0  0  0  0  0  0  0  0  0
   -2.4297    0.2142    0.2031 C   0  0  0  0  0  0  0  0  0  0  0  0
   -3.8079    0.1606    0.4729 C   0  0  0  0  0  0  0  0  0  0  0  0
   -4.9020    1.0687   -0.6028 S   0  0  0  0  0  6  0  0  0  0  0  0
   -6.1328    0.3321   -0.7770 O   0  0  0  0  0  0  0  0  0  0  0  0
   -4.8866    2.4452   -0.1649 O   0  0  0  0  0  0  0  0  0  0  0  0
   -4.1205    1.0463   -2.0847 N   0  0  0  0  0  0  0  0  0  0  0  0
   -4.1632   -0.1499   -2.9272 C   0  0  0  0  0  0  0  0  0  0  0  0
   -5.3805   -0.1503   -3.8504 C   0  0  0  0  0  0  0  0  0  0  0  0
   -5.2541   -1.1983   -4.8061 O   0  0  0  0  0  0  0  0  0  0  0  0
   -6.2080    0.3154    1.9161 H   0  0  0  0  0  0  0  0  0  0  0  0
   -5.8803   -1.0772    2.9301 H   0  0  0  0  0  0  0  0  0  0  0  0
   -6.2832   -1.3401    1.2287 H   0  0  0  0  0  0  0  0  0  0  0  0
   -3.7139   -1.9426    3.1518 H   0  0  0  0  0  0  0  0  0  0  0  0
   -1.3161   -1.8629    2.6532 H   0  0  0  0  0  0  0  0  0  0  0  0
    4.1438    0.1714   -0.9639 H   0  0  0  0  0  0  0  0  0  0  0  0
    6.1783    1.2472   -0.9590 H   0  0  0  0  0  0  0  0  0  0  0  0
    7.8034    2.6832    0.2416 H   0  0  0  0  0  0  0  0  0  0  0  0
    3.8708    0.8267    2.6876 H   0  0  0  0  0  0  0  0  0  0  0  0
    7.4582    2.8099    4.9055 H   0  0  0  0  0  0  0  0  0  0  0  0
    6.4869    4.2276    4.4345 H   0  0  0  0  0  0  0  0  0  0  0  0
    3.7248   -2.0617   -1.3418 H   0  0  0  0  0  0  0  0  0  0  0  0
    2.5350   -3.8946   -2.4411 H   0  0  0  0  0  0  0  0  0  0  0  0
    0.0923   -4.1721   -2.1168 H   0  0  0  0  0  0  0  0  0  0  0  0
   -1.1458   -2.6189   -0.6860 H   0  0  0  0  0  0  0  0  0  0  0  0
   -2.0550    0.8368   -0.6076 H   0  0  0  0  0  0  0  0  0  0  0  0
   -3.9660    1.9629   -2.5019 H   0  0  0  0  0  0  0  0  0  0  0  0
   -3.2468   -0.1744   -3.5288 H   0  0  0  0  0  0  0  0  0  0  0  0
   -4.1407   -1.0634   -2.3236 H   0  0  0  0  0  0  0  0  0  0  0  0
   -5.4596    0.7984   -4.3897 H   0  0  0  0  0  0  0  0  0  0  0  0
   -6.3044   -0.3059   -3.2867 H   0  0  0  0  0  0  0  0  0  0  0  0
   -6.0545   -1.1698   -5.3602 H   0  0  0  0  0  0  0  0  0  0  0  0
  1  2  1  0
  2  3  2  0
  3  4  1  0
  4  5  2  0
  5  6  1  0
  6  7  2  0
  7  8  1  0
  8  9  2  0
  9 10  1  0
 10 11  1  0
 11 12  2  0
 12 13  1  0
 13 14  2  0
 14 15  1  0
 15 16  2  0
 15 17  1  0
 17 18  1  0
 18 19  1  0
  9 20  1  0
 20 21  2  0
 21 22  1  0
 22 23  2  0
 23 24  1  0
 24 25  2  0
  5 26  1  0
 26 27  2  0
 27 28  1  0
 28 29  2  0
 28 30  2  0
 28 31  1  0
 31 32  1  0
 32 33  1  0
 33 34  1  0
 27  2  1  0
 25  6  1  0
 16 11  1  0
 25 20  1  0
 19 14  1  0
  1 35  1  0
  1 36  1  0
  1 37  1  0
  3 38  1  0
  4 39  1  0
 10 40  1  0
 12 41  1  0
 13 42  1  0
 16 43  1  0
 18 44  1  0
 18 45  1  0
 21 46  1  0
 22 47  1  0
 23 48  1  0
 24 49  1  0
 26 50  1  0
 31 51  1  0
 32 52  1  0
 32 53  1  0
 33 54  1  0
 33 55  1  0
 34 56  1  0
M  END
$$$$
