
     RDKit          3D

 62 66  0  0  0  0  0  0  0  0999 V2000
   -3.8200    6.1143   -1.9777 C   0  0  0  0  0  0  0  0  0  0  0  0
   -3.0206    4.9570   -1.7688 O   0  0  0  0  0  0  0  0  0  0  0  0
   -3.5708    3.9495   -1.0242 C   0  0  0  0  0  0  0  0  0  0  0  0
   -4.8214    3.9685   -0.4220 C   0  0  0  0  0  0  0  0  0  0  0  0
   -5.2738    2.8695    0.3173 C   0  0  0  0  0  0  0  0  0  0  0  0
   -4.4449    1.7387    0.4487 C   0  0  0  0  0  0  0  0  0  0  0  0
   -4.8016    0.2934    1.3057 S   0  0  0  0  0  0  0  0  0  0  0  0
   -3.2986   -0.4161    0.9069 C   0  0  0  0  0  0  0  0  0  0  0  0
   -3.0018   -1.7580    1.4261 C   0  0  0  0  0  0  0  0  0  0  0  0
   -2.2415   -1.8699    2.6019 C   0  0  0  0  0  0  0  0  0  0  0  0
   -1.9259   -3.1222    3.1251 C   0  0  0  0  0  0  0  0  0  0  0  0
   -2.3650   -4.2724    2.4764 C   0  0  0  0  0  0  0  0  0  0  0  0
   -3.1184   -4.1758    1.3026 C   0  0  0  0  0  0  0  0  0  0  0  0
   -3.4425   -2.9240    0.7661 C   0  0  0  0  0  0  0  0  0  0  0  0
   -4.1610   -2.7380   -0.3886 O   0  0  0  0  0  0  0  0  0  0  0  0
   -4.6606   -3.8938   -1.0461 C   0  0  0  0  0  0  0  0  0  0  0  0
   -2.5206    0.4303    0.1339 C   0  0  0  0  0  0  0  0  0  0  0  0
   -1.1857    0.0481   -0.3124 C   0  0  0  0  0  0  0  0  0  0  0  0
   -0.0603    0.6784    0.2279 C   0  0  0  0  0  0  0  0  0  0  0  0
    1.2246    0.3207   -0.1973 C   0  0  0  0  0  0  0  0  0  0  0  0
    1.3932   -0.6657   -1.1695 C   0  0  0  0  0  0  0  0  0  0  0  0
    2.5831   -1.1166   -1.6689 O   0  0  0  0  0  0  0  0  0  0  0  0
    3.7813   -0.4162   -1.3191 C   0  0  0  0  0  0  0  0  0  0  0  0
    4.4019   -1.0019   -0.0373 C   0  0  0  0  0  0  0  0  0  0  0  0
    5.6197   -0.3798    0.4856 N   0  0  0  0  0  0  0  0  0  0  0  0
    6.7545   -0.3635   -0.4302 C   0  0  0  0  0  0  0  0  0  0  0  0
    7.7491    0.5338    0.2929 C   0  0  0  0  0  0  0  0  0  0  0  0
    6.9002    1.4335    1.1871 C   0  0  0  0  0  0  0  0  0  0  0  0
    5.4621    0.9945    0.9481 C   0  0  0  0  0  0  0  0  0  0  0  0
    0.2660   -1.2952   -1.7050 C   0  0  0  0  0  0  0  0  0  0  0  0
   -1.0180   -0.9398   -1.2855 C   0  0  0  0  0  0  0  0  0  0  0  0
   -3.1806    1.6877   -0.1398 C   0  0  0  0  0  0  0  0  0  0  0  0
   -2.7565    2.8192   -0.8854 C   0  0  0  0  0  0  0  0  0  0  0  0
   -3.2474    6.8080   -2.6008 H   0  0  0  0  0  0  0  0  0  0  0  0
   -4.0375    6.6195   -1.0309 H   0  0  0  0  0  0  0  0  0  0  0  0
   -4.7413    5.8669   -2.5154 H   0  0  0  0  0  0  0  0  0  0  0  0
   -5.4825    4.8251   -0.5041 H   0  0  0  0  0  0  0  0  0  0  0  0
   -6.2549    2.8898    0.7838 H   0  0  0  0  0  0  0  0  0  0  0  0
   -1.8916   -0.9752    3.1120 H   0  0  0  0  0  0  0  0  0  0  0  0
   -1.3365   -3.1988    4.0349 H   0  0  0  0  0  0  0  0  0  0  0  0
   -2.1175   -5.2504    2.8817 H   0  0  0  0  0  0  0  0  0  0  0  0
   -3.4320   -5.0998    0.8286 H   0  0  0  0  0  0  0  0  0  0  0  0
   -3.8428   -4.5283   -1.4028 H   0  0  0  0  0  0  0  0  0  0  0  0
   -5.3448   -4.4531   -0.3995 H   0  0  0  0  0  0  0  0  0  0  0  0
   -5.2278   -3.5613   -1.9208 H   0  0  0  0  0  0  0  0  0  0  0  0
   -0.1758    1.4471    0.9888 H   0  0  0  0  0  0  0  0  0  0  0  0
    2.0664    0.8265    0.2622 H   0  0  0  0  0  0  0  0  0  0  0  0
    4.4704   -0.5759   -2.1559 H   0  0  0  0  0  0  0  0  0  0  0  0
    3.6162    0.6650   -1.2708 H   0  0  0  0  0  0  0  0  0  0  0  0
    3.6504   -1.0119    0.7619 H   0  0  0  0  0  0  0  0  0  0  0  0
    4.6065   -2.0663   -0.2163 H   0  0  0  0  0  0  0  0  0  0  0  0
    6.5027    0.0838   -1.3986 H   0  0  0  0  0  0  0  0  0  0  0  0
    7.1656   -1.3630   -0.6020 H   0  0  0  0  0  0  0  0  0  0  0  0
    8.3522    1.1154   -0.4117 H   0  0  0  0  0  0  0  0  0  0  0  0
    8.4335   -0.0612    0.9093 H   0  0  0  0  0  0  0  0  0  0  0  0
    7.1837    1.2874    2.2360 H   0  0  0  0  0  0  0  0  0  0  0  0
    7.0410    2.4919    0.9458 H   0  0  0  0  0  0  0  0  0  0  0  0
    4.8660    1.0581    1.8638 H   0  0  0  0  0  0  0  0  0  0  0  0
    5.0064    1.6405    0.1893 H   0  0  0  0  0  0  0  0  0  0  0  0
    0.3877   -2.0692   -2.4586 H   0  0  0  0  0  0  0  0  0  0  0  0
   -1.8813   -1.4391   -1.7193 H   0  0  0  0  0  0  0  0  0  0  0  0
   -1.7802    2.8086   -1.3652 H   0  0  0  0  0  0  0  0  0  0  0  0
  1  2  1  0
  2  3  1  0
  3  4  2  0
  4  5  1  0
  5  6  2  0
  6  7  1  0
  7  8  1  0
  8  9  1  0
  9 10  2  0
 10 11  1  0
 11 12  2  0
 12 13  1  0
 13 14  2  0
 14 15  1  0
 15 16  1  0
  8 17  2  0
 17 18  1  0
 18 19  2  0
 19 20  1  0
 20 21  2  0
 21 22  1  0
 22 23  1  0
 23 24  1  0
 24 25  1  0
 25 26  1  0
 26 27  1  0
 27 28  1  0
 28 29  1  0
 21 30  1  0
 30 31  2  0
 17 32  1  0
 32 33  2  0
 33  3  1  0
 32  6  1  0
 14  9  1  0
 31 18  1  0
 29 25  1  0
  1 34  1  0
  1 35  1  0
  1 36  1  0
  4 37  1  0
  5 38  1  0
 10 39  1  0
 11 40  1  0
 12 41  1  0
 13 42  1  0
 16 43  1  0
 16 44  1  0
 16 45  1  0
 19 46  1  0
 20 47  1  0
 23 48  1  0
 23 49  1  0
 24 50  1  0
 24 51  1  0
 26 52  1  0
 26 53  1  0
 27 54  1  0
 27 55  1  0
 28 56  1  0
 28 57  1  0
 29 58  1  0
 29 59  1  0
 30 60  1  0
 31 61  1  0
 33 62  1  0
M  END
$$$$
