
     RDKit          3D

 37 39  0  0  0  0  0  0  0  0999 V2000
   -5.4439    2.5421    0.5275 C   0  0  0  0  0  0  0  0  0  0  0  0
   -4.9312    1.2122    1.0012 C   0  0  0  0  0  0  0  0  0  0  0  0
   -5.8132    0.2852    1.5789 C   0  0  0  0  0  0  0  0  0  0  0  0
   -5.3486   -0.9545    2.0221 C   0  0  0  0  0  0  0  0  0  0  0  0
   -3.9978   -1.2807    1.8932 C   0  0  0  0  0  0  0  0  0  0  0  0
   -3.1111   -0.3716    1.3128 C   0  0  0  0  0  0  0  0  0  0  0  0
   -3.5792    0.8614    0.8459 C   0  0  0  0  0  0  0  0  0  0  0  0
   -2.7396    1.7930    0.2899 O   0  0  0  0  0  0  0  0  0  0  0  0
   -1.9575    1.2940   -0.7884 C   0  0  0  0  0  0  0  0  0  0  0  0
   -0.5046    0.9314   -0.4372 C   0  0  0  0  0  0  0  0  0  0  0  0
   -0.0535    1.0548    0.6971 O   0  0  0  0  0  0  0  0  0  0  0  0
    0.1809    0.4572   -1.5407 N   0  0  0  0  0  0  0  0  0  0  0  0
    1.4831    0.0217   -1.5772 C   0  0  0  0  0  0  0  0  0  0  0  0
    2.0436   -0.3926   -2.6908 N   0  0  0  0  0  0  0  0  0  0  0  0
    3.3502   -0.7919   -2.4951 N   0  0  0  0  0  0  0  0  0  0  0  0
    3.7428   -0.6562   -1.2387 C   0  0  0  0  0  0  0  0  0  0  0  0
    5.0870   -1.0030   -0.7447 C   0  0  0  0  0  0  0  0  0  0  0  0
    5.5242   -0.7359    0.5586 C   0  0  0  0  0  0  0  0  0  0  0  0
    6.8129   -1.0985    0.9227 C   0  0  0  0  0  0  0  0  0  0  0  0
    7.6857   -1.7029    0.0916 N   0  0  0  0  0  0  0  0  0  0  0  0
    7.2547   -1.9562   -1.1610 C   0  0  0  0  0  0  0  0  0  0  0  0
    5.9881   -1.6284   -1.6174 C   0  0  0  0  0  0  0  0  0  0  0  0
    2.5005   -0.0370   -0.2163 S   0  0  0  0  0  0  0  0  0  0  0  0
   -5.4381    2.5807   -0.5674 H   0  0  0  0  0  0  0  0  0  0  0  0
   -6.4698    2.7193    0.8682 H   0  0  0  0  0  0  0  0  0  0  0  0
   -4.8262    3.3551    0.9218 H   0  0  0  0  0  0  0  0  0  0  0  0
   -6.8675    0.5285    1.6968 H   0  0  0  0  0  0  0  0  0  0  0  0
   -6.0383   -1.6609    2.4792 H   0  0  0  0  0  0  0  0  0  0  0  0
   -3.6307   -2.2361    2.2602 H   0  0  0  0  0  0  0  0  0  0  0  0
   -2.0548   -0.6288    1.2615 H   0  0  0  0  0  0  0  0  0  0  0  0
   -2.4369    0.4390   -1.2858 H   0  0  0  0  0  0  0  0  0  0  0  0
   -1.9075    2.1031   -1.5289 H   0  0  0  0  0  0  0  0  0  0  0  0
   -0.2742    0.4240   -2.4444 H   0  0  0  0  0  0  0  0  0  0  0  0
    4.8949   -0.2559    1.3004 H   0  0  0  0  0  0  0  0  0  0  0  0
    7.1877   -0.9021    1.9247 H   0  0  0  0  0  0  0  0  0  0  0  0
    7.9756   -2.4462   -1.8107 H   0  0  0  0  0  0  0  0  0  0  0  0
    5.7123   -1.8631   -2.6424 H   0  0  0  0  0  0  0  0  0  0  0  0
  1  2  1  0
  2  3  2  0
  3  4  1  0
  4  5  2  0
  5  6  1  0
  6  7  2  0
  7  8  1  0
  8  9  1  0
  9 10  1  0
 10 11  2  0
 10 12  1  0
 12 13  1  0
 13 14  2  0
 14 15  1  0
 15 16  2  0
 16 17  1  0
 17 18  2  0
 18 19  1  0
 19 20  2  0
 20 21  1  0
 21 22  2  0
 16 23  1  0
  7  2  1  0
 23 13  1  0
 22 17  1  0
  1 24  1  0
  1 25  1  0
  1 26  1  0
  3 27  1  0
  4 28  1  0
  5 29  1  0
  6 30  1  0
  9 31  1  0
  9 32  1  0
 12 33  1  0
 18 34  1  0
 19 35  1  0
 21 36  1  0
 22 37  1  0
M  END
$$$$
