
     RDKit          3D

 44 46  0  0  0  0  0  0  0  0999 V2000
   -4.0312    0.4202    3.8625 C   0  0  0  0  0  0  0  0  0  0  0  0
   -3.2761   -0.2565    2.7485 C   0  0  0  0  0  0  0  0  0  0  0  0
   -3.9550   -0.5861    1.5635 C   0  0  0  0  0  0  0  0  0  0  0  0
   -3.3136   -1.2399    0.4958 C   0  0  0  0  0  0  0  0  0  0  0  0
   -4.1237   -1.5743   -0.7248 C   0  0  0  0  0  0  0  0  0  0  0  0
   -1.9470   -1.5400    0.6244 C   0  0  0  0  0  0  0  0  0  0  0  0
   -1.0374   -2.3320   -0.6941 S   0  0  0  0  0  6  0  0  0  0  0  0
   -1.5233   -1.8505   -1.9693 O   0  0  0  0  0  0  0  0  0  0  0  0
   -1.0159   -3.7468   -0.3815 O   0  0  0  0  0  0  0  0  0  0  0  0
    0.5411   -1.8034   -0.5060 N   0  0  0  0  0  0  0  0  0  0  0  0
    1.0262   -0.5063   -0.8369 C   0  0  0  0  0  0  0  0  0  0  0  0
    0.2095    0.5834   -1.1400 C   0  0  0  0  0  0  0  0  0  0  0  0
    0.7719    1.8329   -1.4156 C   0  0  0  0  0  0  0  0  0  0  0  0
    2.1520    1.9999   -1.3794 C   0  0  0  0  0  0  0  0  0  0  0  0
    2.6224    3.2493   -1.6787 O   0  0  0  0  0  0  0  0  0  0  0  0
    2.9874    0.9283   -1.0526 C   0  0  0  0  0  0  0  0  0  0  0  0
    4.7615    1.0919   -0.9569 S   0  0  0  0  0  0  0  0  0  0  0  0
    5.1288    1.2999   -2.6478 C   0  0  0  0  0  0  0  0  0  0  0  0
    5.2890    2.5433   -3.2058 N   0  0  0  0  0  0  0  0  0  0  0  0
    5.4739    2.2660   -4.4771 C   0  0  0  0  0  0  0  0  0  0  0  0
    5.4185    0.9150   -4.6633 N   0  0  0  0  0  0  0  0  0  0  0  0
    5.1880    0.2764   -3.5054 N   0  0  0  0  0  0  0  0  0  0  0  0
    2.4125   -0.3196   -0.7737 C   0  0  0  0  0  0  0  0  0  0  0  0
   -1.2613   -1.2209    1.8074 C   0  0  0  0  0  0  0  0  0  0  0  0
   -1.9098   -0.5687    2.8687 C   0  0  0  0  0  0  0  0  0  0  0  0
   -1.1369   -0.2662    4.1234 C   0  0  0  0  0  0  0  0  0  0  0  0
   -3.9544   -0.1676    4.7869 H   0  0  0  0  0  0  0  0  0  0  0  0
   -3.6332    1.4262    4.0364 H   0  0  0  0  0  0  0  0  0  0  0  0
   -5.0971    0.5193    3.6237 H   0  0  0  0  0  0  0  0  0  0  0  0
   -5.0135   -0.3364    1.4759 H   0  0  0  0  0  0  0  0  0  0  0  0
   -3.9321   -2.5992   -1.0558 H   0  0  0  0  0  0  0  0  0  0  0  0
   -3.9036   -0.8700   -1.5319 H   0  0  0  0  0  0  0  0  0  0  0  0
   -5.1978   -1.5154   -0.5141 H   0  0  0  0  0  0  0  0  0  0  0  0
    1.2019   -2.5648   -0.3625 H   0  0  0  0  0  0  0  0  0  0  0  0
   -0.8693    0.4983   -1.1870 H   0  0  0  0  0  0  0  0  0  0  0  0
    0.1318    2.6733   -1.6672 H   0  0  0  0  0  0  0  0  0  0  0  0
    3.5923    3.1997   -1.8004 H   0  0  0  0  0  0  0  0  0  0  0  0
    5.6512    2.9692   -5.2785 H   0  0  0  0  0  0  0  0  0  0  0  0
    5.5250    0.3786   -5.5179 H   0  0  0  0  0  0  0  0  0  0  0  0
    3.0598   -1.1557   -0.5199 H   0  0  0  0  0  0  0  0  0  0  0  0
   -0.2100   -1.4856    1.9123 H   0  0  0  0  0  0  0  0  0  0  0  0
   -0.0572   -0.3342    3.9527 H   0  0  0  0  0  0  0  0  0  0  0  0
   -1.3406    0.7491    4.4740 H   0  0  0  0  0  0  0  0  0  0  0  0
   -1.4044   -0.9803    4.9083 H   0  0  0  0  0  0  0  0  0  0  0  0
  1  2  1  0
  2  3  2  0
  3  4  1  0
  4  5  1  0
  4  6  2  0
  6  7  1  0
  7  8  2  0
  7  9  2  0
  7 10  1  0
 10 11  1  0
 11 12  2  0
 12 13  1  0
 13 14  2  0
 14 15  1  0
 14 16  1  0
 16 17  1  0
 17 18  1  0
 18 19  1  0
 19 20  2  0
 20 21  1  0
 21 22  1  0
 16 23  2  0
  6 24  1  0
 24 25  2  0
 25 26  1  0
 25  2  1  0
 23 11  1  0
 22 18  2  0
  1 27  1  0
  1 28  1  0
  1 29  1  0
  3 30  1  0
  5 31  1  0
  5 32  1  0
  5 33  1  0
 10 34  1  0
 12 35  1  0
 13 36  1  0
 15 37  1  0
 20 38  1  0
 21 39  1  0
 23 40  1  0
 24 41  1  0
 26 42  1  0
 26 43  1  0
 26 44  1  0
M  END
$$$$
