
     RDKit          3D

 53 55  0  0  0  0  0  0  0  0999 V2000
    9.7494   -0.9709   -0.2430 C   0  0  0  0  0  0  0  0  0  0  0  0
    9.0172   -0.5441    0.8988 O   0  0  0  0  0  0  0  0  0  0  0  0
    7.7067   -0.9282    0.9716 C   0  0  0  0  0  0  0  0  0  0  0  0
    7.0232   -1.7008    0.0330 C   0  0  0  0  0  0  0  0  0  0  0  0
    5.6756   -2.0232    0.2330 C   0  0  0  0  0  0  0  0  0  0  0  0
    4.9965   -1.5843    1.3774 C   0  0  0  0  0  0  0  0  0  0  0  0
    3.5422   -1.9082    1.5779 C   0  0  0  0  0  0  0  0  0  0  0  0
    2.7035   -0.8831    1.0191 N   0  0  0  0  0  0  0  0  0  0  0  0
    1.3414   -0.8941    1.1864 C   0  0  0  0  0  0  0  0  0  0  0  0
    0.7050   -1.6902    1.8623 O   0  0  0  0  0  0  0  0  0  0  0  0
    0.6117    0.2311    0.4174 C   0  0  0  0  0  0  0  0  0  0  0  0
    1.2509    1.0392   -0.2401 O   0  0  0  0  0  0  0  0  0  0  0  0
   -0.7544    0.2083    0.5723 N   0  0  0  0  0  0  0  0  0  0  0  0
   -1.5946    1.3066    0.1231 C   0  0  0  0  0  0  0  0  0  0  0  0
   -3.0833    0.9120    0.0681 C   0  0  0  0  0  0  0  0  0  0  0  0
   -3.5018    0.4754    1.3842 O   0  0  0  0  0  0  0  0  0  0  0  0
   -4.2475    1.5561    1.9584 C   0  0  0  0  0  0  0  0  0  0  0  0
   -4.9446    2.1882    0.7751 C   0  0  0  0  0  0  0  0  0  0  0  0
   -3.9274    2.0631   -0.2663 N   0  0  0  0  0  0  0  0  0  0  0  0
   -4.3278    2.3331   -1.8681 S   0  0  0  0  0  6  0  0  0  0  0  0
   -3.1252    2.1659   -2.6548 O   0  0  0  0  0  0  0  0  0  0  0  0
   -5.0936    3.5604   -1.9235 O   0  0  0  0  0  0  0  0  0  0  0  0
   -5.4306    0.9990   -2.2869 C   0  0  0  0  0  0  0  0  0  0  0  0
   -4.9207   -0.1695   -2.8621 C   0  0  0  0  0  0  0  0  0  0  0  0
   -5.7927   -1.1990   -3.2168 C   0  0  0  0  0  0  0  0  0  0  0  0
   -7.1661   -1.0517   -3.0169 C   0  0  0  0  0  0  0  0  0  0  0  0
   -7.6750    0.1286   -2.4729 C   0  0  0  0  0  0  0  0  0  0  0  0
   -6.8093    1.1622   -2.1150 C   0  0  0  0  0  0  0  0  0  0  0  0
    5.6843   -0.7986    2.3094 C   0  0  0  0  0  0  0  0  0  0  0  0
    7.0292   -0.4791    2.1072 C   0  0  0  0  0  0  0  0  0  0  0  0
    9.8101   -2.0633   -0.2874 H   0  0  0  0  0  0  0  0  0  0  0  0
   10.7690   -0.5847   -0.1496 H   0  0  0  0  0  0  0  0  0  0  0  0
    9.3209   -0.5602   -1.1631 H   0  0  0  0  0  0  0  0  0  0  0  0
    7.5062   -2.0670   -0.8666 H   0  0  0  0  0  0  0  0  0  0  0  0
    5.1585   -2.6212   -0.5150 H   0  0  0  0  0  0  0  0  0  0  0  0
    3.2865   -2.8613    1.0997 H   0  0  0  0  0  0  0  0  0  0  0  0
    3.3101   -2.0198    2.6439 H   0  0  0  0  0  0  0  0  0  0  0  0
    3.0885   -0.1924    0.3794 H   0  0  0  0  0  0  0  0  0  0  0  0
   -1.1089   -0.4121    1.2992 H   0  0  0  0  0  0  0  0  0  0  0  0
   -1.2370    1.6504   -0.8526 H   0  0  0  0  0  0  0  0  0  0  0  0
   -1.4399    2.1238    0.8377 H   0  0  0  0  0  0  0  0  0  0  0  0
   -3.2309    0.0608   -0.6004 H   0  0  0  0  0  0  0  0  0  0  0  0
   -3.5443    2.2481    2.4354 H   0  0  0  0  0  0  0  0  0  0  0  0
   -4.9426    1.1762    2.7116 H   0  0  0  0  0  0  0  0  0  0  0  0
   -5.8361    1.6078    0.5227 H   0  0  0  0  0  0  0  0  0  0  0  0
   -5.2191    3.2270    0.9710 H   0  0  0  0  0  0  0  0  0  0  0  0
   -3.8546   -0.2839   -3.0454 H   0  0  0  0  0  0  0  0  0  0  0  0
   -5.4040   -2.1129   -3.6603 H   0  0  0  0  0  0  0  0  0  0  0  0
   -7.8437   -1.8540   -3.3006 H   0  0  0  0  0  0  0  0  0  0  0  0
   -8.7479    0.2458   -2.3395 H   0  0  0  0  0  0  0  0  0  0  0  0
   -7.2151    2.0880   -1.7131 H   0  0  0  0  0  0  0  0  0  0  0  0
    5.1782   -0.4281    3.1983 H   0  0  0  0  0  0  0  0  0  0  0  0
    7.5537    0.1289    2.8406 H   0  0  0  0  0  0  0  0  0  0  0  0
  1  2  1  0
  2  3  1  0
  3  4  2  0
  4  5  1  0
  5  6  2  0
  6  7  1  0
  7  8  1  0
  8  9  1  0
  9 10  2  0
  9 11  1  0
 11 12  2  0
 11 13  1  0
 13 14  1  0
 14 15  1  0
 15 16  1  0
 16 17  1  0
 17 18  1  0
 18 19  1  0
 19 20  1  0
 20 21  2  0
 20 22  2  0
 20 23  1  0
 23 24  2  0
 24 25  1  0
 25 26  2  0
 26 27  1  0
 27 28  2  0
  6 29  1  0
 29 30  2  0
 30  3  1  0
 19 15  1  0
 28 23  1  0
  1 31  1  0
  1 32  1  0
  1 33  1  0
  4 34  1  0
  5 35  1  0
  7 36  1  0
  7 37  1  0
  8 38  1  0
 13 39  1  0
 14 40  1  0
 14 41  1  0
 15 42  1  0
 17 43  1  0
 17 44  1  0
 18 45  1  0
 18 46  1  0
 24 47  1  0
 25 48  1  0
 26 49  1  0
 27 50  1  0
 28 51  1  0
 29 52  1  0
 30 53  1  0
M  END
$$$$
