
     RDKit          3D

 55 58  0  0  0  0  0  0  0  0999 V2000
    3.3591   -0.8803    2.2269 O   0  0  0  0  0  0  0  0  0  0  0  0
    2.7929   -0.8960    1.1330 C   0  0  0  0  0  0  0  0  0  0  0  0
    1.3835   -1.4088    0.9295 C   0  0  0  0  0  0  0  0  0  0  0  0
    0.2080   -0.0675    1.2737 S   0  0  0  0  0  0  0  0  0  0  0  0
   -1.2779   -0.8675    0.8979 C   0  0  0  0  0  0  0  0  0  0  0  0
   -1.3794   -2.0591    0.3608 N   0  0  0  0  0  0  0  0  0  0  0  0
   -2.7141   -2.3369    0.2194 N   0  0  0  0  0  0  0  0  0  0  0  0
   -3.4086   -1.3196    0.7006 C   0  0  0  0  0  0  0  0  0  0  0  0
   -4.8656   -1.2433    0.7374 C   0  0  0  0  0  0  0  0  0  0  0  0
   -5.5753   -1.2887   -0.4709 C   0  0  0  0  0  0  0  0  0  0  0  0
   -6.9705   -1.2311   -0.4798 C   0  0  0  0  0  0  0  0  0  0  0  0
   -7.6719   -1.1402    0.7212 C   0  0  0  0  0  0  0  0  0  0  0  0
   -6.9818   -1.1126    1.9332 C   0  0  0  0  0  0  0  0  0  0  0  0
   -5.5865   -1.1687    1.9370 C   0  0  0  0  0  0  0  0  0  0  0  0
   -4.9178   -1.1504    3.1319 O   0  0  0  0  0  0  0  0  0  0  0  0
   -2.5235   -0.3354    1.0985 N   0  0  0  0  0  0  0  0  0  0  0  0
   -2.8582    0.9852    1.5974 C   0  0  0  0  0  0  0  0  0  0  0  0
   -3.3193    1.9111    0.4959 C   0  0  0  0  0  0  0  0  0  0  0  0
   -2.4134    2.4119   -0.4515 C   0  0  0  0  0  0  0  0  0  0  0  0
   -2.8483    3.2616   -1.4703 C   0  0  0  0  0  0  0  0  0  0  0  0
   -4.1910    3.6226   -1.5537 C   0  0  0  0  0  0  0  0  0  0  0  0
   -5.1004    3.1369   -0.6173 C   0  0  0  0  0  0  0  0  0  0  0  0
   -4.6676    2.2886    0.4033 C   0  0  0  0  0  0  0  0  0  0  0  0
    3.3983   -0.4149   -0.0150 N   0  0  0  0  0  0  0  0  0  0  0  0
    4.7687   -0.1071    0.0654 N   0  0  0  0  0  0  0  0  0  0  0  0
    5.5494   -0.4266   -1.0288 C   0  0  0  0  0  0  0  0  0  0  0  0
    5.0662   -0.8226   -2.0908 O   0  0  0  0  0  0  0  0  0  0  0  0
    7.0268   -0.3188   -0.8784 C   0  0  0  0  0  0  0  0  0  0  0  0
    7.6102    0.4196    0.1631 C   0  0  0  0  0  0  0  0  0  0  0  0
    9.0018    0.4915    0.2828 C   0  0  0  0  0  0  0  0  0  0  0  0
    9.8197   -0.1641   -0.6364 C   0  0  0  0  0  0  0  0  0  0  0  0
    9.2506   -0.8847   -1.6849 C   0  0  0  0  0  0  0  0  0  0  0  0
    7.8639   -0.9546   -1.8095 C   0  0  0  0  0  0  0  0  0  0  0  0
    7.3940   -1.6708   -2.8792 O   0  0  0  0  0  0  0  0  0  0  0  0
    1.2664   -1.7687   -0.0979 H   0  0  0  0  0  0  0  0  0  0  0  0
    1.2187   -2.2509    1.6096 H   0  0  0  0  0  0  0  0  0  0  0  0
   -5.0368   -1.3697   -1.4138 H   0  0  0  0  0  0  0  0  0  0  0  0
   -7.5068   -1.2638   -1.4250 H   0  0  0  0  0  0  0  0  0  0  0  0
   -8.7585   -1.0990    0.7117 H   0  0  0  0  0  0  0  0  0  0  0  0
   -7.5444   -1.0460    2.8596 H   0  0  0  0  0  0  0  0  0  0  0  0
   -5.5436   -1.3820    3.8391 H   0  0  0  0  0  0  0  0  0  0  0  0
   -3.6233    0.8788    2.3709 H   0  0  0  0  0  0  0  0  0  0  0  0
   -1.9923    1.4220    2.1040 H   0  0  0  0  0  0  0  0  0  0  0  0
   -1.3596    2.1462   -0.4077 H   0  0  0  0  0  0  0  0  0  0  0  0
   -2.1379    3.6406   -2.2009 H   0  0  0  0  0  0  0  0  0  0  0  0
   -4.5284    4.2822   -2.3490 H   0  0  0  0  0  0  0  0  0  0  0  0
   -6.1487    3.4167   -0.6824 H   0  0  0  0  0  0  0  0  0  0  0  0
   -5.3968    1.9195    1.1216 H   0  0  0  0  0  0  0  0  0  0  0  0
    3.0598   -0.6671   -0.9443 H   0  0  0  0  0  0  0  0  0  0  0  0
    5.1474   -0.1025    1.0125 H   0  0  0  0  0  0  0  0  0  0  0  0
    7.0076    0.9656    0.8831 H   0  0  0  0  0  0  0  0  0  0  0  0
    9.4495    1.0647    1.0919 H   0  0  0  0  0  0  0  0  0  0  0  0
   10.9015   -0.1079   -0.5426 H   0  0  0  0  0  0  0  0  0  0  0  0
    9.8849   -1.3888   -2.4096 H   0  0  0  0  0  0  0  0  0  0  0  0
    6.4194   -1.5485   -2.9241 H   0  0  0  0  0  0  0  0  0  0  0  0
  1  2  2  0
  2  3  1  0
  3  4  1  0
  4  5  1  0
  5  6  2  0
  6  7  1  0
  7  8  2  0
  8  9  1  0
  9 10  2  0
 10 11  1  0
 11 12  2  0
 12 13  1  0
 13 14  2  0
 14 15  1  0
  8 16  1  0
 16 17  1  0
 17 18  1  0
 18 19  2  0
 19 20  1  0
 20 21  2  0
 21 22  1  0
 22 23  2  0
  2 24  1  0
 24 25  1  0
 25 26  1  0
 26 27  2  0
 26 28  1  0
 28 29  2  0
 29 30  1  0
 30 31  2  0
 31 32  1  0
 32 33  2  0
 33 34  1  0
 16  5  1  0
 23 18  1  0
 33 28  1  0
 14  9  1  0
  3 35  1  0
  3 36  1  0
 10 37  1  0
 11 38  1  0
 12 39  1  0
 13 40  1  0
 15 41  1  0
 17 42  1  0
 17 43  1  0
 19 44  1  0
 20 45  1  0
 21 46  1  0
 22 47  1  0
 23 48  1  0
 24 49  1  0
 25 50  1  0
 29 51  1  0
 30 52  1  0
 31 53  1  0
 32 54  1  0
 34 55  1  0
M  END
$$$$
