
     RDKit          3D

 44 47  0  0  0  0  0  0  0  0999 V2000
   -4.5726    1.7900    1.8250 C   0  0  0  0  0  0  0  0  0  0  0  0
   -3.7677    1.6312    0.5363 C   0  0  0  0  0  0  0  0  0  0  0  0
   -2.3069    1.3503    0.8469 C   0  0  0  0  0  0  0  0  0  0  0  0
   -1.5071    1.0428   -0.3982 C   0  0  0  0  0  0  0  0  0  0  0  0
   -0.8407    1.9298   -0.9426 O   0  0  0  0  0  0  0  0  0  0  0  0
   -1.4745   -0.2761   -0.8375 N   0  0  0  0  0  0  0  0  0  0  0  0
   -0.5695   -0.6039   -1.9454 C   0  0  0  0  0  0  0  0  0  0  0  0
    0.8856   -0.7531   -1.4835 C   0  0  0  0  0  0  0  0  0  0  0  0
    1.4053   -1.8626   -1.3941 O   0  0  0  0  0  0  0  0  0  0  0  0
    1.4838    0.4606   -1.1895 N   0  0  0  0  0  0  0  0  0  0  0  0
    2.8002    0.6950   -0.7483 C   0  0  0  0  0  0  0  0  0  0  0  0
    3.1386    2.0351   -0.4522 C   0  0  0  0  0  0  0  0  0  0  0  0
    4.4202    2.3785   -0.0077 C   0  0  0  0  0  0  0  0  0  0  0  0
    5.3392    1.3641    0.1292 C   0  0  0  0  0  0  0  0  0  0  0  0
    5.0190    0.0589   -0.1583 C   0  0  0  0  0  0  0  0  0  0  0  0
    3.7621   -0.3085   -0.5985 C   0  0  0  0  0  0  0  0  0  0  0  0
    6.0676   -0.7856    0.0412 O   0  0  0  0  0  0  0  0  0  0  0  0
    7.0813    0.1384    0.4857 C   0  0  0  0  0  0  0  0  0  0  0  0
    6.6253    1.5060    0.5454 O   0  0  0  0  0  0  0  0  0  0  0  0
   -2.3198   -1.3100   -0.3251 C   0  0  0  0  0  0  0  0  0  0  0  0
   -1.7737   -2.5835   -0.0925 C   0  0  0  0  0  0  0  0  0  0  0  0
   -2.5545   -3.6192    0.4257 C   0  0  0  0  0  0  0  0  0  0  0  0
   -3.8993   -3.4057    0.7027 C   0  0  0  0  0  0  0  0  0  0  0  0
   -4.4680   -2.1584    0.4508 C   0  0  0  0  0  0  0  0  0  0  0  0
   -3.6920   -1.1050   -0.0578 C   0  0  0  0  0  0  0  0  0  0  0  0
   -4.5808    0.3795   -0.5215 S   0  0  0  0  0  0  0  0  0  0  0  0
   -5.6119    2.0677    1.6165 H   0  0  0  0  0  0  0  0  0  0  0  0
   -4.5750    0.8698    2.4202 H   0  0  0  0  0  0  0  0  0  0  0  0
   -4.1440    2.5839    2.4469 H   0  0  0  0  0  0  0  0  0  0  0  0
   -3.8315    2.5726   -0.0224 H   0  0  0  0  0  0  0  0  0  0  0  0
   -1.8563    2.2352    1.3161 H   0  0  0  0  0  0  0  0  0  0  0  0
   -2.1801    0.5489    1.5848 H   0  0  0  0  0  0  0  0  0  0  0  0
   -0.6164    0.1918   -2.6995 H   0  0  0  0  0  0  0  0  0  0  0  0
   -0.8857   -1.5240   -2.4507 H   0  0  0  0  0  0  0  0  0  0  0  0
    0.8746    1.2797   -1.2466 H   0  0  0  0  0  0  0  0  0  0  0  0
    2.3996    2.8261   -0.5654 H   0  0  0  0  0  0  0  0  0  0  0  0
    4.6812    3.4054    0.2203 H   0  0  0  0  0  0  0  0  0  0  0  0
    3.5649   -1.3509   -0.8139 H   0  0  0  0  0  0  0  0  0  0  0  0
    7.4168   -0.1628    1.4848 H   0  0  0  0  0  0  0  0  0  0  0  0
    7.9328    0.0828   -0.2024 H   0  0  0  0  0  0  0  0  0  0  0  0
   -0.7210   -2.7879   -0.2745 H   0  0  0  0  0  0  0  0  0  0  0  0
   -2.1067   -4.5928    0.6122 H   0  0  0  0  0  0  0  0  0  0  0  0
   -4.5107   -4.2137    1.0970 H   0  0  0  0  0  0  0  0  0  0  0  0
   -5.5317   -2.0205    0.6355 H   0  0  0  0  0  0  0  0  0  0  0  0
  1  2  1  0
  2  3  1  0
  3  4  1  0
  4  5  2  0
  4  6  1  0
  6  7  1  0
  7  8  1  0
  8  9  2  0
  8 10  1  0
 10 11  1  0
 11 12  2  0
 12 13  1  0
 13 14  2  0
 14 15  1  0
 15 16  2  0
 15 17  1  0
 17 18  1  0
 18 19  1  0
  6 20  1  0
 20 21  2  0
 21 22  1  0
 22 23  2  0
 23 24  1  0
 24 25  2  0
 25 26  1  0
 26  2  1  0
 16 11  1  0
 25 20  1  0
 19 14  1  0
  1 27  1  0
  1 28  1  0
  1 29  1  0
  2 30  1  0
  3 31  1  0
  3 32  1  0
  7 33  1  0
  7 34  1  0
 10 35  1  0
 12 36  1  0
 13 37  1  0
 16 38  1  0
 18 39  1  0
 18 40  1  0
 21 41  1  0
 22 42  1  0
 23 43  1  0
 24 44  1  0
M  END
$$$$
