
     RDKit          3D

 51 55  0  0  0  0  0  0  0  0999 V2000
    8.9189   -1.2832   -0.4032 Cl  0  0  0  0  0  0  0  0  0  0  0  0
    7.3801   -0.7082    0.1330 C   0  0  0  0  0  0  0  0  0  0  0  0
    7.1461    0.6686    0.0798 C   0  0  0  0  0  0  0  0  0  0  0  0
    5.9210    1.1918    0.5006 C   0  0  0  0  0  0  0  0  0  0  0  0
    4.9163    0.3441    0.9839 C   0  0  0  0  0  0  0  0  0  0  0  0
    3.5842    0.9054    1.4266 C   0  0  0  0  0  0  0  0  0  0  0  0
    2.5226    0.9327    0.3088 C   0  0  0  0  0  0  0  0  0  0  0  0
    2.0764   -0.4010   -0.1360 N   0  0  0  0  0  0  0  0  0  0  0  0
    1.1923   -1.0789    0.8402 C   0  0  0  0  0  0  0  0  0  0  0  0
   -0.2352   -0.4994    0.9608 C   0  0  0  0  0  0  0  0  0  0  0  0
   -0.8908   -0.4141   -0.3591 N   0  0  0  0  0  0  0  0  0  0  0  0
   -2.2605   -0.1546   -0.3733 C   0  0  0  0  0  0  0  0  0  0  0  0
   -2.6920    0.9713   -0.8841 N   0  0  0  0  0  0  0  0  0  0  0  0
   -4.0681    1.2757   -0.8841 C   0  0  0  0  0  0  0  0  0  0  0  0
   -4.4773    2.4945   -1.4287 C   0  0  0  0  0  0  0  0  0  0  0  0
   -5.8285    2.8510   -1.4455 C   0  0  0  0  0  0  0  0  0  0  0  0
   -6.7875    1.9874   -0.9146 C   0  0  0  0  0  0  0  0  0  0  0  0
   -6.4021    0.7640   -0.3656 C   0  0  0  0  0  0  0  0  0  0  0  0
   -5.0468    0.4213   -0.3554 C   0  0  0  0  0  0  0  0  0  0  0  0
   -4.5737   -0.7937    0.1657 N   0  0  0  0  0  0  0  0  0  0  0  0
   -5.2698   -1.8389    0.7254 C   0  0  0  0  0  0  0  0  0  0  0  0
   -4.3723   -2.8403    1.0288 C   0  0  0  0  0  0  0  0  0  0  0  0
   -3.0888   -2.3808    0.6528 C   0  0  0  0  0  0  0  0  0  0  0  0
   -3.2316   -1.0987    0.1534 C   0  0  0  0  0  0  0  0  0  0  0  0
   -0.0577    0.2963   -1.3513 C   0  0  0  0  0  0  0  0  0  0  0  0
    1.3540   -0.3228   -1.4287 C   0  0  0  0  0  0  0  0  0  0  0  0
    5.1569   -1.0371    1.0302 C   0  0  0  0  0  0  0  0  0  0  0  0
    6.3821   -1.5642    0.6082 C   0  0  0  0  0  0  0  0  0  0  0  0
    6.5961   -3.2767    0.7008 Cl  0  0  0  0  0  0  0  0  0  0  0  0
    7.9152    1.3417   -0.2914 H   0  0  0  0  0  0  0  0  0  0  0  0
    5.7572    2.2663    0.4465 H   0  0  0  0  0  0  0  0  0  0  0  0
    3.2277    0.3568    2.3060 H   0  0  0  0  0  0  0  0  0  0  0  0
    3.7396    1.9337    1.7794 H   0  0  0  0  0  0  0  0  0  0  0  0
    1.6751    1.5409    0.6452 H   0  0  0  0  0  0  0  0  0  0  0  0
    2.9630    1.4665   -0.5441 H   0  0  0  0  0  0  0  0  0  0  0  0
    1.1092   -2.1298    0.5311 H   0  0  0  0  0  0  0  0  0  0  0  0
    1.6574   -1.1092    1.8310 H   0  0  0  0  0  0  0  0  0  0  0  0
   -0.2055    0.4973    1.4174 H   0  0  0  0  0  0  0  0  0  0  0  0
   -0.8044   -1.1405    1.6411 H   0  0  0  0  0  0  0  0  0  0  0  0
   -3.7331    3.1698   -1.8421 H   0  0  0  0  0  0  0  0  0  0  0  0
   -6.1305    3.8033   -1.8738 H   0  0  0  0  0  0  0  0  0  0  0  0
   -7.8377    2.2689   -0.9311 H   0  0  0  0  0  0  0  0  0  0  0  0
   -7.1657    0.1077    0.0382 H   0  0  0  0  0  0  0  0  0  0  0  0
   -6.3422   -1.8072    0.8514 H   0  0  0  0  0  0  0  0  0  0  0  0
   -4.6193   -3.8010    1.4624 H   0  0  0  0  0  0  0  0  0  0  0  0
   -2.1581   -2.9268    0.7331 H   0  0  0  0  0  0  0  0  0  0  0  0
    0.0083    1.3611   -1.0963 H   0  0  0  0  0  0  0  0  0  0  0  0
   -0.5191    0.2183   -2.3434 H   0  0  0  0  0  0  0  0  0  0  0  0
    1.9565    0.2223   -2.1656 H   0  0  0  0  0  0  0  0  0  0  0  0
    1.2655   -1.3445   -1.8223 H   0  0  0  0  0  0  0  0  0  0  0  0
    4.3769   -1.7072    1.3859 H   0  0  0  0  0  0  0  0  0  0  0  0
  1  2  1  0
  2  3  2  0
  3  4  1  0
  4  5  2  0
  5  6  1  0
  6  7  1  0
  7  8  1  0
  8  9  1  0
  9 10  1  0
 10 11  1  0
 11 12  1  0
 12 13  2  0
 13 14  1  0
 14 15  2  0
 15 16  1  0
 16 17  2  0
 17 18  1  0
 18 19  2  0
 19 20  1  0
 20 21  1  0
 21 22  2  0
 22 23  1  0
 23 24  2  0
 11 25  1  0
 25 26  1  0
  5 27  1  0
 27 28  2  0
 28 29  1  0
 28  2  1  0
 26  8  1  0
 24 12  1  0
 19 14  1  0
 24 20  1  0
  3 30  1  0
  4 31  1  0
  6 32  1  0
  6 33  1  0
  7 34  1  0
  7 35  1  0
  9 36  1  0
  9 37  1  0
 10 38  1  0
 10 39  1  0
 15 40  1  0
 16 41  1  0
 17 42  1  0
 18 43  1  0
 21 44  1  0
 22 45  1  0
 23 46  1  0
 25 47  1  0
 25 48  1  0
 26 49  1  0
 26 50  1  0
 27 51  1  0
M  END
$$$$
