
     RDKit          3D

 57 62  0  0  0  0  0  0  0  0999 V2000
    8.9981    0.5338    0.7667 C   0  0  0  0  0  0  0  0  0  0  0  0
    7.9802    0.3047    1.7352 O   0  0  0  0  0  0  0  0  0  0  0  0
    6.6874    0.3231    1.2982 C   0  0  0  0  0  0  0  0  0  0  0  0
    6.2607    0.5824   -0.0027 C   0  0  0  0  0  0  0  0  0  0  0  0
    4.8936    0.5756   -0.3144 C   0  0  0  0  0  0  0  0  0  0  0  0
    3.9442    0.3076    0.6733 C   0  0  0  0  0  0  0  0  0  0  0  0
    2.4100    0.2979    0.3352 C   0  0  0  0  0  0  0  0  0  0  0  0
    1.3766   -0.0421    1.2009 C   0  0  0  0  0  0  0  0  0  0  0  0
    0.1637    0.0520    0.5200 N   0  0  0  0  0  4  0  0  0  0  0  0
   -1.1801   -0.2511    1.0564 C   0  0  0  0  0  0  0  0  0  0  0  0
   -1.9673   -1.1818    0.1067 C   0  0  0  0  0  0  0  0  0  0  0  0
   -1.3321   -1.9988   -0.5663 O   0  0  0  0  0  0  0  0  0  0  0  0
   -3.3345   -0.8844   -0.0376 N   0  0  0  0  0  0  0  0  0  0  0  0
   -4.1095   -0.3188    1.0343 C   0  0  0  0  0  0  0  0  0  0  0  0
   -3.8768   -0.7492    2.3556 C   0  0  0  0  0  0  0  0  0  0  0  0
   -4.5995   -0.2189    3.4274 C   0  0  0  0  0  0  0  0  0  0  0  0
   -5.5772    0.7403    3.1970 C   0  0  0  0  0  0  0  0  0  0  0  0
   -5.8473    1.1518    1.8940 C   0  0  0  0  0  0  0  0  0  0  0  0
   -5.1331    0.6152    0.8132 C   0  0  0  0  0  0  0  0  0  0  0  0
   -5.5323    1.1827   -0.8164 S   0  0  0  0  0  0  0  0  0  0  0  0
   -5.0596   -0.2723   -1.7240 C   0  0  0  0  0  0  0  0  0  0  0  0
   -5.7055   -0.5012   -2.9490 C   0  0  0  0  0  0  0  0  0  0  0  0
   -5.3434   -1.5802   -3.7490 C   0  0  0  0  0  0  0  0  0  0  0  0
   -4.3314   -2.4317   -3.3299 C   0  0  0  0  0  0  0  0  0  0  0  0
   -3.6797   -2.2032   -2.1131 C   0  0  0  0  0  0  0  0  0  0  0  0
   -4.0265   -1.1230   -1.2828 C   0  0  0  0  0  0  0  0  0  0  0  0
    0.4378    0.4219   -0.7284 C   0  0  0  0  0  0  0  0  0  0  0  0
    1.7506    0.6068   -0.8404 N   0  0  0  0  0  0  0  0  0  0  0  0
    2.1210    1.0600   -2.1730 C   0  0  0  0  0  0  0  0  0  0  0  0
    0.7631    1.4652   -2.8084 C   0  0  0  0  0  0  0  0  0  0  0  0
   -0.3006    0.7196   -1.9796 C   0  0  0  0  0  0  0  0  0  0  0  0
    4.3720    0.0391    1.9771 C   0  0  0  0  0  0  0  0  0  0  0  0
    5.7360    0.0529    2.2829 C   0  0  0  0  0  0  0  0  0  0  0  0
    8.9762   -0.2323   -0.0166 H   0  0  0  0  0  0  0  0  0  0  0  0
    8.9134    1.5387    0.3406 H   0  0  0  0  0  0  0  0  0  0  0  0
    9.9652    0.4653    1.2747 H   0  0  0  0  0  0  0  0  0  0  0  0
    6.9683    0.7914   -0.8004 H   0  0  0  0  0  0  0  0  0  0  0  0
    4.6148    0.7672   -1.3426 H   0  0  0  0  0  0  0  0  0  0  0  0
    1.3530   -0.3576    2.2299 H   0  0  0  0  0  0  0  0  0  0  0  0
   -1.6780    0.7157    1.1788 H   0  0  0  0  0  0  0  0  0  0  0  0
   -1.0622   -0.7442    2.0260 H   0  0  0  0  0  0  0  0  0  0  0  0
   -3.1799   -1.5556    2.5736 H   0  0  0  0  0  0  0  0  0  0  0  0
   -4.4217   -0.5748    4.4398 H   0  0  0  0  0  0  0  0  0  0  0  0
   -6.1506    1.1494    4.0271 H   0  0  0  0  0  0  0  0  0  0  0  0
   -6.6339    1.8866    1.7267 H   0  0  0  0  0  0  0  0  0  0  0  0
   -6.4958    0.1648   -3.2913 H   0  0  0  0  0  0  0  0  0  0  0  0
   -5.8530   -1.7568   -4.6931 H   0  0  0  0  0  0  0  0  0  0  0  0
   -4.0517   -3.2863   -3.9430 H   0  0  0  0  0  0  0  0  0  0  0  0
   -2.9280   -2.9316   -1.8205 H   0  0  0  0  0  0  0  0  0  0  0  0
    2.8009    1.9132   -2.1233 H   0  0  0  0  0  0  0  0  0  0  0  0
    2.5771    0.2269   -2.7146 H   0  0  0  0  0  0  0  0  0  0  0  0
    0.7093    1.2367   -3.8765 H   0  0  0  0  0  0  0  0  0  0  0  0
    0.6214    2.5456   -2.6860 H   0  0  0  0  0  0  0  0  0  0  0  0
   -1.1753    1.3263   -1.7437 H   0  0  0  0  0  0  0  0  0  0  0  0
   -0.5711   -0.2378   -2.4281 H   0  0  0  0  0  0  0  0  0  0  0  0
    3.6778   -0.1761    2.7840 H   0  0  0  0  0  0  0  0  0  0  0  0
    6.0652   -0.1506    3.3008 H   0  0  0  0  0  0  0  0  0  0  0  0
  1  2  1  0
  2  3  1  0
  3  4  2  0
  4  5  1  0
  5  6  2  0
  6  7  1  0
  7  8  2  0
  8  9  1  0
  9 10  1  0
 10 11  1  0
 11 12  2  0
 11 13  1  0
 13 14  1  0
 14 15  2  0
 15 16  1  0
 16 17  2  0
 17 18  1  0
 18 19  2  0
 19 20  1  0
 20 21  1  0
 21 22  2  0
 22 23  1  0
 23 24  2  0
 24 25  1  0
 25 26  2  0
  9 27  2  0
 27 28  1  0
 28 29  1  0
 29 30  1  0
 30 31  1  0
  6 32  1  0
 32 33  2  0
 33  3  1  0
 28  7  1  0
 26 13  1  0
 31 27  1  0
 19 14  1  0
 26 21  1  0
  1 34  1  0
  1 35  1  0
  1 36  1  0
  4 37  1  0
  5 38  1  0
  8 39  1  0
 10 40  1  0
 10 41  1  0
 15 42  1  0
 16 43  1  0
 17 44  1  0
 18 45  1  0
 22 46  1  0
 23 47  1  0
 24 48  1  0
 25 49  1  0
 29 50  1  0
 29 51  1  0
 30 52  1  0
 30 53  1  0
 31 54  1  0
 31 55  1  0
 32 56  1  0
 33 57  1  0
M  CHG  1   9   1
M  END
$$$$
