
     RDKit          3D

 61 63  0  0  0  0  0  0  0  0999 V2000
   -9.6771    0.1700    4.1300 C   0  0  0  0  0  0  0  0  0  0  0  0
   -9.1005   -1.0591    3.7029 O   0  0  0  0  0  0  0  0  0  0  0  0
   -8.3433   -1.0214    2.5619 C   0  0  0  0  0  0  0  0  0  0  0  0
   -8.1313    0.0938    1.7551 C   0  0  0  0  0  0  0  0  0  0  0  0
   -7.3192   -0.0028    0.6185 C   0  0  0  0  0  0  0  0  0  0  0  0
   -6.7173   -1.2176    0.2658 C   0  0  0  0  0  0  0  0  0  0  0  0
   -5.8099   -1.2948   -0.9327 C   0  0  0  0  0  0  0  0  0  0  0  0
   -4.4647   -0.9491   -0.5637 N   0  0  0  0  0  0  0  0  0  0  0  0
   -3.5700   -0.4122   -1.4673 C   0  0  0  0  0  0  0  0  0  0  0  0
   -3.8041   -0.1078   -2.6289 O   0  0  0  0  0  0  0  0  0  0  0  0
   -2.1651   -0.1642   -0.8702 C   0  0  0  0  0  0  0  0  0  0  0  0
   -1.8931   -0.5522    0.2551 O   0  0  0  0  0  0  0  0  0  0  0  0
   -1.3169    0.5077   -1.7179 N   0  0  0  0  0  0  0  0  0  0  0  0
    0.0568    0.8055   -1.3571 C   0  0  0  0  0  0  0  0  0  0  0  0
    0.9731   -0.4460   -1.2915 C   0  0  0  0  0  0  0  0  0  0  0  0
    0.8762   -1.1631   -2.5442 O   0  0  0  0  0  0  0  0  0  0  0  0
    1.9158   -0.6479   -3.3746 C   0  0  0  0  0  0  0  0  0  0  0  0
    3.0668   -0.3897   -2.4275 C   0  0  0  0  0  0  0  0  0  0  0  0
    2.4166   -0.1719   -1.1245 N   0  0  0  0  0  0  0  0  0  0  0  0
    2.8810    1.1382   -0.1914 S   0  0  0  0  0  6  0  0  0  0  0  0
    2.1746    1.0709    1.0700 O   0  0  0  0  0  0  0  0  0  0  0  0
    2.8049    2.3161   -1.0316 O   0  0  0  0  0  0  0  0  0  0  0  0
    4.5890    0.7896    0.1378 C   0  0  0  0  0  0  0  0  0  0  0  0
    4.9070   -0.1820    1.0862 C   0  0  0  0  0  0  0  0  0  0  0  0
    6.2452   -0.4529    1.3667 C   0  0  0  0  0  0  0  0  0  0  0  0
    7.2615    0.2517    0.7098 C   0  0  0  0  0  0  0  0  0  0  0  0
    8.6011    0.0293    0.9159 O   0  0  0  0  0  0  0  0  0  0  0  0
    8.9649   -0.6336    2.1185 C   0  0  0  0  0  0  0  0  0  0  0  0
    6.9334    1.2386   -0.2442 C   0  0  0  0  0  0  0  0  0  0  0  0
    7.9946    1.8761   -0.8367 O   0  0  0  0  0  0  0  0  0  0  0  0
    7.7088    2.9237   -1.7622 C   0  0  0  0  0  0  0  0  0  0  0  0
    5.5910    1.5077   -0.5246 C   0  0  0  0  0  0  0  0  0  0  0  0
   -6.9323   -2.3346    1.0810 C   0  0  0  0  0  0  0  0  0  0  0  0
   -7.7427   -2.2347    2.2179 C   0  0  0  0  0  0  0  0  0  0  0  0
  -10.4135    0.5320    3.4034 H   0  0  0  0  0  0  0  0  0  0  0  0
   -8.9088    0.9260    4.3245 H   0  0  0  0  0  0  0  0  0  0  0  0
  -10.2041   -0.0150    5.0717 H   0  0  0  0  0  0  0  0  0  0  0  0
   -8.5743    1.0566    1.9806 H   0  0  0  0  0  0  0  0  0  0  0  0
   -7.1535    0.8838    0.0128 H   0  0  0  0  0  0  0  0  0  0  0  0
   -6.1651   -0.6302   -1.7291 H   0  0  0  0  0  0  0  0  0  0  0  0
   -5.7943   -2.3096   -1.3466 H   0  0  0  0  0  0  0  0  0  0  0  0
   -4.1006   -1.2111    0.3490 H   0  0  0  0  0  0  0  0  0  0  0  0
   -1.6304    0.6091   -2.6847 H   0  0  0  0  0  0  0  0  0  0  0  0
    0.4149    1.5139   -2.1112 H   0  0  0  0  0  0  0  0  0  0  0  0
    0.0294    1.3136   -0.3875 H   0  0  0  0  0  0  0  0  0  0  0  0
    0.6383   -1.1290   -0.5061 H   0  0  0  0  0  0  0  0  0  0  0  0
    2.1660   -1.3741   -4.1501 H   0  0  0  0  0  0  0  0  0  0  0  0
    1.5620    0.2726   -3.8540 H   0  0  0  0  0  0  0  0  0  0  0  0
    3.6779    0.4499   -2.7722 H   0  0  0  0  0  0  0  0  0  0  0  0
    3.7088   -1.2745   -2.3484 H   0  0  0  0  0  0  0  0  0  0  0  0
    4.1204   -0.7293    1.6063 H   0  0  0  0  0  0  0  0  0  0  0  0
    6.4631   -1.2267    2.0927 H   0  0  0  0  0  0  0  0  0  0  0  0
    8.7067   -1.6976    2.0756 H   0  0  0  0  0  0  0  0  0  0  0  0
   10.0516   -0.5600    2.2184 H   0  0  0  0  0  0  0  0  0  0  0  0
    8.5162   -0.1568    2.9997 H   0  0  0  0  0  0  0  0  0  0  0  0
    8.6582    3.3277   -2.1087 H   0  0  0  0  0  0  0  0  0  0  0  0
    7.1668    2.5446   -2.6423 H   0  0  0  0  0  0  0  0  0  0  0  0
    7.1568    3.7419   -1.2864 H   0  0  0  0  0  0  0  0  0  0  0  0
    5.3013    2.2605   -1.2522 H   0  0  0  0  0  0  0  0  0  0  0  0
   -6.4672   -3.2893    0.8443 H   0  0  0  0  0  0  0  0  0  0  0  0
   -7.9016   -3.1102    2.8460 H   0  0  0  0  0  0  0  0  0  0  0  0
  1  2  1  0
  2  3  1  0
  3  4  2  0
  4  5  1  0
  5  6  2  0
  6  7  1  0
  7  8  1  0
  8  9  1  0
  9 10  2  0
  9 11  1  0
 11 12  2  0
 11 13  1  0
 13 14  1  0
 14 15  1  0
 15 16  1  0
 16 17  1  0
 17 18  1  0
 18 19  1  0
 19 20  1  0
 20 21  2  0
 20 22  2  0
 20 23  1  0
 23 24  2  0
 24 25  1  0
 25 26  2  0
 26 27  1  0
 27 28  1  0
 26 29  1  0
 29 30  1  0
 30 31  1  0
 29 32  2  0
  6 33  1  0
 33 34  2  0
 34  3  1  0
 19 15  1  0
 32 23  1  0
  1 35  1  0
  1 36  1  0
  1 37  1  0
  4 38  1  0
  5 39  1  0
  7 40  1  0
  7 41  1  0
  8 42  1  0
 13 43  1  0
 14 44  1  0
 14 45  1  0
 15 46  1  0
 17 47  1  0
 17 48  1  0
 18 49  1  0
 18 50  1  0
 24 51  1  0
 25 52  1  0
 28 53  1  0
 28 54  1  0
 28 55  1  0
 31 56  1  0
 31 57  1  0
 31 58  1  0
 32 59  1  0
 33 60  1  0
 34 61  1  0
M  END
$$$$
