
     RDKit          3D

 45 48  0  0  0  0  0  0  0  0999 V2000
    0.8392    1.6990    3.7403 C   0  0  0  0  0  0  0  0  0  0  0  0
    0.8848    1.1341    2.3326 C   0  0  0  0  0  0  0  0  0  0  0  0
    0.9819   -0.2943    2.4092 O   0  0  0  0  0  0  0  0  0  0  0  0
    2.0780   -0.7662    1.7310 C   0  0  0  0  0  0  0  0  0  0  0  0
    3.3217   -0.7155    2.3711 C   0  0  0  0  0  0  0  0  0  0  0  0
    4.4463   -1.2590    1.7543 C   0  0  0  0  0  0  0  0  0  0  0  0
    4.3256   -1.8716    0.5099 C   0  0  0  0  0  0  0  0  0  0  0  0
    3.0781   -1.9407   -0.1171 C   0  0  0  0  0  0  0  0  0  0  0  0
    1.9282   -1.3877    0.4795 C   0  0  0  0  0  0  0  0  0  0  0  0
    0.6370   -1.4730   -0.2032 C   0  0  0  0  0  0  0  0  0  0  0  0
    0.2045   -2.7083   -0.5466 N   0  0  0  0  0  0  0  0  0  0  0  0
   -0.9927   -2.7642   -1.1815 C   0  0  0  0  0  0  0  0  0  0  0  0
   -1.5080   -4.1172   -1.5300 C   0  0  0  0  0  0  0  0  0  0  0  0
   -0.7144   -5.1668   -1.1531 N   0  0  0  0  0  0  0  0  0  0  0  0
   -2.5727   -4.2857   -2.1112 O   0  0  0  0  0  0  0  0  0  0  0  0
   -1.7027   -1.6409   -1.4864 C   0  0  0  0  0  0  0  0  0  0  0  0
   -2.9291   -1.4414   -2.1001 N   0  0  0  0  0  0  0  0  0  0  0  0
   -3.1875   -0.0644   -2.1467 C   0  0  0  0  0  0  0  0  0  0  0  0
   -4.1983    0.4090   -2.6394 O   0  0  0  0  0  0  0  0  0  0  0  0
   -2.0627    0.5796   -1.5469 N   0  0  0  0  0  0  0  0  0  0  0  0
   -1.8699    1.9755   -1.3710 C   0  0  0  0  0  0  0  0  0  0  0  0
   -0.6286    2.5346   -1.0268 C   0  0  0  0  0  0  0  0  0  0  0  0
   -0.4647    3.9162   -0.8589 C   0  0  0  0  0  0  0  0  0  0  0  0
   -1.5417    4.7750   -1.0364 C   0  0  0  0  0  0  0  0  0  0  0  0
   -2.7793    4.2512   -1.3864 C   0  0  0  0  0  0  0  0  0  0  0  0
   -2.9379    2.8696   -1.5541 C   0  0  0  0  0  0  0  0  0  0  0  0
   -1.1563   -0.4298   -1.1347 C   0  0  0  0  0  0  0  0  0  0  0  0
    0.0083   -0.3124   -0.4901 N   0  0  0  0  0  0  0  0  0  0  0  0
    0.0129    1.2571    4.3068 H   0  0  0  0  0  0  0  0  0  0  0  0
    1.7600    1.4640    4.2834 H   0  0  0  0  0  0  0  0  0  0  0  0
    0.7115    2.7850    3.7192 H   0  0  0  0  0  0  0  0  0  0  0  0
   -0.0527    1.3731    1.8203 H   0  0  0  0  0  0  0  0  0  0  0  0
    1.7037    1.5944    1.7643 H   0  0  0  0  0  0  0  0  0  0  0  0
    3.4100   -0.2668    3.3565 H   0  0  0  0  0  0  0  0  0  0  0  0
    5.4126   -1.2168    2.2504 H   0  0  0  0  0  0  0  0  0  0  0  0
    5.2000   -2.3033    0.0289 H   0  0  0  0  0  0  0  0  0  0  0  0
    3.0027   -2.4305   -1.0868 H   0  0  0  0  0  0  0  0  0  0  0  0
   -1.0310   -6.1124   -1.3157 H   0  0  0  0  0  0  0  0  0  0  0  0
    0.1337   -5.0013   -0.6220 H   0  0  0  0  0  0  0  0  0  0  0  0
   -3.5422   -2.1666   -2.4538 H   0  0  0  0  0  0  0  0  0  0  0  0
    0.2601    1.9251   -0.9062 H   0  0  0  0  0  0  0  0  0  0  0  0
    0.5120    4.3159   -0.5980 H   0  0  0  0  0  0  0  0  0  0  0  0
   -1.4167    5.8467   -0.9089 H   0  0  0  0  0  0  0  0  0  0  0  0
   -3.6306    4.9119   -1.5313 H   0  0  0  0  0  0  0  0  0  0  0  0
   -3.9331    2.5198   -1.8146 H   0  0  0  0  0  0  0  0  0  0  0  0
  1  2  1  0
  2  3  1  0
  3  4  1  0
  4  5  2  0
  5  6  1  0
  6  7  2  0
  7  8  1  0
  8  9  2  0
  9 10  1  0
 10 11  2  0
 11 12  1  0
 12 13  1  0
 13 14  1  0
 13 15  2  0
 12 16  2  0
 16 17  1  0
 17 18  1  0
 18 19  2  0
 18 20  1  0
 20 21  1  0
 21 22  2  0
 22 23  1  0
 23 24  2  0
 24 25  1  0
 25 26  2  0
 20 27  1  0
 27 28  2  0
  9  4  1  0
 28 10  1  0
 27 16  1  0
 26 21  1  0
  1 29  1  0
  1 30  1  0
  1 31  1  0
  2 32  1  0
  2 33  1  0
  5 34  1  0
  6 35  1  0
  7 36  1  0
  8 37  1  0
 14 38  1  0
 14 39  1  0
 17 40  1  0
 22 41  1  0
 23 42  1  0
 24 43  1  0
 25 44  1  0
 26 45  1  0
M  END
$$$$
