
     RDKit          3D

 43 46  0  0  0  0  0  0  0  0999 V2000
    6.4056    2.0685    0.8166 C   0  0  0  0  0  0  0  0  0  0  0  0
    5.0402    1.5272    0.5058 C   0  0  0  0  0  0  0  0  0  0  0  0
    4.1984    2.1965   -0.3868 C   0  0  0  0  0  0  0  0  0  0  0  0
    2.9145    1.7107   -0.6525 C   0  0  0  0  0  0  0  0  0  0  0  0
    2.4549    0.5497   -0.0202 C   0  0  0  0  0  0  0  0  0  0  0  0
    1.0109    0.0118   -0.3252 C   0  0  0  0  0  0  0  0  0  0  0  0
    0.0622    0.6144   -1.1435 C   0  0  0  0  0  0  0  0  0  0  0  0
   -1.1072   -0.1490   -1.1247 N   0  0  0  0  0  4  0  0  0  0  0  0
   -2.3453    0.1306   -1.8473 C   0  0  0  0  0  0  0  0  0  0  0  0
   -3.4749    0.3053   -0.8625 C   0  0  0  0  0  0  0  0  0  0  0  0
   -4.6564   -0.4383   -0.9936 C   0  0  0  0  0  0  0  0  0  0  0  0
   -5.7032   -0.2745   -0.0805 C   0  0  0  0  0  0  0  0  0  0  0  0
   -5.5888    0.6366    0.9733 C   0  0  0  0  0  0  0  0  0  0  0  0
   -6.9149    0.7734    2.0682 Cl  0  0  0  0  0  0  0  0  0  0  0  0
   -4.4223    1.3932    1.1073 C   0  0  0  0  0  0  0  0  0  0  0  0
   -4.1944    2.5355    2.3812 Cl  0  0  0  0  0  0  0  0  0  0  0  0
   -3.3763    1.2314    0.1899 C   0  0  0  0  0  0  0  0  0  0  0  0
   -0.8772   -1.2006   -0.3446 C   0  0  0  0  0  0  0  0  0  0  0  0
    0.3657   -1.1275    0.1213 N   0  0  0  0  0  0  0  0  0  0  0  0
    0.6945   -2.2626    0.9724 C   0  0  0  0  0  0  0  0  0  0  0  0
   -0.4694   -3.2588    0.7128 C   0  0  0  0  0  0  0  0  0  0  0  0
   -1.6072   -2.4014    0.1240 C   0  0  0  0  0  0  0  0  0  0  0  0
    3.2851   -0.1098    0.8863 C   0  0  0  0  0  0  0  0  0  0  0  0
    4.5686    0.3796    1.1501 C   0  0  0  0  0  0  0  0  0  0  0  0
    6.3484    2.7670    1.6569 H   0  0  0  0  0  0  0  0  0  0  0  0
    6.8253    2.5899   -0.0501 H   0  0  0  0  0  0  0  0  0  0  0  0
    7.0968    1.2592    1.0745 H   0  0  0  0  0  0  0  0  0  0  0  0
    4.5413    3.1037   -0.8825 H   0  0  0  0  0  0  0  0  0  0  0  0
    2.3052    2.2647   -1.3602 H   0  0  0  0  0  0  0  0  0  0  0  0
    0.0649    1.5153   -1.7336 H   0  0  0  0  0  0  0  0  0  0  0  0
   -2.2324    1.0392   -2.4485 H   0  0  0  0  0  0  0  0  0  0  0  0
   -2.5287   -0.7089   -2.5271 H   0  0  0  0  0  0  0  0  0  0  0  0
   -4.7850   -1.1510   -1.8079 H   0  0  0  0  0  0  0  0  0  0  0  0
   -6.6144   -0.8597   -0.1975 H   0  0  0  0  0  0  0  0  0  0  0  0
   -2.4771    1.8349    0.3038 H   0  0  0  0  0  0  0  0  0  0  0  0
    1.6545   -2.7004    0.6901 H   0  0  0  0  0  0  0  0  0  0  0  0
    0.7055   -1.9305    2.0146 H   0  0  0  0  0  0  0  0  0  0  0  0
   -0.1489   -3.9922   -0.0367 H   0  0  0  0  0  0  0  0  0  0  0  0
   -0.7681   -3.8055    1.6112 H   0  0  0  0  0  0  0  0  0  0  0  0
   -2.3117   -2.0642    0.8870 H   0  0  0  0  0  0  0  0  0  0  0  0
   -2.1097   -2.8676   -0.7242 H   0  0  0  0  0  0  0  0  0  0  0  0
    2.9684   -0.9956    1.4208 H   0  0  0  0  0  0  0  0  0  0  0  0
    5.2024   -0.1402    1.8674 H   0  0  0  0  0  0  0  0  0  0  0  0
  1  2  1  0
  2  3  2  0
  3  4  1  0
  4  5  2  0
  5  6  1  0
  6  7  2  0
  7  8  1  0
  8  9  1  0
  9 10  1  0
 10 11  2  0
 11 12  1  0
 12 13  2  0
 13 14  1  0
 13 15  1  0
 15 16  1  0
 15 17  2  0
  8 18  2  0
 18 19  1  0
 19 20  1  0
 20 21  1  0
 21 22  1  0
  5 23  1  0
 23 24  2  0
 24  2  1  0
 19  6  1  0
 17 10  1  0
 22 18  1  0
  1 25  1  0
  1 26  1  0
  1 27  1  0
  3 28  1  0
  4 29  1  0
  7 30  1  0
  9 31  1  0
  9 32  1  0
 11 33  1  0
 12 34  1  0
 17 35  1  0
 20 36  1  0
 20 37  1  0
 21 38  1  0
 21 39  1  0
 22 40  1  0
 22 41  1  0
 23 42  1  0
 24 43  1  0
M  CHG  1   8   1
M  END
$$$$
