
     RDKit          3D

 53 54  0  0  0  0  0  0  0  0999 V2000
   -6.7171   -0.7092    1.8468 C   0  0  0  0  0  0  0  0  0  0  0  0
   -5.2639   -0.5475    1.4363 C   0  0  0  0  0  0  0  0  0  0  0  0
   -5.1778   -0.3885   -0.0243 N   0  0  0  0  0  0  0  0  0  0  0  0
   -5.0638    0.9805   -0.5589 C   0  0  0  0  0  0  0  0  0  0  0  0
   -3.7355    1.6400   -0.2294 C   0  0  0  0  0  0  0  0  0  0  0  0
   -4.8371   -1.7254   -0.9952 S   0  0  0  0  0  6  0  0  0  0  0  0
   -5.3048   -2.9188   -0.3210 O   0  0  0  0  0  0  0  0  0  0  0  0
   -5.2493   -1.4242   -2.3495 O   0  0  0  0  0  0  0  0  0  0  0  0
   -3.0564   -1.7936   -0.9889 C   0  0  0  0  0  0  0  0  0  0  0  0
   -2.3390   -1.2874   -2.0772 C   0  0  0  0  0  0  0  0  0  0  0  0
   -0.9431   -1.3640   -2.0826 C   0  0  0  0  0  0  0  0  0  0  0  0
   -0.2642   -1.9654   -1.0120 C   0  0  0  0  0  0  0  0  0  0  0  0
    1.2194   -2.0658   -0.9649 C   0  0  0  0  0  0  0  0  0  0  0  0
    1.8378   -2.5708   -0.0406 O   0  0  0  0  0  0  0  0  0  0  0  0
    1.7760   -1.5208   -2.0757 O   0  0  0  0  0  0  0  0  0  0  0  0
    3.2012   -1.4751   -2.0358 C   0  0  0  0  0  0  0  0  0  0  0  0
    3.7254   -0.4393   -1.0361 C   0  0  0  0  0  0  0  0  0  0  0  0
    3.0741    0.5407   -0.6734 O   0  0  0  0  0  0  0  0  0  0  0  0
    5.0146   -0.6701   -0.5884 N   0  0  0  0  0  0  0  0  0  0  0  0
    5.5419    0.1344    0.5021 C   0  0  0  0  0  0  0  0  0  0  0  0
    5.7531    1.6112    0.1288 C   0  0  0  0  0  0  0  0  0  0  0  0
    5.4399    2.4935    1.2332 N   0  0  0  0  0  0  0  0  0  0  0  0
    4.2169    3.0806    1.4591 C   0  0  0  0  0  0  0  0  0  0  0  0
    3.1494    2.8795    0.6353 O   0  0  0  0  0  0  0  0  0  0  0  0
    4.1680    3.8553    2.5466 C   0  0  0  0  0  0  0  0  0  0  0  0
    5.6823    3.8631    3.3931 S   0  0  0  0  0  0  0  0  0  0  0  0
    6.3963    2.7649    2.2014 C   0  0  0  0  0  0  0  0  0  0  0  0
    7.5345    2.3305    2.2682 O   0  0  0  0  0  0  0  0  0  0  0  0
   -0.9967   -2.4945    0.0614 C   0  0  0  0  0  0  0  0  0  0  0  0
   -2.3917   -2.4171    0.0713 C   0  0  0  0  0  0  0  0  0  0  0  0
   -6.7947   -0.8306    2.9310 H   0  0  0  0  0  0  0  0  0  0  0  0
   -7.1686   -1.5872    1.3732 H   0  0  0  0  0  0  0  0  0  0  0  0
   -7.3086    0.1656    1.5552 H   0  0  0  0  0  0  0  0  0  0  0  0
   -4.6866   -1.4138    1.7728 H   0  0  0  0  0  0  0  0  0  0  0  0
   -4.8358    0.3148    1.9540 H   0  0  0  0  0  0  0  0  0  0  0  0
   -5.2070    0.9801   -1.6443 H   0  0  0  0  0  0  0  0  0  0  0  0
   -5.8860    1.5837   -0.1535 H   0  0  0  0  0  0  0  0  0  0  0  0
   -2.8890    1.0783   -0.6286 H   0  0  0  0  0  0  0  0  0  0  0  0
   -3.5864    1.7438    0.8479 H   0  0  0  0  0  0  0  0  0  0  0  0
   -3.7017    2.6439   -0.6642 H   0  0  0  0  0  0  0  0  0  0  0  0
   -2.8549   -0.8312   -2.9198 H   0  0  0  0  0  0  0  0  0  0  0  0
   -0.4005   -0.9516   -2.9300 H   0  0  0  0  0  0  0  0  0  0  0  0
    3.5492   -1.1753   -3.0302 H   0  0  0  0  0  0  0  0  0  0  0  0
    3.6119   -2.4707   -1.8285 H   0  0  0  0  0  0  0  0  0  0  0  0
    5.3565   -1.6207   -0.6561 H   0  0  0  0  0  0  0  0  0  0  0  0
    4.8430    0.0325    1.3411 H   0  0  0  0  0  0  0  0  0  0  0  0
    6.4932   -0.3135    0.8094 H   0  0  0  0  0  0  0  0  0  0  0  0
    5.1768    1.9218   -0.7504 H   0  0  0  0  0  0  0  0  0  0  0  0
    6.8058    1.7536   -0.1508 H   0  0  0  0  0  0  0  0  0  0  0  0
    3.2279    2.0075    0.1948 H   0  0  0  0  0  0  0  0  0  0  0  0
    3.2961    4.3978    2.8832 H   0  0  0  0  0  0  0  0  0  0  0  0
   -0.4828   -2.9741    0.8940 H   0  0  0  0  0  0  0  0  0  0  0  0
   -2.9482   -2.8513    0.8987 H   0  0  0  0  0  0  0  0  0  0  0  0
  1  2  1  0
  2  3  1  0
  3  4  1  0
  4  5  1  0
  3  6  1  0
  6  7  2  0
  6  8  2  0
  6  9  1  0
  9 10  2  0
 10 11  1  0
 11 12  2  0
 12 13  1  0
 13 14  2  0
 13 15  1  0
 15 16  1  0
 16 17  1  0
 17 18  2  0
 17 19  1  0
 19 20  1  0
 20 21  1  0
 21 22  1  0
 22 23  1  0
 23 24  1  0
 23 25  2  0
 25 26  1  0
 26 27  1  0
 27 28  2  0
 12 29  1  0
 29 30  2  0
 30  9  1  0
 27 22  1  0
  1 31  1  0
  1 32  1  0
  1 33  1  0
  2 34  1  0
  2 35  1  0
  4 36  1  0
  4 37  1  0
  5 38  1  0
  5 39  1  0
  5 40  1  0
 10 41  1  0
 11 42  1  0
 16 43  1  0
 16 44  1  0
 19 45  1  0
 20 46  1  0
 20 47  1  0
 21 48  1  0
 21 49  1  0
 24 50  1  0
 25 51  1  0
 29 52  1  0
 30 53  1  0
M  END
$$$$
