
     RDKit          3D

 54 58  0  0  0  0  0  0  0  0999 V2000
    2.2943   -2.7410    1.2925 O   0  0  0  0  0  0  0  0  0  0  0  0
    2.1869   -1.9054    0.3985 C   0  0  0  0  0  0  0  0  0  0  0  0
    1.6363   -2.2494   -0.9765 C   0  0  0  0  0  0  0  0  0  0  0  0
   -0.1595   -2.5048   -0.9013 S   0  0  0  0  0  0  0  0  0  0  0  0
   -0.6464   -0.9827   -0.1676 C   0  0  0  0  0  0  0  0  0  0  0  0
   -0.0981    0.0814   -0.6820 N   0  0  0  0  0  0  0  0  0  0  0  0
   -0.4646    1.2869   -0.0794 C   0  0  0  0  0  0  0  0  0  0  0  0
   -1.3283    1.3374    0.9701 C   0  0  0  0  0  0  0  0  0  0  0  0
   -1.5736    2.9159    1.5232 S   0  0  0  0  0  0  0  0  0  0  0  0
   -0.4745    3.5640    0.3502 C   0  0  0  0  0  0  0  0  0  0  0  0
   -0.1126    4.9145    0.1805 C   0  0  0  0  0  0  0  0  0  0  0  0
    0.8005    5.2488   -0.8241 C   0  0  0  0  0  0  0  0  0  0  0  0
    1.3394    4.2668   -1.6451 C   0  0  0  0  0  0  0  0  0  0  0  0
    0.9776    2.9269   -1.4767 C   0  0  0  0  0  0  0  0  0  0  0  0
    0.0570    2.5566   -0.4662 C   0  0  0  0  0  0  0  0  0  0  0  0
   -1.9347    0.1691    1.5358 C   0  0  0  0  0  0  0  0  0  0  0  0
   -2.7091    0.1936    2.4910 O   0  0  0  0  0  0  0  0  0  0  0  0
   -1.5473   -1.0195    0.8990 N   0  0  0  0  0  0  0  0  0  0  0  0
   -2.1347   -2.2512    1.4534 C   0  0  0  0  0  0  0  0  0  0  0  0
   -3.6240   -2.4396    1.1123 C   0  0  0  0  0  0  0  0  0  0  0  0
   -3.8977   -2.5414   -0.3676 C   0  0  0  0  0  0  0  0  0  0  0  0
   -3.6559   -3.7385   -1.0548 C   0  0  0  0  0  0  0  0  0  0  0  0
   -3.8735   -3.8174   -2.4305 C   0  0  0  0  0  0  0  0  0  0  0  0
   -4.3376   -2.7034   -3.1301 C   0  0  0  0  0  0  0  0  0  0  0  0
   -4.5894   -1.5103   -2.4547 C   0  0  0  0  0  0  0  0  0  0  0  0
   -4.3714   -1.4284   -1.0797 C   0  0  0  0  0  0  0  0  0  0  0  0
    2.5270   -0.5819    0.5523 N   0  0  0  0  0  0  0  0  0  0  0  0
    3.0039   -0.0523    1.8112 C   0  0  0  0  0  0  0  0  0  0  0  0
    4.2133    0.7825    1.5758 C   0  0  0  0  0  0  0  0  0  0  0  0
    4.7107    1.5060    0.5062 C   0  0  0  0  0  0  0  0  0  0  0  0
    5.9687    2.0224    0.9157 C   0  0  0  0  0  0  0  0  0  0  0  0
    6.1455    1.6136    2.2152 C   0  0  0  0  0  0  0  0  0  0  0  0
    5.0793    0.8752    2.6276 O   0  0  0  0  0  0  0  0  0  0  0  0
    2.1181   -3.1725   -1.3146 H   0  0  0  0  0  0  0  0  0  0  0  0
    1.8803   -1.4711   -1.7060 H   0  0  0  0  0  0  0  0  0  0  0  0
   -0.5332    5.6860    0.8210 H   0  0  0  0  0  0  0  0  0  0  0  0
    1.0848    6.2907   -0.9639 H   0  0  0  0  0  0  0  0  0  0  0  0
    2.0451    4.5402   -2.4245 H   0  0  0  0  0  0  0  0  0  0  0  0
    1.3959    2.1641   -2.1298 H   0  0  0  0  0  0  0  0  0  0  0  0
   -2.0382   -2.2000    2.5460 H   0  0  0  0  0  0  0  0  0  0  0  0
   -1.5726   -3.1388    1.1568 H   0  0  0  0  0  0  0  0  0  0  0  0
   -3.9865   -3.3544    1.6007 H   0  0  0  0  0  0  0  0  0  0  0  0
   -4.2252   -1.6278    1.5377 H   0  0  0  0  0  0  0  0  0  0  0  0
   -3.2821   -4.6134   -0.5266 H   0  0  0  0  0  0  0  0  0  0  0  0
   -3.6755   -4.7476   -2.9575 H   0  0  0  0  0  0  0  0  0  0  0  0
   -4.5037   -2.7643   -4.2014 H   0  0  0  0  0  0  0  0  0  0  0  0
   -4.9574   -0.6430   -2.9996 H   0  0  0  0  0  0  0  0  0  0  0  0
   -4.5727   -0.4892   -0.5679 H   0  0  0  0  0  0  0  0  0  0  0  0
    2.1348    0.0830   -0.1092 H   0  0  0  0  0  0  0  0  0  0  0  0
    3.2449   -0.8686    2.4984 H   0  0  0  0  0  0  0  0  0  0  0  0
    2.1968    0.5512    2.2454 H   0  0  0  0  0  0  0  0  0  0  0  0
    4.2401    1.6179   -0.4588 H   0  0  0  0  0  0  0  0  0  0  0  0
    6.6673    2.6127    0.3360 H   0  0  0  0  0  0  0  0  0  0  0  0
    6.9317    1.7504    2.9438 H   0  0  0  0  0  0  0  0  0  0  0  0
  1  2  2  0
  2  3  1  0
  3  4  1  0
  4  5  1  0
  5  6  2  0
  6  7  1  0
  7  8  2  0
  8  9  1  0
  9 10  1  0
 10 11  2  0
 11 12  1  0
 12 13  2  0
 13 14  1  0
 14 15  2  0
  8 16  1  0
 16 17  2  0
 16 18  1  0
 18 19  1  0
 19 20  1  0
 20 21  1  0
 21 22  2  0
 22 23  1  0
 23 24  2  0
 24 25  1  0
 25 26  2  0
  2 27  1  0
 27 28  1  0
 28 29  1  0
 29 30  2  0
 30 31  1  0
 31 32  2  0
 32 33  1  0
 18  5  1  0
 26 21  1  0
 33 29  1  0
 15  7  1  0
 15 10  1  0
  3 34  1  0
  3 35  1  0
 11 36  1  0
 12 37  1  0
 13 38  1  0
 14 39  1  0
 19 40  1  0
 19 41  1  0
 20 42  1  0
 20 43  1  0
 22 44  1  0
 23 45  1  0
 24 46  1  0
 25 47  1  0
 26 48  1  0
 27 49  1  0
 28 50  1  0
 28 51  1  0
 30 52  1  0
 31 53  1  0
 32 54  1  0
M  END
$$$$
