
     RDKit          3D

 53 58  0  0  0  0  0  0  0  0999 V2000
   -1.7586    0.4686    1.9057 O   0  0  0  0  0  0  0  0  0  0  0  0
   -1.8117   -0.1893    0.8659 C   0  0  0  0  0  0  0  0  0  0  0  0
   -0.7729   -1.2862    0.5805 C   0  0  0  0  0  0  0  0  0  0  0  0
    0.6094   -0.8095    0.7568 N   0  0  0  0  0  4  0  0  0  0  0  0
    1.5927   -0.7292   -0.2289 C   0  0  0  0  0  0  0  0  0  0  0  0
    2.7631   -0.2410    0.3384 C   0  0  0  0  0  0  0  0  0  0  0  0
    4.1128    0.0536   -0.4127 C   0  0  0  0  0  0  0  0  0  0  0  0
    4.2392   -0.2508   -1.7731 C   0  0  0  0  0  0  0  0  0  0  0  0
    5.4384    0.0127   -2.4448 C   0  0  0  0  0  0  0  0  0  0  0  0
    6.5179    0.5842   -1.7675 C   0  0  0  0  0  0  0  0  0  0  0  0
    7.9640    0.8811   -2.6587 Cl  0  0  0  0  0  0  0  0  0  0  0  0
    6.3911    0.8944   -0.4114 C   0  0  0  0  0  0  0  0  0  0  0  0
    7.6723    1.6088    0.5007 Cl  0  0  0  0  0  0  0  0  0  0  0  0
    5.1899    0.6308    0.2623 C   0  0  0  0  0  0  0  0  0  0  0  0
    2.4314   -0.0961    1.6727 N   0  0  0  0  0  0  0  0  0  0  0  0
    1.1561   -0.4072    1.9024 C   0  0  0  0  0  0  0  0  0  0  0  0
    0.7757   -0.2720    3.3298 C   0  0  0  0  0  0  0  0  0  0  0  0
    2.1511   -0.1853    4.0186 C   0  0  0  0  0  0  0  0  0  0  0  0
    3.1216    0.2823    2.9016 C   0  0  0  0  0  0  0  0  0  0  0  0
   -2.8012   -0.0886   -0.1168 N   0  0  0  0  0  0  0  0  0  0  0  0
   -4.1930   -0.2700    0.2111 C   0  0  0  0  0  0  0  0  0  0  0  0
   -4.6193   -0.2508    1.5552 C   0  0  0  0  0  0  0  0  0  0  0  0
   -5.9614   -0.4312    1.9079 C   0  0  0  0  0  0  0  0  0  0  0  0
   -6.9137   -0.6526    0.9258 C   0  0  0  0  0  0  0  0  0  0  0  0
   -6.5185   -0.7037   -0.4063 C   0  0  0  0  0  0  0  0  0  0  0  0
   -5.1720   -0.5193   -0.7681 C   0  0  0  0  0  0  0  0  0  0  0  0
   -4.7885   -0.7425   -2.4854 S   0  0  0  0  0  0  0  0  0  0  0  0
   -3.2374    0.0971   -2.5721 C   0  0  0  0  0  0  0  0  0  0  0  0
   -2.8070    0.5094   -3.8448 C   0  0  0  0  0  0  0  0  0  0  0  0
   -1.5965    1.1768   -4.0117 C   0  0  0  0  0  0  0  0  0  0  0  0
   -0.8074    1.4469   -2.9042 C   0  0  0  0  0  0  0  0  0  0  0  0
   -1.2240    1.0286   -1.6377 C   0  0  0  0  0  0  0  0  0  0  0  0
   -2.4343    0.3243   -1.4471 C   0  0  0  0  0  0  0  0  0  0  0  0
   -0.9416   -2.1014    1.2931 H   0  0  0  0  0  0  0  0  0  0  0  0
   -0.8843   -1.7037   -0.4246 H   0  0  0  0  0  0  0  0  0  0  0  0
    1.3250   -1.0201   -1.2309 H   0  0  0  0  0  0  0  0  0  0  0  0
    3.4306   -0.7000   -2.3437 H   0  0  0  0  0  0  0  0  0  0  0  0
    5.5277   -0.2315   -3.5025 H   0  0  0  0  0  0  0  0  0  0  0  0
    5.1235    0.9025    1.3081 H   0  0  0  0  0  0  0  0  0  0  0  0
    0.1883   -1.1399    3.6306 H   0  0  0  0  0  0  0  0  0  0  0  0
    0.2208    0.6625    3.4261 H   0  0  0  0  0  0  0  0  0  0  0  0
    2.4488   -1.1868    4.3514 H   0  0  0  0  0  0  0  0  0  0  0  0
    2.1537    0.4755    4.8893 H   0  0  0  0  0  0  0  0  0  0  0  0
    3.2467    1.3687    2.9130 H   0  0  0  0  0  0  0  0  0  0  0  0
    4.0854   -0.2247    2.9832 H   0  0  0  0  0  0  0  0  0  0  0  0
   -3.9349   -0.0595    2.3762 H   0  0  0  0  0  0  0  0  0  0  0  0
   -6.2600   -0.3898    2.9534 H   0  0  0  0  0  0  0  0  0  0  0  0
   -7.9584   -0.7932    1.1932 H   0  0  0  0  0  0  0  0  0  0  0  0
   -7.2725   -0.9024   -1.1666 H   0  0  0  0  0  0  0  0  0  0  0  0
   -3.4260    0.3224   -4.7218 H   0  0  0  0  0  0  0  0  0  0  0  0
   -1.2898    1.5063   -5.0023 H   0  0  0  0  0  0  0  0  0  0  0  0
    0.1149    2.0112   -3.0226 H   0  0  0  0  0  0  0  0  0  0  0  0
   -0.6071    1.3295   -0.7937 H   0  0  0  0  0  0  0  0  0  0  0  0
  1  2  2  0
  2  3  1  0
  3  4  1  0
  4  5  1  0
  5  6  2  0
  6  7  1  0
  7  8  2  0
  8  9  1  0
  9 10  2  0
 10 11  1  0
 10 12  1  0
 12 13  1  0
 12 14  2  0
  6 15  1  0
 15 16  1  0
 16 17  1  0
 17 18  1  0
 18 19  1  0
  2 20  1  0
 20 21  1  0
 21 22  2  0
 22 23  1  0
 23 24  2  0
 24 25  1  0
 25 26  2  0
 26 27  1  0
 27 28  1  0
 28 29  2  0
 29 30  1  0
 30 31  2  0
 31 32  1  0
 32 33  2  0
 16  4  2  0
 33 20  1  0
 14  7  1  0
 19 15  1  0
 26 21  1  0
 33 28  1  0
  3 34  1  0
  3 35  1  0
  5 36  1  0
  8 37  1  0
  9 38  1  0
 14 39  1  0
 17 40  1  0
 17 41  1  0
 18 42  1  0
 18 43  1  0
 19 44  1  0
 19 45  1  0
 22 46  1  0
 23 47  1  0
 24 48  1  0
 25 49  1  0
 29 50  1  0
 30 51  1  0
 31 52  1  0
 32 53  1  0
M  CHG  1   4   1
M  END
$$$$
