
     RDKit          3D

 27 27  0  0  0  0  0  0  0  0999 V2000
    2.7438   -0.5177   -2.4518 C   0  0  0  0  0  0  0  0  0  0  0  0
    1.8795   -0.1978   -1.2922 C   0  0  0  0  0  0  0  0  0  0  0  0
    2.2438    0.3638   -0.0618 C   0  0  0  0  0  0  0  0  0  0  0  0
    1.0784    0.4650    0.6865 C   0  0  0  0  0  0  0  0  0  0  0  0
    0.9571    0.9842    2.0204 C   0  0  0  0  0  0  0  0  0  0  0  0
   -0.0311    1.0989    2.7262 O   0  0  0  0  0  0  0  0  0  0  0  0
    2.1560    1.3862    2.4997 O   0  0  0  0  0  0  0  0  0  0  0  0
    0.0838   -0.0409   -0.1368 N   0  0  0  0  0  0  0  0  0  0  0  0
   -1.3708   -0.1986    0.0962 C   0  0  0  0  0  0  0  0  0  0  0  0
   -2.0444    1.1688    0.3184 C   0  0  0  0  0  0  0  0  0  0  0  0
   -2.0800   -0.8233   -1.1426 C   0  0  0  0  0  0  0  0  0  0  0  0
   -1.6398   -1.1661    1.2642 C   0  0  0  0  0  0  0  0  0  0  0  0
    0.5727   -0.4430   -1.3387 N   0  0  0  0  0  0  0  0  0  0  0  0
    3.7875   -0.2554   -2.2508 H   0  0  0  0  0  0  0  0  0  0  0  0
    2.4199    0.0380   -3.3376 H   0  0  0  0  0  0  0  0  0  0  0  0
    2.7016   -1.5878   -2.6790 H   0  0  0  0  0  0  0  0  0  0  0  0
    3.2333    0.6641    0.2564 H   0  0  0  0  0  0  0  0  0  0  0  0
    1.9386    1.7118    3.3967 H   0  0  0  0  0  0  0  0  0  0  0  0
   -3.1315    1.0612    0.4108 H   0  0  0  0  0  0  0  0  0  0  0  0
   -1.7031    1.6779    1.2198 H   0  0  0  0  0  0  0  0  0  0  0  0
   -1.8474    1.8426   -0.5241 H   0  0  0  0  0  0  0  0  0  0  0  0
   -1.9633   -0.1950   -2.0339 H   0  0  0  0  0  0  0  0  0  0  0  0
   -3.1562   -0.9382   -0.9659 H   0  0  0  0  0  0  0  0  0  0  0  0
   -1.6820   -1.8181   -1.3765 H   0  0  0  0  0  0  0  0  0  0  0  0
   -2.7144   -1.3463    1.3861 H   0  0  0  0  0  0  0  0  0  0  0  0
   -1.2739   -0.7991    2.2231 H   0  0  0  0  0  0  0  0  0  0  0  0
   -1.1581   -2.1353    1.0872 H   0  0  0  0  0  0  0  0  0  0  0  0
  1  2  1  0
  2  3  1  0
  3  4  2  0
  4  5  1  0
  5  6  2  0
  5  7  1  0
  4  8  1  0
  8  9  1  0
  9 10  1  0
  9 11  1  0
  9 12  1  0
  8 13  1  0
 13  2  2  0
  1 14  1  0
  1 15  1  0
  1 16  1  0
  3 17  1  0
  7 18  1  0
 10 19  1  0
 10 20  1  0
 10 21  1  0
 11 22  1  0
 11 23  1  0
 11 24  1  0
 12 25  1  0
 12 26  1  0
 12 27  1  0
M  END
$$$$
