
     RDKit          3D

 46 49  0  0  0  0  0  0  0  0999 V2000
    1.5947    0.7547    0.6832 O   0  0  0  0  0  0  0  0  0  0  0  0
    1.6507   -0.1263   -0.1658 C   0  0  0  0  0  0  0  0  0  0  0  0
    0.5301   -1.1172   -0.4548 C   0  0  0  0  0  0  0  0  0  0  0  0
   -0.7275   -0.7279    0.2107 N   0  0  0  0  0  4  0  0  0  0  0  0
   -1.8768   -0.2266   -0.3986 C   0  0  0  0  0  0  0  0  0  0  0  0
   -2.8176    0.0663    0.5827 C   0  0  0  0  0  0  0  0  0  0  0  0
   -4.2702    0.6235    0.3487 C   0  0  0  0  0  0  0  0  0  0  0  0
   -4.6995    0.9412   -0.9452 C   0  0  0  0  0  0  0  0  0  0  0  0
   -5.9913    1.4367   -1.1567 C   0  0  0  0  0  0  0  0  0  0  0  0
   -6.8652    1.6159   -0.0821 C   0  0  0  0  0  0  0  0  0  0  0  0
   -8.4416    2.2300   -0.4168 Cl  0  0  0  0  0  0  0  0  0  0  0  0
   -6.4403    1.2941    1.2092 C   0  0  0  0  0  0  0  0  0  0  0  0
   -7.4576    1.4771    2.5934 Cl  0  0  0  0  0  0  0  0  0  0  0  0
   -5.1460    0.7982    1.4219 C   0  0  0  0  0  0  0  0  0  0  0  0
   -2.1603   -0.2516    1.7579 N   0  0  0  0  0  0  0  0  0  0  0  0
   -0.9372   -0.7211    1.5240 C   0  0  0  0  0  0  0  0  0  0  0  0
   -0.2069   -1.0910    2.7592 C   0  0  0  0  0  0  0  0  0  0  0  0
   -1.0668   -0.4262    3.8511 C   0  0  0  0  0  0  0  0  0  0  0  0
   -2.4493   -0.1865    3.1857 C   0  0  0  0  0  0  0  0  0  0  0  0
    2.7179   -0.3881   -0.9611 O   0  0  0  0  0  0  0  0  0  0  0  0
    3.8351    0.4876   -0.7625 C   0  0  0  0  0  0  0  0  0  0  0  0
    4.9078    0.0713   -1.7311 C   0  0  0  0  0  0  0  0  0  0  0  0
    5.8372   -0.9189   -1.3812 C   0  0  0  0  0  0  0  0  0  0  0  0
    6.8184   -1.3205   -2.2892 C   0  0  0  0  0  0  0  0  0  0  0  0
    6.8759   -0.7431   -3.5559 C   0  0  0  0  0  0  0  0  0  0  0  0
    5.9516    0.2347   -3.9180 C   0  0  0  0  0  0  0  0  0  0  0  0
    4.9693    0.6383   -3.0122 C   0  0  0  0  0  0  0  0  0  0  0  0
    0.3529   -1.1596   -1.5340 H   0  0  0  0  0  0  0  0  0  0  0  0
    0.8176   -2.1060   -0.0850 H   0  0  0  0  0  0  0  0  0  0  0  0
   -1.8839   -0.1485   -1.4727 H   0  0  0  0  0  0  0  0  0  0  0  0
   -4.0567    0.8233   -1.8136 H   0  0  0  0  0  0  0  0  0  0  0  0
   -6.3138    1.6841   -2.1672 H   0  0  0  0  0  0  0  0  0  0  0  0
   -4.8585    0.5461    2.4347 H   0  0  0  0  0  0  0  0  0  0  0  0
   -0.2286   -2.1815    2.8161 H   0  0  0  0  0  0  0  0  0  0  0  0
    0.8115   -0.7071    2.7181 H   0  0  0  0  0  0  0  0  0  0  0  0
   -1.1333   -1.0231    4.7646 H   0  0  0  0  0  0  0  0  0  0  0  0
   -0.6264    0.5431    4.1132 H   0  0  0  0  0  0  0  0  0  0  0  0
   -3.1531   -0.9848    3.4385 H   0  0  0  0  0  0  0  0  0  0  0  0
   -2.8512    0.7915    3.4599 H   0  0  0  0  0  0  0  0  0  0  0  0
    4.2015    0.4041    0.2679 H   0  0  0  0  0  0  0  0  0  0  0  0
    3.5386    1.5274   -0.9471 H   0  0  0  0  0  0  0  0  0  0  0  0
    5.8086   -1.3826   -0.3979 H   0  0  0  0  0  0  0  0  0  0  0  0
    7.5414   -2.0831   -2.0092 H   0  0  0  0  0  0  0  0  0  0  0  0
    7.6428   -1.0543   -4.2612 H   0  0  0  0  0  0  0  0  0  0  0  0
    5.9993    0.6841   -4.9071 H   0  0  0  0  0  0  0  0  0  0  0  0
    4.2567    1.4024   -3.3146 H   0  0  0  0  0  0  0  0  0  0  0  0
  1  2  2  0
  2  3  1  0
  3  4  1  0
  4  5  1  0
  5  6  2  0
  6  7  1  0
  7  8  2  0
  8  9  1  0
  9 10  2  0
 10 11  1  0
 10 12  1  0
 12 13  1  0
 12 14  2  0
  6 15  1  0
 15 16  1  0
 16 17  1  0
 17 18  1  0
 18 19  1  0
  2 20  1  0
 20 21  1  0
 21 22  1  0
 22 23  2  0
 23 24  1  0
 24 25  2  0
 25 26  1  0
 26 27  2  0
 16  4  2  0
 27 22  1  0
 14  7  1  0
 19 15  1  0
  3 28  1  0
  3 29  1  0
  5 30  1  0
  8 31  1  0
  9 32  1  0
 14 33  1  0
 17 34  1  0
 17 35  1  0
 18 36  1  0
 18 37  1  0
 19 38  1  0
 19 39  1  0
 21 40  1  0
 21 41  1  0
 23 42  1  0
 24 43  1  0
 25 44  1  0
 26 45  1  0
 27 46  1  0
M  CHG  1   4   1
M  END
$$$$
