
     RDKit          3D

 53 55  0  0  0  0  0  0  0  0999 V2000
    9.3895   -0.5604    1.7681 C   0  0  0  0  0  0  0  0  0  0  0  0
    8.1217   -0.8872    2.3234 O   0  0  0  0  0  0  0  0  0  0  0  0
    7.0408   -0.1950    1.8515 C   0  0  0  0  0  0  0  0  0  0  0  0
    7.0566    0.7480    0.8206 C   0  0  0  0  0  0  0  0  0  0  0  0
    5.8737    1.3853    0.4310 C   0  0  0  0  0  0  0  0  0  0  0  0
    4.6757    1.0709    1.0759 C   0  0  0  0  0  0  0  0  0  0  0  0
    3.1657    1.8638    0.5927 S   0  0  0  0  0  6  0  0  0  0  0  0
    3.4283    2.7014   -0.5583 O   0  0  0  0  0  0  0  0  0  0  0  0
    2.5502    2.3990    1.7870 O   0  0  0  0  0  0  0  0  0  0  0  0
    2.2238    0.5691    0.0611 N   0  0  0  0  0  0  0  0  0  0  0  0
    2.6641   -0.1396   -1.1578 C   0  0  0  0  0  0  0  0  0  0  0  0
    1.5768    0.1674   -2.1614 C   0  0  0  0  0  0  0  0  0  0  0  0
    0.3985    0.2503   -1.3603 O   0  0  0  0  0  0  0  0  0  0  0  0
    0.8029    0.9300   -0.1590 C   0  0  0  0  0  0  0  0  0  0  0  0
   -0.0641    0.4759    1.0339 C   0  0  0  0  0  0  0  0  0  0  0  0
   -1.4537    0.8839    0.9171 N   0  0  0  0  0  0  0  0  0  0  0  0
   -2.4049    0.0850    0.3251 C   0  0  0  0  0  0  0  0  0  0  0  0
   -2.2741   -1.0841   -0.0063 O   0  0  0  0  0  0  0  0  0  0  0  0
   -3.7504    0.8075    0.0887 C   0  0  0  0  0  0  0  0  0  0  0  0
   -3.8482    2.0076    0.3056 O   0  0  0  0  0  0  0  0  0  0  0  0
   -4.7452   -0.0178   -0.3790 N   0  0  0  0  0  0  0  0  0  0  0  0
   -5.9843    0.5177   -0.8779 C   0  0  0  0  0  0  0  0  0  0  0  0
   -7.0405   -0.5496   -0.9804 C   0  0  0  0  0  0  0  0  0  0  0  0
   -7.9430   -0.7160    0.0857 C   0  0  0  0  0  0  0  0  0  0  0  0
   -8.9310   -1.7017    0.0423 C   0  0  0  0  0  0  0  0  0  0  0  0
   -9.0278   -2.5429   -1.0625 C   0  0  0  0  0  0  0  0  0  0  0  0
   -8.1327   -2.4017   -2.1222 C   0  0  0  0  0  0  0  0  0  0  0  0
   -7.1422   -1.4149   -2.0812 C   0  0  0  0  0  0  0  0  0  0  0  0
   -6.0537   -1.3182   -3.4197 Cl  0  0  0  0  0  0  0  0  0  0  0  0
    4.6483    0.1344    2.1104 C   0  0  0  0  0  0  0  0  0  0  0  0
    5.8332   -0.4971    2.4905 C   0  0  0  0  0  0  0  0  0  0  0  0
    9.6385    0.4920    1.9415 H   0  0  0  0  0  0  0  0  0  0  0  0
   10.1441   -1.1688    2.2758 H   0  0  0  0  0  0  0  0  0  0  0  0
    9.4267   -0.8052    0.7015 H   0  0  0  0  0  0  0  0  0  0  0  0
    7.9724    1.0103    0.3005 H   0  0  0  0  0  0  0  0  0  0  0  0
    5.8999    2.1222   -0.3687 H   0  0  0  0  0  0  0  0  0  0  0  0
    3.6522    0.1497   -1.5229 H   0  0  0  0  0  0  0  0  0  0  0  0
    2.6881   -1.2098   -0.9248 H   0  0  0  0  0  0  0  0  0  0  0  0
    1.4660   -0.6110   -2.9207 H   0  0  0  0  0  0  0  0  0  0  0  0
    1.7370    1.1325   -2.6554 H   0  0  0  0  0  0  0  0  0  0  0  0
    0.6743    2.0044   -0.3398 H   0  0  0  0  0  0  0  0  0  0  0  0
   -0.0290   -0.6167    1.1220 H   0  0  0  0  0  0  0  0  0  0  0  0
    0.3095    0.9035    1.9693 H   0  0  0  0  0  0  0  0  0  0  0  0
   -1.7118    1.8573    1.0600 H   0  0  0  0  0  0  0  0  0  0  0  0
   -4.4448   -0.9457   -0.6688 H   0  0  0  0  0  0  0  0  0  0  0  0
   -6.3173    1.3245   -0.2136 H   0  0  0  0  0  0  0  0  0  0  0  0
   -5.7945    0.9919   -1.8469 H   0  0  0  0  0  0  0  0  0  0  0  0
   -7.8773   -0.0739    0.9629 H   0  0  0  0  0  0  0  0  0  0  0  0
   -9.6223   -1.8141    0.8743 H   0  0  0  0  0  0  0  0  0  0  0  0
   -9.7953   -3.3122   -1.0966 H   0  0  0  0  0  0  0  0  0  0  0  0
   -8.2086   -3.0685   -2.9776 H   0  0  0  0  0  0  0  0  0  0  0  0
    3.7180   -0.1046    2.6203 H   0  0  0  0  0  0  0  0  0  0  0  0
    5.8201   -1.2288    3.2955 H   0  0  0  0  0  0  0  0  0  0  0  0
  1  2  1  0
  2  3  1  0
  3  4  2  0
  4  5  1  0
  5  6  2  0
  6  7  1  0
  7  8  2  0
  7  9  2  0
  7 10  1  0
 10 11  1  0
 11 12  1  0
 12 13  1  0
 13 14  1  0
 14 15  1  0
 15 16  1  0
 16 17  1  0
 17 18  2  0
 17 19  1  0
 19 20  2  0
 19 21  1  0
 21 22  1  0
 22 23  1  0
 23 24  2  0
 24 25  1  0
 25 26  2  0
 26 27  1  0
 27 28  2  0
 28 29  1  0
  6 30  1  0
 30 31  2  0
 31  3  1  0
 14 10  1  0
 28 23  1  0
  1 32  1  0
  1 33  1  0
  1 34  1  0
  4 35  1  0
  5 36  1  0
 11 37  1  0
 11 38  1  0
 12 39  1  0
 12 40  1  0
 14 41  1  0
 15 42  1  0
 15 43  1  0
 16 44  1  0
 21 45  1  0
 22 46  1  0
 22 47  1  0
 24 48  1  0
 25 49  1  0
 26 50  1  0
 27 51  1  0
 30 52  1  0
 31 53  1  0
M  END
$$$$
