
     RDKit          3D

 56 59  0  0  0  0  0  0  0  0999 V2000
    5.4320    3.6619    3.0750 C   0  0  0  0  0  0  0  0  0  0  0  0
    3.9752    3.3668    3.3875 C   0  0  0  0  0  0  0  0  0  0  0  0
    3.7609    1.9618    3.5103 O   0  0  0  0  0  0  0  0  0  0  0  0
    3.3792    1.2571    2.4033 C   0  0  0  0  0  0  0  0  0  0  0  0
    3.3737    1.7209    1.0882 C   0  0  0  0  0  0  0  0  0  0  0  0
    2.9574    0.8830    0.0459 C   0  0  0  0  0  0  0  0  0  0  0  0
    2.5512   -0.4295    0.3093 C   0  0  0  0  0  0  0  0  0  0  0  0
    2.1030   -1.2948   -0.7737 C   0  0  0  0  0  0  0  0  0  0  0  0
    0.8569   -1.3918   -1.3784 C   0  0  0  0  0  0  0  0  0  0  0  0
   -0.3525   -0.6170   -1.1113 C   0  0  0  0  0  0  0  0  0  0  0  0
   -0.3748    0.3459   -0.3492 O   0  0  0  0  0  0  0  0  0  0  0  0
   -1.4566   -1.0908   -1.8253 N   0  0  0  0  0  0  0  0  0  0  0  0
   -2.5456   -0.2816   -2.0154 N   0  0  0  0  0  0  0  0  0  0  0  0
   -3.3986   -0.1823   -1.0327 C   0  0  0  0  0  0  0  0  0  0  0  0
   -3.3205   -0.9642    0.2634 C   0  0  0  0  0  0  0  0  0  0  0  0
   -4.5399    0.7583   -1.1968 C   0  0  0  0  0  0  0  0  0  0  0  0
   -4.2344    2.0740   -1.5738 C   0  0  0  0  0  0  0  0  0  0  0  0
   -5.2554    3.0070   -1.7353 C   0  0  0  0  0  0  0  0  0  0  0  0
   -6.5789    2.6246   -1.5279 C   0  0  0  0  0  0  0  0  0  0  0  0
   -6.8875    1.3078   -1.1652 C   0  0  0  0  0  0  0  0  0  0  0  0
   -5.8727    0.3582   -0.9990 C   0  0  0  0  0  0  0  0  0  0  0  0
   -6.0874   -0.9575   -0.6834 O   0  0  0  0  0  0  0  0  0  0  0  0
   -7.4222   -1.3605   -0.3961 C   0  0  0  0  0  0  0  0  0  0  0  0
    0.8897   -2.3772   -2.3303 N   0  0  0  0  0  0  0  0  0  0  0  0
    2.1036   -2.8956   -2.3505 N   0  0  0  0  0  0  0  0  0  0  0  0
    2.8802   -2.2570   -1.4240 N   0  0  0  0  0  0  0  0  0  0  0  0
    4.2485   -2.5898   -1.2558 C   0  0  0  0  0  0  0  0  0  0  0  0
    5.0268   -1.9206   -0.4049 N   0  0  0  0  0  0  0  0  0  0  0  0
    6.2761   -2.5222   -0.5394 O   0  0  0  0  0  0  0  0  0  0  0  0
    6.2438   -3.5473   -1.4794 N   0  0  0  0  0  0  0  0  0  0  0  0
    4.9856   -3.5917   -1.9152 C   0  0  0  0  0  0  0  0  0  0  0  0
    4.5320   -4.4662   -2.8335 N   0  0  0  0  0  0  0  0  0  0  0  0
    2.5581   -0.8951    1.6274 C   0  0  0  0  0  0  0  0  0  0  0  0
    2.9763   -0.0558    2.6635 C   0  0  0  0  0  0  0  0  0  0  0  0
    5.6090    4.7414    3.0452 H   0  0  0  0  0  0  0  0  0  0  0  0
    5.7313    3.2329    2.1135 H   0  0  0  0  0  0  0  0  0  0  0  0
    6.0838    3.2194    3.8363 H   0  0  0  0  0  0  0  0  0  0  0  0
    3.2906    3.8388    2.6742 H   0  0  0  0  0  0  0  0  0  0  0  0
    3.7363    3.8024    4.3647 H   0  0  0  0  0  0  0  0  0  0  0  0
    3.6903    2.7264    0.8332 H   0  0  0  0  0  0  0  0  0  0  0  0
    2.9501    1.2709   -0.9702 H   0  0  0  0  0  0  0  0  0  0  0  0
   -1.2048   -1.6323   -2.6502 H   0  0  0  0  0  0  0  0  0  0  0  0
   -2.3718   -0.7771    0.7691 H   0  0  0  0  0  0  0  0  0  0  0  0
   -4.1130   -0.6758    0.9593 H   0  0  0  0  0  0  0  0  0  0  0  0
   -3.4096   -2.0333    0.0484 H   0  0  0  0  0  0  0  0  0  0  0  0
   -3.1993    2.3692   -1.7329 H   0  0  0  0  0  0  0  0  0  0  0  0
   -5.0184    4.0284   -2.0221 H   0  0  0  0  0  0  0  0  0  0  0  0
   -7.3777    3.3515   -1.6566 H   0  0  0  0  0  0  0  0  0  0  0  0
   -7.9348    1.0565   -1.0304 H   0  0  0  0  0  0  0  0  0  0  0  0
   -7.3973   -2.4174   -0.1131 H   0  0  0  0  0  0  0  0  0  0  0  0
   -8.0616   -1.2672   -1.2810 H   0  0  0  0  0  0  0  0  0  0  0  0
   -7.8321   -0.8007    0.4515 H   0  0  0  0  0  0  0  0  0  0  0  0
    5.2016   -4.9996   -3.3784 H   0  0  0  0  0  0  0  0  0  0  0  0
    3.6251   -4.3411   -3.2804 H   0  0  0  0  0  0  0  0  0  0  0  0
    2.2385   -1.9065    1.8646 H   0  0  0  0  0  0  0  0  0  0  0  0
    2.9809   -0.4257    3.6861 H   0  0  0  0  0  0  0  0  0  0  0  0
  1  2  1  0
  2  3  1  0
  3  4  1  0
  4  5  2  0
  5  6  1  0
  6  7  2  0
  7  8  1  0
  8  9  2  0
  9 10  1  0
 10 11  2  0
 10 12  1  0
 12 13  1  0
 13 14  2  3
 14 15  1  0
 14 16  1  0
 16 17  2  0
 17 18  1  0
 18 19  2  0
 19 20  1  0
 20 21  2  0
 21 22  1  0
 22 23  1  0
  9 24  1  0
 24 25  2  0
 25 26  1  0
 26 27  1  0
 27 28  2  0
 28 29  1  0
 29 30  1  0
 30 31  2  0
 31 32  1  0
  7 33  1  0
 33 34  2  0
 34  4  1  0
 26  8  1  0
 31 27  1  0
 21 16  1  0
  1 35  1  0
  1 36  1  0
  1 37  1  0
  2 38  1  0
  2 39  1  0
  5 40  1  0
  6 41  1  0
 12 42  1  0
 15 43  1  0
 15 44  1  0
 15 45  1  0
 17 46  1  0
 18 47  1  0
 19 48  1  0
 20 49  1  0
 23 50  1  0
 23 51  1  0
 23 52  1  0
 32 53  1  0
 32 54  1  0
 33 55  1  0
 34 56  1  0
M  END
$$$$
