
     RDKit          3D

 39 41  0  0  0  0  0  0  0  0999 V2000
   -4.0697    0.4481    4.2708 C   0  0  0  0  0  0  0  0  0  0  0  0
   -3.7817   -0.8645    3.8054 O   0  0  0  0  0  0  0  0  0  0  0  0
   -3.0794   -0.9674    2.6364 C   0  0  0  0  0  0  0  0  0  0  0  0
   -2.6100    0.0984    1.8648 C   0  0  0  0  0  0  0  0  0  0  0  0
   -1.8998   -0.1468    0.6851 C   0  0  0  0  0  0  0  0  0  0  0  0
   -1.6517   -1.4631    0.2867 C   0  0  0  0  0  0  0  0  0  0  0  0
   -0.7593   -1.7778   -1.2145 S   0  0  0  0  0  6  0  0  0  0  0  0
   -0.7080   -0.5583   -1.9931 O   0  0  0  0  0  0  0  0  0  0  0  0
   -1.2891   -2.9986   -1.7858 O   0  0  0  0  0  0  0  0  0  0  0  0
    0.7906   -2.1607   -0.6488 N   0  0  0  0  0  0  0  0  0  0  0  0
    1.6444   -1.0834   -0.2865 C   0  0  0  0  0  0  0  0  0  0  0  0
    1.6440   -0.6188    1.0280 C   0  0  0  0  0  0  0  0  0  0  0  0
    2.4291    0.4803    1.3741 C   0  0  0  0  0  0  0  0  0  0  0  0
    3.1928    1.1164    0.3989 C   0  0  0  0  0  0  0  0  0  0  0  0
    3.9204    2.2050    0.7961 O   0  0  0  0  0  0  0  0  0  0  0  0
    3.1961    0.6631   -0.9266 C   0  0  0  0  0  0  0  0  0  0  0  0
    4.1636    1.4989   -2.1774 S   0  0  0  0  0  0  0  0  0  0  0  0
    2.9058    1.9021   -3.3169 C   0  0  0  0  0  0  0  0  0  0  0  0
    2.7314    1.2284   -4.4951 N   0  0  0  0  0  0  0  0  0  0  0  0
    1.6399    1.7702   -4.9824 C   0  0  0  0  0  0  0  0  0  0  0  0
    1.1895    2.7289   -4.1310 N   0  0  0  0  0  0  0  0  0  0  0  0
    1.9969    2.8495   -3.0648 N   0  0  0  0  0  0  0  0  0  0  0  0
    2.4216   -0.4555   -1.2602 C   0  0  0  0  0  0  0  0  0  0  0  0
   -2.1278   -2.5354    1.0422 C   0  0  0  0  0  0  0  0  0  0  0  0
   -2.8365   -2.2804    2.2176 C   0  0  0  0  0  0  0  0  0  0  0  0
   -4.6948    0.9924    3.5552 H   0  0  0  0  0  0  0  0  0  0  0  0
   -3.1496    0.9988    4.4923 H   0  0  0  0  0  0  0  0  0  0  0  0
   -4.6349    0.3556    5.2033 H   0  0  0  0  0  0  0  0  0  0  0  0
   -2.7801    1.1313    2.1515 H   0  0  0  0  0  0  0  0  0  0  0  0
   -1.5386    0.6908    0.0914 H   0  0  0  0  0  0  0  0  0  0  0  0
    1.1954   -2.9151   -1.2033 H   0  0  0  0  0  0  0  0  0  0  0  0
    1.0419   -1.1075    1.7894 H   0  0  0  0  0  0  0  0  0  0  0  0
    2.4377    0.8483    2.3964 H   0  0  0  0  0  0  0  0  0  0  0  0
    4.3220    2.5857   -0.0075 H   0  0  0  0  0  0  0  0  0  0  0  0
    1.1433    1.5136   -5.9073 H   0  0  0  0  0  0  0  0  0  0  0  0
    0.3673    3.3176   -4.2047 H   0  0  0  0  0  0  0  0  0  0  0  0
    2.3979   -0.8170   -2.2857 H   0  0  0  0  0  0  0  0  0  0  0  0
   -1.9531   -3.5616    0.7277 H   0  0  0  0  0  0  0  0  0  0  0  0
   -3.2077   -3.1113    2.8138 H   0  0  0  0  0  0  0  0  0  0  0  0
  1  2  1  0
  2  3  1  0
  3  4  2  0
  4  5  1  0
  5  6  2  0
  6  7  1  0
  7  8  2  0
  7  9  2  0
  7 10  1  0
 10 11  1  0
 11 12  2  0
 12 13  1  0
 13 14  2  0
 14 15  1  0
 14 16  1  0
 16 17  1  0
 17 18  1  0
 18 19  1  0
 19 20  2  0
 20 21  1  0
 21 22  1  0
 16 23  2  0
  6 24  1  0
 24 25  2  0
 25  3  1  0
 23 11  1  0
 22 18  2  0
  1 26  1  0
  1 27  1  0
  1 28  1  0
  4 29  1  0
  5 30  1  0
 10 31  1  0
 12 32  1  0
 13 33  1  0
 15 34  1  0
 20 35  1  0
 21 36  1  0
 23 37  1  0
 24 38  1  0
 25 39  1  0
M  END
$$$$
