
     RDKit          3D

 37 39  0  0  0  0  0  0  0  0999 V2000
    4.0903   -0.6403    1.1717 N   0  0  0  0  0  0  0  0  0  0  0  0
    3.5223    0.4094    0.3338 C   0  0  0  0  0  0  0  0  0  0  0  0
    2.1709    0.0151   -0.2611 C   0  0  0  0  0  0  0  0  0  0  0  0
    1.0804   -0.1742    0.8022 C   0  0  0  0  0  0  0  0  0  0  0  0
   -0.2430   -0.4467    0.1909 N   0  0  0  0  0  0  0  0  0  0  0  0
   -0.5964   -1.8166    0.0039 C   0  0  0  0  0  0  0  0  0  0  0  0
    0.3620   -2.8559    0.0449 C   0  0  0  0  0  0  0  0  0  0  0  0
    0.0266   -4.2017   -0.1502 C   0  0  0  0  0  0  0  0  0  0  0  0
   -1.2873   -4.5586   -0.3981 C   0  0  0  0  0  0  0  0  0  0  0  0
   -2.2580   -3.5656   -0.4520 C   0  0  0  0  0  0  0  0  0  0  0  0
   -1.9247   -2.2096   -0.2588 C   0  0  0  0  0  0  0  0  0  0  0  0
   -3.2891   -1.0740   -0.3315 S   0  0  0  0  0  0  0  0  0  0  0  0
   -2.4704    0.5021   -0.3231 C   0  0  0  0  0  0  0  0  0  0  0  0
   -3.3003    1.6125   -0.5731 C   0  0  0  0  0  0  0  0  0  0  0  0
   -2.7910    2.9067   -0.5761 C   0  0  0  0  0  0  0  0  0  0  0  0
   -1.4353    3.1121   -0.3355 C   0  0  0  0  0  0  0  0  0  0  0  0
   -0.8544    4.5041   -0.3184 C   0  0  0  0  0  0  0  0  0  0  0  0
    0.4260    4.5504   -0.7833 F   0  0  0  0  0  0  0  0  0  0  0  0
   -0.8129    5.0302    0.9366 F   0  0  0  0  0  0  0  0  0  0  0  0
   -1.5566    5.3921   -1.0752 F   0  0  0  0  0  0  0  0  0  0  0  0
   -0.6142    1.9962   -0.0741 C   0  0  0  0  0  0  0  0  0  0  0  0
   -1.0969    0.6665   -0.0559 C   0  0  0  0  0  0  0  0  0  0  0  0
    3.6064   -0.6831    2.0679 H   0  0  0  0  0  0  0  0  0  0  0  0
    5.0571   -0.4019    1.3977 H   0  0  0  0  0  0  0  0  0  0  0  0
    3.4324    1.3357    0.9119 H   0  0  0  0  0  0  0  0  0  0  0  0
    4.2187    0.6090   -0.4883 H   0  0  0  0  0  0  0  0  0  0  0  0
    1.8718    0.7937   -0.9725 H   0  0  0  0  0  0  0  0  0  0  0  0
    2.2888   -0.8937   -0.8624 H   0  0  0  0  0  0  0  0  0  0  0  0
    1.3533   -0.9702    1.5062 H   0  0  0  0  0  0  0  0  0  0  0  0
    1.0342    0.7053    1.4576 H   0  0  0  0  0  0  0  0  0  0  0  0
    1.4153   -2.6545    0.2144 H   0  0  0  0  0  0  0  0  0  0  0  0
    0.8017   -4.9630   -0.1118 H   0  0  0  0  0  0  0  0  0  0  0  0
   -1.5575   -5.5994   -0.5510 H   0  0  0  0  0  0  0  0  0  0  0  0
   -3.2892   -3.8542   -0.6465 H   0  0  0  0  0  0  0  0  0  0  0  0
   -4.3623    1.4687   -0.7670 H   0  0  0  0  0  0  0  0  0  0  0  0
   -3.4565    3.7459   -0.7709 H   0  0  0  0  0  0  0  0  0  0  0  0
    0.4378    2.2077    0.0973 H   0  0  0  0  0  0  0  0  0  0  0  0
  1  2  1  0
  2  3  1  0
  3  4  1  0
  4  5  1  0
  5  6  1  0
  6  7  2  0
  7  8  1  0
  8  9  2  0
  9 10  1  0
 10 11  2  0
 11 12  1  0
 12 13  1  0
 13 14  2  0
 14 15  1  0
 15 16  2  0
 16 17  1  0
 17 18  1  0
 17 19  1  0
 17 20  1  0
 16 21  1  0
 21 22  2  0
 22  5  1  0
 11  6  1  0
 22 13  1  0
  1 23  1  0
  1 24  1  0
  2 25  1  0
  2 26  1  0
  3 27  1  0
  3 28  1  0
  4 29  1  0
  4 30  1  0
  7 31  1  0
  8 32  1  0
  9 33  1  0
 10 34  1  0
 14 35  1  0
 15 36  1  0
 21 37  1  0
M  END
$$$$
