
     RDKit          3D

 58 62  0  0  0  0  0  0  0  0999 V2000
    9.0564    0.3211    1.6566 C   0  0  0  0  0  0  0  0  0  0  0  0
    8.2092   -0.1764    0.6282 O   0  0  0  0  0  0  0  0  0  0  0  0
    6.8619   -0.0185    0.8060 C   0  0  0  0  0  0  0  0  0  0  0  0
    6.2455    0.5819    1.9055 C   0  0  0  0  0  0  0  0  0  0  0  0
    4.8495    0.6799    1.9639 C   0  0  0  0  0  0  0  0  0  0  0  0
    4.0520    0.1838    0.9323 C   0  0  0  0  0  0  0  0  0  0  0  0
    2.6555    0.2981    1.0519 N   0  0  0  0  0  0  0  0  0  0  0  0
    1.8576   -0.1662    0.1203 C   0  0  0  0  0  0  0  0  0  0  0  0
    0.4847   -0.0577    0.3243 N   0  0  0  0  0  0  0  0  0  0  0  0
   -0.0153    0.8458    1.3777 C   0  0  0  0  0  0  0  0  0  0  0  0
   -1.5401    1.0383    1.2542 C   0  0  0  0  0  0  0  0  0  0  0  0
   -2.2935   -0.2174    1.4270 N   0  0  0  0  0  0  0  0  0  0  0  0
   -3.6685   -0.1427    0.9230 C   0  0  0  0  0  0  0  0  0  0  0  0
   -3.8455   -0.1557   -0.6082 C   0  0  0  0  0  0  0  0  0  0  0  0
   -5.2970    0.0310   -1.0078 C   0  0  0  0  0  0  0  0  0  0  0  0
   -6.1391   -1.0960   -1.0018 C   0  0  0  0  0  0  0  0  0  0  0  0
   -7.4858   -0.9865   -1.3447 C   0  0  0  0  0  0  0  0  0  0  0  0
   -8.0141    0.2497   -1.6976 C   0  0  0  0  0  0  0  0  0  0  0  0
   -7.1954    1.3787   -1.7057 C   0  0  0  0  0  0  0  0  0  0  0  0
   -5.8331    1.2923   -1.3583 C   0  0  0  0  0  0  0  0  0  0  0  0
   -4.9871    2.5479   -1.3929 C   0  0  0  0  0  0  0  0  0  0  0  0
   -5.7076    3.6872   -1.5985 F   0  0  0  0  0  0  0  0  0  0  0  0
   -4.0533    2.5201   -2.3844 F   0  0  0  0  0  0  0  0  0  0  0  0
   -4.2990    2.7569   -0.2355 F   0  0  0  0  0  0  0  0  0  0  0  0
   -1.5283   -1.3957    0.9904 C   0  0  0  0  0  0  0  0  0  0  0  0
   -0.4428   -1.1256   -0.0767 C   0  0  0  0  0  0  0  0  0  0  0  0
    2.4597   -0.7533   -1.0714 C   0  0  0  0  0  0  0  0  0  0  0  0
    1.9166   -1.2102   -2.2606 C   0  0  0  0  0  0  0  0  0  0  0  0
    2.9749   -1.6860   -3.0690 C   0  0  0  0  0  0  0  0  0  0  0  0
    4.1438   -1.4800   -2.3708 C   0  0  0  0  0  0  0  0  0  0  0  0
    3.8297   -0.8805   -1.1743 N   0  0  0  0  0  0  0  0  0  0  0  0
    4.6833   -0.4148   -0.1622 C   0  0  0  0  0  0  0  0  0  0  0  0
    6.0756   -0.5195   -0.2351 C   0  0  0  0  0  0  0  0  0  0  0  0
   10.0913    0.1199    1.3634 H   0  0  0  0  0  0  0  0  0  0  0  0
    8.9468    1.4049    1.7685 H   0  0  0  0  0  0  0  0  0  0  0  0
    8.8724   -0.1958    2.6042 H   0  0  0  0  0  0  0  0  0  0  0  0
    6.8163    0.9840    2.7356 H   0  0  0  0  0  0  0  0  0  0  0  0
    4.3750    1.1460    2.8237 H   0  0  0  0  0  0  0  0  0  0  0  0
    0.4648    1.8270    1.2807 H   0  0  0  0  0  0  0  0  0  0  0  0
    0.2350    0.4444    2.3678 H   0  0  0  0  0  0  0  0  0  0  0  0
   -1.8731    1.7561    2.0126 H   0  0  0  0  0  0  0  0  0  0  0  0
   -1.7410    1.4868    0.2741 H   0  0  0  0  0  0  0  0  0  0  0  0
   -4.2282   -0.9857    1.3503 H   0  0  0  0  0  0  0  0  0  0  0  0
   -4.1483    0.7500    1.3455 H   0  0  0  0  0  0  0  0  0  0  0  0
   -3.2261    0.6078   -1.0872 H   0  0  0  0  0  0  0  0  0  0  0  0
   -3.4943   -1.1092   -1.0227 H   0  0  0  0  0  0  0  0  0  0  0  0
   -5.7463   -2.0737   -0.7270 H   0  0  0  0  0  0  0  0  0  0  0  0
   -8.1224   -1.8678   -1.3361 H   0  0  0  0  0  0  0  0  0  0  0  0
   -9.0640    0.3363   -1.9668 H   0  0  0  0  0  0  0  0  0  0  0  0
   -7.6302    2.3378   -1.9866 H   0  0  0  0  0  0  0  0  0  0  0  0
   -1.0259   -1.7935    1.8824 H   0  0  0  0  0  0  0  0  0  0  0  0
   -2.1900   -2.2017    0.6509 H   0  0  0  0  0  0  0  0  0  0  0  0
    0.0959   -2.0657   -0.2418 H   0  0  0  0  0  0  0  0  0  0  0  0
   -0.9208   -0.8403   -1.0202 H   0  0  0  0  0  0  0  0  0  0  0  0
    0.8700   -1.2018   -2.5292 H   0  0  0  0  0  0  0  0  0  0  0  0
    2.8968   -2.1189   -4.0580 H   0  0  0  0  0  0  0  0  0  0  0  0
    5.1650   -1.6966   -2.6491 H   0  0  0  0  0  0  0  0  0  0  0  0
    6.5714   -0.9803   -1.0831 H   0  0  0  0  0  0  0  0  0  0  0  0
  1  2  1  0
  2  3  1  0
  3  4  2  0
  4  5  1  0
  5  6  2  0
  6  7  1  0
  7  8  2  0
  8  9  1  0
  9 10  1  0
 10 11  1  0
 11 12  1  0
 12 13  1  0
 13 14  1  0
 14 15  1  0
 15 16  2  0
 16 17  1  0
 17 18  2  0
 18 19  1  0
 19 20  2  0
 20 21  1  0
 21 22  1  0
 21 23  1  0
 21 24  1  0
 12 25  1  0
 25 26  1  0
  8 27  1  0
 27 28  2  0
 28 29  1  0
 29 30  2  0
 30 31  1  0
 31 32  1  0
 32 33  2  0
 33  3  1  0
 32  6  1  0
 26  9  1  0
 31 27  1  0
 20 15  1  0
  1 34  1  0
  1 35  1  0
  1 36  1  0
  4 37  1  0
  5 38  1  0
 10 39  1  0
 10 40  1  0
 11 41  1  0
 11 42  1  0
 13 43  1  0
 13 44  1  0
 14 45  1  0
 14 46  1  0
 16 47  1  0
 17 48  1  0
 18 49  1  0
 19 50  1  0
 25 51  1  0
 25 52  1  0
 26 53  1  0
 26 54  1  0
 28 55  1  0
 29 56  1  0
 30 57  1  0
 33 58  1  0
M  END
$$$$
