
     RDKit          3D

 70 75  0  0  0  0  0  0  0  0999 V2000
    2.2895    0.8521    0.2489 O   0  0  0  0  0  0  0  0  0  0  0  0
    1.9937   -0.2755    1.0884 C   0  0  0  0  0  0  0  0  0  0  0  0
    3.1802   -0.5210    2.0497 C   0  0  0  0  0  0  0  0  0  0  0  0
    4.2319   -1.3262    1.4321 N   0  0  0  0  0  0  0  0  0  0  0  0
    5.1312   -0.8589    0.5007 C   0  0  0  0  0  0  0  0  0  0  0  0
    4.9021    0.2720   -0.1110 N   0  0  0  0  0  0  0  0  0  0  0  0
    5.8153    0.7609   -1.0699 C   0  0  0  0  0  0  0  0  0  0  0  0
    5.5279    1.9725   -1.7016 C   0  0  0  0  0  0  0  0  0  0  0  0
    6.3955    2.4979   -2.6634 C   0  0  0  0  0  0  0  0  0  0  0  0
    7.5637    1.8136   -3.0022 C   0  0  0  0  0  0  0  0  0  0  0  0
    7.8719    0.6021   -2.3820 C   0  0  0  0  0  0  0  0  0  0  0  0
    6.9945    0.0881   -1.4230 C   0  0  0  0  0  0  0  0  0  0  0  0
    7.2237   -1.1259   -0.7556 N   0  0  0  0  0  0  0  0  0  0  0  0
    8.2709   -2.0087   -0.8731 C   0  0  0  0  0  0  0  0  0  0  0  0
    8.0445   -3.0627   -0.0143 C   0  0  0  0  0  0  0  0  0  0  0  0
    6.8191   -2.8109    0.6475 C   0  0  0  0  0  0  0  0  0  0  0  0
    6.3317   -1.6042    0.1781 C   0  0  0  0  0  0  0  0  0  0  0  0
    0.6975    0.0155    1.8880 C   0  0  0  0  0  0  0  0  0  0  0  0
   -0.5583   -0.1938    1.1330 N   0  0  0  0  0  0  0  0  0  0  0  0
   -0.6891    0.7375   -0.0080 C   0  0  0  0  0  0  0  0  0  0  0  0
   -2.0489    0.6070   -0.7387 C   0  0  0  0  0  0  0  0  0  0  0  0
   -3.1958    0.7562    0.1744 N   0  0  0  0  0  0  0  0  0  0  0  0
   -4.5041    0.7504   -0.5291 C   0  0  0  0  0  0  0  0  0  0  0  0
   -5.6305    1.4616    0.2552 C   0  0  0  0  0  0  0  0  0  0  0  0
   -6.9722    1.3611   -0.1643 C   0  0  0  0  0  0  0  0  0  0  0  0
   -7.9950    2.0390    0.5046 C   0  0  0  0  0  0  0  0  0  0  0  0
   -7.6970    2.8524    1.5930 C   0  0  0  0  0  0  0  0  0  0  0  0
   -6.3758    2.9988    2.0042 C   0  0  0  0  0  0  0  0  0  0  0  0
   -5.3529    2.3206    1.3347 C   0  0  0  0  0  0  0  0  0  0  0  0
   -4.8967   -0.6127   -1.1203 C   0  0  0  0  0  0  0  0  0  0  0  0
   -5.5144   -1.6118   -0.3461 C   0  0  0  0  0  0  0  0  0  0  0  0
   -5.8490   -2.8467   -0.9048 C   0  0  0  0  0  0  0  0  0  0  0  0
   -5.5739   -3.1034   -2.2461 C   0  0  0  0  0  0  0  0  0  0  0  0
   -4.9668   -2.1249   -3.0307 C   0  0  0  0  0  0  0  0  0  0  0  0
   -4.6311   -0.8895   -2.4735 C   0  0  0  0  0  0  0  0  0  0  0  0
   -3.0655   -0.2131    1.2740 C   0  0  0  0  0  0  0  0  0  0  0  0
   -1.7263   -0.0295    2.0244 C   0  0  0  0  0  0  0  0  0  0  0  0
    3.1963    0.6913   -0.0953 H   0  0  0  0  0  0  0  0  0  0  0  0
    1.8450   -1.1517    0.4454 H   0  0  0  0  0  0  0  0  0  0  0  0
    3.6010    0.4268    2.4059 H   0  0  0  0  0  0  0  0  0  0  0  0
    2.8373   -1.0793    2.9277 H   0  0  0  0  0  0  0  0  0  0  0  0
    4.5602   -2.0926    2.0063 H   0  0  0  0  0  0  0  0  0  0  0  0
    4.6188    2.5100   -1.4426 H   0  0  0  0  0  0  0  0  0  0  0  0
    6.1566    3.4418   -3.1480 H   0  0  0  0  0  0  0  0  0  0  0  0
    8.2343    2.2260   -3.7531 H   0  0  0  0  0  0  0  0  0  0  0  0
    8.7847    0.0877   -2.6628 H   0  0  0  0  0  0  0  0  0  0  0  0
    9.0923   -1.8305   -1.5514 H   0  0  0  0  0  0  0  0  0  0  0  0
    8.6925   -3.9204    0.1172 H   0  0  0  0  0  0  0  0  0  0  0  0
    6.3484   -3.4481    1.3837 H   0  0  0  0  0  0  0  0  0  0  0  0
    0.6688   -0.6707    2.7429 H   0  0  0  0  0  0  0  0  0  0  0  0
    0.7328    1.0382    2.2854 H   0  0  0  0  0  0  0  0  0  0  0  0
    0.0857    0.5297   -0.7527 H   0  0  0  0  0  0  0  0  0  0  0  0
   -0.5647    1.7754    0.3288 H   0  0  0  0  0  0  0  0  0  0  0  0
   -2.0754   -0.3659   -1.2455 H   0  0  0  0  0  0  0  0  0  0  0  0
   -2.0868    1.3829   -1.5129 H   0  0  0  0  0  0  0  0  0  0  0  0
   -4.3847    1.4331   -1.3852 H   0  0  0  0  0  0  0  0  0  0  0  0
   -7.2369    0.7518   -1.0265 H   0  0  0  0  0  0  0  0  0  0  0  0
   -9.0226    1.9364    0.1666 H   0  0  0  0  0  0  0  0  0  0  0  0
   -8.4915    3.3824    2.1104 H   0  0  0  0  0  0  0  0  0  0  0  0
   -6.1346    3.6502    2.8398 H   0  0  0  0  0  0  0  0  0  0  0  0
   -4.3271    2.4776    1.6619 H   0  0  0  0  0  0  0  0  0  0  0  0
   -5.7388   -1.4292    0.7030 H   0  0  0  0  0  0  0  0  0  0  0  0
   -6.3224   -3.6081   -0.2901 H   0  0  0  0  0  0  0  0  0  0  0  0
   -5.8301   -4.0662   -2.6797 H   0  0  0  0  0  0  0  0  0  0  0  0
   -4.7496   -2.3245   -4.0766 H   0  0  0  0  0  0  0  0  0  0  0  0
   -4.1527   -0.1405   -3.1020 H   0  0  0  0  0  0  0  0  0  0  0  0
   -3.1071   -1.2451    0.9053 H   0  0  0  0  0  0  0  0  0  0  0  0
   -3.8767   -0.0880    1.9997 H   0  0  0  0  0  0  0  0  0  0  0  0
   -1.6821   -0.7797    2.8236 H   0  0  0  0  0  0  0  0  0  0  0  0
   -1.7125    0.9596    2.5028 H   0  0  0  0  0  0  0  0  0  0  0  0
  1  2  1  0
  2  3  1  0
  3  4  1  0
  4  5  1  0
  5  6  2  0
  6  7  1  0
  7  8  2  0
  8  9  1  0
  9 10  2  0
 10 11  1  0
 11 12  2  0
 12 13  1  0
 13 14  1  0
 14 15  2  0
 15 16  1  0
 16 17  2  0
  2 18  1  0
 18 19  1  0
 19 20  1  0
 20 21  1  0
 21 22  1  0
 22 23  1  0
 23 24  1  0
 24 25  2  0
 25 26  1  0
 26 27  2  0
 27 28  1  0
 28 29  2  0
 23 30  1  0
 30 31  2  0
 31 32  1  0
 32 33  2  0
 33 34  1  0
 34 35  2  0
 22 36  1  0
 36 37  1  0
 17  5  1  0
 37 19  1  0
 12  7  1  0
 17 13  1  0
 29 24  1  0
 35 30  1  0
  1 38  1  0
  2 39  1  0
  3 40  1  0
  3 41  1  0
  4 42  1  0
  8 43  1  0
  9 44  1  0
 10 45  1  0
 11 46  1  0
 14 47  1  0
 15 48  1  0
 16 49  1  0
 18 50  1  0
 18 51  1  0
 20 52  1  0
 20 53  1  0
 21 54  1  0
 21 55  1  0
 23 56  1  0
 25 57  1  0
 26 58  1  0
 27 59  1  0
 28 60  1  0
 29 61  1  0
 31 62  1  0
 32 63  1  0
 33 64  1  0
 34 65  1  0
 35 66  1  0
 36 67  1  0
 36 68  1  0
 37 69  1  0
 37 70  1  0
M  END
$$$$
