
     RDKit          3D

 34 35  0  0  0  0  0  0  0  0999 V2000
   -3.3905   -1.2616    1.9523 C   0  0  0  0  0  0  0  0  0  0  0  0
   -3.2542   -0.2376    0.8572 C   0  0  0  0  0  0  0  0  0  0  0  0
   -4.1490    0.8470    0.8385 C   0  0  0  0  0  0  0  0  0  0  0  0
   -4.0674    1.8241   -0.1514 C   0  0  0  0  0  0  0  0  0  0  0  0
   -3.1009    1.7210   -1.1443 C   0  0  0  0  0  0  0  0  0  0  0  0
   -2.2076    0.6474   -1.1410 C   0  0  0  0  0  0  0  0  0  0  0  0
   -2.2565   -0.3281   -0.1362 C   0  0  0  0  0  0  0  0  0  0  0  0
   -1.3841   -1.4406   -0.1256 N   0  0  0  0  0  0  0  0  0  0  0  0
   -0.1811   -1.6617   -0.7378 C   0  0  0  0  0  0  0  0  0  0  0  0
    0.3215   -3.2506   -0.8776 S   0  0  0  0  0  0  0  0  0  0  0  0
    0.5191   -0.5612   -1.1334 N   0  0  0  0  0  0  0  0  0  0  0  0
    1.8469   -0.5150   -1.7263 C   0  0  0  0  0  0  0  0  0  0  0  0
    2.8652   -0.0337   -0.7244 C   0  0  0  0  0  0  0  0  0  0  0  0
    3.1240    1.3370   -0.5744 C   0  0  0  0  0  0  0  0  0  0  0  0
    4.0497    1.7840    0.3700 C   0  0  0  0  0  0  0  0  0  0  0  0
    4.7202    0.8678    1.1780 C   0  0  0  0  0  0  0  0  0  0  0  0
    4.4641   -0.4954    1.0448 C   0  0  0  0  0  0  0  0  0  0  0  0
    3.5392   -0.9444    0.1008 C   0  0  0  0  0  0  0  0  0  0  0  0
   -4.1387   -0.9619    2.6940 H   0  0  0  0  0  0  0  0  0  0  0  0
   -3.7041   -2.2232    1.5338 H   0  0  0  0  0  0  0  0  0  0  0  0
   -2.4405   -1.3836    2.4828 H   0  0  0  0  0  0  0  0  0  0  0  0
   -4.9202    0.9366    1.6010 H   0  0  0  0  0  0  0  0  0  0  0  0
   -4.7673    2.6557   -0.1549 H   0  0  0  0  0  0  0  0  0  0  0  0
   -3.0522    2.4647   -1.9355 H   0  0  0  0  0  0  0  0  0  0  0  0
   -1.5149    0.5662   -1.9734 H   0  0  0  0  0  0  0  0  0  0  0  0
   -1.7192   -2.2601    0.3678 H   0  0  0  0  0  0  0  0  0  0  0  0
    0.2455    0.2911   -0.6632 H   0  0  0  0  0  0  0  0  0  0  0  0
    2.1418   -1.4803   -2.1477 H   0  0  0  0  0  0  0  0  0  0  0  0
    1.7927    0.1899   -2.5641 H   0  0  0  0  0  0  0  0  0  0  0  0
    2.6058    2.0655   -1.1938 H   0  0  0  0  0  0  0  0  0  0  0  0
    4.2466    2.8475    0.4772 H   0  0  0  0  0  0  0  0  0  0  0  0
    5.4399    1.2158    1.9142 H   0  0  0  0  0  0  0  0  0  0  0  0
    4.9819   -1.2109    1.6783 H   0  0  0  0  0  0  0  0  0  0  0  0
    3.3444   -2.0114    0.0143 H   0  0  0  0  0  0  0  0  0  0  0  0
  1  2  1  0
  2  3  2  0
  3  4  1  0
  4  5  2  0
  5  6  1  0
  6  7  2  0
  7  8  1  0
  8  9  1  0
  9 10  2  0
  9 11  1  0
 11 12  1  0
 12 13  1  0
 13 14  2  0
 14 15  1  0
 15 16  2  0
 16 17  1  0
 17 18  2  0
  7  2  1  0
 18 13  1  0
  1 19  1  0
  1 20  1  0
  1 21  1  0
  3 22  1  0
  4 23  1  0
  5 24  1  0
  6 25  1  0
  8 26  1  0
 11 27  1  0
 12 28  1  0
 12 29  1  0
 14 30  1  0
 15 31  1  0
 16 32  1  0
 17 33  1  0
 18 34  1  0
M  END
$$$$
