
     RDKit          3D

 84 86  0  0  0  0  0  0  0  0999 V2000
   -4.1562    3.8159    0.3429 C   0  0  0  0  0  0  0  0  0  0  0  0
   -2.6771    3.6487    0.5078 C   0  0  0  0  0  0  0  0  0  0  0  0
   -1.8477    4.4878    0.1893 O   0  0  0  0  0  0  0  0  0  0  0  0
   -2.4100    2.4392    1.0728 O   0  0  0  0  0  0  0  0  0  0  0  0
   -1.0215    2.1049    1.2419 C   0  0  1  0  0  0  0  0  0  0  0  0
   -0.5875    2.2515    2.7061 C   0  0  1  0  0  0  0  0  0  0  0  0
   -1.2129    3.4196    3.4608 C   0  0  0  0  0  0  0  0  0  0  0  0
   -0.8964    0.8905    3.3725 C   0  0  0  0  0  0  0  0  0  0  0  0
   -1.3800   -0.0880    2.2528 C   0  0  2  0  0  0  0  0  0  0  0  0
   -2.8190   -0.0263    2.1761 O   0  0  0  0  0  0  0  0  0  0  0  0
   -3.5482   -0.4707    3.2329 C   0  0  0  0  0  0  0  0  0  0  0  0
   -5.0041   -0.2092    2.9939 C   0  0  0  0  0  0  0  0  0  0  0  0
   -3.0976   -1.0216    4.2245 O   0  0  0  0  0  0  0  0  0  0  0  0
   -0.7578   -1.5147    2.4138 C   0  0  0  0  0  0  0  0  0  0  0  0
    0.1265   -1.7413    3.2443 O   0  0  0  0  0  0  0  0  0  0  0  0
   -1.1845   -2.6369    1.4967 C   0  0  0  0  0  0  0  0  0  0  0  0
   -2.6517   -2.9023    1.3314 C   0  0  0  0  0  0  0  0  0  0  0  0
   -0.2850   -3.4695    0.9300 C   0  0  0  0  0  0  0  0  0  0  0  0
    1.2227   -3.4389    0.9942 C   0  0  0  0  0  0  0  0  0  0  0  0
    1.9436   -3.5715   -0.3879 C   0  0  0  0  0  0  0  0  0  0  0  0
    3.4620   -3.4120   -0.1482 C   0  0  0  0  0  0  0  0  0  0  0  0
    1.7265   -4.9957   -0.9536 C   0  0  0  0  0  0  0  0  0  0  0  0
    1.4191   -2.5121   -1.4173 C   0  0  2  0  0  0  0  0  0  0  0  0
    2.1156   -2.6755   -2.6788 O   0  0  0  0  0  0  0  0  0  0  0  0
    1.4222   -3.1940   -3.7271 C   0  0  0  0  0  0  0  0  0  0  0  0
    2.2979   -3.2447   -4.9413 C   0  0  0  0  0  0  0  0  0  0  0  0
    0.2610   -3.5757   -3.6974 O   0  0  0  0  0  0  0  0  0  0  0  0
    1.6689   -1.0585   -0.9847 C   0  0  0  0  0  0  0  0  0  0  0  0
    0.8206   -0.0318   -1.7578 C   0  0  2  0  0  0  0  0  0  0  0  0
    1.2666    1.2923   -1.3889 O   0  0  0  0  0  0  0  0  0  0  0  0
    2.2451    1.8130   -2.1730 C   0  0  0  0  0  0  0  0  0  0  0  0
    2.7386    1.2842   -3.1572 O   0  0  0  0  0  0  0  0  0  0  0  0
    2.6511    3.1565   -1.6913 C   0  0  0  0  0  0  0  0  0  0  0  0
    2.4379    3.5724   -0.3720 C   0  0  0  0  0  0  0  0  0  0  0  0
    2.8528    4.8424    0.0361 C   0  0  0  0  0  0  0  0  0  0  0  0
    3.4869    5.6957   -0.8668 C   0  0  0  0  0  0  0  0  0  0  0  0
    3.7129    5.2815   -2.1789 C   0  0  0  0  0  0  0  0  0  0  0  0
    3.2992    4.0138   -2.5910 C   0  0  0  0  0  0  0  0  0  0  0  0
   -0.6834   -0.1081   -1.5007 C   0  0  0  0  0  0  0  0  0  0  0  0
   -1.4894   -0.4651   -2.7308 C   0  0  0  0  0  0  0  0  0  0  0  0
   -1.3415    0.1609   -0.3516 C   0  0  0  0  0  0  0  0  0  0  0  0
   -0.7824    0.6012    0.9822 C   0  0  1  0  0  0  0  0  0  0  0  0
   -4.3627    4.7775   -0.1387 H   0  0  0  0  0  0  0  0  0  0  0  0
   -4.6408    3.8003    1.3225 H   0  0  0  0  0  0  0  0  0  0  0  0
   -4.5493    3.0183   -0.2926 H   0  0  0  0  0  0  0  0  0  0  0  0
   -0.3880    2.7058    0.5794 H   0  0  0  0  0  0  0  0  0  0  0  0
    0.5048    2.3846    2.7225 H   0  0  0  0  0  0  0  0  0  0  0  0
   -0.8090    3.4758    4.4774 H   0  0  0  0  0  0  0  0  0  0  0  0
   -2.3010    3.3137    3.5418 H   0  0  0  0  0  0  0  0  0  0  0  0
   -0.9932    4.3686    2.9596 H   0  0  0  0  0  0  0  0  0  0  0  0
    0.0260    0.5437    3.8561 H   0  0  0  0  0  0  0  0  0  0  0  0
   -1.6378    1.0117    4.1703 H   0  0  0  0  0  0  0  0  0  0  0  0
   -5.1631    0.8524    2.7860 H   0  0  0  0  0  0  0  0  0  0  0  0
   -5.5714   -0.4704    3.8916 H   0  0  0  0  0  0  0  0  0  0  0  0
   -5.3579   -0.8211    2.1604 H   0  0  0  0  0  0  0  0  0  0  0  0
   -3.1350   -2.1146    0.7474 H   0  0  0  0  0  0  0  0  0  0  0  0
   -3.1402   -2.9919    2.3061 H   0  0  0  0  0  0  0  0  0  0  0  0
   -2.8426   -3.8451    0.8044 H   0  0  0  0  0  0  0  0  0  0  0  0
   -0.6813   -4.3072    0.3565 H   0  0  0  0  0  0  0  0  0  0  0  0
    1.5769   -2.5333    1.4940 H   0  0  0  0  0  0  0  0  0  0  0  0
    1.5366   -4.2704    1.6398 H   0  0  0  0  0  0  0  0  0  0  0  0
    3.8317   -4.1864    0.5335 H   0  0  0  0  0  0  0  0  0  0  0  0
    4.0291   -3.4985   -1.0808 H   0  0  0  0  0  0  0  0  0  0  0  0
    3.7029   -2.4435    0.3026 H   0  0  0  0  0  0  0  0  0  0  0  0
    2.3609   -5.1833   -1.8271 H   0  0  0  0  0  0  0  0  0  0  0  0
    0.6892   -5.1565   -1.2626 H   0  0  0  0  0  0  0  0  0  0  0  0
    1.9738   -5.7586   -0.2070 H   0  0  0  0  0  0  0  0  0  0  0  0
    0.3438   -2.6668   -1.5557 H   0  0  0  0  0  0  0  0  0  0  0  0
    2.6936   -2.2490   -5.1573 H   0  0  0  0  0  0  0  0  0  0  0  0
    3.1122   -3.9551   -4.7799 H   0  0  0  0  0  0  0  0  0  0  0  0
    1.7068   -3.5721   -5.8012 H   0  0  0  0  0  0  0  0  0  0  0  0
    1.5099   -0.9301    0.0856 H   0  0  0  0  0  0  0  0  0  0  0  0
    2.7267   -0.8088   -1.1465 H   0  0  0  0  0  0  0  0  0  0  0  0
    0.9820   -0.1831   -2.8329 H   0  0  0  0  0  0  0  0  0  0  0  0
    1.9624    2.9155    0.3492 H   0  0  0  0  0  0  0  0  0  0  0  0
    2.6818    5.1670    1.0602 H   0  0  0  0  0  0  0  0  0  0  0  0
    3.8068    6.6849   -0.5469 H   0  0  0  0  0  0  0  0  0  0  0  0
    4.2124    5.9443   -2.8810 H   0  0  0  0  0  0  0  0  0  0  0  0
    3.4812    3.6979   -3.6168 H   0  0  0  0  0  0  0  0  0  0  0  0
   -1.1870   -1.4438   -3.1177 H   0  0  0  0  0  0  0  0  0  0  0  0
   -2.5645   -0.5168   -2.5255 H   0  0  0  0  0  0  0  0  0  0  0  0
   -1.3407    0.2887   -3.5106 H   0  0  0  0  0  0  0  0  0  0  0  0
   -2.4309    0.1035   -0.3713 H   0  0  0  0  0  0  0  0  0  0  0  0
    0.3010    0.4440    0.9983 H   0  0  0  0  0  0  0  0  0  0  0  0
  1  2  1  0
  2  3  2  0
  2  4  1  0
  4  5  1  0
  5  6  1  0
  6  7  1  0
  6  8  1  0
  8  9  1  0
  9 10  1  6
 10 11  1  0
 11 12  1  0
 11 13  2  0
  9 14  1  0
 14 15  2  0
 14 16  1  0
 16 17  1  0
 16 18  2  3
 18 19  1  0
 19 20  1  0
 20 21  1  0
 20 22  1  0
 20 23  1  0
 23 24  1  0
 24 25  1  0
 25 26  1  0
 25 27  2  0
 23 28  1  0
 28 29  1  0
 29 30  1  0
 30 31  1  0
 31 32  2  0
 31 33  1  0
 33 34  2  0
 34 35  1  0
 35 36  2  0
 36 37  1  0
 37 38  2  0
 29 39  1  0
 39 40  1  0
 39 41  2  0
 41 42  1  0
 42  5  1  0
 42  9  1  0
 38 33  1  0
  1 43  1  0
  1 44  1  0
  1 45  1  0
  5 46  1  6
  6 47  1  6
  7 48  1  0
  7 49  1  0
  7 50  1  0
  8 51  1  0
  8 52  1  0
 12 53  1  0
 12 54  1  0
 12 55  1  0
 17 56  1  0
 17 57  1  0
 17 58  1  0
 18 59  1  0
 19 60  1  0
 19 61  1  0
 21 62  1  0
 21 63  1  0
 21 64  1  0
 22 65  1  0
 22 66  1  0
 22 67  1  0
 23 68  1  6
 26 69  1  0
 26 70  1  0
 26 71  1  0
 28 72  1  0
 28 73  1  0
 29 74  1  6
 34 75  1  0
 35 76  1  0
 36 77  1  0
 37 78  1  0
 38 79  1  0
 40 80  1  0
 40 81  1  0
 40 82  1  0
 41 83  1  0
 42 84  1  6
M  END
$$$$
