
     RDKit          3D

 53 56  0  0  0  0  0  0  0  0999 V2000
   -5.5684   -2.5530    1.7078 C   0  0  0  0  0  0  0  0  0  0  0  0
   -6.7905   -2.1763    1.0864 O   0  0  0  0  0  0  0  0  0  0  0  0
   -6.7529   -1.1355    0.1996 C   0  0  0  0  0  0  0  0  0  0  0  0
   -7.9873   -0.8218   -0.3743 C   0  0  0  0  0  0  0  0  0  0  0  0
   -8.0991    0.2169   -1.2961 C   0  0  0  0  0  0  0  0  0  0  0  0
   -6.9692    0.9512   -1.6501 C   0  0  0  0  0  0  0  0  0  0  0  0
   -5.7220    0.6507   -1.0840 C   0  0  0  0  0  0  0  0  0  0  0  0
   -4.5426    1.4741   -1.5022 C   0  0  0  0  0  0  0  0  0  0  0  0
   -4.7093    2.3767   -2.3216 O   0  0  0  0  0  0  0  0  0  0  0  0
   -3.1821    1.1529   -0.8878 C   0  0  0  0  0  0  0  0  0  0  0  0
   -2.1817    2.0274   -1.3963 O   0  0  0  0  0  0  0  0  0  0  0  0
   -0.9072    1.8520   -0.9387 C   0  0  0  0  0  0  0  0  0  0  0  0
    0.0348    2.7258   -1.4817 C   0  0  0  0  0  0  0  0  0  0  0  0
    1.3829    2.6591   -1.1032 C   0  0  0  0  0  0  0  0  0  0  0  0
    1.8223    1.7142   -0.1671 C   0  0  0  0  0  0  0  0  0  0  0  0
    3.2271    1.5741    0.2703 C   0  0  0  0  0  0  0  0  0  0  0  0
    4.2260    2.5160   -0.3540 C   0  0  0  0  0  0  0  0  0  0  0  0
    3.5429    0.6179    1.1747 C   0  0  0  0  0  0  0  0  0  0  0  0
    4.9339    0.3363    1.7088 C   0  0  0  0  0  0  0  0  0  0  0  0
    5.6368   -0.7923    0.9820 C   0  0  0  0  0  0  0  0  0  0  0  0
    5.5401   -2.1098    1.4535 C   0  0  0  0  0  0  0  0  0  0  0  0
    6.1718   -3.1562    0.7790 C   0  0  0  0  0  0  0  0  0  0  0  0
    6.9072   -2.8992   -0.3753 C   0  0  0  0  0  0  0  0  0  0  0  0
    7.0112   -1.5959   -0.8558 C   0  0  0  0  0  0  0  0  0  0  0  0
    6.3793   -0.5483   -0.1824 C   0  0  0  0  0  0  0  0  0  0  0  0
    2.4902   -0.2439    1.7888 C   0  0  0  0  0  0  0  0  0  0  0  0
    2.7355   -1.0350    2.6941 O   0  0  0  0  0  0  0  0  0  0  0  0
    1.1984   -0.1149    1.3110 O   0  0  0  0  0  0  0  0  0  0  0  0
    0.8613    0.8574    0.3590 C   0  0  0  0  0  0  0  0  0  0  0  0
   -0.4888    0.9086   -0.0084 C   0  0  0  0  0  0  0  0  0  0  0  0
   -5.6192   -0.3983   -0.1556 C   0  0  0  0  0  0  0  0  0  0  0  0
   -4.8375   -2.8923    0.9664 H   0  0  0  0  0  0  0  0  0  0  0  0
   -5.1661   -1.7348    2.3142 H   0  0  0  0  0  0  0  0  0  0  0  0
   -5.7782   -3.3925    2.3776 H   0  0  0  0  0  0  0  0  0  0  0  0
   -8.8706   -1.3942   -0.0991 H   0  0  0  0  0  0  0  0  0  0  0  0
   -9.0640    0.4534   -1.7375 H   0  0  0  0  0  0  0  0  0  0  0  0
   -7.0670    1.7612   -2.3716 H   0  0  0  0  0  0  0  0  0  0  0  0
   -3.2647    1.2875    0.1968 H   0  0  0  0  0  0  0  0  0  0  0  0
   -2.9302    0.1197   -1.1530 H   0  0  0  0  0  0  0  0  0  0  0  0
   -0.2822    3.4687   -2.2117 H   0  0  0  0  0  0  0  0  0  0  0  0
    2.0676    3.3646   -1.5659 H   0  0  0  0  0  0  0  0  0  0  0  0
    5.2453    2.3902    0.0132 H   0  0  0  0  0  0  0  0  0  0  0  0
    4.2657    2.3702   -1.4392 H   0  0  0  0  0  0  0  0  0  0  0  0
    3.9550    3.5570   -0.1452 H   0  0  0  0  0  0  0  0  0  0  0  0
    4.8956    0.1091    2.7828 H   0  0  0  0  0  0  0  0  0  0  0  0
    5.5686    1.2287    1.6756 H   0  0  0  0  0  0  0  0  0  0  0  0
    4.9675   -2.3323    2.3526 H   0  0  0  0  0  0  0  0  0  0  0  0
    6.0867   -4.1720    1.1561 H   0  0  0  0  0  0  0  0  0  0  0  0
    7.3983   -3.7144   -0.8999 H   0  0  0  0  0  0  0  0  0  0  0  0
    7.5852   -1.3946   -1.7565 H   0  0  0  0  0  0  0  0  0  0  0  0
    6.4777    0.4594   -0.5759 H   0  0  0  0  0  0  0  0  0  0  0  0
   -1.1718    0.2042    0.4514 H   0  0  0  0  0  0  0  0  0  0  0  0
   -4.6624   -0.6404    0.2886 H   0  0  0  0  0  0  0  0  0  0  0  0
  1  2  1  0
  2  3  1  0
  3  4  2  0
  4  5  1  0
  5  6  2  0
  6  7  1  0
  7  8  1  0
  8  9  2  0
  8 10  1  0
 10 11  1  0
 11 12  1  0
 12 13  2  0
 13 14  1  0
 14 15  2  0
 15 16  1  0
 16 17  1  0
 16 18  2  0
 18 19  1  0
 19 20  1  0
 20 21  2  0
 21 22  1  0
 22 23  2  0
 23 24  1  0
 24 25  2  0
 18 26  1  0
 26 27  2  0
 26 28  1  0
 28 29  1  0
 29 30  2  0
  7 31  2  0
 31  3  1  0
 30 12  1  0
 29 15  1  0
 25 20  1  0
  1 32  1  0
  1 33  1  0
  1 34  1  0
  4 35  1  0
  5 36  1  0
  6 37  1  0
 10 38  1  0
 10 39  1  0
 13 40  1  0
 14 41  1  0
 17 42  1  0
 17 43  1  0
 17 44  1  0
 19 45  1  0
 19 46  1  0
 21 47  1  0
 22 48  1  0
 23 49  1  0
 24 50  1  0
 25 51  1  0
 30 52  1  0
 31 53  1  0
M  END
$$$$
