
     RDKit          3D

 33 34  0  0  0  0  0  0  0  0999 V2000
   -5.7676   -0.6968   -0.5920 C   0  0  0  0  0  0  0  0  0  0  0  0
   -5.2697    0.7099   -0.3092 C   0  0  0  0  0  0  0  0  0  0  0  0
   -4.1362    0.6816    0.5569 O   0  0  0  0  0  0  0  0  0  0  0  0
   -2.8879    0.5971    0.0090 C   0  0  0  0  0  0  0  0  0  0  0  0
   -2.5853    0.3973   -1.3371 C   0  0  0  0  0  0  0  0  0  0  0  0
   -1.2508    0.3258   -1.7552 C   0  0  0  0  0  0  0  0  0  0  0  0
   -0.2071    0.4416   -0.8295 C   0  0  0  0  0  0  0  0  0  0  0  0
    1.1949    0.3593   -1.3268 C   0  0  0  0  0  0  0  0  0  0  0  0
    1.4518    0.6062   -2.4999 O   0  0  0  0  0  0  0  0  0  0  0  0
    2.1467   -0.0356   -0.4146 N   0  0  0  0  0  0  0  0  0  0  0  0
    3.4998   -0.2986   -0.8455 C   0  0  0  0  0  0  0  0  0  0  0  0
    4.3553   -0.4531    0.3550 C   0  0  0  0  0  0  0  0  0  0  0  0
    5.4429    0.2430    0.8405 C   0  0  0  0  0  0  0  0  0  0  0  0
    5.8216   -0.3961    2.0456 C   0  0  0  0  0  0  0  0  0  0  0  0
    4.9421   -1.4383    2.2204 C   0  0  0  0  0  0  0  0  0  0  0  0
    4.0454   -1.4805    1.2016 O   0  0  0  0  0  0  0  0  0  0  0  0
   -0.5089    0.6516    0.5196 C   0  0  0  0  0  0  0  0  0  0  0  0
   -1.8436    0.7220    0.9307 C   0  0  0  0  0  0  0  0  0  0  0  0
   -5.0157   -1.2892   -1.1217 H   0  0  0  0  0  0  0  0  0  0  0  0
   -6.6786   -0.6699   -1.1966 H   0  0  0  0  0  0  0  0  0  0  0  0
   -5.9824   -1.2223    0.3444 H   0  0  0  0  0  0  0  0  0  0  0  0
   -6.0558    1.2520    0.2289 H   0  0  0  0  0  0  0  0  0  0  0  0
   -5.0859    1.2816   -1.2254 H   0  0  0  0  0  0  0  0  0  0  0  0
   -3.3569    0.2867   -2.0913 H   0  0  0  0  0  0  0  0  0  0  0  0
   -1.0279    0.1740   -2.8100 H   0  0  0  0  0  0  0  0  0  0  0  0
    1.8516   -0.5048    0.4315 H   0  0  0  0  0  0  0  0  0  0  0  0
    3.4985   -1.2169   -1.4421 H   0  0  0  0  0  0  0  0  0  0  0  0
    3.8463    0.5242   -1.4797 H   0  0  0  0  0  0  0  0  0  0  0  0
    5.9029    1.1063    0.3794 H   0  0  0  0  0  0  0  0  0  0  0  0
    6.6351   -0.1308    2.7062 H   0  0  0  0  0  0  0  0  0  0  0  0
    4.8260   -2.2015    2.9773 H   0  0  0  0  0  0  0  0  0  0  0  0
    0.2735    0.7874    1.2603 H   0  0  0  0  0  0  0  0  0  0  0  0
   -2.0741    0.8867    1.9812 H   0  0  0  0  0  0  0  0  0  0  0  0
  1  2  1  0
  2  3  1  0
  3  4  1  0
  4  5  2  0
  5  6  1  0
  6  7  2  0
  7  8  1  0
  8  9  2  0
  8 10  1  0
 10 11  1  0
 11 12  1  0
 12 13  2  0
 13 14  1  0
 14 15  2  0
 15 16  1  0
  7 17  1  0
 17 18  2  0
 18  4  1  0
 16 12  1  0
  1 19  1  0
  1 20  1  0
  1 21  1  0
  2 22  1  0
  2 23  1  0
  5 24  1  0
  6 25  1  0
 10 26  1  0
 11 27  1  0
 11 28  1  0
 13 29  1  0
 14 30  1  0
 15 31  1  0
 17 32  1  0
 18 33  1  0
M  END
$$$$
