
     RDKit          3D

 37 38  0  0  0  0  0  0  0  0999 V2000
   -5.6448   -0.0463   -2.4553 C   0  0  0  0  0  0  0  0  0  0  0  0
   -5.0147   -0.5220   -1.2242 N   0  0  0  0  0  0  0  0  0  0  0  0
   -5.9073   -0.6641   -0.0745 C   0  0  0  0  0  0  0  0  0  0  0  0
   -3.6562   -0.2717   -1.0086 C   0  0  0  0  0  0  0  0  0  0  0  0
   -3.0484   -0.4694    0.2430 C   0  0  0  0  0  0  0  0  0  0  0  0
   -1.6796   -0.2433    0.4607 C   0  0  0  0  0  0  0  0  0  0  0  0
   -0.8536    0.1756   -0.5812 C   0  0  0  0  0  0  0  0  0  0  0  0
    0.5785    0.4471   -0.3961 C   0  0  0  0  0  0  0  0  0  0  0  0
    1.3868   -0.3330    0.3400 C   0  0  0  0  0  0  0  0  0  0  0  0
    2.8199   -0.0810    0.5290 C   0  0  0  0  0  0  0  0  0  0  0  0
    3.6385    0.3851   -0.4989 C   0  0  0  0  0  0  0  0  0  0  0  0
    4.9963    0.5760   -0.2680 C   0  0  0  0  0  0  0  0  0  0  0  0
    5.5347    0.3011    0.9407 N   0  0  0  0  0  4  0  0  0  0  0  0
    6.9733    0.5232    1.1647 C   0  0  0  0  0  0  0  0  0  0  0  0
    4.7634   -0.1585    1.9507 C   0  0  0  0  0  0  0  0  0  0  0  0
    3.4013   -0.3661    1.7634 C   0  0  0  0  0  0  0  0  0  0  0  0
   -1.4307    0.3853   -1.8323 C   0  0  0  0  0  0  0  0  0  0  0  0
   -2.8003    0.1544   -2.0385 C   0  0  0  0  0  0  0  0  0  0  0  0
   -6.7058   -0.3180   -2.4909 H   0  0  0  0  0  0  0  0  0  0  0  0
   -5.1881   -0.5071   -3.3377 H   0  0  0  0  0  0  0  0  0  0  0  0
   -5.5801    1.0446   -2.5336 H   0  0  0  0  0  0  0  0  0  0  0  0
   -5.9071    0.2444    0.5379 H   0  0  0  0  0  0  0  0  0  0  0  0
   -6.9401   -0.8484   -0.3913 H   0  0  0  0  0  0  0  0  0  0  0  0
   -5.6251   -1.5242    0.5420 H   0  0  0  0  0  0  0  0  0  0  0  0
   -3.6288   -0.8093    1.0957 H   0  0  0  0  0  0  0  0  0  0  0  0
   -1.2845   -0.3965    1.4612 H   0  0  0  0  0  0  0  0  0  0  0  0
    0.9474    1.3298   -0.9120 H   0  0  0  0  0  0  0  0  0  0  0  0
    0.9870   -1.2121    0.8436 H   0  0  0  0  0  0  0  0  0  0  0  0
    3.2323    0.5931   -1.4868 H   0  0  0  0  0  0  0  0  0  0  0  0
    5.6597    0.9448   -1.0453 H   0  0  0  0  0  0  0  0  0  0  0  0
    7.0953    1.5529    1.5097 H   0  0  0  0  0  0  0  0  0  0  0  0
    7.3331   -0.1846    1.9159 H   0  0  0  0  0  0  0  0  0  0  0  0
    7.5113    0.3596    0.2274 H   0  0  0  0  0  0  0  0  0  0  0  0
    5.2441   -0.3575    2.9044 H   0  0  0  0  0  0  0  0  0  0  0  0
    2.7980   -0.7403    2.5889 H   0  0  0  0  0  0  0  0  0  0  0  0
   -0.8285    0.7174   -2.6746 H   0  0  0  0  0  0  0  0  0  0  0  0
   -3.1770    0.3189   -3.0436 H   0  0  0  0  0  0  0  0  0  0  0  0
  1  2  1  0
  2  3  1  0
  2  4  1  0
  4  5  2  0
  5  6  1  0
  6  7  2  0
  7  8  1  0
  8  9  2  3
  9 10  1  0
 10 11  2  0
 11 12  1  0
 12 13  2  0
 13 14  1  0
 13 15  1  0
 15 16  2  0
  7 17  1  0
 17 18  2  0
 18  4  1  0
 16 10  1  0
  1 19  1  0
  1 20  1  0
  1 21  1  0
  3 22  1  0
  3 23  1  0
  3 24  1  0
  5 25  1  0
  6 26  1  0
  8 27  1  0
  9 28  1  0
 11 29  1  0
 12 30  1  0
 14 31  1  0
 14 32  1  0
 14 33  1  0
 15 34  1  0
 16 35  1  0
 17 36  1  0
 18 37  1  0
M  CHG  1  13   1
M  END
$$$$
