
     RDKit          3D

 37 39  0  0  0  0  0  0  0  0999 V2000
   -3.5163   -1.4395    2.1501 C   0  0  0  0  0  0  0  0  0  0  0  0
   -3.1833   -0.0032    1.7878 C   0  0  0  0  0  0  0  0  0  0  0  0
   -3.6851    0.3619    0.4739 N   0  0  0  0  0  0  0  0  0  0  0  0
   -4.8760    0.9977    0.3890 N   0  0  0  0  0  0  0  0  0  0  0  0
   -5.0952    1.0865   -0.9256 C   0  0  0  0  0  0  0  0  0  0  0  0
   -4.0429    0.5361   -1.6648 C   0  0  0  0  0  0  0  0  0  0  0  0
   -3.9702    0.4788   -3.5316 Br  0  0  0  0  0  0  0  0  0  0  0  0
   -3.1149    0.0965   -0.7493 C   0  0  0  0  0  0  0  0  0  0  0  0
   -1.8550   -0.5660   -0.9725 C   0  0  0  0  0  0  0  0  0  0  0  0
   -1.8036   -1.6607   -1.5151 O   0  0  0  0  0  0  0  0  0  0  0  0
   -0.7910    0.1877   -0.5218 N   0  0  0  0  0  0  0  0  0  0  0  0
    0.5553   -0.1482   -0.5188 C   0  0  0  0  0  0  0  0  0  0  0  0
    1.0965   -1.6749   -1.0720 S   0  0  0  0  0  0  0  0  0  0  0  0
    2.6743   -1.2763   -0.7202 C   0  0  0  0  0  0  0  0  0  0  0  0
    2.8338   -0.0233   -0.1956 C   0  0  0  0  0  0  0  0  0  0  0  0
    1.5960    0.6756   -0.0724 C   0  0  0  0  0  0  0  0  0  0  0  0
    1.3446    2.0189    0.4441 C   0  0  0  0  0  0  0  0  0  0  0  0
    2.4274    2.8335    0.5988 N   0  0  0  0  0  0  0  0  0  0  0  0
    0.2163    2.4327    0.7018 O   0  0  0  0  0  0  0  0  0  0  0  0
    4.2677    0.2274    0.1124 C   0  0  0  0  0  0  0  0  0  0  0  0
    4.8925   -1.1991    0.0174 C   0  0  0  0  0  0  0  0  0  0  0  0
    3.9288   -2.0507   -0.8596 C   0  0  0  0  0  0  0  0  0  0  0  0
   -3.0627   -2.1429    1.4441 H   0  0  0  0  0  0  0  0  0  0  0  0
   -4.5984   -1.6078    2.1400 H   0  0  0  0  0  0  0  0  0  0  0  0
   -3.1429   -1.6746    3.1516 H   0  0  0  0  0  0  0  0  0  0  0  0
   -2.1027    0.1624    1.8030 H   0  0  0  0  0  0  0  0  0  0  0  0
   -3.6272    0.6853    2.5160 H   0  0  0  0  0  0  0  0  0  0  0  0
   -6.0089    1.5480   -1.2768 H   0  0  0  0  0  0  0  0  0  0  0  0
   -0.9909    1.1206   -0.1618 H   0  0  0  0  0  0  0  0  0  0  0  0
    3.3056    2.6317    0.1472 H   0  0  0  0  0  0  0  0  0  0  0  0
    2.2283    3.7991    0.8239 H   0  0  0  0  0  0  0  0  0  0  0  0
    4.7112    0.8861   -0.6417 H   0  0  0  0  0  0  0  0  0  0  0  0
    4.4208    0.6548    1.1071 H   0  0  0  0  0  0  0  0  0  0  0  0
    4.9385   -1.6351    1.0243 H   0  0  0  0  0  0  0  0  0  0  0  0
    5.9122   -1.1813   -0.3795 H   0  0  0  0  0  0  0  0  0  0  0  0
    4.2652   -2.0623   -1.9013 H   0  0  0  0  0  0  0  0  0  0  0  0
    3.8524   -3.0751   -0.4853 H   0  0  0  0  0  0  0  0  0  0  0  0
  1  2  1  0
  2  3  1  0
  3  4  1  0
  4  5  2  0
  5  6  1  0
  6  7  1  0
  6  8  2  0
  8  9  1  0
  9 10  2  0
  9 11  1  0
 11 12  1  0
 12 13  1  0
 13 14  1  0
 14 15  2  0
 15 16  1  0
 16 17  1  0
 17 18  1  0
 17 19  2  0
 15 20  1  0
 20 21  1  0
 21 22  1  0
  8  3  1  0
 16 12  2  0
 22 14  1  0
  1 23  1  0
  1 24  1  0
  1 25  1  0
  2 26  1  0
  2 27  1  0
  5 28  1  0
 11 29  1  0
 18 30  1  0
 18 31  1  0
 20 32  1  0
 20 33  1  0
 21 34  1  0
 21 35  1  0
 22 36  1  0
 22 37  1  0
M  END
$$$$
