
     RDKit          3D

 58 63  0  0  0  0  0  0  0  0999 V2000
    6.7081    3.5503   -1.3842 C   0  0  0  0  0  0  0  0  0  0  0  0
    5.8251    2.5321   -0.7487 C   0  0  0  0  0  0  0  0  0  0  0  0
    5.1396    2.6137    0.4462 C   0  0  0  0  0  0  0  0  0  0  0  0
    4.3969    1.4281    0.7217 C   0  0  0  0  0  0  0  0  0  0  0  0
    4.5268    0.4807   -0.2782 C   0  0  0  0  0  0  0  0  0  0  0  0
    3.9431   -0.8501   -0.3742 C   0  0  0  0  0  0  0  0  0  0  0  0
    4.6060   -1.8369   -0.6955 O   0  0  0  0  0  0  0  0  0  0  0  0
    2.5809   -0.9852   -0.0638 N   0  0  0  0  0  0  0  0  0  0  0  0
    1.6223    0.1187   -0.1137 C   0  0  0  0  0  0  0  0  0  0  0  0
    0.3090   -0.3383   -0.7383 C   0  0  0  0  0  0  0  0  0  0  0  0
   -0.3844   -1.4804    0.0624 C   0  0  0  0  0  0  0  0  0  0  0  0
    0.7070   -2.3409    0.7759 C   0  0  0  0  0  0  0  0  0  0  0  0
    2.0308   -2.3315    0.0187 C   0  0  0  0  0  0  0  0  0  0  0  0
   -1.0378   -2.2850   -0.9577 O   0  0  0  0  0  0  0  0  0  0  0  0
   -1.9143   -3.2340   -0.5092 C   0  0  0  0  0  0  0  0  0  0  0  0
   -2.2557   -4.2350   -1.4182 C   0  0  0  0  0  0  0  0  0  0  0  0
   -3.1252   -5.2594   -1.0348 C   0  0  0  0  0  0  0  0  0  0  0  0
   -3.6545   -5.2766    0.2565 C   0  0  0  0  0  0  0  0  0  0  0  0
   -4.7230   -6.5406    0.7224 Cl  0  0  0  0  0  0  0  0  0  0  0  0
   -3.3306   -4.2736    1.1671 C   0  0  0  0  0  0  0  0  0  0  0  0
   -2.4661   -3.2479    0.7723 C   0  0  0  0  0  0  0  0  0  0  0  0
   -2.1449   -2.1442    1.6970 C   0  0  0  0  0  0  0  0  0  0  0  0
   -2.4926   -2.2128    2.8714 O   0  0  0  0  0  0  0  0  0  0  0  0
   -1.4491   -0.9440    1.0649 C   0  0  0  0  0  0  0  0  0  0  0  0
   -2.5382   -0.0513    0.4743 C   0  0  0  0  0  0  0  0  0  0  0  0
   -2.0865    1.2670    0.9991 C   0  0  0  0  0  0  0  0  0  0  0  0
   -2.6896    2.5441    0.5492 C   0  0  0  0  0  0  0  0  0  0  0  0
   -3.7105    2.5777   -0.4095 C   0  0  0  0  0  0  0  0  0  0  0  0
   -4.2417    3.8045   -0.8233 C   0  0  0  0  0  0  0  0  0  0  0  0
   -3.7601    4.9936   -0.2762 C   0  0  0  0  0  0  0  0  0  0  0  0
   -4.4126    6.4975   -0.7929 Cl  0  0  0  0  0  0  0  0  0  0  0  0
   -2.7510    4.9701    0.6852 C   0  0  0  0  0  0  0  0  0  0  0  0
   -2.2162    3.7462    1.0974 C   0  0  0  0  0  0  0  0  0  0  0  0
   -1.1260    1.2079    1.8641 N   0  0  0  0  0  0  0  0  0  0  0  0
   -0.8265   -0.1550    2.0825 O   0  0  0  0  0  0  0  0  0  0  0  0
    5.5750    1.0236   -1.5186 S   0  0  0  0  0  0  0  0  0  0  0  0
    7.7150    3.1505   -1.5413 H   0  0  0  0  0  0  0  0  0  0  0  0
    6.7966    4.4399   -0.7520 H   0  0  0  0  0  0  0  0  0  0  0  0
    6.3019    3.8660   -2.3514 H   0  0  0  0  0  0  0  0  0  0  0  0
    5.1719    3.4784    1.0961 H   0  0  0  0  0  0  0  0  0  0  0  0
    3.8035    1.2758    1.6145 H   0  0  0  0  0  0  0  0  0  0  0  0
    1.4749    0.4767    0.9091 H   0  0  0  0  0  0  0  0  0  0  0  0
    2.0236    0.9439   -0.7094 H   0  0  0  0  0  0  0  0  0  0  0  0
    0.5183   -0.6876   -1.7594 H   0  0  0  0  0  0  0  0  0  0  0  0
   -0.3474    0.5233   -0.8772 H   0  0  0  0  0  0  0  0  0  0  0  0
    0.8945   -1.9565    1.7864 H   0  0  0  0  0  0  0  0  0  0  0  0
    0.3884   -3.3831    0.8860 H   0  0  0  0  0  0  0  0  0  0  0  0
    1.9035   -2.7116   -1.0011 H   0  0  0  0  0  0  0  0  0  0  0  0
    2.7534   -2.9818    0.5238 H   0  0  0  0  0  0  0  0  0  0  0  0
   -1.8348   -4.2294   -2.4212 H   0  0  0  0  0  0  0  0  0  0  0  0
   -3.3814   -6.0430   -1.7449 H   0  0  0  0  0  0  0  0  0  0  0  0
   -3.7524   -4.2829    2.1704 H   0  0  0  0  0  0  0  0  0  0  0  0
   -3.5375   -0.2630    0.8705 H   0  0  0  0  0  0  0  0  0  0  0  0
   -2.5742   -0.0765   -0.6181 H   0  0  0  0  0  0  0  0  0  0  0  0
   -4.1101    1.6694   -0.8510 H   0  0  0  0  0  0  0  0  0  0  0  0
   -5.0305    3.8266   -1.5722 H   0  0  0  0  0  0  0  0  0  0  0  0
   -2.3796    5.8936    1.1197 H   0  0  0  0  0  0  0  0  0  0  0  0
   -1.4309    3.7385    1.8514 H   0  0  0  0  0  0  0  0  0  0  0  0
  1  2  1  0
  2  3  2  0
  3  4  1  0
  4  5  2  0
  5  6  1  0
  6  7  2  0
  6  8  1  0
  8  9  1  0
  9 10  1  0
 10 11  1  0
 11 12  1  0
 12 13  1  0
 11 14  1  0
 14 15  1  0
 15 16  2  0
 16 17  1  0
 17 18  2  0
 18 19  1  0
 18 20  1  0
 20 21  2  0
 21 22  1  0
 22 23  2  0
 22 24  1  0
 24 25  1  0
 25 26  1  0
 26 27  1  0
 27 28  2  0
 28 29  1  0
 29 30  2  0
 30 31  1  0
 30 32  1  0
 32 33  2  0
 26 34  2  0
 34 35  1  0
  5 36  1  0
 36  2  1  0
 13  8  1  0
 21 15  1  0
 35 24  1  0
 24 11  1  0
 33 27  1  0
  1 37  1  0
  1 38  1  0
  1 39  1  0
  3 40  1  0
  4 41  1  0
  9 42  1  0
  9 43  1  0
 10 44  1  0
 10 45  1  0
 12 46  1  0
 12 47  1  0
 13 48  1  0
 13 49  1  0
 16 50  1  0
 17 51  1  0
 20 52  1  0
 25 53  1  0
 25 54  1  0
 28 55  1  0
 29 56  1  0
 32 57  1  0
 33 58  1  0
M  END
$$$$
