
     RDKit          3D

 51 53  0  0  0  0  0  0  0  0999 V2000
    4.3162   -4.3640    1.4130 C   0  0  0  0  0  0  0  0  0  0  0  0
    4.1693   -3.0696    0.8428 O   0  0  0  0  0  0  0  0  0  0  0  0
    2.8920   -2.6198    0.6221 C   0  0  0  0  0  0  0  0  0  0  0  0
    1.7425   -3.4069    0.7521 C   0  0  0  0  0  0  0  0  0  0  0  0
    0.4777   -2.8548    0.5346 C   0  0  0  0  0  0  0  0  0  0  0  0
    0.3560   -1.5137    0.1773 C   0  0  0  0  0  0  0  0  0  0  0  0
   -0.9729   -0.9029   -0.0258 C   0  0  0  0  0  0  0  0  0  0  0  0
   -2.0635   -1.5739    0.1649 N   0  0  0  0  0  0  0  0  0  0  0  0
   -3.2181   -0.8774   -0.0282 N   0  0  0  0  0  0  0  0  0  0  0  0
   -4.4450   -1.4635    0.2214 C   0  0  0  0  0  0  0  0  0  0  0  0
   -4.5913   -2.6317    0.5675 O   0  0  0  0  0  0  0  0  0  0  0  0
   -5.6582   -0.5931    0.0434 C   0  0  0  0  0  0  0  0  0  0  0  0
   -6.9046   -1.2415    0.1272 C   0  0  0  0  0  0  0  0  0  0  0  0
   -8.0974   -0.5351   -0.0210 C   0  0  0  0  0  0  0  0  0  0  0  0
   -8.0624    0.8313   -0.2513 C   0  0  0  0  0  0  0  0  0  0  0  0
   -6.8364    1.4956   -0.3313 C   0  0  0  0  0  0  0  0  0  0  0  0
   -5.6248    0.8003   -0.1843 C   0  0  0  0  0  0  0  0  0  0  0  0
   -4.3948    1.4136   -0.2539 O   0  0  0  0  0  0  0  0  0  0  0  0
   -4.3651    2.8339   -0.3733 C   0  0  0  0  0  0  0  0  0  0  0  0
    1.4966   -0.7219    0.0269 C   0  0  0  0  0  0  0  0  0  0  0  0
    2.7773   -1.2660    0.2395 C   0  0  0  0  0  0  0  0  0  0  0  0
    4.0290   -0.4146    0.1174 C   0  0  0  0  0  0  0  0  0  0  0  0
    3.7226    0.8573   -0.4601 O   0  0  0  0  0  0  0  0  0  0  0  0
    4.6873    1.8256   -0.4296 C   0  0  0  0  0  0  0  0  0  0  0  0
    6.0428    1.6465   -0.1390 C   0  0  0  0  0  0  0  0  0  0  0  0
    6.5350    0.4338    0.1541 F   0  0  0  0  0  0  0  0  0  0  0  0
    6.9226    2.7286   -0.1530 C   0  0  0  0  0  0  0  0  0  0  0  0
    8.2188    2.5379    0.1345 F   0  0  0  0  0  0  0  0  0  0  0  0
    6.4609    4.0014   -0.4563 C   0  0  0  0  0  0  0  0  0  0  0  0
    7.3055    5.0441   -0.4583 F   0  0  0  0  0  0  0  0  0  0  0  0
    5.1214    4.1945   -0.7531 C   0  0  0  0  0  0  0  0  0  0  0  0
    4.6699    5.4238   -1.0387 F   0  0  0  0  0  0  0  0  0  0  0  0
    4.2446    3.1154   -0.7418 C   0  0  0  0  0  0  0  0  0  0  0  0
    2.9496    3.3227   -1.0243 F   0  0  0  0  0  0  0  0  0  0  0  0
    5.3782   -4.5149    1.6259 H   0  0  0  0  0  0  0  0  0  0  0  0
    3.7747   -4.4488    2.3617 H   0  0  0  0  0  0  0  0  0  0  0  0
    3.9995   -5.1416    0.7055 H   0  0  0  0  0  0  0  0  0  0  0  0
    1.7907   -4.4560    1.0263 H   0  0  0  0  0  0  0  0  0  0  0  0
   -0.4107   -3.4755    0.6552 H   0  0  0  0  0  0  0  0  0  0  0  0
   -0.9904    0.1582   -0.3351 H   0  0  0  0  0  0  0  0  0  0  0  0
   -3.1815    0.1060   -0.2786 H   0  0  0  0  0  0  0  0  0  0  0  0
   -6.9504   -2.3128    0.3109 H   0  0  0  0  0  0  0  0  0  0  0  0
   -9.0478   -1.0528    0.0464 H   0  0  0  0  0  0  0  0  0  0  0  0
   -8.9906    1.3880   -0.3673 H   0  0  0  0  0  0  0  0  0  0  0  0
   -6.8669    2.5657   -0.5093 H   0  0  0  0  0  0  0  0  0  0  0  0
   -4.7764    3.1522   -1.3347 H   0  0  0  0  0  0  0  0  0  0  0  0
   -3.3180    3.1432   -0.3367 H   0  0  0  0  0  0  0  0  0  0  0  0
   -4.8863    3.3125    0.4640 H   0  0  0  0  0  0  0  0  0  0  0  0
    1.3890    0.3238   -0.2455 H   0  0  0  0  0  0  0  0  0  0  0  0
    4.4338   -0.2745    1.1301 H   0  0  0  0  0  0  0  0  0  0  0  0
    4.7497   -0.9286   -0.5254 H   0  0  0  0  0  0  0  0  0  0  0  0
  1  2  1  0
  2  3  1  0
  3  4  2  0
  4  5  1  0
  5  6  2  0
  6  7  1  0
  7  8  2  3
  8  9  1  0
  9 10  1  0
 10 11  2  0
 10 12  1  0
 12 13  2  0
 13 14  1  0
 14 15  2  0
 15 16  1  0
 16 17  2  0
 17 18  1  0
 18 19  1  0
  6 20  1  0
 20 21  2  0
 21 22  1  0
 22 23  1  0
 23 24  1  0
 24 25  2  0
 25 26  1  0
 25 27  1  0
 27 28  1  0
 27 29  2  0
 29 30  1  0
 29 31  1  0
 31 32  1  0
 31 33  2  0
 33 34  1  0
 21  3  1  0
 33 24  1  0
 17 12  1  0
  1 35  1  0
  1 36  1  0
  1 37  1  0
  4 38  1  0
  5 39  1  0
  7 40  1  0
  9 41  1  0
 13 42  1  0
 14 43  1  0
 15 44  1  0
 16 45  1  0
 19 46  1  0
 19 47  1  0
 19 48  1  0
 20 49  1  0
 22 50  1  0
 22 51  1  0
M  END
$$$$
