
     RDKit          3D

 62 66  0  0  0  0  0  0  0  0999 V2000
   -4.7579    6.2159   -1.2753 C   0  0  0  0  0  0  0  0  0  0  0  0
   -3.7693    5.1947   -1.2346 O   0  0  0  0  0  0  0  0  0  0  0  0
   -4.2076    3.9145   -1.0314 C   0  0  0  0  0  0  0  0  0  0  0  0
   -5.5283    3.5198   -0.8682 C   0  0  0  0  0  0  0  0  0  0  0  0
   -5.8501    2.1729   -0.6647 C   0  0  0  0  0  0  0  0  0  0  0  0
   -4.8182    1.2155   -0.6285 C   0  0  0  0  0  0  0  0  0  0  0  0
   -4.9912   -0.4772   -0.3927 S   0  0  0  0  0  0  0  0  0  0  0  0
   -3.3070   -0.7511   -0.4977 C   0  0  0  0  0  0  0  0  0  0  0  0
   -2.8175   -2.1318   -0.3836 C   0  0  0  0  0  0  0  0  0  0  0  0
   -2.5266   -2.8404   -1.5610 C   0  0  0  0  0  0  0  0  0  0  0  0
   -2.0534   -4.1498   -1.5018 C   0  0  0  0  0  0  0  0  0  0  0  0
   -1.8640   -4.7608   -0.2660 C   0  0  0  0  0  0  0  0  0  0  0  0
   -2.1439   -4.0656    0.9142 C   0  0  0  0  0  0  0  0  0  0  0  0
   -2.6214   -2.7502    0.8688 C   0  0  0  0  0  0  0  0  0  0  0  0
   -2.8970   -1.9892    1.9775 O   0  0  0  0  0  0  0  0  0  0  0  0
   -2.8710   -2.6380    3.2409 C   0  0  0  0  0  0  0  0  0  0  0  0
   -2.6088    0.4250   -0.7178 C   0  0  0  0  0  0  0  0  0  0  0  0
   -1.1573    0.4372   -0.8616 C   0  0  0  0  0  0  0  0  0  0  0  0
   -0.5789    0.7238   -2.1008 C   0  0  0  0  0  0  0  0  0  0  0  0
    0.8115    0.7358   -2.2357 C   0  0  0  0  0  0  0  0  0  0  0  0
    1.6369    0.4650   -1.1410 C   0  0  0  0  0  0  0  0  0  0  0  0
    2.9766    0.5070   -1.4135 O   0  0  0  0  0  0  0  0  0  0  0  0
    3.8685    0.2147   -0.3324 C   0  0  0  0  0  0  0  0  0  0  0  0
    5.3081    0.3020   -0.8650 C   0  0  0  0  0  0  0  0  0  0  0  0
    6.4251    0.0401    0.0533 N   0  0  0  0  0  0  0  0  0  0  0  0
    6.5086    0.9644    1.1840 C   0  0  0  0  0  0  0  0  0  0  0  0
    5.8538    0.2700    2.3675 C   0  0  0  0  0  0  0  0  0  0  0  0
    5.8095   -1.2053    2.0043 C   0  0  0  0  0  0  0  0  0  0  0  0
    6.4373   -1.3070    0.6232 C   0  0  0  0  0  0  0  0  0  0  0  0
    1.0591    0.1851    0.0980 C   0  0  0  0  0  0  0  0  0  0  0  0
   -0.3333    0.1736    0.2375 C   0  0  0  0  0  0  0  0  0  0  0  0
   -3.4804    1.5768   -0.7927 C   0  0  0  0  0  0  0  0  0  0  0  0
   -3.1911    2.9524   -0.9929 C   0  0  0  0  0  0  0  0  0  0  0  0
   -5.2934    6.2854   -0.3228 H   0  0  0  0  0  0  0  0  0  0  0  0
   -4.2468    7.1694   -1.4399 H   0  0  0  0  0  0  0  0  0  0  0  0
   -5.4508    6.0614   -2.1090 H   0  0  0  0  0  0  0  0  0  0  0  0
   -6.3452    4.2336   -0.8912 H   0  0  0  0  0  0  0  0  0  0  0  0
   -6.8859    1.8710   -0.5353 H   0  0  0  0  0  0  0  0  0  0  0  0
   -2.6685   -2.3679   -2.5305 H   0  0  0  0  0  0  0  0  0  0  0  0
   -1.8309   -4.6892   -2.4188 H   0  0  0  0  0  0  0  0  0  0  0  0
   -1.4920   -5.7813   -0.2182 H   0  0  0  0  0  0  0  0  0  0  0  0
   -1.9698   -4.5783    1.8541 H   0  0  0  0  0  0  0  0  0  0  0  0
   -1.8545   -2.9514    3.4998 H   0  0  0  0  0  0  0  0  0  0  0  0
   -3.5665   -3.4834    3.2691 H   0  0  0  0  0  0  0  0  0  0  0  0
   -3.1968   -1.9146    3.9945 H   0  0  0  0  0  0  0  0  0  0  0  0
   -1.2021    0.9346   -2.9664 H   0  0  0  0  0  0  0  0  0  0  0  0
    1.2552    0.9570   -3.2033 H   0  0  0  0  0  0  0  0  0  0  0  0
    3.7230    0.9508    0.4652 H   0  0  0  0  0  0  0  0  0  0  0  0
    3.6708   -0.7973    0.0365 H   0  0  0  0  0  0  0  0  0  0  0  0
    5.4000   -0.3787   -1.7225 H   0  0  0  0  0  0  0  0  0  0  0  0
    5.4518    1.2971   -1.3079 H   0  0  0  0  0  0  0  0  0  0  0  0
    6.0719    1.9490    0.9835 H   0  0  0  0  0  0  0  0  0  0  0  0
    7.5688    1.1337    1.4101 H   0  0  0  0  0  0  0  0  0  0  0  0
    4.8382    0.6458    2.5330 H   0  0  0  0  0  0  0  0  0  0  0  0
    6.4204    0.4377    3.2895 H   0  0  0  0  0  0  0  0  0  0  0  0
    4.7724   -1.5577    1.9935 H   0  0  0  0  0  0  0  0  0  0  0  0
    6.3553   -1.8127    2.7339 H   0  0  0  0  0  0  0  0  0  0  0  0
    5.9447   -2.0574   -0.0050 H   0  0  0  0  0  0  0  0  0  0  0  0
    7.4821   -1.6250    0.7276 H   0  0  0  0  0  0  0  0  0  0  0  0
    1.6574   -0.0284    0.9768 H   0  0  0  0  0  0  0  0  0  0  0  0
   -0.7715   -0.0447    1.2093 H   0  0  0  0  0  0  0  0  0  0  0  0
   -2.1579    3.2699   -1.1159 H   0  0  0  0  0  0  0  0  0  0  0  0
  1  2  1  0
  2  3  1  0
  3  4  2  0
  4  5  1  0
  5  6  2  0
  6  7  1  0
  7  8  1  0
  8  9  1  0
  9 10  2  0
 10 11  1  0
 11 12  2  0
 12 13  1  0
 13 14  2  0
 14 15  1  0
 15 16  1  0
  8 17  2  0
 17 18  1  0
 18 19  2  0
 19 20  1  0
 20 21  2  0
 21 22  1  0
 22 23  1  0
 23 24  1  0
 24 25  1  0
 25 26  1  0
 26 27  1  0
 27 28  1  0
 28 29  1  0
 21 30  1  0
 30 31  2  0
 17 32  1  0
 32 33  2  0
 33  3  1  0
 32  6  1  0
 14  9  1  0
 31 18  1  0
 29 25  1  0
  1 34  1  0
  1 35  1  0
  1 36  1  0
  4 37  1  0
  5 38  1  0
 10 39  1  0
 11 40  1  0
 12 41  1  0
 13 42  1  0
 16 43  1  0
 16 44  1  0
 16 45  1  0
 19 46  1  0
 20 47  1  0
 23 48  1  0
 23 49  1  0
 24 50  1  0
 24 51  1  0
 26 52  1  0
 26 53  1  0
 27 54  1  0
 27 55  1  0
 28 56  1  0
 28 57  1  0
 29 58  1  0
 29 59  1  0
 30 60  1  0
 31 61  1  0
 33 62  1  0
M  END
$$$$
