
     RDKit          3D

 31 33  0  0  0  0  0  0  0  0999 V2000
   -3.9434   -2.8593   -2.7900 C   0  0  0  0  0  0  0  0  0  0  0  0
   -2.5061   -2.7224   -2.7816 N   0  0  0  0  0  0  0  0  0  0  0  0
   -1.6209   -3.3771   -3.5804 C   0  0  0  0  0  0  0  0  0  0  0  0
   -0.3838   -2.9212   -3.2053 C   0  0  0  0  0  0  0  0  0  0  0  0
    1.2495   -3.4546   -3.9454 Br  0  0  0  0  0  0  0  0  0  0  0  0
   -0.5997   -1.9858   -2.1666 C   0  0  0  0  0  0  0  0  0  0  0  0
    0.3784   -1.1918   -1.3983 C   0  0  0  0  0  0  0  0  0  0  0  0
    1.5842   -1.2604   -1.5872 O   0  0  0  0  0  0  0  0  0  0  0  0
   -0.2459   -0.3918   -0.4688 N   0  0  0  0  0  0  0  0  0  0  0  0
    0.3480    0.4749    0.4163 C   0  0  0  0  0  0  0  0  0  0  0  0
   -0.8576    1.2475    1.3915 S   0  0  0  0  0  0  0  0  0  0  0  0
    0.3135    2.1049    2.2091 C   0  0  0  0  0  0  0  0  0  0  0  0
    1.5854    1.8442    1.7863 C   0  0  0  0  0  0  0  0  0  0  0  0
    1.6341    0.8914    0.7325 C   0  0  0  0  0  0  0  0  0  0  0  0
    2.8735    0.4824    0.1410 C   0  0  0  0  0  0  0  0  0  0  0  0
    3.9386    0.2375   -0.2527 N   0  0  0  0  0  0  0  0  0  0  0  0
    2.5756    2.6454    2.5533 C   0  0  0  0  0  0  0  0  0  0  0  0
    1.7212    3.1725    3.7489 C   0  0  0  0  0  0  0  0  0  0  0  0
    0.2281    3.0978    3.3046 C   0  0  0  0  0  0  0  0  0  0  0  0
   -1.9273   -1.8708   -1.9116 N   0  0  0  0  0  0  0  0  0  0  0  0
   -4.2616   -3.2042   -1.8030 H   0  0  0  0  0  0  0  0  0  0  0  0
   -4.2355   -3.5859   -3.5520 H   0  0  0  0  0  0  0  0  0  0  0  0
   -4.3802   -1.8836   -3.0168 H   0  0  0  0  0  0  0  0  0  0  0  0
   -1.9326   -4.0926   -4.3283 H   0  0  0  0  0  0  0  0  0  0  0  0
   -1.2607   -0.4673   -0.4470 H   0  0  0  0  0  0  0  0  0  0  0  0
    2.9429    3.4806    1.9477 H   0  0  0  0  0  0  0  0  0  0  0  0
    3.4227    2.0505    2.9058 H   0  0  0  0  0  0  0  0  0  0  0  0
    2.0141    4.1812    4.0564 H   0  0  0  0  0  0  0  0  0  0  0  0
    1.8697    2.5094    4.6116 H   0  0  0  0  0  0  0  0  0  0  0  0
   -0.4156    2.7806    4.1294 H   0  0  0  0  0  0  0  0  0  0  0  0
   -0.1087    4.0681    2.9255 H   0  0  0  0  0  0  0  0  0  0  0  0
  1  2  1  0
  2  3  1  0
  3  4  2  0
  4  5  1  0
  4  6  1  0
  6  7  1  0
  7  8  2  0
  7  9  1  0
  9 10  1  0
 10 11  1  0
 11 12  1  0
 12 13  2  0
 13 14  1  0
 14 15  1  0
 15 16  3  0
 13 17  1  0
 17 18  1  0
 18 19  1  0
  6 20  2  0
 20  2  1  0
 14 10  2  0
 19 12  1  0
  1 21  1  0
  1 22  1  0
  1 23  1  0
  3 24  1  0
  9 25  1  0
 17 26  1  0
 17 27  1  0
 18 28  1  0
 18 29  1  0
 19 30  1  0
 19 31  1  0
M  END
$$$$
