
     RDKit          3D

 41 44  0  0  0  0  0  0  0  0999 V2000
   -1.7153    2.6272   -3.3162 O   0  0  0  0  0  0  0  0  0  0  0  0
   -0.9275    2.2481   -2.1614 S   0  0  0  0  0  6  0  0  0  0  0  0
   -0.0990    3.2140   -1.4726 O   0  0  0  0  0  0  0  0  0  0  0  0
    0.0257    0.9472   -2.6604 N   0  0  0  0  0  0  0  0  0  0  0  0
    0.7213    0.1709   -1.6813 C   0  0  0  0  0  0  0  0  0  0  0  0
    1.8097    0.7643   -1.0337 C   0  0  0  0  0  0  0  0  0  0  0  0
    2.5041    0.0848   -0.0318 C   0  0  0  0  0  0  0  0  0  0  0  0
    3.9360    0.8937    0.6701 S   0  0  0  0  0  0  0  0  0  0  0  0
    3.4469    1.1531    2.3187 C   0  0  0  0  0  0  0  0  0  0  0  0
    2.9922    0.1348    3.1187 N   0  0  0  0  0  0  0  0  0  0  0  0
    2.7753    0.7394    4.2643 C   0  0  0  0  0  0  0  0  0  0  0  0
    3.1007    2.0547    4.1534 N   0  0  0  0  0  0  0  0  0  0  0  0
    3.5440    2.3405    2.9203 N   0  0  0  0  0  0  0  0  0  0  0  0
    2.0867   -1.2097    0.3120 C   0  0  0  0  0  0  0  0  0  0  0  0
    2.7298   -1.9157    1.3038 O   0  0  0  0  0  0  0  0  0  0  0  0
    0.9990   -1.8394   -0.3370 C   0  0  0  0  0  0  0  0  0  0  0  0
    0.5861   -3.1454    0.0050 C   0  0  0  0  0  0  0  0  0  0  0  0
   -0.4953   -3.7604   -0.6237 C   0  0  0  0  0  0  0  0  0  0  0  0
   -1.1912   -3.0808   -1.6110 C   0  0  0  0  0  0  0  0  0  0  0  0
   -0.8012   -1.7895   -1.9699 C   0  0  0  0  0  0  0  0  0  0  0  0
    0.2955   -1.1408   -1.3494 C   0  0  0  0  0  0  0  0  0  0  0  0
   -2.0331    1.5250   -0.9712 C   0  0  0  0  0  0  0  0  0  0  0  0
   -3.2604    1.0058   -1.3953 C   0  0  0  0  0  0  0  0  0  0  0  0
   -4.1262    0.4423   -0.4584 C   0  0  0  0  0  0  0  0  0  0  0  0
   -3.7707    0.4100    0.8912 C   0  0  0  0  0  0  0  0  0  0  0  0
   -2.5543    0.9502    1.3125 C   0  0  0  0  0  0  0  0  0  0  0  0
   -1.6842    1.5187    0.3832 C   0  0  0  0  0  0  0  0  0  0  0  0
   -0.3491    0.4739   -3.4790 H   0  0  0  0  0  0  0  0  0  0  0  0
    2.1224    1.7658   -1.3263 H   0  0  0  0  0  0  0  0  0  0  0  0
    2.4017    0.2938    5.1755 H   0  0  0  0  0  0  0  0  0  0  0  0
    3.0567    2.7904    4.8505 H   0  0  0  0  0  0  0  0  0  0  0  0
    3.0622   -1.2666    1.9593 H   0  0  0  0  0  0  0  0  0  0  0  0
    1.1189   -3.6970    0.7787 H   0  0  0  0  0  0  0  0  0  0  0  0
   -0.7882   -4.7673   -0.3380 H   0  0  0  0  0  0  0  0  0  0  0  0
   -2.0377   -3.5520   -2.1036 H   0  0  0  0  0  0  0  0  0  0  0  0
   -1.3786   -1.2935   -2.7450 H   0  0  0  0  0  0  0  0  0  0  0  0
   -3.5481    1.0369   -2.4435 H   0  0  0  0  0  0  0  0  0  0  0  0
   -5.0809    0.0311   -0.7774 H   0  0  0  0  0  0  0  0  0  0  0  0
   -4.4474   -0.0317    1.6191 H   0  0  0  0  0  0  0  0  0  0  0  0
   -2.2861    0.9289    2.3659 H   0  0  0  0  0  0  0  0  0  0  0  0
   -0.7405    1.9444    0.7177 H   0  0  0  0  0  0  0  0  0  0  0  0
  1  2  2  0
  2  3  2  0
  2  4  1  0
  4  5  1  0
  5  6  2  0
  6  7  1  0
  7  8  1  0
  8  9  1  0
  9 10  1  0
 10 11  2  0
 11 12  1  0
 12 13  1  0
  7 14  2  0
 14 15  1  0
 14 16  1  0
 16 17  2  0
 17 18  1  0
 18 19  2  0
 19 20  1  0
 20 21  2  0
  2 22  1  0
 22 23  2  0
 23 24  1  0
 24 25  2  0
 25 26  1  0
 26 27  2  0
 21  5  1  0
 27 22  1  0
 13  9  2  0
 21 16  1  0
  4 28  1  0
  6 29  1  0
 11 30  1  0
 12 31  1  0
 15 32  1  0
 17 33  1  0
 18 34  1  0
 19 35  1  0
 20 36  1  0
 23 37  1  0
 24 38  1  0
 25 39  1  0
 26 40  1  0
 27 41  1  0
M  END
$$$$
