
     RDKit          3D

 32 33  0  0  0  0  0  0  0  0999 V2000
    4.0995   -1.9829   -0.8075 C   0  0  0  0  0  0  0  0  0  0  0  0
    4.3578   -0.5144   -0.5169 C   0  0  0  0  0  0  0  0  0  0  0  0
    3.1671    0.1551    0.6818 S   0  0  0  0  0  0  0  0  0  0  0  0
    1.7008    0.2602   -0.2401 C   0  0  0  0  0  0  0  0  0  0  0  0
    1.4687    0.4861   -1.5756 C   0  0  0  0  0  0  0  0  0  0  0  0
    0.1276    0.5059   -1.8436 N   0  0  0  0  0  0  0  0  0  0  0  0
   -0.4798    0.2897   -0.6911 C   0  0  0  0  0  0  0  0  0  0  0  0
   -1.9301    0.2443   -0.5195 C   0  0  0  0  0  0  0  0  0  0  0  0
   -2.5836   -0.9593   -0.2264 C   0  0  0  0  0  0  0  0  0  0  0  0
   -3.9702   -0.9869   -0.0633 C   0  0  0  0  0  0  0  0  0  0  0  0
   -4.7123    0.1854   -0.2026 C   0  0  0  0  0  0  0  0  0  0  0  0
   -4.0715    1.3841   -0.5136 C   0  0  0  0  0  0  0  0  0  0  0  0
   -2.6852    1.4123   -0.6772 C   0  0  0  0  0  0  0  0  0  0  0  0
    0.4509    0.1610    0.3292 N   0  0  0  0  0  0  0  0  0  0  0  0
    0.1401   -0.0021    1.7394 C   0  0  0  0  0  0  0  0  0  0  0  0
   -0.0026    1.3282    2.4600 C   0  0  0  0  0  0  0  0  0  0  0  0
    4.1461   -2.5863    0.1054 H   0  0  0  0  0  0  0  0  0  0  0  0
    4.8627   -2.3643   -1.4941 H   0  0  0  0  0  0  0  0  0  0  0  0
    3.1250   -2.1421   -1.2798 H   0  0  0  0  0  0  0  0  0  0  0  0
    5.3567   -0.4069   -0.0814 H   0  0  0  0  0  0  0  0  0  0  0  0
    4.3468    0.0741   -1.4392 H   0  0  0  0  0  0  0  0  0  0  0  0
    2.1909    0.6450   -2.3647 H   0  0  0  0  0  0  0  0  0  0  0  0
   -2.0166   -1.8828   -0.1367 H   0  0  0  0  0  0  0  0  0  0  0  0
   -4.4723   -1.9243    0.1617 H   0  0  0  0  0  0  0  0  0  0  0  0
   -5.7924    0.1628   -0.0819 H   0  0  0  0  0  0  0  0  0  0  0  0
   -4.6505    2.2954   -0.6383 H   0  0  0  0  0  0  0  0  0  0  0  0
   -2.1919    2.3471   -0.9353 H   0  0  0  0  0  0  0  0  0  0  0  0
   -0.7826   -0.5816    1.8303 H   0  0  0  0  0  0  0  0  0  0  0  0
    0.9227   -0.6110    2.2025 H   0  0  0  0  0  0  0  0  0  0  0  0
    0.9198    1.9149    2.4013 H   0  0  0  0  0  0  0  0  0  0  0  0
   -0.2340    1.1630    3.5168 H   0  0  0  0  0  0  0  0  0  0  0  0
   -0.8077    1.9302    2.0262 H   0  0  0  0  0  0  0  0  0  0  0  0
  1  2  1  0
  2  3  1  0
  3  4  1  0
  4  5  2  0
  5  6  1  0
  6  7  2  0
  7  8  1  0
  8  9  2  0
  9 10  1  0
 10 11  2  0
 11 12  1  0
 12 13  2  0
  7 14  1  0
 14 15  1  0
 15 16  1  0
 14  4  1  0
 13  8  1  0
  1 17  1  0
  1 18  1  0
  1 19  1  0
  2 20  1  0
  2 21  1  0
  5 22  1  0
  9 23  1  0
 10 24  1  0
 11 25  1  0
 12 26  1  0
 13 27  1  0
 15 28  1  0
 15 29  1  0
 16 30  1  0
 16 31  1  0
 16 32  1  0
M  END
$$$$
