
     RDKit          3D

 47 48  0  0  0  0  0  0  0  0999 V2000
    3.6332    1.6279    4.7494 C   0  0  0  0  0  0  0  0  0  0  0  0
    2.9380    2.7725    4.0367 C   0  0  0  0  0  0  0  0  0  0  0  0
    2.8257    2.4859    2.6338 O   0  0  0  0  0  0  0  0  0  0  0  0
    1.7376    1.7692    2.2524 C   0  0  0  0  0  0  0  0  0  0  0  0
    0.8666    1.3601    3.0078 O   0  0  0  0  0  0  0  0  0  0  0  0
    1.7464    1.5449    0.7777 C   0  0  0  0  0  0  0  0  0  0  0  0
    2.8807    1.9629    0.0333 C   0  0  0  0  0  0  0  0  0  0  0  0
    3.8011    2.3062   -0.5862 N   0  0  0  0  0  0  0  0  0  0  0  0
    0.6708    0.9148    0.2597 C   0  0  0  0  0  0  0  0  0  0  0  0
    0.3411    0.5157   -1.1166 C   0  0  0  0  0  0  0  0  0  0  0  0
   -0.6168   -0.4162   -1.3799 C   0  0  0  0  0  0  0  0  0  0  0  0
   -1.3500   -1.0790   -0.3794 N   0  0  0  0  0  0  0  0  0  0  0  0
   -0.7713   -2.1952    0.4033 C   0  0  0  0  0  0  0  0  0  0  0  0
   -1.2891   -2.1786    1.8499 C   0  0  0  0  0  0  0  0  0  0  0  0
   -2.7182   -2.2723    1.9499 O   0  0  0  0  0  0  0  0  0  0  0  0
   -3.4081   -1.6579    0.8505 C   0  0  0  0  0  0  0  0  0  0  0  0
   -2.6112   -0.5371    0.1667 C   0  0  0  0  0  0  0  0  0  0  0  0
   -0.9186   -0.8606   -2.8476 C   0  0  0  0  0  0  0  0  0  0  0  0
   -2.3412   -0.4742   -3.2833 C   0  0  0  0  0  0  0  0  0  0  0  0
   -0.7503   -2.3804   -3.0077 C   0  0  0  0  0  0  0  0  0  0  0  0
    0.0077   -0.3040   -3.8034 O   0  0  0  0  0  0  0  0  0  0  0  0
    0.2993    1.0647   -3.5725 C   0  0  0  0  0  0  0  0  0  0  0  0
    1.0561    1.1971   -2.2620 C   0  0  0  0  0  0  0  0  0  0  0  0
    4.6096    1.4290    4.2956 H   0  0  0  0  0  0  0  0  0  0  0  0
    3.0513    0.7043    4.6701 H   0  0  0  0  0  0  0  0  0  0  0  0
    3.7767    1.8604    5.8084 H   0  0  0  0  0  0  0  0  0  0  0  0
    3.5381    3.6836    4.1297 H   0  0  0  0  0  0  0  0  0  0  0  0
    1.9580    2.9853    4.4788 H   0  0  0  0  0  0  0  0  0  0  0  0
   -0.0994    0.6217    0.9730 H   0  0  0  0  0  0  0  0  0  0  0  0
   -1.0656   -3.1362   -0.0745 H   0  0  0  0  0  0  0  0  0  0  0  0
    0.3232   -2.1448    0.4048 H   0  0  0  0  0  0  0  0  0  0  0  0
   -0.9788   -1.2597    2.3603 H   0  0  0  0  0  0  0  0  0  0  0  0
   -0.8660   -3.0189    2.4096 H   0  0  0  0  0  0  0  0  0  0  0  0
   -4.3552   -1.2671    1.2356 H   0  0  0  0  0  0  0  0  0  0  0  0
   -3.6481   -2.4477    0.1290 H   0  0  0  0  0  0  0  0  0  0  0  0
   -3.2176   -0.0915   -0.6274 H   0  0  0  0  0  0  0  0  0  0  0  0
   -2.3823    0.2498    0.8941 H   0  0  0  0  0  0  0  0  0  0  0  0
   -3.1025   -1.0667   -2.7654 H   0  0  0  0  0  0  0  0  0  0  0  0
   -2.5496    0.5833   -3.0880 H   0  0  0  0  0  0  0  0  0  0  0  0
   -2.4712   -0.6247   -4.3615 H   0  0  0  0  0  0  0  0  0  0  0  0
   -1.4942   -2.9450   -2.4367 H   0  0  0  0  0  0  0  0  0  0  0  0
   -0.8433   -2.6733   -4.0606 H   0  0  0  0  0  0  0  0  0  0  0  0
    0.2490   -2.6982   -2.6869 H   0  0  0  0  0  0  0  0  0  0  0  0
    0.9255    1.4192   -4.3978 H   0  0  0  0  0  0  0  0  0  0  0  0
   -0.6160    1.6670   -3.5809 H   0  0  0  0  0  0  0  0  0  0  0  0
    2.0449    0.7365   -2.3751 H   0  0  0  0  0  0  0  0  0  0  0  0
    1.1841    2.2674   -2.0666 H   0  0  0  0  0  0  0  0  0  0  0  0
  1  2  1  0
  2  3  1  0
  3  4  1  0
  4  5  2  0
  4  6  1  0
  6  7  1  0
  7  8  3  0
  6  9  2  3
  9 10  1  0
 10 11  2  0
 11 12  1  0
 12 13  1  0
 13 14  1  0
 14 15  1  0
 15 16  1  0
 16 17  1  0
 11 18  1  0
 18 19  1  0
 18 20  1  0
 18 21  1  0
 21 22  1  0
 22 23  1  0
 23 10  1  0
 17 12  1  0
  1 24  1  0
  1 25  1  0
  1 26  1  0
  2 27  1  0
  2 28  1  0
  9 29  1  0
 13 30  1  0
 13 31  1  0
 14 32  1  0
 14 33  1  0
 16 34  1  0
 16 35  1  0
 17 36  1  0
 17 37  1  0
 19 38  1  0
 19 39  1  0
 19 40  1  0
 20 41  1  0
 20 42  1  0
 20 43  1  0
 22 44  1  0
 22 45  1  0
 23 46  1  0
 23 47  1  0
M  END
$$$$
