
     RDKit          3D

 41 44  0  0  0  0  0  0  0  0999 V2000
    0.5769   -2.3003    0.1163 O   0  0  0  0  0  0  0  0  0  0  0  0
    0.3668   -1.2736    0.7572 C   0  0  0  0  0  0  0  0  0  0  0  0
   -0.9905   -1.0345    1.4308 C   0  0  0  0  0  0  0  0  0  0  0  0
   -1.7908   -0.0194    0.7354 N   0  0  0  0  0  0  0  0  0  0  0  0
   -1.4778    1.3163    0.9613 C   0  0  0  0  0  0  0  0  0  0  0  0
   -0.5881    1.6550    1.7493 O   0  0  0  0  0  0  0  0  0  0  0  0
   -2.1905    2.3571    0.1307 C   0  0  0  0  0  0  0  0  0  0  0  0
   -3.5187    2.7547    0.7341 C   0  0  0  0  0  0  0  0  0  0  0  0
   -4.6247    1.3849    1.1868 S   0  0  0  0  0  0  0  0  0  0  0  0
   -4.1611    0.1486   -0.0233 C   0  0  0  0  0  0  0  0  0  0  0  0
   -5.1941   -0.3310   -0.8438 C   0  0  0  0  0  0  0  0  0  0  0  0
   -4.9766   -1.3966   -1.7155 C   0  0  0  0  0  0  0  0  0  0  0  0
   -3.7302   -2.0091   -1.7583 C   0  0  0  0  0  0  0  0  0  0  0  0
   -2.6972   -1.5514   -0.9373 C   0  0  0  0  0  0  0  0  0  0  0  0
   -2.8865   -0.4596   -0.0730 C   0  0  0  0  0  0  0  0  0  0  0  0
    1.2590   -0.2345    0.9601 N   0  0  0  0  0  0  0  0  0  0  0  0
    2.5849   -0.1256    0.4993 C   0  0  0  0  0  0  0  0  0  0  0  0
    3.2658    1.0736    0.8107 C   0  0  0  0  0  0  0  0  0  0  0  0
    4.5878    1.2839    0.4037 C   0  0  0  0  0  0  0  0  0  0  0  0
    5.2013    0.2799   -0.3091 C   0  0  0  0  0  0  0  0  0  0  0  0
    4.5467   -0.8888   -0.6160 C   0  0  0  0  0  0  0  0  0  0  0  0
    3.2416   -1.1229   -0.2278 C   0  0  0  0  0  0  0  0  0  0  0  0
    5.3291   -1.7473   -1.3255 O   0  0  0  0  0  0  0  0  0  0  0  0
    6.5506   -0.9878   -1.4214 C   0  0  0  0  0  0  0  0  0  0  0  0
    6.4746    0.3042   -0.7837 O   0  0  0  0  0  0  0  0  0  0  0  0
   -1.5343   -1.9838    1.4973 H   0  0  0  0  0  0  0  0  0  0  0  0
   -0.8136   -0.7102    2.4639 H   0  0  0  0  0  0  0  0  0  0  0  0
   -2.2980    2.0109   -0.9035 H   0  0  0  0  0  0  0  0  0  0  0  0
   -1.5416    3.2395    0.0673 H   0  0  0  0  0  0  0  0  0  0  0  0
   -4.0534    3.4082    0.0360 H   0  0  0  0  0  0  0  0  0  0  0  0
   -3.3500    3.3360    1.6474 H   0  0  0  0  0  0  0  0  0  0  0  0
   -6.1877    0.1101   -0.7938 H   0  0  0  0  0  0  0  0  0  0  0  0
   -5.7847   -1.7583   -2.3461 H   0  0  0  0  0  0  0  0  0  0  0  0
   -3.5562   -2.8464   -2.4306 H   0  0  0  0  0  0  0  0  0  0  0  0
   -1.7322   -2.0468   -1.0175 H   0  0  0  0  0  0  0  0  0  0  0  0
    0.8911    0.5717    1.4701 H   0  0  0  0  0  0  0  0  0  0  0  0
    2.7667    1.8573    1.3774 H   0  0  0  0  0  0  0  0  0  0  0  0
    5.1115    2.2024    0.6423 H   0  0  0  0  0  0  0  0  0  0  0  0
    2.7745   -2.0619   -0.4950 H   0  0  0  0  0  0  0  0  0  0  0  0
    7.3584   -1.5626   -0.9542 H   0  0  0  0  0  0  0  0  0  0  0  0
    6.7909   -0.8418   -2.4811 H   0  0  0  0  0  0  0  0  0  0  0  0
  1  2  2  0
  2  3  1  0
  3  4  1  0
  4  5  1  0
  5  6  2  0
  5  7  1  0
  7  8  1  0
  8  9  1  0
  9 10  1  0
 10 11  2  0
 11 12  1  0
 12 13  2  0
 13 14  1  0
 14 15  2  0
  2 16  1  0
 16 17  1  0
 17 18  2  0
 18 19  1  0
 19 20  2  0
 20 21  1  0
 21 22  2  0
 21 23  1  0
 23 24  1  0
 24 25  1  0
 15  4  1  0
 22 17  1  0
 15 10  1  0
 25 20  1  0
  3 26  1  0
  3 27  1  0
  7 28  1  0
  7 29  1  0
  8 30  1  0
  8 31  1  0
 11 32  1  0
 12 33  1  0
 13 34  1  0
 14 35  1  0
 16 36  1  0
 18 37  1  0
 19 38  1  0
 22 39  1  0
 24 40  1  0
 24 41  1  0
M  END
$$$$
