
     RDKit          3D

 57 59  0  0  0  0  0  0  0  0999 V2000
   -7.2873    2.2076   -1.3545 C   0  0  0  0  0  0  0  0  0  0  0  0
   -7.0651    0.8072   -1.2703 O   0  0  0  0  0  0  0  0  0  0  0  0
   -5.8234    0.3855   -0.8693 C   0  0  0  0  0  0  0  0  0  0  0  0
   -4.7875    1.2292   -0.4507 C   0  0  0  0  0  0  0  0  0  0  0  0
   -3.5579    0.6957   -0.0501 C   0  0  0  0  0  0  0  0  0  0  0  0
   -3.3604   -0.6862   -0.0856 C   0  0  0  0  0  0  0  0  0  0  0  0
   -1.8130   -1.3810    0.4249 S   0  0  0  0  0  6  0  0  0  0  0  0
   -2.0929   -2.6020    1.1476 O   0  0  0  0  0  0  0  0  0  0  0  0
   -1.0096   -0.3313    1.0171 O   0  0  0  0  0  0  0  0  0  0  0  0
   -1.1016   -1.7900   -1.0262 N   0  0  0  0  0  0  0  0  0  0  0  0
   -0.7533   -0.7470   -1.9981 C   0  0  0  0  0  0  0  0  0  0  0  0
    0.5069   -1.2625   -2.6713 C   0  0  0  0  0  0  0  0  0  0  0  0
    0.6160   -2.6403   -2.3084 O   0  0  0  0  0  0  0  0  0  0  0  0
   -0.0181   -2.7830   -1.0252 C   0  0  0  0  0  0  0  0  0  0  0  0
    1.0284   -2.6572    0.1118 C   0  0  0  0  0  0  0  0  0  0  0  0
    1.5402   -1.3128    0.3358 N   0  0  0  0  0  0  0  0  0  0  0  0
    2.7515   -1.1058    0.9552 C   0  0  0  0  0  0  0  0  0  0  0  0
    3.5835   -1.9622    1.2205 O   0  0  0  0  0  0  0  0  0  0  0  0
    3.0087    0.3670    1.3538 C   0  0  0  0  0  0  0  0  0  0  0  0
    2.2798    1.2579    0.9387 O   0  0  0  0  0  0  0  0  0  0  0  0
    4.0952    0.5212    2.1823 N   0  0  0  0  0  0  0  0  0  0  0  0
    4.6045    1.8126    2.5594 C   0  0  0  0  0  0  0  0  0  0  0  0
    5.7894    2.1876    1.7055 C   0  0  0  0  0  0  0  0  0  0  0  0
    7.0936    1.8588    2.1088 C   0  0  0  0  0  0  0  0  0  0  0  0
    8.1840    2.1819    1.3003 C   0  0  0  0  0  0  0  0  0  0  0  0
    7.9709    2.8212    0.0833 C   0  0  0  0  0  0  0  0  0  0  0  0
    9.0169    3.1166   -0.6993 F   0  0  0  0  0  0  0  0  0  0  0  0
    6.6871    3.1469   -0.3405 C   0  0  0  0  0  0  0  0  0  0  0  0
    5.5957    2.8289    0.4696 C   0  0  0  0  0  0  0  0  0  0  0  0
   -4.3823   -1.5445   -0.4927 C   0  0  0  0  0  0  0  0  0  0  0  0
   -5.6138   -1.0051   -0.8683 C   0  0  0  0  0  0  0  0  0  0  0  0
   -6.6221   -1.8268   -1.3138 O   0  0  0  0  0  0  0  0  0  0  0  0
   -7.0611   -2.7200   -0.2917 C   0  0  0  0  0  0  0  0  0  0  0  0
   -6.6141    2.6707   -2.0846 H   0  0  0  0  0  0  0  0  0  0  0  0
   -7.1976    2.6836   -0.3718 H   0  0  0  0  0  0  0  0  0  0  0  0
   -8.3145    2.3608   -1.7032 H   0  0  0  0  0  0  0  0  0  0  0  0
   -4.9080    2.3078   -0.4177 H   0  0  0  0  0  0  0  0  0  0  0  0
   -2.7657    1.3657    0.2814 H   0  0  0  0  0  0  0  0  0  0  0  0
   -1.5660   -0.6430   -2.7221 H   0  0  0  0  0  0  0  0  0  0  0  0
   -0.5683    0.2309   -1.5425 H   0  0  0  0  0  0  0  0  0  0  0  0
    0.4622   -1.1719   -3.7610 H   0  0  0  0  0  0  0  0  0  0  0  0
    1.3988   -0.7309   -2.3224 H   0  0  0  0  0  0  0  0  0  0  0  0
   -0.4471   -3.7906   -1.0009 H   0  0  0  0  0  0  0  0  0  0  0  0
    0.6015   -2.9875    1.0651 H   0  0  0  0  0  0  0  0  0  0  0  0
    1.8782   -3.3120   -0.1123 H   0  0  0  0  0  0  0  0  0  0  0  0
    0.8694   -0.5527    0.4683 H   0  0  0  0  0  0  0  0  0  0  0  0
    4.6641   -0.3068    2.3352 H   0  0  0  0  0  0  0  0  0  0  0  0
    4.8976    1.7603    3.6144 H   0  0  0  0  0  0  0  0  0  0  0  0
    3.8200    2.5728    2.4766 H   0  0  0  0  0  0  0  0  0  0  0  0
    7.2664    1.3466    3.0549 H   0  0  0  0  0  0  0  0  0  0  0  0
    9.1951    1.9302    1.6052 H   0  0  0  0  0  0  0  0  0  0  0  0
    6.5437    3.6355   -1.2987 H   0  0  0  0  0  0  0  0  0  0  0  0
    4.5889    3.0722    0.1313 H   0  0  0  0  0  0  0  0  0  0  0  0
   -4.2153   -2.6177   -0.5294 H   0  0  0  0  0  0  0  0  0  0  0  0
   -7.1914   -2.2099    0.6709 H   0  0  0  0  0  0  0  0  0  0  0  0
   -6.3672   -3.5629   -0.1882 H   0  0  0  0  0  0  0  0  0  0  0  0
   -8.0337   -3.1196   -0.5930 H   0  0  0  0  0  0  0  0  0  0  0  0
  1  2  1  0
  2  3  1  0
  3  4  2  0
  4  5  1  0
  5  6  2  0
  6  7  1  0
  7  8  2  0
  7  9  2  0
  7 10  1  0
 10 11  1  0
 11 12  1  0
 12 13  1  0
 13 14  1  0
 14 15  1  0
 15 16  1  0
 16 17  1  0
 17 18  2  0
 17 19  1  0
 19 20  2  0
 19 21  1  0
 21 22  1  0
 22 23  1  0
 23 24  2  0
 24 25  1  0
 25 26  2  0
 26 27  1  0
 26 28  1  0
 28 29  2  0
  6 30  1  0
 30 31  2  0
 31 32  1  0
 32 33  1  0
 31  3  1  0
 14 10  1  0
 29 23  1  0
  1 34  1  0
  1 35  1  0
  1 36  1  0
  4 37  1  0
  5 38  1  0
 11 39  1  0
 11 40  1  0
 12 41  1  0
 12 42  1  0
 14 43  1  0
 15 44  1  0
 15 45  1  0
 16 46  1  0
 21 47  1  0
 22 48  1  0
 22 49  1  0
 24 50  1  0
 25 51  1  0
 28 52  1  0
 29 53  1  0
 30 54  1  0
 33 55  1  0
 33 56  1  0
 33 57  1  0
M  END
$$$$
