
     RDKit          3D

 44 46  0  0  0  0  0  0  0  0999 V2000
   -4.8429    1.9036   -1.5671 C   0  0  0  0  0  0  0  0  0  0  0  0
   -3.5319    1.9050   -0.7773 C   0  0  0  0  0  0  0  0  0  0  0  0
   -2.5586    2.9464   -1.3352 C   0  0  0  0  0  0  0  0  0  0  0  0
   -2.9005    0.5235   -0.7347 C   0  0  0  0  0  0  0  0  0  0  0  0
   -2.4979   -0.1382   -1.9068 C   0  0  0  0  0  0  0  0  0  0  0  0
   -1.9075   -1.4017   -1.8463 C   0  0  0  0  0  0  0  0  0  0  0  0
   -1.7070   -2.0074   -0.6042 C   0  0  0  0  0  0  0  0  0  0  0  0
   -0.9278   -3.6038   -0.5248 S   0  0  0  0  0  6  0  0  0  0  0  0
   -1.2611   -4.2106    0.7459 O   0  0  0  0  0  0  0  0  0  0  0  0
   -1.1972   -4.2840   -1.7748 O   0  0  0  0  0  0  0  0  0  0  0  0
    0.7217   -3.2197   -0.5492 N   0  0  0  0  0  0  0  0  0  0  0  0
    1.2235   -2.2953    0.4097 C   0  0  0  0  0  0  0  0  0  0  0  0
    1.2604   -2.6280    1.7616 C   0  0  0  0  0  0  0  0  0  0  0  0
    1.6983   -1.6889    2.6936 C   0  0  0  0  0  0  0  0  0  0  0  0
    2.0999   -0.4222    2.2715 C   0  0  0  0  0  0  0  0  0  0  0  0
    2.5149    0.4295    3.2578 O   0  0  0  0  0  0  0  0  0  0  0  0
    2.0609   -0.0689    0.9150 C   0  0  0  0  0  0  0  0  0  0  0  0
    2.4450    1.5623    0.2953 S   0  0  0  0  0  0  0  0  0  0  0  0
    4.1347    1.7090    0.6775 C   0  0  0  0  0  0  0  0  0  0  0  0
    4.5978    1.6692    1.9680 N   0  0  0  0  0  0  0  0  0  0  0  0
    5.8920    1.8339    1.8177 C   0  0  0  0  0  0  0  0  0  0  0  0
    6.1823    1.9745    0.4968 N   0  0  0  0  0  0  0  0  0  0  0  0
    5.0714    1.9034   -0.2535 N   0  0  0  0  0  0  0  0  0  0  0  0
    1.6166   -1.0226   -0.0129 C   0  0  0  0  0  0  0  0  0  0  0  0
   -2.1232   -1.3785    0.5706 C   0  0  0  0  0  0  0  0  0  0  0  0
   -2.7105   -0.1143    0.5021 C   0  0  0  0  0  0  0  0  0  0  0  0
   -5.3252    2.8857   -1.5133 H   0  0  0  0  0  0  0  0  0  0  0  0
   -4.6845    1.6695   -2.6254 H   0  0  0  0  0  0  0  0  0  0  0  0
   -5.5428    1.1639   -1.1626 H   0  0  0  0  0  0  0  0  0  0  0  0
   -3.7758    2.2092    0.2493 H   0  0  0  0  0  0  0  0  0  0  0  0
   -2.3038    2.7496   -2.3823 H   0  0  0  0  0  0  0  0  0  0  0  0
   -1.6252    2.9571   -0.7612 H   0  0  0  0  0  0  0  0  0  0  0  0
   -2.9961    3.9493   -1.2825 H   0  0  0  0  0  0  0  0  0  0  0  0
   -2.6428    0.3280   -2.8793 H   0  0  0  0  0  0  0  0  0  0  0  0
   -1.6090   -1.9002   -2.7655 H   0  0  0  0  0  0  0  0  0  0  0  0
    1.0726   -3.1523   -1.5032 H   0  0  0  0  0  0  0  0  0  0  0  0
    0.9499   -3.6139    2.0996 H   0  0  0  0  0  0  0  0  0  0  0  0
    1.7277   -1.9429    3.7501 H   0  0  0  0  0  0  0  0  0  0  0  0
    3.1268    1.0834    2.8585 H   0  0  0  0  0  0  0  0  0  0  0  0
    6.6400    1.8612    2.5978 H   0  0  0  0  0  0  0  0  0  0  0  0
    7.0802    2.1195    0.0478 H   0  0  0  0  0  0  0  0  0  0  0  0
    1.5549   -0.7608   -1.0664 H   0  0  0  0  0  0  0  0  0  0  0  0
   -1.9828   -1.8545    1.5387 H   0  0  0  0  0  0  0  0  0  0  0  0
   -3.0175    0.3723    1.4261 H   0  0  0  0  0  0  0  0  0  0  0  0
  1  2  1  0
  2  3  1  0
  2  4  1  0
  4  5  2  0
  5  6  1  0
  6  7  2  0
  7  8  1  0
  8  9  2  0
  8 10  2  0
  8 11  1  0
 11 12  1  0
 12 13  2  0
 13 14  1  0
 14 15  2  0
 15 16  1  0
 15 17  1  0
 17 18  1  0
 18 19  1  0
 19 20  1  0
 20 21  2  0
 21 22  1  0
 22 23  1  0
 17 24  2  0
  7 25  1  0
 25 26  2  0
 26  4  1  0
 24 12  1  0
 23 19  2  0
  1 27  1  0
  1 28  1  0
  1 29  1  0
  2 30  1  0
  3 31  1  0
  3 32  1  0
  3 33  1  0
  5 34  1  0
  6 35  1  0
 11 36  1  0
 13 37  1  0
 14 38  1  0
 16 39  1  0
 21 40  1  0
 22 41  1  0
 24 42  1  0
 25 43  1  0
 26 44  1  0
M  END
$$$$
