
     RDKit          3D

 48 50  0  0  0  0  0  0  0  0999 V2000
    9.5391    0.4322   -0.5197 C   0  0  0  0  0  0  0  0  0  0  0  0
    8.7237   -0.4245    0.2707 O   0  0  0  0  0  0  0  0  0  0  0  0
    7.3762   -0.3824    0.0467 C   0  0  0  0  0  0  0  0  0  0  0  0
    6.7251    0.4128   -0.8950 C   0  0  0  0  0  0  0  0  0  0  0  0
    5.3297    0.3624   -1.0261 C   0  0  0  0  0  0  0  0  0  0  0  0
    4.5688   -0.4836   -0.2135 C   0  0  0  0  0  0  0  0  0  0  0  0
    3.2054   -0.6017   -0.2701 O   0  0  0  0  0  0  0  0  0  0  0  0
    2.4966    0.2605   -1.1564 C   0  0  0  0  0  0  0  0  0  0  0  0
    1.0517   -0.0143   -0.9778 C   0  0  0  0  0  0  0  0  0  0  0  0
    0.2981   -0.7167   -0.0691 C   0  0  0  0  0  0  0  0  0  0  0  0
   -1.0397   -0.5484   -0.5020 C   0  0  0  0  0  0  0  0  0  0  0  0
   -2.2522   -1.0963    0.1116 C   0  0  0  0  0  0  0  0  0  0  0  0
   -2.2238   -1.7975    1.1173 O   0  0  0  0  0  0  0  0  0  0  0  0
   -3.4129   -0.7598   -0.5557 N   0  0  0  0  0  0  0  0  0  0  0  0
   -4.7199   -1.2992   -0.1941 C   0  0  0  0  0  0  0  0  0  0  0  0
   -4.8958   -2.6778   -0.8343 C   0  0  0  0  0  0  0  0  0  0  0  0
   -5.8553   -0.3601   -0.6357 C   0  0  0  0  0  0  0  0  0  0  0  0
   -5.9630    0.8622    0.2418 C   0  0  0  0  0  0  0  0  0  0  0  0
   -5.2070    2.0022   -0.0219 C   0  0  0  0  0  0  0  0  0  0  0  0
   -5.3294    3.1004    0.8248 C   0  0  0  0  0  0  0  0  0  0  0  0
   -6.1972    3.0329    1.9074 C   0  0  0  0  0  0  0  0  0  0  0  0
   -6.9108    1.8628    2.0990 C   0  0  0  0  0  0  0  0  0  0  0  0
   -6.8142    0.7822    1.2935 N   0  0  0  0  0  0  0  0  0  0  0  0
   -1.0875    0.2156   -1.6106 N   0  0  0  0  0  0  0  0  0  0  0  0
    0.2234    0.5462   -1.8997 O   0  0  0  0  0  0  0  0  0  0  0  0
    5.2326   -1.2826    0.7299 C   0  0  0  0  0  0  0  0  0  0  0  0
    4.3606   -2.3548    1.7709 Cl  0  0  0  0  0  0  0  0  0  0  0  0
    6.6228   -1.2312    0.8578 C   0  0  0  0  0  0  0  0  0  0  0  0
    9.2883    1.4843   -0.3494 H   0  0  0  0  0  0  0  0  0  0  0  0
    9.4665    0.1757   -1.5818 H   0  0  0  0  0  0  0  0  0  0  0  0
   10.5783    0.2837   -0.2111 H   0  0  0  0  0  0  0  0  0  0  0  0
    7.2733    1.0842   -1.5499 H   0  0  0  0  0  0  0  0  0  0  0  0
    4.8759    0.9974   -1.7805 H   0  0  0  0  0  0  0  0  0  0  0  0
    2.6927    1.3107   -0.9101 H   0  0  0  0  0  0  0  0  0  0  0  0
    2.7804    0.0515   -2.1948 H   0  0  0  0  0  0  0  0  0  0  0  0
    0.6524   -1.2756    0.7860 H   0  0  0  0  0  0  0  0  0  0  0  0
   -3.2850   -0.2954   -1.4499 H   0  0  0  0  0  0  0  0  0  0  0  0
   -4.7442   -1.4275    0.8957 H   0  0  0  0  0  0  0  0  0  0  0  0
   -5.8565   -3.1207   -0.5517 H   0  0  0  0  0  0  0  0  0  0  0  0
   -4.1038   -3.3641   -0.5153 H   0  0  0  0  0  0  0  0  0  0  0  0
   -4.8553   -2.6137   -1.9276 H   0  0  0  0  0  0  0  0  0  0  0  0
   -5.7291   -0.0539   -1.6820 H   0  0  0  0  0  0  0  0  0  0  0  0
   -6.8150   -0.8908   -0.5843 H   0  0  0  0  0  0  0  0  0  0  0  0
   -4.5284    2.0400   -0.8677 H   0  0  0  0  0  0  0  0  0  0  0  0
   -4.7486    3.9999    0.6421 H   0  0  0  0  0  0  0  0  0  0  0  0
   -6.3131    3.8695    2.5868 H   0  0  0  0  0  0  0  0  0  0  0  0
   -7.6007    1.7580    2.9313 H   0  0  0  0  0  0  0  0  0  0  0  0
    7.1268   -1.8546    1.5929 H   0  0  0  0  0  0  0  0  0  0  0  0
  1  2  1  0
  2  3  1  0
  3  4  2  0
  4  5  1  0
  5  6  2  0
  6  7  1  0
  7  8  1  0
  8  9  1  0
  9 10  2  0
 10 11  1  0
 11 12  1  0
 12 13  2  0
 12 14  1  0
 14 15  1  0
 15 16  1  0
 15 17  1  0
 17 18  1  0
 18 19  2  0
 19 20  1  0
 20 21  2  0
 21 22  1  0
 22 23  2  0
 11 24  2  0
 24 25  1  0
  6 26  1  0
 26 27  1  0
 26 28  2  0
 28  3  1  0
 25  9  1  0
 23 18  1  0
  1 29  1  0
  1 30  1  0
  1 31  1  0
  4 32  1  0
  5 33  1  0
  8 34  1  0
  8 35  1  0
 10 36  1  0
 14 37  1  0
 15 38  1  0
 16 39  1  0
 16 40  1  0
 16 41  1  0
 17 42  1  0
 17 43  1  0
 19 44  1  0
 20 45  1  0
 21 46  1  0
 22 47  1  0
 28 48  1  0
M  END
$$$$
