
     RDKit          3D

 36 36  0  0  0  0  0  0  0  0999 V2000
    2.0489   -3.8561    3.2305 C   0  0  0  0  0  0  0  0  0  0  0  0
    1.9038   -3.8127    1.7198 C   0  0  0  0  0  0  0  0  0  0  0  0
    1.3882   -2.5514    1.2960 O   0  0  0  0  0  0  0  0  0  0  0  0
   -0.0342   -2.4544    1.3421 C   0  0  0  0  0  0  0  0  0  0  0  0
   -0.6907   -3.0383    0.0925 C   0  0  0  0  0  0  0  0  0  0  0  0
   -0.0952   -2.5130   -1.2130 C   0  0  0  0  0  0  0  0  0  0  0  0
   -0.1681   -1.0701   -1.3340 N   0  0  0  0  0  0  0  0  0  0  0  0
   -1.3318   -0.4239   -1.6849 C   0  0  0  0  0  0  0  0  0  0  0  0
   -2.3878   -1.0004   -1.9135 O   0  0  0  0  0  0  0  0  0  0  0  0
   -1.2191    1.0562   -1.7816 C   0  0  0  0  0  0  0  0  0  0  0  0
   -1.7729    1.6703   -2.9386 C   0  0  0  0  0  0  0  0  0  0  0  0
   -2.2234    2.1775   -3.8807 N   0  0  0  0  0  0  0  0  0  0  0  0
   -0.7066    1.7086   -0.7212 C   0  0  0  0  0  0  0  0  0  0  0  0
   -0.5447    3.1208   -0.6544 C   0  0  0  0  0  0  0  0  0  0  0  0
   -0.4655    3.9261    0.4812 C   0  0  0  0  0  0  0  0  0  0  0  0
   -0.2887    5.2692    0.0628 C   0  0  0  0  0  0  0  0  0  0  0  0
   -0.2459    5.2105   -1.3057 C   0  0  0  0  0  0  0  0  0  0  0  0
   -0.0654    6.2248   -2.2951 N   0  0  0  0  0  4  0  0  0  0  0  0
   -0.0435    7.3921   -1.8803 O   0  0  0  0  0  0  0  0  0  0  0  0
    0.0760    5.8702   -3.4711 O   0  0  0  0  0  1  0  0  0  0  0  0
   -0.3955    3.9392   -1.7539 O   0  0  0  0  0  0  0  0  0  0  0  0
    2.5297   -4.7868    3.5454 H   0  0  0  0  0  0  0  0  0  0  0  0
    2.6492   -3.0113    3.5837 H   0  0  0  0  0  0  0  0  0  0  0  0
    1.0764   -3.7858    3.7266 H   0  0  0  0  0  0  0  0  0  0  0  0
    1.2856   -4.6397    1.3561 H   0  0  0  0  0  0  0  0  0  0  0  0
    2.8945   -3.9203    1.2661 H   0  0  0  0  0  0  0  0  0  0  0  0
   -0.4346   -2.9280    2.2448 H   0  0  0  0  0  0  0  0  0  0  0  0
   -0.2756   -1.3883    1.4144 H   0  0  0  0  0  0  0  0  0  0  0  0
   -1.7660   -2.8292    0.1298 H   0  0  0  0  0  0  0  0  0  0  0  0
   -0.5803   -4.1286    0.0964 H   0  0  0  0  0  0  0  0  0  0  0  0
   -0.6284   -2.9580   -2.0608 H   0  0  0  0  0  0  0  0  0  0  0  0
    0.9593   -2.7942   -1.3018 H   0  0  0  0  0  0  0  0  0  0  0  0
    0.6953   -0.5550   -1.2115 H   0  0  0  0  0  0  0  0  0  0  0  0
   -0.4112    1.1486    0.1637 H   0  0  0  0  0  0  0  0  0  0  0  0
   -0.5380    3.5760    1.5034 H   0  0  0  0  0  0  0  0  0  0  0  0
   -0.1942    6.1555    0.6756 H   0  0  0  0  0  0  0  0  0  0  0  0
  1  2  1  0
  2  3  1  0
  3  4  1  0
  4  5  1  0
  5  6  1  0
  6  7  1  0
  7  8  1  0
  8  9  2  0
  8 10  1  0
 10 11  1  0
 11 12  3  0
 10 13  2  3
 13 14  1  0
 14 15  2  0
 15 16  1  0
 16 17  2  0
 17 18  1  0
 18 19  2  0
 18 20  1  0
 17 21  1  0
 21 14  1  0
  1 22  1  0
  1 23  1  0
  1 24  1  0
  2 25  1  0
  2 26  1  0
  4 27  1  0
  4 28  1  0
  5 29  1  0
  5 30  1  0
  6 31  1  0
  6 32  1  0
  7 33  1  0
 13 34  1  0
 15 35  1  0
 16 36  1  0
M  CHG  2  18   1  20  -1
M  END
$$$$
