
     RDKit          3D

 47 49  0  0  0  0  0  0  0  0999 V2000
    8.1186    1.0809    0.8398 C   0  0  0  0  0  0  0  0  0  0  0  0
    6.7205    1.6601    0.9923 C   0  0  0  0  0  0  0  0  0  0  0  0
    5.6566    0.6745    0.5800 C   0  0  0  0  0  0  0  0  0  0  0  0
    5.2203    0.6151   -0.7498 C   0  0  0  0  0  0  0  0  0  0  0  0
    4.2497   -0.3129   -1.1342 C   0  0  0  0  0  0  0  0  0  0  0  0
    3.6972   -1.1876   -0.1968 C   0  0  0  0  0  0  0  0  0  0  0  0
    2.7138   -2.1074   -0.5807 N   0  0  0  0  0  0  0  0  0  0  0  0
    1.4759   -1.7578   -0.5126 C   0  0  0  0  0  0  0  0  0  0  0  0
    0.9724   -0.5662   -0.1013 N   0  0  0  0  0  0  0  0  0  0  0  0
   -0.3838   -0.4062   -0.1109 C   0  0  0  0  0  0  0  0  0  0  0  0
   -0.9427    0.6201    0.2379 O   0  0  0  0  0  0  0  0  0  0  0  0
   -1.0390   -1.6560   -0.5991 C   0  0  0  0  0  0  0  0  0  0  0  0
   -2.3447   -1.9051   -0.7749 C   0  0  0  0  0  0  0  0  0  0  0  0
   -3.4645   -0.9930   -0.5109 C   0  0  0  0  0  0  0  0  0  0  0  0
   -3.7112   -0.4949    0.7769 C   0  0  0  0  0  0  0  0  0  0  0  0
   -4.8018    0.3447    1.0170 C   0  0  0  0  0  0  0  0  0  0  0  0
   -5.1121    0.8728    2.2426 O   0  0  0  0  0  0  0  0  0  0  0  0
   -4.0170    1.0676    3.1289 C   0  0  0  0  0  0  0  0  0  0  0  0
   -5.6663    0.6420   -0.0405 C   0  0  0  0  0  0  0  0  0  0  0  0
   -6.7576    1.4484    0.1788 O   0  0  0  0  0  0  0  0  0  0  0  0
   -5.4441    0.1439   -1.3322 C   0  0  0  0  0  0  0  0  0  0  0  0
   -6.3736    0.5262   -2.2675 O   0  0  0  0  0  0  0  0  0  0  0  0
   -6.1651    0.0743   -3.6004 C   0  0  0  0  0  0  0  0  0  0  0  0
   -4.3394   -0.6761   -1.5615 C   0  0  0  0  0  0  0  0  0  0  0  0
    0.1832   -2.8342   -0.9682 S   0  0  0  0  0  0  0  0  0  0  0  0
    4.1494   -1.1492    1.1234 C   0  0  0  0  0  0  0  0  0  0  0  0
    5.1199   -0.2228    1.5121 C   0  0  0  0  0  0  0  0  0  0  0  0
    8.3217    0.8015   -0.1996 H   0  0  0  0  0  0  0  0  0  0  0  0
    8.8686    1.8171    1.1458 H   0  0  0  0  0  0  0  0  0  0  0  0
    8.2481    0.1869    1.4593 H   0  0  0  0  0  0  0  0  0  0  0  0
    6.5569    1.9649    2.0332 H   0  0  0  0  0  0  0  0  0  0  0  0
    6.6297    2.5732    0.3914 H   0  0  0  0  0  0  0  0  0  0  0  0
    5.6408    1.2849   -1.4968 H   0  0  0  0  0  0  0  0  0  0  0  0
    3.9277   -0.3589   -2.1712 H   0  0  0  0  0  0  0  0  0  0  0  0
    1.5633    0.1916    0.2015 H   0  0  0  0  0  0  0  0  0  0  0  0
   -2.6545   -2.8714   -1.1710 H   0  0  0  0  0  0  0  0  0  0  0  0
   -3.0459   -0.7760    1.5868 H   0  0  0  0  0  0  0  0  0  0  0  0
   -3.1754    1.5631    2.6324 H   0  0  0  0  0  0  0  0  0  0  0  0
   -4.3558    1.7195    3.9400 H   0  0  0  0  0  0  0  0  0  0  0  0
   -3.7063    0.1176    3.5749 H   0  0  0  0  0  0  0  0  0  0  0  0
   -7.2003    1.5200   -0.6872 H   0  0  0  0  0  0  0  0  0  0  0  0
   -6.9728    0.4766   -4.2194 H   0  0  0  0  0  0  0  0  0  0  0  0
   -5.2185    0.4511   -4.0019 H   0  0  0  0  0  0  0  0  0  0  0  0
   -6.2139   -1.0180   -3.6580 H   0  0  0  0  0  0  0  0  0  0  0  0
   -4.1384   -1.0831   -2.5472 H   0  0  0  0  0  0  0  0  0  0  0  0
    3.7490   -1.8493    1.8518 H   0  0  0  0  0  0  0  0  0  0  0  0
    5.4615   -0.2125    2.5450 H   0  0  0  0  0  0  0  0  0  0  0  0
  1  2  1  0
  2  3  1  0
  3  4  2  0
  4  5  1  0
  5  6  2  0
  6  7  1  0
  7  8  2  3
  8  9  1  0
  9 10  1  0
 10 11  2  0
 10 12  1  0
 12 13  2  3
 13 14  1  0
 14 15  2  0
 15 16  1  0
 16 17  1  0
 17 18  1  0
 16 19  2  0
 19 20  1  0
 19 21  1  0
 21 22  1  0
 22 23  1  0
 21 24  2  0
 12 25  1  0
  6 26  1  0
 26 27  2  0
 27  3  1  0
 25  8  1  0
 24 14  1  0
  1 28  1  0
  1 29  1  0
  1 30  1  0
  2 31  1  0
  2 32  1  0
  4 33  1  0
  5 34  1  0
  9 35  1  0
 13 36  1  0
 15 37  1  0
 18 38  1  0
 18 39  1  0
 18 40  1  0
 20 41  1  0
 23 42  1  0
 23 43  1  0
 23 44  1  0
 24 45  1  0
 26 46  1  0
 27 47  1  0
M  END
$$$$
