
     RDKit          3D

 42 44  0  0  0  0  0  0  0  0999 V2000
    0.6849    3.2296   -0.2562 C   0  0  0  0  0  0  0  0  0  0  0  0
   -0.7581    2.8406   -0.0064 C   0  0  0  0  0  0  0  0  0  0  0  0
   -0.8368    1.4109    0.0375 O   0  0  0  0  0  0  0  0  0  0  0  0
   -2.0981    0.9294    0.2531 C   0  0  0  0  0  0  0  0  0  0  0  0
   -3.0810    1.6477    0.4017 O   0  0  0  0  0  0  0  0  0  0  0  0
   -2.1678   -0.5304    0.2890 C   0  0  0  0  0  0  0  0  0  0  0  0
   -1.0999   -1.4234    0.1472 C   0  0  0  0  0  0  0  0  0  0  0  0
    0.2334   -1.1097   -0.0551 N   0  0  0  0  0  0  0  0  0  0  0  0
    1.3057   -1.9689   -0.2060 C   0  0  0  0  0  0  0  0  0  0  0  0
    1.2961   -3.1938   -0.1960 O   0  0  0  0  0  0  0  0  0  0  0  0
    2.5689   -1.2280   -0.3980 C   0  0  0  0  0  0  0  0  0  0  0  0
    3.8596   -1.7859   -0.5917 C   0  0  0  0  0  0  0  0  0  0  0  0
    4.7072   -0.7134   -0.7209 C   0  0  0  0  0  0  0  0  0  0  0  0
    3.9263    0.3970   -0.6008 N   0  0  0  0  0  0  0  0  0  0  0  0
    4.3748    1.7749   -0.6677 C   0  0  0  0  0  0  0  0  0  0  0  0
    4.6379    2.3582    0.7087 C   0  0  0  0  0  0  0  0  0  0  0  0
    2.6200    0.1223   -0.4084 N   0  0  0  0  0  0  0  0  0  0  0  0
   -1.5950   -3.0681    0.2558 S   0  0  0  0  0  0  0  0  0  0  0  0
   -3.1796   -2.6175    0.4825 C   0  0  0  0  0  0  0  0  0  0  0  0
   -3.3736   -1.2674    0.4810 C   0  0  0  0  0  0  0  0  0  0  0  0
   -4.8081   -0.9368    0.6901 C   0  0  0  0  0  0  0  0  0  0  0  0
   -5.5030   -2.3182    0.4741 C   0  0  0  0  0  0  0  0  0  0  0  0
   -4.4119   -3.4112    0.6877 C   0  0  0  0  0  0  0  0  0  0  0  0
    1.0415    2.7996   -1.1978 H   0  0  0  0  0  0  0  0  0  0  0  0
    0.7949    4.3167   -0.3004 H   0  0  0  0  0  0  0  0  0  0  0  0
    1.3296    2.8416    0.5386 H   0  0  0  0  0  0  0  0  0  0  0  0
   -1.0925    3.2593    0.9494 H   0  0  0  0  0  0  0  0  0  0  0  0
   -1.3878    3.2214   -0.8183 H   0  0  0  0  0  0  0  0  0  0  0  0
    0.4803   -0.1210   -0.1055 H   0  0  0  0  0  0  0  0  0  0  0  0
    4.1157   -2.8362   -0.6288 H   0  0  0  0  0  0  0  0  0  0  0  0
    5.7747   -0.6529   -0.8808 H   0  0  0  0  0  0  0  0  0  0  0  0
    5.2864    1.7997   -1.2747 H   0  0  0  0  0  0  0  0  0  0  0  0
    3.6063    2.3491   -1.1958 H   0  0  0  0  0  0  0  0  0  0  0  0
    5.4156    1.7929    1.2334 H   0  0  0  0  0  0  0  0  0  0  0  0
    3.7355    2.3359    1.3285 H   0  0  0  0  0  0  0  0  0  0  0  0
    4.9691    3.3977    0.6242 H   0  0  0  0  0  0  0  0  0  0  0  0
   -4.9735   -0.5802    1.7121 H   0  0  0  0  0  0  0  0  0  0  0  0
   -5.1825   -0.1950   -0.0206 H   0  0  0  0  0  0  0  0  0  0  0  0
   -6.3658   -2.4568    1.1331 H   0  0  0  0  0  0  0  0  0  0  0  0
   -5.8669   -2.3753   -0.5604 H   0  0  0  0  0  0  0  0  0  0  0  0
   -4.5258   -4.2301   -0.0277 H   0  0  0  0  0  0  0  0  0  0  0  0
   -4.4569   -3.8043    1.7085 H   0  0  0  0  0  0  0  0  0  0  0  0
  1  2  1  0
  2  3  1  0
  3  4  1  0
  4  5  2  0
  4  6  1  0
  6  7  2  0
  7  8  1  0
  8  9  1  0
  9 10  2  0
  9 11  1  0
 11 12  1  0
 12 13  2  0
 13 14  1  0
 14 15  1  0
 15 16  1  0
 14 17  1  0
  7 18  1  0
 18 19  1  0
 19 20  2  0
 20 21  1  0
 21 22  1  0
 22 23  1  0
 20  6  1  0
 17 11  2  0
 23 19  1  0
  1 24  1  0
  1 25  1  0
  1 26  1  0
  2 27  1  0
  2 28  1  0
  8 29  1  0
 12 30  1  0
 13 31  1  0
 15 32  1  0
 15 33  1  0
 16 34  1  0
 16 35  1  0
 16 36  1  0
 21 37  1  0
 21 38  1  0
 22 39  1  0
 22 40  1  0
 23 41  1  0
 23 42  1  0
M  END
$$$$
