
     RDKit          3D

 39 41  0  0  0  0  0  0  0  0999 V2000
    2.3285    0.8742   -4.1058 O   0  0  0  0  0  0  0  0  0  0  0  0
    2.2403    1.2232   -2.9323 C   0  0  0  0  0  0  0  0  0  0  0  0
    3.3543    1.9908   -2.3157 C   0  0  0  0  0  0  0  0  0  0  0  0
    3.9431    1.7420   -1.1346 C   0  0  0  0  0  0  0  0  0  0  0  0
    3.6282    0.6409   -0.2196 C   0  0  0  0  0  0  0  0  0  0  0  0
    3.2528    0.9261    1.0984 C   0  0  0  0  0  0  0  0  0  0  0  0
    2.9305   -0.1091    1.9798 C   0  0  0  0  0  0  0  0  0  0  0  0
    2.9980   -1.4318    1.5466 C   0  0  0  0  0  0  0  0  0  0  0  0
    2.5520   -2.8321    2.7351 Br  0  0  0  0  0  0  0  0  0  0  0  0
    3.3931   -1.7301    0.2444 C   0  0  0  0  0  0  0  0  0  0  0  0
    3.7130   -0.6940   -0.6363 C   0  0  0  0  0  0  0  0  0  0  0  0
    1.0242    0.9059   -2.1419 C   0  0  0  0  0  0  0  0  0  0  0  0
    0.5492    1.7534   -1.1371 C   0  0  0  0  0  0  0  0  0  0  0  0
   -0.5938    1.4076   -0.4053 C   0  0  0  0  0  0  0  0  0  0  0  0
   -1.2804    0.2229   -0.6784 C   0  0  0  0  0  0  0  0  0  0  0  0
   -2.4274   -0.1997    0.0167 N   0  0  0  0  0  0  0  0  0  0  0  0
   -3.0726    0.4198    1.0727 C   0  0  0  0  0  0  0  0  0  0  0  0
   -2.7366    1.4798    1.5905 O   0  0  0  0  0  0  0  0  0  0  0  0
   -4.2293   -0.3293    1.5330 C   0  0  0  0  0  0  0  0  0  0  0  0
   -5.1363   -0.0734    2.5441 C   0  0  0  0  0  0  0  0  0  0  0  0
   -6.0595   -1.1460    2.5465 C   0  0  0  0  0  0  0  0  0  0  0  0
   -5.6642   -1.9934    1.5390 C   0  0  0  0  0  0  0  0  0  0  0  0
   -4.5573   -1.5117    0.9165 O   0  0  0  0  0  0  0  0  0  0  0  0
   -0.8166   -0.6074   -1.7068 C   0  0  0  0  0  0  0  0  0  0  0  0
    0.3245   -0.2667   -2.4394 C   0  0  0  0  0  0  0  0  0  0  0  0
    3.7428    2.7784   -2.9549 H   0  0  0  0  0  0  0  0  0  0  0  0
    4.7598    2.3842   -0.8104 H   0  0  0  0  0  0  0  0  0  0  0  0
    3.1885    1.9551    1.4451 H   0  0  0  0  0  0  0  0  0  0  0  0
    2.6242    0.1274    2.9953 H   0  0  0  0  0  0  0  0  0  0  0  0
    3.4539   -2.7602   -0.0960 H   0  0  0  0  0  0  0  0  0  0  0  0
    4.0229   -0.9383   -1.6507 H   0  0  0  0  0  0  0  0  0  0  0  0
    1.0528    2.6880   -0.9060 H   0  0  0  0  0  0  0  0  0  0  0  0
   -0.9206    2.0909    0.3724 H   0  0  0  0  0  0  0  0  0  0  0  0
   -2.8463   -1.0775   -0.2729 H   0  0  0  0  0  0  0  0  0  0  0  0
   -5.1204    0.7905    3.1954 H   0  0  0  0  0  0  0  0  0  0  0  0
   -6.9083   -1.2847    3.2017 H   0  0  0  0  0  0  0  0  0  0  0  0
   -6.0451   -2.9314    1.1586 H   0  0  0  0  0  0  0  0  0  0  0  0
   -1.3332   -1.5320   -1.9526 H   0  0  0  0  0  0  0  0  0  0  0  0
    0.6713   -0.9233   -3.2349 H   0  0  0  0  0  0  0  0  0  0  0  0
  1  2  2  0
  2  3  1  0
  3  4  2  3
  4  5  1  0
  5  6  2  0
  6  7  1  0
  7  8  2  0
  8  9  1  0
  8 10  1  0
 10 11  2  0
  2 12  1  0
 12 13  2  0
 13 14  1  0
 14 15  2  0
 15 16  1  0
 16 17  1  0
 17 18  2  0
 17 19  1  0
 19 20  2  0
 20 21  1  0
 21 22  2  0
 22 23  1  0
 15 24  1  0
 24 25  2  0
 11  5  1  0
 25 12  1  0
 23 19  1  0
  3 26  1  0
  4 27  1  0
  6 28  1  0
  7 29  1  0
 10 30  1  0
 11 31  1  0
 13 32  1  0
 14 33  1  0
 16 34  1  0
 20 35  1  0
 21 36  1  0
 22 37  1  0
 24 38  1  0
 25 39  1  0
M  END
$$$$
