
     RDKit          3D

 36 39  0  0  0  0  0  0  0  0999 V2000
   -6.7864   -0.6769    1.3770 C   0  0  0  0  0  0  0  0  0  0  0  0
   -5.4191   -0.6613    0.7609 C   0  0  0  0  0  0  0  0  0  0  0  0
   -4.4339   -1.1910    1.2558 O   0  0  0  0  0  0  0  0  0  0  0  0
   -5.4789    0.0426   -0.4386 O   0  0  0  0  0  0  0  0  0  0  0  0
   -4.2788    0.1600   -1.1537 C   0  0  0  0  0  0  0  0  0  0  0  0
   -4.2838   -0.2706   -2.4787 C   0  0  0  0  0  0  0  0  0  0  0  0
   -3.1305   -0.1288   -3.2477 C   0  0  0  0  0  0  0  0  0  0  0  0
   -1.9860    0.4496   -2.6918 C   0  0  0  0  0  0  0  0  0  0  0  0
   -1.9885    0.8910   -1.3615 C   0  0  0  0  0  0  0  0  0  0  0  0
   -0.8005    1.5078   -0.7648 C   0  0  0  0  0  0  0  0  0  0  0  0
    0.3448    0.8750   -0.4729 C   0  0  0  0  0  0  0  0  0  0  0  0
    0.7151   -0.8214   -0.7234 S   0  0  0  0  0  0  0  0  0  0  0  0
    2.2717   -0.5734   -0.0484 C   0  0  0  0  0  0  0  0  0  0  0  0
    3.3148   -1.3170    0.1780 N   0  0  0  0  0  0  0  0  0  0  0  0
    4.1907   -0.4015    0.7425 C   0  0  0  0  0  0  0  0  0  0  0  0
    5.6287   -0.8033    1.2090 C   0  0  0  0  0  0  0  0  0  0  0  0
    6.5604    0.0440    1.7787 C   0  0  0  0  0  0  0  0  0  0  0  0
    7.7132   -0.7349    2.0427 C   0  0  0  0  0  0  0  0  0  0  0  0
    7.4163   -2.0082    1.6191 C   0  0  0  0  0  0  0  0  0  0  0  0
    6.1580   -2.0607    1.1128 O   0  0  0  0  0  0  0  0  0  0  0  0
    3.7137    0.8570    0.8566 N   0  0  0  0  0  0  0  0  0  0  0  0
    2.4832    0.6993    0.3387 N   0  0  0  0  0  0  0  0  0  0  0  0
    1.4766    1.6224    0.1560 C   0  0  0  0  0  0  0  0  0  0  0  0
    1.5593    2.7976    0.4632 O   0  0  0  0  0  0  0  0  0  0  0  0
   -3.1505    0.7611   -0.5943 C   0  0  0  0  0  0  0  0  0  0  0  0
   -7.4887   -1.1802    0.7079 H   0  0  0  0  0  0  0  0  0  0  0  0
   -7.1128    0.3460    1.5807 H   0  0  0  0  0  0  0  0  0  0  0  0
   -6.7511   -1.2260    2.3223 H   0  0  0  0  0  0  0  0  0  0  0  0
   -5.1762   -0.7145   -2.9100 H   0  0  0  0  0  0  0  0  0  0  0  0
   -3.1208   -0.4668   -4.2810 H   0  0  0  0  0  0  0  0  0  0  0  0
   -1.0960    0.5544   -3.3086 H   0  0  0  0  0  0  0  0  0  0  0  0
   -0.9106    2.5666   -0.5319 H   0  0  0  0  0  0  0  0  0  0  0  0
    6.4153    1.0975    1.9763 H   0  0  0  0  0  0  0  0  0  0  0  0
    8.6434   -0.4093    2.4864 H   0  0  0  0  0  0  0  0  0  0  0  0
    7.9621   -2.9415    1.6082 H   0  0  0  0  0  0  0  0  0  0  0  0
   -3.1740    1.1096    0.4345 H   0  0  0  0  0  0  0  0  0  0  0  0
  1  2  1  0
  2  3  2  0
  2  4  1  0
  4  5  1  0
  5  6  2  0
  6  7  1  0
  7  8  2  0
  8  9  1  0
  9 10  1  0
 10 11  2  3
 11 12  1  0
 12 13  1  0
 13 14  2  0
 14 15  1  0
 15 16  1  0
 16 17  2  0
 17 18  1  0
 18 19  2  0
 19 20  1  0
 15 21  2  0
 21 22  1  0
 22 23  1  0
 23 24  2  0
  9 25  2  0
 25  5  1  0
 23 11  1  0
 22 13  1  0
 20 16  1  0
  1 26  1  0
  1 27  1  0
  1 28  1  0
  6 29  1  0
  7 30  1  0
  8 31  1  0
 10 32  1  0
 17 33  1  0
 18 34  1  0
 19 35  1  0
 25 36  1  0
M  END
$$$$
