
     RDKit          3D

 53 58  0  0  0  0  0  0  0  0999 V2000
   -0.5473    1.9042   -0.1571 O   0  0  0  0  0  0  0  0  0  0  0  0
   -1.0899    0.9837   -0.7787 C   0  0  0  0  0  0  0  0  0  0  0  0
   -0.1814   -0.1229   -1.3586 C   0  0  0  0  0  0  0  0  0  0  0  0
    0.9888   -0.3363   -0.4825 N   0  0  0  0  0  4  0  0  0  0  0  0
    2.3245   -0.0750   -0.7815 C   0  0  0  0  0  0  0  0  0  0  0  0
    3.1003   -0.3522    0.3395 C   0  0  0  0  0  0  0  0  0  0  0  0
    4.6671   -0.2363    0.4456 C   0  0  0  0  0  0  0  0  0  0  0  0
    5.3334   -0.6040    1.6148 C   0  0  0  0  0  0  0  0  0  0  0  0
    6.7270   -0.5019    1.6952 C   0  0  0  0  0  0  0  0  0  0  0  0
    7.4666   -0.0391    0.6068 C   0  0  0  0  0  0  0  0  0  0  0  0
    9.1794    0.0526    0.7769 Cl  0  0  0  0  0  0  0  0  0  0  0  0
    6.8036    0.3275   -0.5667 C   0  0  0  0  0  0  0  0  0  0  0  0
    7.6406    0.9056   -1.9620 Cl  0  0  0  0  0  0  0  0  0  0  0  0
    5.4077    0.2300   -0.6466 C   0  0  0  0  0  0  0  0  0  0  0  0
    2.1656   -0.7412    1.2853 N   0  0  0  0  0  0  0  0  0  0  0  0
    0.9323   -0.7204    0.7885 C   0  0  0  0  0  0  0  0  0  0  0  0
   -0.1045   -1.1299    1.7638 C   0  0  0  0  0  0  0  0  0  0  0  0
    0.6776   -1.1271    3.0907 C   0  0  0  0  0  0  0  0  0  0  0  0
    2.1785   -1.1414    2.6844 C   0  0  0  0  0  0  0  0  0  0  0  0
   -2.4763    0.7571   -0.8518 N   0  0  0  0  0  0  0  0  0  0  0  0
   -3.3760    1.3528    0.1083 C   0  0  0  0  0  0  0  0  0  0  0  0
   -3.1461    2.6454    0.6109 C   0  0  0  0  0  0  0  0  0  0  0  0
   -4.0048    3.2276    1.5494 C   0  0  0  0  0  0  0  0  0  0  0  0
   -5.1146    2.5292    2.0074 C   0  0  0  0  0  0  0  0  0  0  0  0
   -5.3651    1.2472    1.5271 C   0  0  0  0  0  0  0  0  0  0  0  0
   -4.5089    0.6609    0.5824 C   0  0  0  0  0  0  0  0  0  0  0  0
   -4.8532   -1.0126    0.0874 S   0  0  0  0  0  0  0  0  0  0  0  0
   -4.1548   -0.9458   -1.5401 C   0  0  0  0  0  0  0  0  0  0  0  0
   -4.6874   -1.7881   -2.5258 C   0  0  0  0  0  0  0  0  0  0  0  0
   -4.1746   -1.7747   -3.8214 C   0  0  0  0  0  0  0  0  0  0  0  0
   -3.1373   -0.9075   -4.1439 C   0  0  0  0  0  0  0  0  0  0  0  0
   -2.5961   -0.0722   -3.1632 C   0  0  0  0  0  0  0  0  0  0  0  0
   -3.0728   -0.1013   -1.8383 C   0  0  0  0  0  0  0  0  0  0  0  0
    0.1709    0.1811   -2.3481 H   0  0  0  0  0  0  0  0  0  0  0  0
   -0.6903   -1.0888   -1.4167 H   0  0  0  0  0  0  0  0  0  0  0  0
    2.5594    0.2743   -1.7731 H   0  0  0  0  0  0  0  0  0  0  0  0
    4.8092   -0.9801    2.4831 H   0  0  0  0  0  0  0  0  0  0  0  0
    7.2349   -0.7920    2.6137 H   0  0  0  0  0  0  0  0  0  0  0  0
    4.9256    0.5283   -1.5729 H   0  0  0  0  0  0  0  0  0  0  0  0
   -0.9225   -0.4105    1.7472 H   0  0  0  0  0  0  0  0  0  0  0  0
   -0.4328   -2.1298    1.4703 H   0  0  0  0  0  0  0  0  0  0  0  0
    0.4107   -1.9676    3.7398 H   0  0  0  0  0  0  0  0  0  0  0  0
    0.4599   -0.2004    3.6365 H   0  0  0  0  0  0  0  0  0  0  0  0
    2.5960   -2.1494    2.7596 H   0  0  0  0  0  0  0  0  0  0  0  0
    2.7530   -0.4345    3.2877 H   0  0  0  0  0  0  0  0  0  0  0  0
   -2.3211    3.2578    0.2544 H   0  0  0  0  0  0  0  0  0  0  0  0
   -3.8094    4.2357    1.9110 H   0  0  0  0  0  0  0  0  0  0  0  0
   -5.7854    2.9800    2.7352 H   0  0  0  0  0  0  0  0  0  0  0  0
   -6.2338    0.7055    1.8988 H   0  0  0  0  0  0  0  0  0  0  0  0
   -5.5127   -2.4597   -2.2921 H   0  0  0  0  0  0  0  0  0  0  0  0
   -4.6052   -2.4224   -4.5832 H   0  0  0  0  0  0  0  0  0  0  0  0
   -2.7682   -0.8660   -5.1669 H   0  0  0  0  0  0  0  0  0  0  0  0
   -1.8398    0.6447   -3.4767 H   0  0  0  0  0  0  0  0  0  0  0  0
  1  2  2  0
  2  3  1  0
  3  4  1  0
  4  5  1  0
  5  6  2  0
  6  7  1  0
  7  8  2  0
  8  9  1  0
  9 10  2  0
 10 11  1  0
 10 12  1  0
 12 13  1  0
 12 14  2  0
  6 15  1  0
 15 16  1  0
 16 17  1  0
 17 18  1  0
 18 19  1  0
  2 20  1  0
 20 21  1  0
 21 22  2  0
 22 23  1  0
 23 24  2  0
 24 25  1  0
 25 26  2  0
 26 27  1  0
 27 28  1  0
 28 29  2  0
 29 30  1  0
 30 31  2  0
 31 32  1  0
 32 33  2  0
 16  4  2  0
 33 20  1  0
 14  7  1  0
 19 15  1  0
 26 21  1  0
 33 28  1  0
  3 34  1  0
  3 35  1  0
  5 36  1  0
  8 37  1  0
  9 38  1  0
 14 39  1  0
 17 40  1  0
 17 41  1  0
 18 42  1  0
 18 43  1  0
 19 44  1  0
 19 45  1  0
 22 46  1  0
 23 47  1  0
 24 48  1  0
 25 49  1  0
 29 50  1  0
 30 51  1  0
 31 52  1  0
 32 53  1  0
M  CHG  1   4   1
M  END
$$$$
