
     RDKit          3D

 34 34  0  0  0  0  0  0  0  0999 V2000
    6.1043    0.2647   -0.9552 C   0  0  0  0  0  0  0  0  0  0  0  0
    5.4470    0.9588    0.2276 C   0  0  0  0  0  0  0  0  0  0  0  0
    3.9319    1.0942    0.0879 C   0  0  0  0  0  0  0  0  0  0  0  0
    3.1958   -0.2418    0.0837 C   0  0  0  0  0  0  0  0  0  0  0  0
    1.7875    0.0321    0.0441 O   0  0  0  0  0  0  0  0  0  0  0  0
    1.0053   -1.0764    0.0468 C   0  0  0  0  0  0  0  0  0  0  0  0
    1.4030   -2.2300    0.0790 O   0  0  0  0  0  0  0  0  0  0  0  0
   -0.4343   -0.7005    0.0045 C   0  0  0  0  0  0  0  0  0  0  0  0
   -0.8653    0.6302   -0.0301 C   0  0  0  0  0  0  0  0  0  0  0  0
   -2.2334    0.9260   -0.0691 C   0  0  0  0  0  0  0  0  0  0  0  0
   -3.1902   -0.0976   -0.0747 C   0  0  0  0  0  0  0  0  0  0  0  0
   -4.5454    0.2893   -0.1141 N   0  0  0  0  0  0  0  0  0  0  0  0
   -5.6562   -0.5353   -0.1373 C   0  0  0  0  0  0  0  0  0  0  0  0
   -6.9458    0.2464   -0.1818 C   0  0  0  0  0  0  0  0  0  0  0  0
   -5.6660   -1.7606   -0.1490 O   0  0  0  0  0  0  0  0  0  0  0  0
   -2.7562   -1.4236   -0.0394 C   0  0  0  0  0  0  0  0  0  0  0  0
   -1.3883   -1.7239   -0.0003 C   0  0  0  0  0  0  0  0  0  0  0  0
    5.7943   -0.7818   -1.0291 H   0  0  0  0  0  0  0  0  0  0  0  0
    5.8543    0.7677   -1.8947 H   0  0  0  0  0  0  0  0  0  0  0  0
    7.1931    0.2803   -0.8420 H   0  0  0  0  0  0  0  0  0  0  0  0
    5.8784    1.9620    0.3270 H   0  0  0  0  0  0  0  0  0  0  0  0
    5.6897    0.4170    1.1491 H   0  0  0  0  0  0  0  0  0  0  0  0
    3.5511    1.7055    0.9162 H   0  0  0  0  0  0  0  0  0  0  0  0
    3.6839    1.6510   -0.8245 H   0  0  0  0  0  0  0  0  0  0  0  0
    3.4701   -0.8303   -0.7985 H   0  0  0  0  0  0  0  0  0  0  0  0
    3.4325   -0.8056    0.9935 H   0  0  0  0  0  0  0  0  0  0  0  0
   -0.1504    1.4493   -0.0272 H   0  0  0  0  0  0  0  0  0  0  0  0
   -2.5350    1.9702   -0.0953 H   0  0  0  0  0  0  0  0  0  0  0  0
   -4.7212    1.2858   -0.1357 H   0  0  0  0  0  0  0  0  0  0  0  0
   -6.8803    1.1449    0.4386 H   0  0  0  0  0  0  0  0  0  0  0  0
   -7.7597   -0.3735    0.2053 H   0  0  0  0  0  0  0  0  0  0  0  0
   -7.1633    0.5275   -1.2155 H   0  0  0  0  0  0  0  0  0  0  0  0
   -3.4548   -2.2550   -0.0405 H   0  0  0  0  0  0  0  0  0  0  0  0
   -1.0762   -2.7669    0.0265 H   0  0  0  0  0  0  0  0  0  0  0  0
  1  2  1  0
  2  3  1  0
  3  4  1  0
  4  5  1  0
  5  6  1  0
  6  7  2  0
  6  8  1  0
  8  9  2  0
  9 10  1  0
 10 11  2  0
 11 12  1  0
 12 13  1  0
 13 14  1  0
 13 15  2  0
 11 16  1  0
 16 17  2  0
 17  8  1  0
  1 18  1  0
  1 19  1  0
  1 20  1  0
  2 21  1  0
  2 22  1  0
  3 23  1  0
  3 24  1  0
  4 25  1  0
  4 26  1  0
  9 27  1  0
 10 28  1  0
 12 29  1  0
 14 30  1  0
 14 31  1  0
 14 32  1  0
 16 33  1  0
 17 34  1  0
M  END
$$$$
