
     RDKit          3D

 53 55  0  0  0  0  0  0  0  0999 V2000
    9.2300   -0.2340    0.8366 C   0  0  0  0  0  0  0  0  0  0  0  0
    8.1799    0.5331    1.4111 O   0  0  0  0  0  0  0  0  0  0  0  0
    6.9878   -0.1055    1.6150 C   0  0  0  0  0  0  0  0  0  0  0  0
    6.7090   -1.4396    1.3186 C   0  0  0  0  0  0  0  0  0  0  0  0
    5.4393   -1.9692    1.5785 C   0  0  0  0  0  0  0  0  0  0  0  0
    4.4345   -1.1738    2.1452 C   0  0  0  0  0  0  0  0  0  0  0  0
    3.0602   -1.7334    2.4023 C   0  0  0  0  0  0  0  0  0  0  0  0
    2.1930   -1.4997    1.2780 N   0  0  0  0  0  0  0  0  0  0  0  0
    1.3408   -0.4240    1.2155 C   0  0  0  0  0  0  0  0  0  0  0  0
    1.1009    0.3694    2.1153 O   0  0  0  0  0  0  0  0  0  0  0  0
    0.6579   -0.2587   -0.1614 C   0  0  0  0  0  0  0  0  0  0  0  0
    0.8697   -1.0695   -1.0523 O   0  0  0  0  0  0  0  0  0  0  0  0
   -0.1545    0.8500   -0.2388 N   0  0  0  0  0  0  0  0  0  0  0  0
   -1.0253    1.0891   -1.3758 C   0  0  0  0  0  0  0  0  0  0  0  0
   -2.4205    0.4348   -1.2241 C   0  0  0  0  0  0  0  0  0  0  0  0
   -2.3087   -0.9962   -1.0923 O   0  0  0  0  0  0  0  0  0  0  0  0
   -2.5328   -1.5403   -2.3975 C   0  0  0  0  0  0  0  0  0  0  0  0
   -3.5986   -0.6368   -2.9785 C   0  0  0  0  0  0  0  0  0  0  0  0
   -3.2212    0.6664   -2.4320 N   0  0  0  0  0  0  0  0  0  0  0  0
   -4.2988    1.9421   -2.4519 S   0  0  0  0  0  6  0  0  0  0  0  0
   -3.6282    3.0847   -1.8679 O   0  0  0  0  0  0  0  0  0  0  0  0
   -4.8723    2.0102   -3.7792 O   0  0  0  0  0  0  0  0  0  0  0  0
   -5.5964    1.4537   -1.3348 C   0  0  0  0  0  0  0  0  0  0  0  0
   -5.5382    1.8361    0.0093 C   0  0  0  0  0  0  0  0  0  0  0  0
   -6.5742    1.4780    0.8722 C   0  0  0  0  0  0  0  0  0  0  0  0
   -7.6697    0.7606    0.3893 C   0  0  0  0  0  0  0  0  0  0  0  0
   -7.7404    0.4083   -0.9593 C   0  0  0  0  0  0  0  0  0  0  0  0
   -6.7082    0.7623   -1.8281 C   0  0  0  0  0  0  0  0  0  0  0  0
    4.7178    0.1673    2.4310 C   0  0  0  0  0  0  0  0  0  0  0  0
    5.9856    0.6924    2.1704 C   0  0  0  0  0  0  0  0  0  0  0  0
    9.5103   -1.0690    1.4871 H   0  0  0  0  0  0  0  0  0  0  0  0
    8.9604   -0.5852   -0.1648 H   0  0  0  0  0  0  0  0  0  0  0  0
   10.1036    0.4174    0.7365 H   0  0  0  0  0  0  0  0  0  0  0  0
    7.4547   -2.0955    0.8823 H   0  0  0  0  0  0  0  0  0  0  0  0
    5.2417   -3.0105    1.3334 H   0  0  0  0  0  0  0  0  0  0  0  0
    2.6341   -1.2939    3.3114 H   0  0  0  0  0  0  0  0  0  0  0  0
    3.1126   -2.8165    2.5587 H   0  0  0  0  0  0  0  0  0  0  0  0
    2.3577   -1.9909    0.4042 H   0  0  0  0  0  0  0  0  0  0  0  0
   -0.2624    1.3899    0.6163 H   0  0  0  0  0  0  0  0  0  0  0  0
   -0.5261    0.7070   -2.2738 H   0  0  0  0  0  0  0  0  0  0  0  0
   -1.1194    2.1743   -1.4814 H   0  0  0  0  0  0  0  0  0  0  0  0
   -2.9049    0.7932   -0.3127 H   0  0  0  0  0  0  0  0  0  0  0  0
   -1.5976   -1.4911   -2.9663 H   0  0  0  0  0  0  0  0  0  0  0  0
   -2.8520   -2.5830   -2.3223 H   0  0  0  0  0  0  0  0  0  0  0  0
   -3.5927   -0.6485   -4.0706 H   0  0  0  0  0  0  0  0  0  0  0  0
   -4.5799   -0.9461   -2.6096 H   0  0  0  0  0  0  0  0  0  0  0  0
   -4.7015    2.4170    0.3903 H   0  0  0  0  0  0  0  0  0  0  0  0
   -6.5345    1.7668    1.9200 H   0  0  0  0  0  0  0  0  0  0  0  0
   -8.4784    0.4879    1.0637 H   0  0  0  0  0  0  0  0  0  0  0  0
   -8.6060   -0.1330   -1.3340 H   0  0  0  0  0  0  0  0  0  0  0  0
   -6.7807    0.5036   -2.8822 H   0  0  0  0  0  0  0  0  0  0  0  0
    3.9502    0.8129    2.8544 H   0  0  0  0  0  0  0  0  0  0  0  0
    6.1923    1.7352    2.3990 H   0  0  0  0  0  0  0  0  0  0  0  0
  1  2  1  0
  2  3  1  0
  3  4  2  0
  4  5  1  0
  5  6  2  0
  6  7  1  0
  7  8  1  0
  8  9  1  0
  9 10  2  0
  9 11  1  0
 11 12  2  0
 11 13  1  0
 13 14  1  0
 14 15  1  0
 15 16  1  0
 16 17  1  0
 17 18  1  0
 18 19  1  0
 19 20  1  0
 20 21  2  0
 20 22  2  0
 20 23  1  0
 23 24  2  0
 24 25  1  0
 25 26  2  0
 26 27  1  0
 27 28  2  0
  6 29  1  0
 29 30  2  0
 30  3  1  0
 19 15  1  0
 28 23  1  0
  1 31  1  0
  1 32  1  0
  1 33  1  0
  4 34  1  0
  5 35  1  0
  7 36  1  0
  7 37  1  0
  8 38  1  0
 13 39  1  0
 14 40  1  0
 14 41  1  0
 15 42  1  0
 17 43  1  0
 17 44  1  0
 18 45  1  0
 18 46  1  0
 24 47  1  0
 25 48  1  0
 26 49  1  0
 27 50  1  0
 28 51  1  0
 29 52  1  0
 30 53  1  0
M  END
$$$$
