
     RDKit          3D

 33 35  0  0  0  0  0  0  0  0999 V2000
    5.5402   -1.2014   -0.4662 C   0  0  0  0  0  0  0  0  0  0  0  0
    4.7463   -0.0260   -0.3604 O   0  0  0  0  0  0  0  0  0  0  0  0
    3.4216   -0.1987   -0.0683 C   0  0  0  0  0  0  0  0  0  0  0  0
    2.7807   -1.4185    0.1437 C   0  0  0  0  0  0  0  0  0  0  0  0
    1.4118   -1.4505    0.4293 C   0  0  0  0  0  0  0  0  0  0  0  0
    0.6742   -0.2628    0.5089 C   0  0  0  0  0  0  0  0  0  0  0  0
    1.3134    0.9707    0.3145 C   0  0  0  0  0  0  0  0  0  0  0  0
    2.6844    0.9873    0.0143 C   0  0  0  0  0  0  0  0  0  0  0  0
    0.5460    2.2640    0.3799 C   0  0  0  0  0  0  0  0  0  0  0  0
   -0.7062    2.1274    1.2415 C   0  0  0  0  0  0  0  0  0  0  0  0
   -1.5371    0.9574    0.7791 C   0  0  0  0  0  0  0  0  0  0  0  0
   -2.8034    1.1351    0.3609 C   0  0  0  0  0  0  0  0  0  0  0  0
   -3.6782    0.1565   -0.1811 C   0  0  0  0  0  0  0  0  0  0  0  0
   -4.0597   -1.1027    0.2667 C   0  0  0  0  0  0  0  0  0  0  0  0
   -4.9984   -1.6340   -0.6493 C   0  0  0  0  0  0  0  0  0  0  0  0
   -5.1724   -0.6680   -1.6043 C   0  0  0  0  0  0  0  0  0  0  0  0
   -4.4046    0.4124   -1.3273 O   0  0  0  0  0  0  0  0  0  0  0  0
   -0.7866   -0.3398    0.7980 C   0  0  0  0  0  0  0  0  0  0  0  0
   -1.3000   -1.4124    1.0852 O   0  0  0  0  0  0  0  0  0  0  0  0
    5.1871   -1.8446   -1.2790 H   0  0  0  0  0  0  0  0  0  0  0  0
    6.5627   -0.8936   -0.7057 H   0  0  0  0  0  0  0  0  0  0  0  0
    5.5700   -1.7443    0.4843 H   0  0  0  0  0  0  0  0  0  0  0  0
    3.3110   -2.3635    0.0903 H   0  0  0  0  0  0  0  0  0  0  0  0
    0.9206   -2.4097    0.5844 H   0  0  0  0  0  0  0  0  0  0  0  0
    3.1938    1.9341   -0.1571 H   0  0  0  0  0  0  0  0  0  0  0  0
    1.1783    3.0542    0.8021 H   0  0  0  0  0  0  0  0  0  0  0  0
    0.2748    2.5626   -0.6405 H   0  0  0  0  0  0  0  0  0  0  0  0
   -1.2705    3.0670    1.2051 H   0  0  0  0  0  0  0  0  0  0  0  0
   -0.4286    1.9719    2.2927 H   0  0  0  0  0  0  0  0  0  0  0  0
   -3.2049    2.1456    0.3384 H   0  0  0  0  0  0  0  0  0  0  0  0
   -3.6983   -1.5852    1.1648 H   0  0  0  0  0  0  0  0  0  0  0  0
   -5.4882   -2.5960   -0.6083 H   0  0  0  0  0  0  0  0  0  0  0  0
   -5.7796   -0.5945   -2.4953 H   0  0  0  0  0  0  0  0  0  0  0  0
  1  2  1  0
  2  3  1  0
  3  4  2  0
  4  5  1  0
  5  6  2  0
  6  7  1  0
  7  8  2  0
  7  9  1  0
  9 10  1  0
 10 11  1  0
 11 12  2  3
 12 13  1  0
 13 14  2  0
 14 15  1  0
 15 16  2  0
 16 17  1  0
 11 18  1  0
 18 19  2  0
  8  3  1  0
 17 13  1  0
 18  6  1  0
  1 20  1  0
  1 21  1  0
  1 22  1  0
  4 23  1  0
  5 24  1  0
  8 25  1  0
  9 26  1  0
  9 27  1  0
 10 28  1  0
 10 29  1  0
 12 30  1  0
 14 31  1  0
 15 32  1  0
 16 33  1  0
M  END
$$$$
