
     RDKit          3D

 31 32  0  0  0  0  0  0  0  0999 V2000
    1.9252   -0.1553    3.9485 C   0  0  0  0  0  0  0  0  0  0  0  0
    3.0195   -1.3820    3.1767 S   0  0  0  0  0  0  0  0  0  0  0  0
    2.4800   -1.2711    1.4784 C   0  0  0  0  0  0  0  0  0  0  0  0
    2.2186   -2.4538    0.7783 C   0  0  0  0  0  0  0  0  0  0  0  0
    1.7835   -2.4108   -0.5480 C   0  0  0  0  0  0  0  0  0  0  0  0
    1.6136   -1.1828   -1.1862 C   0  0  0  0  0  0  0  0  0  0  0  0
    1.8936   -0.0017   -0.5003 C   0  0  0  0  0  0  0  0  0  0  0  0
    1.6969    1.2604   -1.1457 N   0  0  0  0  0  0  0  0  0  0  0  0
    0.3180    2.1392   -0.6601 S   0  0  0  0  0  6  0  0  0  0  0  0
    0.1768    2.1191    0.7812 O   0  0  0  0  0  0  0  0  0  0  0  0
    0.3103    3.3760   -1.4126 O   0  0  0  0  0  0  0  0  0  0  0  0
   -1.0832    1.2886   -1.2626 C   0  0  0  0  0  0  0  0  0  0  0  0
   -2.3584    1.3277   -0.7355 C   0  0  0  0  0  0  0  0  0  0  0  0
   -3.0969    0.5178   -1.5489 N   0  0  0  0  0  0  0  0  0  0  0  0
   -4.5032    0.2342   -1.4105 C   0  0  0  0  0  0  0  0  0  0  0  0
   -2.2719    0.0241   -2.5201 C   0  0  0  0  0  0  0  0  0  0  0  0
   -1.0414    0.4682   -2.3829 N   0  0  0  0  0  0  0  0  0  0  0  0
    2.3321   -0.0451    0.8242 C   0  0  0  0  0  0  0  0  0  0  0  0
    0.8833   -0.3469    3.6771 H   0  0  0  0  0  0  0  0  0  0  0  0
    2.0195   -0.2300    5.0352 H   0  0  0  0  0  0  0  0  0  0  0  0
    2.2042    0.8589    3.6511 H   0  0  0  0  0  0  0  0  0  0  0  0
    2.3443   -3.4190    1.2645 H   0  0  0  0  0  0  0  0  0  0  0  0
    1.5727   -3.3348   -1.0802 H   0  0  0  0  0  0  0  0  0  0  0  0
    1.2576   -1.1611   -2.2128 H   0  0  0  0  0  0  0  0  0  0  0  0
    1.6674    1.1982   -2.1655 H   0  0  0  0  0  0  0  0  0  0  0  0
   -2.7679    1.8493    0.1192 H   0  0  0  0  0  0  0  0  0  0  0  0
   -5.0103    1.1276   -1.0361 H   0  0  0  0  0  0  0  0  0  0  0  0
   -4.6161   -0.5925   -0.7048 H   0  0  0  0  0  0  0  0  0  0  0  0
   -4.9139   -0.0396   -2.3856 H   0  0  0  0  0  0  0  0  0  0  0  0
   -2.6159   -0.6480   -3.2969 H   0  0  0  0  0  0  0  0  0  0  0  0
    2.5619    0.8852    1.3359 H   0  0  0  0  0  0  0  0  0  0  0  0
  1  2  1  0
  2  3  1  0
  3  4  2  0
  4  5  1  0
  5  6  2  0
  6  7  1  0
  7  8  1  0
  8  9  1  0
  9 10  2  0
  9 11  2  0
  9 12  1  0
 12 13  2  0
 13 14  1  0
 14 15  1  0
 14 16  1  0
 16 17  2  0
  7 18  2  0
 18  3  1  0
 17 12  1  0
  1 19  1  0
  1 20  1  0
  1 21  1  0
  4 22  1  0
  5 23  1  0
  6 24  1  0
  8 25  1  0
 13 26  1  0
 15 27  1  0
 15 28  1  0
 15 29  1  0
 16 30  1  0
 18 31  1  0
M  END
$$$$
