
     RDKit          3D

 58 60  0  0  0  0  0  0  0  0999 V2000
   -0.3955    1.1021   -2.8213 C   0  0  0  0  0  0  0  0  0  0  0  0
   -1.6195    1.5821   -2.0857 C   0  0  0  0  0  0  0  0  0  0  0  0
   -2.6762    2.1266   -2.8387 C   0  0  0  0  0  0  0  0  0  0  0  0
   -3.8369    2.5804   -2.2166 C   0  0  0  0  0  0  0  0  0  0  0  0
   -3.9461    2.4928   -0.8302 C   0  0  0  0  0  0  0  0  0  0  0  0
   -5.4060    3.1089   -0.0168 S   0  0  0  0  0  6  0  0  0  0  0  0
   -6.1243    3.9189   -0.9792 O   0  0  0  0  0  0  0  0  0  0  0  0
   -4.9993    3.6543    1.2600 O   0  0  0  0  0  0  0  0  0  0  0  0
   -6.3205    1.7161    0.2633 N   0  0  0  0  0  0  0  0  0  0  0  0
   -5.8915    0.8109    1.3646 C   0  0  0  0  0  0  0  0  0  0  0  0
   -6.7970   -0.4251    1.3964 C   0  0  0  0  0  0  0  0  0  0  0  0
   -6.7237   -1.2093    0.1952 O   0  0  0  0  0  0  0  0  0  0  0  0
   -6.4038   -0.4396   -0.9718 C   0  0  0  0  0  0  0  0  0  0  0  0
   -6.9060    1.0064   -0.9067 C   0  0  0  0  0  0  0  0  0  0  0  0
   -2.8938    1.9833   -0.0630 C   0  0  0  0  0  0  0  0  0  0  0  0
   -1.7361    1.4989   -0.6798 C   0  0  0  0  0  0  0  0  0  0  0  0
   -0.6718    0.9421    0.0615 N   0  0  0  0  0  0  0  0  0  0  0  0
   -0.6577    0.5871    1.3999 C   0  0  0  0  0  0  0  0  0  0  0  0
   -1.6036    0.6492    2.1799 O   0  0  0  0  0  0  0  0  0  0  0  0
    0.7039    0.0618    1.8639 C   0  0  0  0  0  0  0  0  0  0  0  0
    1.6349   -0.0430    0.7803 O   0  0  0  0  0  0  0  0  0  0  0  0
    2.8543   -0.5225    1.1573 C   0  0  0  0  0  0  0  0  0  0  0  0
    3.1664   -0.8338    2.3003 O   0  0  0  0  0  0  0  0  0  0  0  0
    3.7879   -0.5888   -0.0388 C   0  0  0  0  0  0  0  0  0  0  0  0
    5.0007   -1.3112    0.2994 N   0  0  0  0  0  0  0  0  0  0  0  0
    5.9523   -1.5580   -0.6637 C   0  0  0  0  0  0  0  0  0  0  0  0
    5.7984   -1.2381   -1.8373 O   0  0  0  0  0  0  0  0  0  0  0  0
    7.2136   -2.2074   -0.2098 C   0  0  0  0  0  0  0  0  0  0  0  0
    8.3709   -2.0155   -0.9757 C   0  0  0  0  0  0  0  0  0  0  0  0
    9.5762   -2.6040   -0.5888 C   0  0  0  0  0  0  0  0  0  0  0  0
    9.6289   -3.3935    0.5591 C   0  0  0  0  0  0  0  0  0  0  0  0
    8.4771   -3.6020    1.3176 C   0  0  0  0  0  0  0  0  0  0  0  0
    7.2686   -3.0143    0.9345 C   0  0  0  0  0  0  0  0  0  0  0  0
    0.4846    1.6713   -2.5049 H   0  0  0  0  0  0  0  0  0  0  0  0
   -0.2323    0.0361   -2.6327 H   0  0  0  0  0  0  0  0  0  0  0  0
   -0.4977    1.2306   -3.9043 H   0  0  0  0  0  0  0  0  0  0  0  0
   -2.5977    2.2046   -3.9220 H   0  0  0  0  0  0  0  0  0  0  0  0
   -4.6371    3.0099   -2.8156 H   0  0  0  0  0  0  0  0  0  0  0  0
   -4.8590    0.4884    1.2073 H   0  0  0  0  0  0  0  0  0  0  0  0
   -5.9655    1.3398    2.3197 H   0  0  0  0  0  0  0  0  0  0  0  0
   -7.8439   -0.1338    1.5414 H   0  0  0  0  0  0  0  0  0  0  0  0
   -6.5191   -1.0773    2.2304 H   0  0  0  0  0  0  0  0  0  0  0  0
   -5.3154   -0.4642   -1.1001 H   0  0  0  0  0  0  0  0  0  0  0  0
   -6.8440   -0.9528   -1.8326 H   0  0  0  0  0  0  0  0  0  0  0  0
   -6.6769    1.5164   -1.8465 H   0  0  0  0  0  0  0  0  0  0  0  0
   -7.9953    1.0204   -0.7834 H   0  0  0  0  0  0  0  0  0  0  0  0
   -2.9945    1.9906    1.0184 H   0  0  0  0  0  0  0  0  0  0  0  0
    0.1723    0.7006   -0.4447 H   0  0  0  0  0  0  0  0  0  0  0  0
    1.0886    0.7618    2.6141 H   0  0  0  0  0  0  0  0  0  0  0  0
    0.5414   -0.9288    2.3033 H   0  0  0  0  0  0  0  0  0  0  0  0
    3.2953   -1.1101   -0.8655 H   0  0  0  0  0  0  0  0  0  0  0  0
    4.0614    0.4263   -0.3422 H   0  0  0  0  0  0  0  0  0  0  0  0
    5.2346   -1.3885    1.2837 H   0  0  0  0  0  0  0  0  0  0  0  0
    8.3362   -1.4043   -1.8756 H   0  0  0  0  0  0  0  0  0  0  0  0
   10.4719   -2.4487   -1.1852 H   0  0  0  0  0  0  0  0  0  0  0  0
   10.5675   -3.8542    0.8581 H   0  0  0  0  0  0  0  0  0  0  0  0
    8.5192   -4.2307    2.2040 H   0  0  0  0  0  0  0  0  0  0  0  0
    6.3807   -3.2191    1.5252 H   0  0  0  0  0  0  0  0  0  0  0  0
  1  2  1  0
  2  3  2  0
  3  4  1  0
  4  5  2  0
  5  6  1  0
  6  7  2  0
  6  8  2  0
  6  9  1  0
  9 10  1  0
 10 11  1  0
 11 12  1  0
 12 13  1  0
 13 14  1  0
  5 15  1  0
 15 16  2  0
 16 17  1  0
 17 18  1  0
 18 19  2  0
 18 20  1  0
 20 21  1  0
 21 22  1  0
 22 23  2  0
 22 24  1  0
 24 25  1  0
 25 26  1  0
 26 27  2  0
 26 28  1  0
 28 29  2  0
 29 30  1  0
 30 31  2  0
 31 32  1  0
 32 33  2  0
 16  2  1  0
 33 28  1  0
 14  9  1  0
  1 34  1  0
  1 35  1  0
  1 36  1  0
  3 37  1  0
  4 38  1  0
 10 39  1  0
 10 40  1  0
 11 41  1  0
 11 42  1  0
 13 43  1  0
 13 44  1  0
 14 45  1  0
 14 46  1  0
 15 47  1  0
 17 48  1  0
 20 49  1  0
 20 50  1  0
 24 51  1  0
 24 52  1  0
 25 53  1  0
 29 54  1  0
 30 55  1  0
 31 56  1  0
 32 57  1  0
 33 58  1  0
M  END
$$$$
