
     RDKit          3D

 59 62  0  0  0  0  0  0  0  0999 V2000
    8.6959    2.1588    2.0925 C   0  0  0  0  0  0  0  0  0  0  0  0
    7.3351    1.6726    1.6915 C   0  0  0  0  0  0  0  0  0  0  0  0
    6.5074    2.4752    0.8992 C   0  0  0  0  0  0  0  0  0  0  0  0
    5.2300    2.0393    0.5253 C   0  0  0  0  0  0  0  0  0  0  0  0
    4.7520    0.7973    0.9568 C   0  0  0  0  0  0  0  0  0  0  0  0
    3.4620    0.3011    0.5903 N   0  0  0  0  0  0  0  0  0  0  0  0
    3.2174   -1.0313    0.7191 N   0  0  0  0  0  0  0  0  0  0  0  0
    2.0605   -1.2349    0.0856 C   0  0  0  0  0  0  0  0  0  0  0  0
    1.4075   -2.5196   -0.1315 C   0  0  0  0  0  0  0  0  0  0  0  0
    1.8681   -3.5925    0.2523 O   0  0  0  0  0  0  0  0  0  0  0  0
    0.1851   -2.3960   -0.8250 N   0  0  0  0  0  0  0  0  0  0  0  0
   -0.5926   -3.5963   -1.1168 C   0  0  0  0  0  0  0  0  0  0  0  0
   -1.4900   -4.0204    0.0506 C   0  0  0  0  0  0  0  0  0  0  0  0
   -2.5681   -2.9972    0.4083 C   0  0  0  0  0  0  0  0  0  0  0  0
   -3.5734   -2.7834   -0.7062 C   0  0  0  0  0  0  0  0  0  0  0  0
   -3.7499   -3.5800   -1.6220 O   0  0  0  0  0  0  0  0  0  0  0  0
   -4.2978   -1.6239   -0.5674 N   0  0  0  0  0  0  0  0  0  0  0  0
   -5.3911   -1.3303   -1.4622 C   0  0  0  0  0  0  0  0  0  0  0  0
   -5.8081    0.0770   -1.2591 C   0  0  0  0  0  0  0  0  0  0  0  0
   -5.8548    1.1795   -2.0862 C   0  0  0  0  0  0  0  0  0  0  0  0
   -6.3672    2.2445   -1.3055 C   0  0  0  0  0  0  0  0  0  0  0  0
   -6.5934    1.7306   -0.0468 C   0  0  0  0  0  0  0  0  0  0  0  0
   -7.1243    2.3053    1.2062 C   0  0  0  0  0  0  0  0  0  0  0  0
   -6.2535    0.4118   -0.0111 O   0  0  0  0  0  0  0  0  0  0  0  0
   -0.3877   -1.1875   -1.2379 N   0  0  0  0  0  0  0  0  0  0  0  0
    0.2115   -0.0499   -1.0255 C   0  0  0  0  0  0  0  0  0  0  0  0
   -0.4583    1.2076   -1.5011 C   0  0  0  0  0  0  0  0  0  0  0  0
    1.4813   -0.0358   -0.3420 C   0  0  0  0  0  0  0  0  0  0  0  0
    2.3374    0.9659    0.0850 C   0  0  0  0  0  0  0  0  0  0  0  0
    2.1498    2.4390    0.0967 C   0  0  0  0  0  0  0  0  0  0  0  0
    5.5924   -0.0136    1.7383 C   0  0  0  0  0  0  0  0  0  0  0  0
    6.8667    0.4251    2.1099 C   0  0  0  0  0  0  0  0  0  0  0  0
    9.2473    2.5106    1.2147 H   0  0  0  0  0  0  0  0  0  0  0  0
    8.6052    2.9780    2.8129 H   0  0  0  0  0  0  0  0  0  0  0  0
    9.2865    1.3604    2.5541 H   0  0  0  0  0  0  0  0  0  0  0  0
    6.8608    3.4449    0.5525 H   0  0  0  0  0  0  0  0  0  0  0  0
    4.6658    2.6813   -0.1408 H   0  0  0  0  0  0  0  0  0  0  0  0
    0.1047   -4.4131   -1.3378 H   0  0  0  0  0  0  0  0  0  0  0  0
   -1.1710   -3.4227   -2.0304 H   0  0  0  0  0  0  0  0  0  0  0  0
   -0.8732   -4.1991    0.9396 H   0  0  0  0  0  0  0  0  0  0  0  0
   -1.9627   -4.9773   -0.2029 H   0  0  0  0  0  0  0  0  0  0  0  0
   -3.1274   -3.3606    1.2791 H   0  0  0  0  0  0  0  0  0  0  0  0
   -2.1162   -2.0402    0.6904 H   0  0  0  0  0  0  0  0  0  0  0  0
   -4.2894   -1.1406    0.3218 H   0  0  0  0  0  0  0  0  0  0  0  0
   -6.2149   -2.0147   -1.2329 H   0  0  0  0  0  0  0  0  0  0  0  0
   -5.0734   -1.5078   -2.4950 H   0  0  0  0  0  0  0  0  0  0  0  0
   -5.5629    1.2065   -3.1283 H   0  0  0  0  0  0  0  0  0  0  0  0
   -6.5521    3.2615   -1.6211 H   0  0  0  0  0  0  0  0  0  0  0  0
   -6.6264    1.8700    2.0796 H   0  0  0  0  0  0  0  0  0  0  0  0
   -8.1985    2.1077    1.2868 H   0  0  0  0  0  0  0  0  0  0  0  0
   -6.9698    3.3894    1.2346 H   0  0  0  0  0  0  0  0  0  0  0  0
   -0.8478    1.7606   -0.6421 H   0  0  0  0  0  0  0  0  0  0  0  0
    0.2519    1.8308   -2.0505 H   0  0  0  0  0  0  0  0  0  0  0  0
   -1.2947    0.9658   -2.1644 H   0  0  0  0  0  0  0  0  0  0  0  0
    2.4994    2.8835   -0.8394 H   0  0  0  0  0  0  0  0  0  0  0  0
    1.0936    2.6966    0.2161 H   0  0  0  0  0  0  0  0  0  0  0  0
    2.6617    2.9106    0.9409 H   0  0  0  0  0  0  0  0  0  0  0  0
    5.2646   -0.9965    2.0783 H   0  0  0  0  0  0  0  0  0  0  0  0
    7.4891   -0.2235    2.7236 H   0  0  0  0  0  0  0  0  0  0  0  0
  1  2  1  0
  2  3  2  0
  3  4  1  0
  4  5  2  0
  5  6  1  0
  6  7  1  0
  7  8  2  0
  8  9  1  0
  9 10  2  0
  9 11  1  0
 11 12  1  0
 12 13  1  0
 13 14  1  0
 14 15  1  0
 15 16  2  0
 15 17  1  0
 17 18  1  0
 18 19  1  0
 19 20  2  0
 20 21  1  0
 21 22  2  0
 22 23  1  0
 22 24  1  0
 11 25  1  0
 25 26  2  0
 26 27  1  0
 26 28  1  0
 28 29  2  0
 29 30  1  0
  5 31  1  0
 31 32  2  0
 32  2  1  0
 29  6  1  0
 28  8  1  0
 24 19  1  0
  1 33  1  0
  1 34  1  0
  1 35  1  0
  3 36  1  0
  4 37  1  0
 12 38  1  0
 12 39  1  0
 13 40  1  0
 13 41  1  0
 14 42  1  0
 14 43  1  0
 17 44  1  0
 18 45  1  0
 18 46  1  0
 20 47  1  0
 21 48  1  0
 23 49  1  0
 23 50  1  0
 23 51  1  0
 27 52  1  0
 27 53  1  0
 27 54  1  0
 30 55  1  0
 30 56  1  0
 30 57  1  0
 31 58  1  0
 32 59  1  0
M  END
$$$$
