
     RDKit          3D

 33 34  0  0  0  0  0  0  0  0999 V2000
   -5.7431    0.4434   -0.4606 C   0  0  0  0  0  0  0  0  0  0  0  0
   -4.7137    1.2556   -1.2270 C   0  0  0  0  0  0  0  0  0  0  0  0
   -3.7419    0.4028   -1.8306 O   0  0  0  0  0  0  0  0  0  0  0  0
   -2.6241    0.0676   -1.1209 C   0  0  0  0  0  0  0  0  0  0  0  0
   -2.3645    0.3787    0.2130 C   0  0  0  0  0  0  0  0  0  0  0  0
   -1.1701   -0.0386    0.8131 C   0  0  0  0  0  0  0  0  0  0  0  0
   -0.2220   -0.7654    0.0833 C   0  0  0  0  0  0  0  0  0  0  0  0
    1.0316   -1.1858    0.7699 C   0  0  0  0  0  0  0  0  0  0  0  0
    1.0561   -1.2987    1.9905 O   0  0  0  0  0  0  0  0  0  0  0  0
    2.1296   -1.3949   -0.0360 N   0  0  0  0  0  0  0  0  0  0  0  0
    3.4361   -1.6389    0.5336 C   0  0  0  0  0  0  0  0  0  0  0  0
    4.1494   -0.3433    0.6424 C   0  0  0  0  0  0  0  0  0  0  0  0
    4.2492    0.5992    1.6449 C   0  0  0  0  0  0  0  0  0  0  0  0
    5.0711    1.6341    1.1393 C   0  0  0  0  0  0  0  0  0  0  0  0
    5.4160    1.2603   -0.1383 C   0  0  0  0  0  0  0  0  0  0  0  0
    4.8580    0.0624   -0.4519 O   0  0  0  0  0  0  0  0  0  0  0  0
   -0.4899   -1.0956   -1.2486 C   0  0  0  0  0  0  0  0  0  0  0  0
   -1.6847   -0.6762   -1.8421 C   0  0  0  0  0  0  0  0  0  0  0  0
   -6.2050   -0.3038   -1.1144 H   0  0  0  0  0  0  0  0  0  0  0  0
   -6.5271    1.0926   -0.0603 H   0  0  0  0  0  0  0  0  0  0  0  0
   -5.2857   -0.1025    0.3698 H   0  0  0  0  0  0  0  0  0  0  0  0
   -4.2607    2.0431   -0.6149 H   0  0  0  0  0  0  0  0  0  0  0  0
   -5.2239    1.7716   -2.0484 H   0  0  0  0  0  0  0  0  0  0  0  0
   -3.0688    0.9333    0.8233 H   0  0  0  0  0  0  0  0  0  0  0  0
   -0.9815    0.2065    1.8570 H   0  0  0  0  0  0  0  0  0  0  0  0
    2.1208   -1.0280   -0.9773 H   0  0  0  0  0  0  0  0  0  0  0  0
    3.3481   -2.1227    1.5114 H   0  0  0  0  0  0  0  0  0  0  0  0
    3.9674   -2.3168   -0.1418 H   0  0  0  0  0  0  0  0  0  0  0  0
    3.7755    0.5404    2.6159 H   0  0  0  0  0  0  0  0  0  0  0  0
    5.3719    2.5425    1.6418 H   0  0  0  0  0  0  0  0  0  0  0  0
    6.0176    1.7128   -0.9141 H   0  0  0  0  0  0  0  0  0  0  0  0
    0.1996   -1.6976   -1.8324 H   0  0  0  0  0  0  0  0  0  0  0  0
   -1.8912   -0.9382   -2.8777 H   0  0  0  0  0  0  0  0  0  0  0  0
  1  2  1  0
  2  3  1  0
  3  4  1  0
  4  5  2  0
  5  6  1  0
  6  7  2  0
  7  8  1  0
  8  9  2  0
  8 10  1  0
 10 11  1  0
 11 12  1  0
 12 13  2  0
 13 14  1  0
 14 15  2  0
 15 16  1  0
  7 17  1  0
 17 18  2  0
 18  4  1  0
 16 12  1  0
  1 19  1  0
  1 20  1  0
  1 21  1  0
  2 22  1  0
  2 23  1  0
  5 24  1  0
  6 25  1  0
 10 26  1  0
 11 27  1  0
 11 28  1  0
 13 29  1  0
 14 30  1  0
 15 31  1  0
 17 32  1  0
 18 33  1  0
M  END
$$$$
