
     RDKit          3D

 59 62  0  0  0  0  0  0  0  0999 V2000
    9.4315   -0.3170   -0.5378 C   0  0  0  0  0  0  0  0  0  0  0  0
    8.0126   -0.1632   -0.0766 C   0  0  0  0  0  0  0  0  0  0  0  0
    6.9536   -0.4473   -0.9421 C   0  0  0  0  0  0  0  0  0  0  0  0
    5.6307   -0.3387   -0.5030 C   0  0  0  0  0  0  0  0  0  0  0  0
    5.3402    0.0616    0.8120 C   0  0  0  0  0  0  0  0  0  0  0  0
    3.9721    0.1503    1.2192 N   0  0  0  0  0  0  0  0  0  0  0  0
    3.0266   -0.4612    0.4548 N   0  0  0  0  0  0  0  0  0  0  0  0
    1.9051   -0.4042    1.1758 C   0  0  0  0  0  0  0  0  0  0  0  0
    0.6164   -0.9819    0.8175 C   0  0  0  0  0  0  0  0  0  0  0  0
    0.4133   -1.6115   -0.2189 O   0  0  0  0  0  0  0  0  0  0  0  0
   -0.3763   -0.7395    1.7906 N   0  0  0  0  0  0  0  0  0  0  0  0
   -1.7366   -1.2001    1.5430 C   0  0  0  0  0  0  0  0  0  0  0  0
   -2.5556   -0.1482    0.7987 C   0  0  0  0  0  0  0  0  0  0  0  0
   -3.9581   -0.6604    0.4854 C   0  0  0  0  0  0  0  0  0  0  0  0
   -4.8062    0.3861   -0.2113 C   0  0  0  0  0  0  0  0  0  0  0  0
   -4.4520    1.5475   -0.3788 O   0  0  0  0  0  0  0  0  0  0  0  0
   -6.0319   -0.1010   -0.6095 N   0  0  0  0  0  0  0  0  0  0  0  0
   -6.9284    0.6991   -1.4138 C   0  0  0  0  0  0  0  0  0  0  0  0
   -6.6637    0.4069   -2.8428 C   0  0  0  0  0  0  0  0  0  0  0  0
   -5.8117    0.9588   -3.7769 C   0  0  0  0  0  0  0  0  0  0  0  0
   -6.0117    0.2355   -4.9763 C   0  0  0  0  0  0  0  0  0  0  0  0
   -6.9702   -0.7161   -4.7005 C   0  0  0  0  0  0  0  0  0  0  0  0
   -7.6157   -1.7716   -5.5050 C   0  0  0  0  0  0  0  0  0  0  0  0
   -7.3678   -0.6210   -3.4005 O   0  0  0  0  0  0  0  0  0  0  0  0
   -0.1930    0.0036    2.9619 N   0  0  0  0  0  0  0  0  0  0  0  0
    0.9683    0.5176    3.2569 C   0  0  0  0  0  0  0  0  0  0  0  0
    1.0993    1.2937    4.5363 C   0  0  0  0  0  0  0  0  0  0  0  0
    2.0773    0.3302    2.3536 C   0  0  0  0  0  0  0  0  0  0  0  0
    3.3879    0.7785    2.3268 C   0  0  0  0  0  0  0  0  0  0  0  0
    4.0756    1.7625    3.2019 C   0  0  0  0  0  0  0  0  0  0  0  0
    6.4028    0.3079    1.6874 C   0  0  0  0  0  0  0  0  0  0  0  0
    7.7272    0.1973    1.2439 C   0  0  0  0  0  0  0  0  0  0  0  0
    9.5267   -0.0536   -1.5962 H   0  0  0  0  0  0  0  0  0  0  0  0
    9.7600   -1.3515   -0.3989 H   0  0  0  0  0  0  0  0  0  0  0  0
   10.1002    0.3442    0.0228 H   0  0  0  0  0  0  0  0  0  0  0  0
    7.1463   -0.7589   -1.9665 H   0  0  0  0  0  0  0  0  0  0  0  0
    4.8319   -0.5650   -1.2084 H   0  0  0  0  0  0  0  0  0  0  0  0
   -2.2005   -1.4383    2.5076 H   0  0  0  0  0  0  0  0  0  0  0  0
   -1.6997   -2.1290    0.9620 H   0  0  0  0  0  0  0  0  0  0  0  0
   -2.6142    0.7667    1.4018 H   0  0  0  0  0  0  0  0  0  0  0  0
   -2.0494    0.1321   -0.1338 H   0  0  0  0  0  0  0  0  0  0  0  0
   -4.4691   -0.9469    1.4121 H   0  0  0  0  0  0  0  0  0  0  0  0
   -3.8942   -1.5444   -0.1600 H   0  0  0  0  0  0  0  0  0  0  0  0
   -6.1655   -1.1023   -0.6504 H   0  0  0  0  0  0  0  0  0  0  0  0
   -7.9512    0.4187   -1.1438 H   0  0  0  0  0  0  0  0  0  0  0  0
   -6.7926    1.7640   -1.1993 H   0  0  0  0  0  0  0  0  0  0  0  0
   -5.1275    1.7787   -3.6016 H   0  0  0  0  0  0  0  0  0  0  0  0
   -5.5152    0.3867   -5.9248 H   0  0  0  0  0  0  0  0  0  0  0  0
   -7.3186   -1.7004   -6.5559 H   0  0  0  0  0  0  0  0  0  0  0  0
   -8.7056   -1.6814   -5.4529 H   0  0  0  0  0  0  0  0  0  0  0  0
   -7.3316   -2.7619   -5.1352 H   0  0  0  0  0  0  0  0  0  0  0  0
    1.9947    0.9820    5.0797 H   0  0  0  0  0  0  0  0  0  0  0  0
    0.2286    1.1209    5.1758 H   0  0  0  0  0  0  0  0  0  0  0  0
    1.1566    2.3615    4.3103 H   0  0  0  0  0  0  0  0  0  0  0  0
    4.8313    2.3370    2.6583 H   0  0  0  0  0  0  0  0  0  0  0  0
    3.3692    2.5032    3.5873 H   0  0  0  0  0  0  0  0  0  0  0  0
    4.5383    1.2638    4.0587 H   0  0  0  0  0  0  0  0  0  0  0  0
    6.2515    0.5380    2.7347 H   0  0  0  0  0  0  0  0  0  0  0  0
    8.5381    0.3820    1.9459 H   0  0  0  0  0  0  0  0  0  0  0  0
  1  2  1  0
  2  3  2  0
  3  4  1  0
  4  5  2  0
  5  6  1  0
  6  7  1  0
  7  8  2  0
  8  9  1  0
  9 10  2  0
  9 11  1  0
 11 12  1  0
 12 13  1  0
 13 14  1  0
 14 15  1  0
 15 16  2  0
 15 17  1  0
 17 18  1  0
 18 19  1  0
 19 20  2  0
 20 21  1  0
 21 22  2  0
 22 23  1  0
 22 24  1  0
 11 25  1  0
 25 26  2  0
 26 27  1  0
 26 28  1  0
 28 29  2  0
 29 30  1  0
  5 31  1  0
 31 32  2  0
 32  2  1  0
 29  6  1  0
 28  8  1  0
 24 19  1  0
  1 33  1  0
  1 34  1  0
  1 35  1  0
  3 36  1  0
  4 37  1  0
 12 38  1  0
 12 39  1  0
 13 40  1  0
 13 41  1  0
 14 42  1  0
 14 43  1  0
 17 44  1  0
 18 45  1  0
 18 46  1  0
 20 47  1  0
 21 48  1  0
 23 49  1  0
 23 50  1  0
 23 51  1  0
 27 52  1  0
 27 53  1  0
 27 54  1  0
 30 55  1  0
 30 56  1  0
 30 57  1  0
 31 58  1  0
 32 59  1  0
M  END
$$$$
