
     RDKit          3D

 51 55  0  0  0  0  0  0  0  0999 V2000
   -7.5283   -0.9056   -2.4331 F   0  0  0  0  0  0  0  0  0  0  0  0
   -7.0294   -0.4411   -1.2800 C   0  0  0  0  0  0  0  0  0  0  0  0
   -7.8755   -0.2594   -0.1928 C   0  0  0  0  0  0  0  0  0  0  0  0
   -7.3554    0.2205    1.0076 C   0  0  0  0  0  0  0  0  0  0  0  0
   -5.9933    0.5164    1.1095 C   0  0  0  0  0  0  0  0  0  0  0  0
   -5.1395    0.3386    0.0099 C   0  0  0  0  0  0  0  0  0  0  0  0
   -3.6642    0.6413    0.1263 C   0  0  0  0  0  0  0  0  0  0  0  0
   -2.8732   -0.5782    0.6345 C   0  0  0  0  0  0  0  0  0  0  0  0
   -1.4166   -0.4279    0.7007 N   0  0  0  0  0  0  0  0  0  0  0  0
   -0.9508    0.5984    1.6427 C   0  0  0  0  0  0  0  0  0  0  0  0
    0.5900    0.7388    1.6530 C   0  0  0  0  0  0  0  0  0  0  0  0
    1.1619    0.9680    0.3054 N   0  0  0  0  0  0  0  0  0  0  0  0
    2.4495    0.4854    0.0531 C   0  0  0  0  0  0  0  0  0  0  0  0
    2.6442   -0.2724   -0.9984 N   0  0  0  0  0  0  0  0  0  0  0  0
    3.9114   -0.8215   -1.2703 C   0  0  0  0  0  0  0  0  0  0  0  0
    4.0537   -1.6348   -2.3963 C   0  0  0  0  0  0  0  0  0  0  0  0
    5.2863   -2.2158   -2.7062 C   0  0  0  0  0  0  0  0  0  0  0  0
    6.3930   -1.9876   -1.8878 C   0  0  0  0  0  0  0  0  0  0  0  0
    6.2736   -1.1781   -0.7575 C   0  0  0  0  0  0  0  0  0  0  0  0
    5.0336   -0.6043   -0.4604 C   0  0  0  0  0  0  0  0  0  0  0  0
    4.8275    0.2330    0.6474 N   0  0  0  0  0  0  0  0  0  0  0  0
    5.7239    0.6532    1.6016 C   0  0  0  0  0  0  0  0  0  0  0  0
    5.0757    1.5279    2.4453 C   0  0  0  0  0  0  0  0  0  0  0  0
    3.7384    1.6282    1.9959 C   0  0  0  0  0  0  0  0  0  0  0  0
    3.5923    0.7884    0.9054 C   0  0  0  0  0  0  0  0  0  0  0  0
    0.1617    0.8996   -0.7783 C   0  0  0  0  0  0  0  0  0  0  0  0
   -0.7527   -0.3327   -0.6158 C   0  0  0  0  0  0  0  0  0  0  0  0
   -5.6716   -0.1503   -1.1904 C   0  0  0  0  0  0  0  0  0  0  0  0
   -8.9306   -0.4942   -0.2876 H   0  0  0  0  0  0  0  0  0  0  0  0
   -8.0088    0.3633    1.8646 H   0  0  0  0  0  0  0  0  0  0  0  0
   -5.6014    0.8871    2.0548 H   0  0  0  0  0  0  0  0  0  0  0  0
   -3.2908    0.9713   -0.8505 H   0  0  0  0  0  0  0  0  0  0  0  0
   -3.5356    1.4956    0.8016 H   0  0  0  0  0  0  0  0  0  0  0  0
   -3.1012   -1.4511    0.0078 H   0  0  0  0  0  0  0  0  0  0  0  0
   -3.2374   -0.8500    1.6344 H   0  0  0  0  0  0  0  0  0  0  0  0
   -1.2815    0.3428    2.6563 H   0  0  0  0  0  0  0  0  0  0  0  0
   -1.3825    1.5774    1.4021 H   0  0  0  0  0  0  0  0  0  0  0  0
    1.0192   -0.1729    2.0882 H   0  0  0  0  0  0  0  0  0  0  0  0
    0.8495    1.5790    2.3040 H   0  0  0  0  0  0  0  0  0  0  0  0
    3.1926   -1.8168   -3.0338 H   0  0  0  0  0  0  0  0  0  0  0  0
    5.3799   -2.8469   -3.5863 H   0  0  0  0  0  0  0  0  0  0  0  0
    7.3502   -2.4414   -2.1327 H   0  0  0  0  0  0  0  0  0  0  0  0
    7.1485   -1.0132   -0.1379 H   0  0  0  0  0  0  0  0  0  0  0  0
    6.7518    0.3213    1.6036 H   0  0  0  0  0  0  0  0  0  0  0  0
    5.5222    2.0463    3.2841 H   0  0  0  0  0  0  0  0  0  0  0  0
    2.9698    2.2557    2.4237 H   0  0  0  0  0  0  0  0  0  0  0  0
    0.6311    0.8939   -1.7690 H   0  0  0  0  0  0  0  0  0  0  0  0
   -0.4435    1.8149   -0.7505 H   0  0  0  0  0  0  0  0  0  0  0  0
   -0.1481   -1.2399   -0.7365 H   0  0  0  0  0  0  0  0  0  0  0  0
   -1.4773   -0.3405   -1.4386 H   0  0  0  0  0  0  0  0  0  0  0  0
   -5.0422   -0.3099   -2.0609 H   0  0  0  0  0  0  0  0  0  0  0  0
  1  2  1  0
  2  3  2  0
  3  4  1  0
  4  5  2  0
  5  6  1  0
  6  7  1  0
  7  8  1  0
  8  9  1  0
  9 10  1  0
 10 11  1  0
 11 12  1  0
 12 13  1  0
 13 14  2  0
 14 15  1  0
 15 16  2  0
 16 17  1  0
 17 18  2  0
 18 19  1  0
 19 20  2  0
 20 21  1  0
 21 22  1  0
 22 23  2  0
 23 24  1  0
 24 25  2  0
 12 26  1  0
 26 27  1  0
  6 28  2  0
 28  2  1  0
 27  9  1  0
 25 13  1  0
 20 15  1  0
 25 21  1  0
  3 29  1  0
  4 30  1  0
  5 31  1  0
  7 32  1  0
  7 33  1  0
  8 34  1  0
  8 35  1  0
 10 36  1  0
 10 37  1  0
 11 38  1  0
 11 39  1  0
 16 40  1  0
 17 41  1  0
 18 42  1  0
 19 43  1  0
 22 44  1  0
 23 45  1  0
 24 46  1  0
 26 47  1  0
 26 48  1  0
 27 49  1  0
 27 50  1  0
 28 51  1  0
M  END
$$$$
