
     RDKit          3D

 57 59  0  0  0  0  0  0  0  0999 V2000
    8.2549    0.9968   -5.0619 C   0  0  0  0  0  0  0  0  0  0  0  0
    8.9020    0.8649   -3.8011 O   0  0  0  0  0  0  0  0  0  0  0  0
    8.0834    0.7056   -2.7119 C   0  0  0  0  0  0  0  0  0  0  0  0
    8.7576    0.4523   -1.5131 C   0  0  0  0  0  0  0  0  0  0  0  0
    8.0434    0.2628   -0.3259 C   0  0  0  0  0  0  0  0  0  0  0  0
    6.6470    0.3114   -0.3382 C   0  0  0  0  0  0  0  0  0  0  0  0
    5.9944    0.1462    0.8541 O   0  0  0  0  0  0  0  0  0  0  0  0
    5.1140   -0.9904    0.8321 C   0  0  0  0  0  0  0  0  0  0  0  0
    4.3202   -1.0433    2.1394 C   0  0  0  0  0  0  0  0  0  0  0  0
    3.0623    0.2723    2.2869 S   0  0  0  0  0  0  0  0  0  0  0  0
    1.7932   -0.3940    1.3238 C   0  0  0  0  0  0  0  0  0  0  0  0
    1.9351   -1.0156    0.1734 N   0  0  0  0  0  0  0  0  0  0  0  0
    0.6860   -1.3965   -0.2514 N   0  0  0  0  0  0  0  0  0  0  0  0
   -0.1936   -1.0060    0.6545 C   0  0  0  0  0  0  0  0  0  0  0  0
   -1.6667   -1.2068    0.5786 C   0  0  0  0  0  0  0  0  0  0  0  0
   -2.3518    0.0128   -0.0434 C   0  0  0  0  0  0  0  0  0  0  0  0
   -3.8015   -0.0491    0.0331 N   0  0  0  0  0  0  0  0  0  0  0  0
   -4.4521    0.1355    1.2398 C   0  0  0  0  0  0  0  0  0  0  0  0
   -3.8548    0.2621    2.3037 O   0  0  0  0  0  0  0  0  0  0  0  0
   -5.9417    0.2060    1.1988 C   0  0  0  0  0  0  0  0  0  0  0  0
   -6.6898   -0.3685    0.1628 C   0  0  0  0  0  0  0  0  0  0  0  0
   -8.0899   -0.2805    0.1674 C   0  0  0  0  0  0  0  0  0  0  0  0
   -8.7528    0.3681    1.2111 C   0  0  0  0  0  0  0  0  0  0  0  0
  -10.1067    0.5160    1.3404 O   0  0  0  0  0  0  0  0  0  0  0  0
  -10.9173    0.0002    0.2902 C   0  0  0  0  0  0  0  0  0  0  0  0
   -8.0043    0.9256    2.2513 C   0  0  0  0  0  0  0  0  0  0  0  0
   -6.6083    0.8447    2.2500 C   0  0  0  0  0  0  0  0  0  0  0  0
    0.4690   -0.3472    1.6675 N   0  0  0  0  0  0  0  0  0  0  0  0
   -0.1007    0.2851    2.8357 C   0  0  0  0  0  0  0  0  0  0  0  0
    5.9661    0.6025   -1.5195 C   0  0  0  0  0  0  0  0  0  0  0  0
    6.6839    0.7913   -2.7083 C   0  0  0  0  0  0  0  0  0  0  0  0
    7.6251    0.1195   -5.2857 H   0  0  0  0  0  0  0  0  0  0  0  0
    9.0393    1.0511   -5.8312 H   0  0  0  0  0  0  0  0  0  0  0  0
    7.6707    1.9295   -5.1099 H   0  0  0  0  0  0  0  0  0  0  0  0
    9.8514    0.4063   -1.5041 H   0  0  0  0  0  0  0  0  0  0  0  0
    8.5761    0.0752    0.6024 H   0  0  0  0  0  0  0  0  0  0  0  0
    4.4476   -0.9746   -0.0319 H   0  0  0  0  0  0  0  0  0  0  0  0
    5.7306   -1.8992    0.7726 H   0  0  0  0  0  0  0  0  0  0  0  0
    5.0004   -0.9165    2.9878 H   0  0  0  0  0  0  0  0  0  0  0  0
    3.8282   -2.0140    2.2565 H   0  0  0  0  0  0  0  0  0  0  0  0
   -1.8790   -2.0886   -0.0375 H   0  0  0  0  0  0  0  0  0  0  0  0
   -2.0643   -1.4393    1.5718 H   0  0  0  0  0  0  0  0  0  0  0  0
   -2.0847    0.0937   -1.1051 H   0  0  0  0  0  0  0  0  0  0  0  0
   -2.0313    0.9419    0.4453 H   0  0  0  0  0  0  0  0  0  0  0  0
   -4.3143    0.1183   -0.8207 H   0  0  0  0  0  0  0  0  0  0  0  0
   -6.2075   -0.9132   -0.6448 H   0  0  0  0  0  0  0  0  0  0  0  0
   -8.6320   -0.7388   -0.6537 H   0  0  0  0  0  0  0  0  0  0  0  0
  -10.8018   -1.0825    0.2016 H   0  0  0  0  0  0  0  0  0  0  0  0
  -11.9604    0.2053    0.5444 H   0  0  0  0  0  0  0  0  0  0  0  0
  -10.7007    0.5015   -0.6575 H   0  0  0  0  0  0  0  0  0  0  0  0
   -8.5152    1.4226    3.0743 H   0  0  0  0  0  0  0  0  0  0  0  0
   -6.0456    1.2827    3.0730 H   0  0  0  0  0  0  0  0  0  0  0  0
    0.2809    1.3147    2.9120 H   0  0  0  0  0  0  0  0  0  0  0  0
    0.1838   -0.2998    3.7238 H   0  0  0  0  0  0  0  0  0  0  0  0
   -1.1852    0.3223    2.7492 H   0  0  0  0  0  0  0  0  0  0  0  0
    4.8837    0.7011   -1.5243 H   0  0  0  0  0  0  0  0  0  0  0  0
    6.1240    1.0170   -3.6080 H   0  0  0  0  0  0  0  0  0  0  0  0
  1  2  1  0
  2  3  1  0
  3  4  2  0
  4  5  1  0
  5  6  2  0
  6  7  1  0
  7  8  1  0
  8  9  1  0
  9 10  1  0
 10 11  1  0
 11 12  2  0
 12 13  1  0
 13 14  2  0
 14 15  1  0
 15 16  1  0
 16 17  1  0
 17 18  1  0
 18 19  2  0
 18 20  1  0
 20 21  2  0
 21 22  1  0
 22 23  2  0
 23 24  1  0
 24 25  1  0
 23 26  1  0
 26 27  2  0
 14 28  1  0
 28 29  1  0
  6 30  1  0
 30 31  2  0
 31  3  1  0
 28 11  1  0
 27 20  1  0
  1 32  1  0
  1 33  1  0
  1 34  1  0
  4 35  1  0
  5 36  1  0
  8 37  1  0
  8 38  1  0
  9 39  1  0
  9 40  1  0
 15 41  1  0
 15 42  1  0
 16 43  1  0
 16 44  1  0
 17 45  1  0
 21 46  1  0
 22 47  1  0
 25 48  1  0
 25 49  1  0
 25 50  1  0
 26 51  1  0
 27 52  1  0
 29 53  1  0
 29 54  1  0
 29 55  1  0
 30 56  1  0
 31 57  1  0
M  END
$$$$
