
     RDKit          3D

 58 61  0  0  0  0  0  0  0  0999 V2000
   -3.1633    6.4690    0.9142 C   0  0  0  0  0  0  0  0  0  0  0  0
   -2.4196    5.2748    0.7084 O   0  0  0  0  0  0  0  0  0  0  0  0
   -3.1149    4.0969    0.7435 C   0  0  0  0  0  0  0  0  0  0  0  0
   -4.4783    3.9597    0.9646 C   0  0  0  0  0  0  0  0  0  0  0  0
   -5.0752    2.6938    0.9740 C   0  0  0  0  0  0  0  0  0  0  0  0
   -4.2773    1.5536    0.7586 C   0  0  0  0  0  0  0  0  0  0  0  0
   -4.8042   -0.0801    0.7243 S   0  0  0  0  0  0  0  0  0  0  0  0
   -3.2291   -0.6753    0.4228 C   0  0  0  0  0  0  0  0  0  0  0  0
   -3.0464   -2.1297    0.2993 C   0  0  0  0  0  0  0  0  0  0  0  0
   -3.5187   -2.7809   -0.8535 C   0  0  0  0  0  0  0  0  0  0  0  0
   -3.3416   -4.1543   -1.0185 C   0  0  0  0  0  0  0  0  0  0  0  0
   -2.6942   -4.8921   -0.0319 C   0  0  0  0  0  0  0  0  0  0  0  0
   -2.2187   -4.2595    1.1192 C   0  0  0  0  0  0  0  0  0  0  0  0
   -2.3790   -2.8786    1.2884 C   0  0  0  0  0  0  0  0  0  0  0  0
   -1.9618   -2.2066    2.4107 O   0  0  0  0  0  0  0  0  0  0  0  0
   -0.8161   -2.7417    3.0625 C   0  0  0  0  0  0  0  0  0  0  0  0
   -2.3009    0.3523    0.3465 C   0  0  0  0  0  0  0  0  0  0  0  0
   -0.8836    0.0934    0.1101 C   0  0  0  0  0  0  0  0  0  0  0  0
    0.0504    0.3535    1.1169 C   0  0  0  0  0  0  0  0  0  0  0  0
    1.4066    0.1048    0.8943 C   0  0  0  0  0  0  0  0  0  0  0  0
    1.8465   -0.4012   -0.3315 C   0  0  0  0  0  0  0  0  0  0  0  0
    3.1965   -0.6017   -0.4128 O   0  0  0  0  0  0  0  0  0  0  0  0
    3.7083   -1.1017   -1.6515 C   0  0  0  0  0  0  0  0  0  0  0  0
    5.2397   -1.2433   -1.5520 C   0  0  0  0  0  0  0  0  0  0  0  0
    6.0005   -0.0172   -1.8827 N   0  0  0  0  0  0  0  0  0  0  0  0
    5.6999    1.0787   -0.9580 C   0  0  0  0  0  0  0  0  0  0  0  0
    7.4374   -0.3026   -1.8622 C   0  0  0  0  0  0  0  0  0  0  0  0
    0.9156   -0.6551   -1.3394 C   0  0  0  0  0  0  0  0  0  0  0  0
   -0.4443   -0.4061   -1.1203 C   0  0  0  0  0  0  0  0  0  0  0  0
   -2.9033    1.6542    0.5390 C   0  0  0  0  0  0  0  0  0  0  0  0
   -2.3333    2.9549    0.5310 C   0  0  0  0  0  0  0  0  0  0  0  0
   -3.6184    6.4840    1.9101 H   0  0  0  0  0  0  0  0  0  0  0  0
   -2.4670    7.3110    0.8540 H   0  0  0  0  0  0  0  0  0  0  0  0
   -3.9175    6.6043    0.1319 H   0  0  0  0  0  0  0  0  0  0  0  0
   -5.1191    4.8187    1.1343 H   0  0  0  0  0  0  0  0  0  0  0  0
   -6.1434    2.5936    1.1461 H   0  0  0  0  0  0  0  0  0  0  0  0
   -4.0257   -2.2142   -1.6315 H   0  0  0  0  0  0  0  0  0  0  0  0
   -3.7136   -4.6468   -1.9131 H   0  0  0  0  0  0  0  0  0  0  0  0
   -2.5654   -5.9648   -0.1529 H   0  0  0  0  0  0  0  0  0  0  0  0
   -1.7425   -4.8698    1.8795 H   0  0  0  0  0  0  0  0  0  0  0  0
   -1.0863   -3.6149    3.6644 H   0  0  0  0  0  0  0  0  0  0  0  0
   -0.4315   -1.9758    3.7430 H   0  0  0  0  0  0  0  0  0  0  0  0
   -0.0197   -2.9853    2.3506 H   0  0  0  0  0  0  0  0  0  0  0  0
   -0.2732    0.7389    2.0809 H   0  0  0  0  0  0  0  0  0  0  0  0
    2.1259    0.3066    1.6838 H   0  0  0  0  0  0  0  0  0  0  0  0
    3.4448   -0.4384   -2.4846 H   0  0  0  0  0  0  0  0  0  0  0  0
    3.2859   -2.0978   -1.8328 H   0  0  0  0  0  0  0  0  0  0  0  0
    5.5309   -2.0136   -2.2775 H   0  0  0  0  0  0  0  0  0  0  0  0
    5.5147   -1.6061   -0.5530 H   0  0  0  0  0  0  0  0  0  0  0  0
    4.6646    1.4155   -1.0687 H   0  0  0  0  0  0  0  0  0  0  0  0
    6.3221    1.9529   -1.1829 H   0  0  0  0  0  0  0  0  0  0  0  0
    5.8717    0.7978    0.0872 H   0  0  0  0  0  0  0  0  0  0  0  0
    8.0105    0.5833   -2.1584 H   0  0  0  0  0  0  0  0  0  0  0  0
    7.7821   -0.6218   -0.8719 H   0  0  0  0  0  0  0  0  0  0  0  0
    7.6851   -1.0886   -2.5845 H   0  0  0  0  0  0  0  0  0  0  0  0
    1.2100   -1.0456   -2.3074 H   0  0  0  0  0  0  0  0  0  0  0  0
   -1.1567   -0.6057   -1.9173 H   0  0  0  0  0  0  0  0  0  0  0  0
   -1.2662    3.0709    0.3537 H   0  0  0  0  0  0  0  0  0  0  0  0
  1  2  1  0
  2  3  1  0
  3  4  2  0
  4  5  1  0
  5  6  2  0
  6  7  1  0
  7  8  1  0
  8  9  1  0
  9 10  2  0
 10 11  1  0
 11 12  2  0
 12 13  1  0
 13 14  2  0
 14 15  1  0
 15 16  1  0
  8 17  2  0
 17 18  1  0
 18 19  2  0
 19 20  1  0
 20 21  2  0
 21 22  1  0
 22 23  1  0
 23 24  1  0
 24 25  1  0
 25 26  1  0
 25 27  1  0
 21 28  1  0
 28 29  2  0
 17 30  1  0
 30 31  2  0
 31  3  1  0
 30  6  1  0
 14  9  1  0
 29 18  1  0
  1 32  1  0
  1 33  1  0
  1 34  1  0
  4 35  1  0
  5 36  1  0
 10 37  1  0
 11 38  1  0
 12 39  1  0
 13 40  1  0
 16 41  1  0
 16 42  1  0
 16 43  1  0
 19 44  1  0
 20 45  1  0
 23 46  1  0
 23 47  1  0
 24 48  1  0
 24 49  1  0
 26 50  1  0
 26 51  1  0
 26 52  1  0
 27 53  1  0
 27 54  1  0
 27 55  1  0
 28 56  1  0
 29 57  1  0
 31 58  1  0
M  END
$$$$
