
     RDKit          3D

 51 55  0  0  0  0  0  0  0  0999 V2000
   -8.4938   -0.4656    0.3302 F   0  0  0  0  0  0  0  0  0  0  0  0
   -7.3235    0.1672    0.4900 C   0  0  0  0  0  0  0  0  0  0  0  0
   -7.1394    0.9966    1.5890 C   0  0  0  0  0  0  0  0  0  0  0  0
   -5.9206    1.6506    1.7556 C   0  0  0  0  0  0  0  0  0  0  0  0
   -4.8982    1.4709    0.8194 C   0  0  0  0  0  0  0  0  0  0  0  0
   -5.0836    0.6379   -0.2938 C   0  0  0  0  0  0  0  0  0  0  0  0
   -3.9754    0.4342   -1.3008 C   0  0  0  0  0  0  0  0  0  0  0  0
   -2.9630   -0.6548   -0.8930 C   0  0  0  0  0  0  0  0  0  0  0  0
   -2.0418   -0.2717    0.1945 N   0  0  0  0  0  0  0  0  0  0  0  0
   -1.1291    0.8206   -0.2150 C   0  0  0  0  0  0  0  0  0  0  0  0
    0.1753    0.8958    0.6107 C   0  0  0  0  0  0  0  0  0  0  0  0
    0.9525   -0.3473    0.5066 N   0  0  0  0  0  0  0  0  0  0  0  0
    2.3239   -0.3393    0.2730 C   0  0  0  0  0  0  0  0  0  0  0  0
    2.8138   -1.2488   -0.5348 N   0  0  0  0  0  0  0  0  0  0  0  0
    4.1858   -1.2749   -0.8477 C   0  0  0  0  0  0  0  0  0  0  0  0
    4.6467   -2.2571   -1.7265 C   0  0  0  0  0  0  0  0  0  0  0  0
    5.9968   -2.3213   -2.0810 C   0  0  0  0  0  0  0  0  0  0  0  0
    6.9025   -1.3982   -1.5571 C   0  0  0  0  0  0  0  0  0  0  0  0
    6.4641   -0.4087   -0.6767 C   0  0  0  0  0  0  0  0  0  0  0  0
    5.1099   -0.3571   -0.3319 C   0  0  0  0  0  0  0  0  0  0  0  0
    4.5863    0.5942    0.5579 N   0  0  0  0  0  0  0  0  0  0  0  0
    5.2337    1.5952    1.2430 C   0  0  0  0  0  0  0  0  0  0  0  0
    4.3171    2.2212    2.0581 C   0  0  0  0  0  0  0  0  0  0  0  0
    3.0700    1.5885    1.8471 C   0  0  0  0  0  0  0  0  0  0  0  0
    3.2459    0.6108    0.8824 C   0  0  0  0  0  0  0  0  0  0  0  0
    0.1687   -1.5434    0.1531 C   0  0  0  0  0  0  0  0  0  0  0  0
   -1.2735   -1.4389    0.6889 C   0  0  0  0  0  0  0  0  0  0  0  0
   -6.3120   -0.0191   -0.4476 C   0  0  0  0  0  0  0  0  0  0  0  0
   -7.9422    1.1239    2.3075 H   0  0  0  0  0  0  0  0  0  0  0  0
   -5.7616    2.2960    2.6152 H   0  0  0  0  0  0  0  0  0  0  0  0
   -3.9477    1.9782    0.9691 H   0  0  0  0  0  0  0  0  0  0  0  0
   -3.4808    1.3911   -1.5048 H   0  0  0  0  0  0  0  0  0  0  0  0
   -4.4260    0.1402   -2.2584 H   0  0  0  0  0  0  0  0  0  0  0  0
   -3.5358   -1.5406   -0.5874 H   0  0  0  0  0  0  0  0  0  0  0  0
   -2.3845   -0.9490   -1.7787 H   0  0  0  0  0  0  0  0  0  0  0  0
   -1.6525    1.7781   -0.1182 H   0  0  0  0  0  0  0  0  0  0  0  0
   -0.8482    0.7087   -1.2713 H   0  0  0  0  0  0  0  0  0  0  0  0
    0.7515    1.7500    0.2376 H   0  0  0  0  0  0  0  0  0  0  0  0
   -0.0631    1.0837    1.6641 H   0  0  0  0  0  0  0  0  0  0  0  0
    3.9430   -2.9761   -2.1373 H   0  0  0  0  0  0  0  0  0  0  0  0
    6.3393   -3.0923   -2.7660 H   0  0  0  0  0  0  0  0  0  0  0  0
    7.9524   -1.4523   -1.8347 H   0  0  0  0  0  0  0  0  0  0  0  0
    7.1876    0.2953   -0.2796 H   0  0  0  0  0  0  0  0  0  0  0  0
    6.2913    1.7777    1.1215 H   0  0  0  0  0  0  0  0  0  0  0  0
    4.5282    3.0353    2.7396 H   0  0  0  0  0  0  0  0  0  0  0  0
    2.1447    1.8250    2.3533 H   0  0  0  0  0  0  0  0  0  0  0  0
    0.1513   -1.6740   -0.9361 H   0  0  0  0  0  0  0  0  0  0  0  0
    0.6385   -2.4316    0.5923 H   0  0  0  0  0  0  0  0  0  0  0  0
   -1.8035   -2.3803    0.4992 H   0  0  0  0  0  0  0  0  0  0  0  0
   -1.2257   -1.3458    1.7820 H   0  0  0  0  0  0  0  0  0  0  0  0
   -6.4954   -0.6785   -1.2904 H   0  0  0  0  0  0  0  0  0  0  0  0
  1  2  1  0
  2  3  2  0
  3  4  1  0
  4  5  2  0
  5  6  1  0
  6  7  1  0
  7  8  1  0
  8  9  1  0
  9 10  1  0
 10 11  1  0
 11 12  1  0
 12 13  1  0
 13 14  2  0
 14 15  1  0
 15 16  2  0
 16 17  1  0
 17 18  2  0
 18 19  1  0
 19 20  2  0
 20 21  1  0
 21 22  1  0
 22 23  2  0
 23 24  1  0
 24 25  2  0
 12 26  1  0
 26 27  1  0
  6 28  2  0
 28  2  1  0
 27  9  1  0
 25 13  1  0
 20 15  1  0
 25 21  1  0
  3 29  1  0
  4 30  1  0
  5 31  1  0
  7 32  1  0
  7 33  1  0
  8 34  1  0
  8 35  1  0
 10 36  1  0
 10 37  1  0
 11 38  1  0
 11 39  1  0
 16 40  1  0
 17 41  1  0
 18 42  1  0
 19 43  1  0
 22 44  1  0
 23 45  1  0
 24 46  1  0
 26 47  1  0
 26 48  1  0
 27 49  1  0
 27 50  1  0
 28 51  1  0
M  END
$$$$
