
     RDKit          3D

 54 58  0  0  0  0  0  0  0  0999 V2000
    1.6037   -1.9470    1.1874 O   0  0  0  0  0  0  0  0  0  0  0  0
    1.9661   -0.7735    1.2606 C   0  0  0  0  0  0  0  0  0  0  0  0
    2.1024   -0.0395    2.5855 C   0  0  0  0  0  0  0  0  0  0  0  0
    0.5265   -0.0237    3.4857 S   0  0  0  0  0  0  0  0  0  0  0  0
   -0.5159    0.7103    2.2698 C   0  0  0  0  0  0  0  0  0  0  0  0
    0.0265    1.6517    1.5570 N   0  0  0  0  0  0  0  0  0  0  0  0
   -0.8090    2.2105    0.5865 C   0  0  0  0  0  0  0  0  0  0  0  0
   -2.1126    1.8464    0.4591 C   0  0  0  0  0  0  0  0  0  0  0  0
   -2.8905    2.6700   -0.7937 S   0  0  0  0  0  0  0  0  0  0  0  0
   -1.4498    3.5394   -1.1982 C   0  0  0  0  0  0  0  0  0  0  0  0
   -1.2939    4.4874   -2.2267 C   0  0  0  0  0  0  0  0  0  0  0  0
   -0.0483    5.0951   -2.4028 C   0  0  0  0  0  0  0  0  0  0  0  0
    1.0191    4.7735   -1.5765 C   0  0  0  0  0  0  0  0  0  0  0  0
    0.8616    3.8319   -0.5556 C   0  0  0  0  0  0  0  0  0  0  0  0
   -0.3868    3.1941   -0.3544 C   0  0  0  0  0  0  0  0  0  0  0  0
   -2.7345    0.8678    1.2998 C   0  0  0  0  0  0  0  0  0  0  0  0
   -3.9369    0.6136    1.2746 O   0  0  0  0  0  0  0  0  0  0  0  0
   -1.8339    0.2557    2.1855 N   0  0  0  0  0  0  0  0  0  0  0  0
   -2.3693   -0.8636    2.9772 C   0  0  0  0  0  0  0  0  0  0  0  0
   -2.0170   -2.2462    2.3996 C   0  0  0  0  0  0  0  0  0  0  0  0
   -2.5476   -2.4972    1.0078 C   0  0  0  0  0  0  0  0  0  0  0  0
   -3.9248   -2.6264    0.7764 C   0  0  0  0  0  0  0  0  0  0  0  0
   -4.4104   -2.8481   -0.5140 C   0  0  0  0  0  0  0  0  0  0  0  0
   -3.5260   -2.9491   -1.5852 C   0  0  0  0  0  0  0  0  0  0  0  0
   -2.1541   -2.8285   -1.3665 C   0  0  0  0  0  0  0  0  0  0  0  0
   -1.6673   -2.6052   -0.0772 C   0  0  0  0  0  0  0  0  0  0  0  0
    2.2700   -0.0115    0.1563 N   0  0  0  0  0  0  0  0  0  0  0  0
    2.2292   -0.5378   -1.1869 C   0  0  0  0  0  0  0  0  0  0  0  0
    3.5913   -0.9779   -1.5612 C   0  0  0  0  0  0  0  0  0  0  0  0
    4.2119   -2.2080   -1.5911 C   0  0  0  0  0  0  0  0  0  0  0  0
    5.5339   -1.9776   -2.0384 C   0  0  0  0  0  0  0  0  0  0  0  0
    5.6405   -0.6233   -2.2441 C   0  0  0  0  0  0  0  0  0  0  0  0
    4.4661   -0.0063   -1.9554 O   0  0  0  0  0  0  0  0  0  0  0  0
    2.8501   -0.5675    3.1862 H   0  0  0  0  0  0  0  0  0  0  0  0
    2.4616    0.9836    2.4435 H   0  0  0  0  0  0  0  0  0  0  0  0
   -2.1278    4.7444   -2.8725 H   0  0  0  0  0  0  0  0  0  0  0  0
    0.0810    5.8302   -3.1947 H   0  0  0  0  0  0  0  0  0  0  0  0
    1.9818    5.2572   -1.7199 H   0  0  0  0  0  0  0  0  0  0  0  0
    1.6997    3.5918    0.0927 H   0  0  0  0  0  0  0  0  0  0  0  0
   -1.9957   -0.7938    4.0037 H   0  0  0  0  0  0  0  0  0  0  0  0
   -3.4582   -0.7724    3.0629 H   0  0  0  0  0  0  0  0  0  0  0  0
   -0.9328   -2.3895    2.4040 H   0  0  0  0  0  0  0  0  0  0  0  0
   -2.4187   -3.0218    3.0629 H   0  0  0  0  0  0  0  0  0  0  0  0
   -4.6344   -2.5405    1.5963 H   0  0  0  0  0  0  0  0  0  0  0  0
   -5.4825   -2.9342   -0.6826 H   0  0  0  0  0  0  0  0  0  0  0  0
   -3.9059   -3.1216   -2.5886 H   0  0  0  0  0  0  0  0  0  0  0  0
   -1.4619   -2.9120   -2.1990 H   0  0  0  0  0  0  0  0  0  0  0  0
   -0.5930   -2.5213    0.0737 H   0  0  0  0  0  0  0  0  0  0  0  0
    2.5861    0.9439    0.2664 H   0  0  0  0  0  0  0  0  0  0  0  0
    1.8897    0.2640   -1.8464 H   0  0  0  0  0  0  0  0  0  0  0  0
    1.5169   -1.3630   -1.2536 H   0  0  0  0  0  0  0  0  0  0  0  0
    3.7656   -3.1517   -1.3133 H   0  0  0  0  0  0  0  0  0  0  0  0
    6.3190   -2.7064   -2.1858 H   0  0  0  0  0  0  0  0  0  0  0  0
    6.4391    0.0237   -2.5767 H   0  0  0  0  0  0  0  0  0  0  0  0
  1  2  2  0
  2  3  1  0
  3  4  1  0
  4  5  1  0
  5  6  2  0
  6  7  1  0
  7  8  2  0
  8  9  1  0
  9 10  1  0
 10 11  2  0
 11 12  1  0
 12 13  2  0
 13 14  1  0
 14 15  2  0
  8 16  1  0
 16 17  2  0
 16 18  1  0
 18 19  1  0
 19 20  1  0
 20 21  1  0
 21 22  2  0
 22 23  1  0
 23 24  2  0
 24 25  1  0
 25 26  2  0
  2 27  1  0
 27 28  1  0
 28 29  1  0
 29 30  2  0
 30 31  1  0
 31 32  2  0
 32 33  1  0
 18  5  1  0
 26 21  1  0
 33 29  1  0
 15  7  1  0
 15 10  1  0
  3 34  1  0
  3 35  1  0
 11 36  1  0
 12 37  1  0
 13 38  1  0
 14 39  1  0
 19 40  1  0
 19 41  1  0
 20 42  1  0
 20 43  1  0
 22 44  1  0
 23 45  1  0
 24 46  1  0
 25 47  1  0
 26 48  1  0
 27 49  1  0
 28 50  1  0
 28 51  1  0
 30 52  1  0
 31 53  1  0
 32 54  1  0
M  END
$$$$
