
     RDKit          3D

 16 17  0  0  0  0  0  0  0  0999 V2000
    3.5239   -0.3225   -0.0907 N   0  0  0  0  0  0  0  0  0  0  0  0
    2.1917   -0.1545   -0.1452 C   0  0  0  0  0  0  0  0  0  0  0  0
    1.3714   -0.7165    0.7028 N   0  0  0  0  0  0  0  0  0  0  0  0
    0.0597   -0.3672    0.4057 C   0  0  0  0  0  0  0  0  0  0  0  0
   -1.1072   -0.7782    1.0839 C   0  0  0  0  0  0  0  0  0  0  0  0
   -1.0276   -1.5971    2.1436 F   0  0  0  0  0  0  0  0  0  0  0  0
   -2.3667   -0.3417    0.6688 C   0  0  0  0  0  0  0  0  0  0  0  0
   -2.4854    0.5092   -0.4244 C   0  0  0  0  0  0  0  0  0  0  0  0
   -1.3503    0.9385   -1.1203 C   0  0  0  0  0  0  0  0  0  0  0  0
   -0.0888    0.4888   -0.6887 C   0  0  0  0  0  0  0  0  0  0  0  0
    1.4674    0.8431   -1.3342 S   0  0  0  0  0  0  0  0  0  0  0  0
    3.8693   -0.6838    0.7921 H   0  0  0  0  0  0  0  0  0  0  0  0
    4.1024    0.4086   -0.4855 H   0  0  0  0  0  0  0  0  0  0  0  0
   -3.2472   -0.6754    1.2099 H   0  0  0  0  0  0  0  0  0  0  0  0
   -3.4702    0.8453   -0.7430 H   0  0  0  0  0  0  0  0  0  0  0  0
   -1.4423    1.6034   -1.9746 H   0  0  0  0  0  0  0  0  0  0  0  0
  1  2  1  0
  2  3  2  0
  3  4  1  0
  4  5  2  0
  5  6  1  0
  5  7  1  0
  7  8  2  0
  8  9  1  0
  9 10  2  0
 10 11  1  0
 11  2  1  0
 10  4  1  0
  1 12  1  0
  1 13  1  0
  7 14  1  0
  8 15  1  0
  9 16  1  0
M  END
$$$$
