
     RDKit          3D

 32 34  0  0  0  0  0  0  0  0999 V2000
   -0.5582   -0.4249    1.6729 O   0  0  0  0  0  0  0  0  0  0  0  0
   -0.4002   -0.1603    0.4917 C   0  0  0  0  0  0  0  0  0  0  0  0
   -1.5192    0.0467   -0.4894 C   0  0  0  0  0  0  0  0  0  0  0  0
   -2.9587   -0.0784   -0.2567 C   0  0  0  0  0  0  0  0  0  0  0  0
   -3.8779    0.6447   -1.0350 C   0  0  0  0  0  0  0  0  0  0  0  0
   -5.2542    0.5289   -0.8173 C   0  0  0  0  0  0  0  0  0  0  0  0
   -5.7335   -0.3096    0.1847 C   0  0  0  0  0  0  0  0  0  0  0  0
   -4.8376   -1.0288    0.9704 C   0  0  0  0  0  0  0  0  0  0  0  0
   -3.4614   -0.9123    0.7519 C   0  0  0  0  0  0  0  0  0  0  0  0
   -0.8875    0.3017   -1.6453 C   0  0  0  0  0  0  0  0  0  0  0  0
    0.4856    0.3392   -1.5587 N   0  0  0  0  0  0  0  0  0  0  0  0
    0.7914    0.0131   -0.2283 N   0  0  0  0  0  0  0  0  0  0  0  0
    2.1284    0.0154    0.2269 C   0  0  0  0  0  0  0  0  0  0  0  0
    2.4487   -0.3315    1.5479 C   0  0  0  0  0  0  0  0  0  0  0  0
    3.7737   -0.3326    2.0009 C   0  0  0  0  0  0  0  0  0  0  0  0
    4.8090    0.0150    1.1383 C   0  0  0  0  0  0  0  0  0  0  0  0
    4.5044    0.3652   -0.1803 C   0  0  0  0  0  0  0  0  0  0  0  0
    5.5865    0.7324   -1.1010 N   0  0  0  0  0  4  0  0  0  0  0  0
    6.7252    0.8636   -0.6306 O   0  0  0  0  0  0  0  0  0  0  0  0
    5.2980    0.8828   -2.2971 O   0  0  0  0  0  1  0  0  0  0  0  0
    3.1767    0.3684   -0.6372 C   0  0  0  0  0  0  0  0  0  0  0  0
   -3.5364    1.3218   -1.8147 H   0  0  0  0  0  0  0  0  0  0  0  0
   -5.9503    1.0992   -1.4272 H   0  0  0  0  0  0  0  0  0  0  0  0
   -6.8029   -0.3984    0.3576 H   0  0  0  0  0  0  0  0  0  0  0  0
   -5.2058   -1.6807    1.7587 H   0  0  0  0  0  0  0  0  0  0  0  0
   -2.7899   -1.4891    1.3852 H   0  0  0  0  0  0  0  0  0  0  0  0
   -1.3373    0.4419   -2.6196 H   0  0  0  0  0  0  0  0  0  0  0  0
    0.9203   -0.2907   -2.2363 H   0  0  0  0  0  0  0  0  0  0  0  0
    1.6757   -0.6132    2.2594 H   0  0  0  0  0  0  0  0  0  0  0  0
    3.9899   -0.6060    3.0319 H   0  0  0  0  0  0  0  0  0  0  0  0
    5.8334    0.0094    1.5045 H   0  0  0  0  0  0  0  0  0  0  0  0
    2.9643    0.6671   -1.6605 H   0  0  0  0  0  0  0  0  0  0  0  0
  1  2  2  0
  2  3  1  0
  3  4  1  0
  4  5  2  0
  5  6  1  0
  6  7  2  0
  7  8  1  0
  8  9  2  0
  3 10  2  0
 10 11  1  0
 11 12  1  0
 12 13  1  0
 13 14  2  0
 14 15  1  0
 15 16  2  0
 16 17  1  0
 17 18  1  0
 18 19  2  0
 18 20  1  0
 17 21  2  0
 12  2  1  0
 21 13  1  0
  9  4  1  0
  5 22  1  0
  6 23  1  0
  7 24  1  0
  8 25  1  0
  9 26  1  0
 10 27  1  0
 11 28  1  0
 14 29  1  0
 15 30  1  0
 16 31  1  0
 21 32  1  0
M  CHG  2  18   1  20  -1
M  END
$$$$
