
     RDKit          3D

 45 48  0  0  0  0  0  0  0  0999 V2000
    3.7391   -2.3108    2.9219 C   0  0  0  0  0  0  0  0  0  0  0  0
    3.3410   -2.4732    1.4733 C   0  0  0  0  0  0  0  0  0  0  0  0
    3.0870   -1.1664    0.9329 O   0  0  0  0  0  0  0  0  0  0  0  0
    2.7915   -1.2312   -0.4058 C   0  0  0  0  0  0  0  0  0  0  0  0
    3.8341   -1.5163   -1.3015 C   0  0  0  0  0  0  0  0  0  0  0  0
    3.6056   -1.5165   -2.6723 C   0  0  0  0  0  0  0  0  0  0  0  0
    2.3409   -1.2082   -3.1561 C   0  0  0  0  0  0  0  0  0  0  0  0
    1.3108   -0.8949   -2.2652 C   0  0  0  0  0  0  0  0  0  0  0  0
    1.5072   -0.8942   -0.8665 C   0  0  0  0  0  0  0  0  0  0  0  0
    0.3888   -0.5323    0.0189 C   0  0  0  0  0  0  0  0  0  0  0  0
    0.2229   -1.2252    1.1701 N   0  0  0  0  0  0  0  0  0  0  0  0
   -0.8543   -0.8889    1.9235 C   0  0  0  0  0  0  0  0  0  0  0  0
   -1.0731   -1.6616    3.1791 C   0  0  0  0  0  0  0  0  0  0  0  0
   -0.1469   -2.6341    3.4484 N   0  0  0  0  0  0  0  0  0  0  0  0
   -2.0261   -1.4547    3.9202 O   0  0  0  0  0  0  0  0  0  0  0  0
   -1.7304    0.0845    1.5414 C   0  0  0  0  0  0  0  0  0  0  0  0
   -2.8955    0.5759    2.1072 N   0  0  0  0  0  0  0  0  0  0  0  0
   -3.4317    1.5534    1.2565 C   0  0  0  0  0  0  0  0  0  0  0  0
   -4.4629    2.1592    1.4984 O   0  0  0  0  0  0  0  0  0  0  0  0
   -2.5418    1.6539    0.1434 N   0  0  0  0  0  0  0  0  0  0  0  0
   -2.6915    2.4865   -0.9996 C   0  0  0  0  0  0  0  0  0  0  0  0
   -3.8967    3.1816   -1.2200 C   0  0  0  0  0  0  0  0  0  0  0  0
   -4.0820    3.9975   -2.3435 C   0  0  0  0  0  0  0  0  0  0  0  0
   -3.0586    4.1348   -3.2666 C   0  0  0  0  0  0  0  0  0  0  0  0
   -3.2318    4.9121   -4.3432 F   0  0  0  0  0  0  0  0  0  0  0  0
   -1.8522    3.4794   -3.0796 C   0  0  0  0  0  0  0  0  0  0  0  0
   -1.6720    2.6630   -1.9543 C   0  0  0  0  0  0  0  0  0  0  0  0
   -1.4888    0.7246    0.3511 C   0  0  0  0  0  0  0  0  0  0  0  0
   -0.4505    0.4301   -0.4350 N   0  0  0  0  0  0  0  0  0  0  0  0
    2.9767   -1.7489    3.4748 H   0  0  0  0  0  0  0  0  0  0  0  0
    3.8712   -3.2921    3.3927 H   0  0  0  0  0  0  0  0  0  0  0  0
    4.6711   -1.7444    3.0107 H   0  0  0  0  0  0  0  0  0  0  0  0
    4.1372   -2.9843    0.9345 H   0  0  0  0  0  0  0  0  0  0  0  0
    2.4378   -3.0857    1.4084 H   0  0  0  0  0  0  0  0  0  0  0  0
    4.8350   -1.7093   -0.9324 H   0  0  0  0  0  0  0  0  0  0  0  0
    4.4155   -1.7357   -3.3632 H   0  0  0  0  0  0  0  0  0  0  0  0
    2.1570   -1.1883   -4.2281 H   0  0  0  0  0  0  0  0  0  0  0  0
    0.3354   -0.6306   -2.6770 H   0  0  0  0  0  0  0  0  0  0  0  0
   -0.2452   -3.2148    4.2794 H   0  0  0  0  0  0  0  0  0  0  0  0
    0.6438   -2.7847    2.8275 H   0  0  0  0  0  0  0  0  0  0  0  0
   -3.3085    0.2662    2.9794 H   0  0  0  0  0  0  0  0  0  0  0  0
   -4.7363    3.1015   -0.5353 H   0  0  0  0  0  0  0  0  0  0  0  0
   -5.0224    4.5204   -2.4950 H   0  0  0  0  0  0  0  0  0  0  0  0
   -1.0539    3.6051   -3.8045 H   0  0  0  0  0  0  0  0  0  0  0  0
   -0.6967    2.1977   -1.8489 H   0  0  0  0  0  0  0  0  0  0  0  0
  1  2  1  0
  2  3  1  0
  3  4  1  0
  4  5  2  0
  5  6  1  0
  6  7  2  0
  7  8  1  0
  8  9  2  0
  9 10  1  0
 10 11  2  0
 11 12  1  0
 12 13  1  0
 13 14  1  0
 13 15  2  0
 12 16  2  0
 16 17  1  0
 17 18  1  0
 18 19  2  0
 18 20  1  0
 20 21  1  0
 21 22  2  0
 22 23  1  0
 23 24  2  0
 24 25  1  0
 24 26  1  0
 26 27  2  0
 20 28  1  0
 28 29  2  0
  9  4  1  0
 29 10  1  0
 28 16  1  0
 27 21  1  0
  1 30  1  0
  1 31  1  0
  1 32  1  0
  2 33  1  0
  2 34  1  0
  5 35  1  0
  6 36  1  0
  7 37  1  0
  8 38  1  0
 14 39  1  0
 14 40  1  0
 17 41  1  0
 22 42  1  0
 23 43  1  0
 26 44  1  0
 27 45  1  0
M  END
$$$$
