
     RDKit          3D

 59 64  0  0  0  0  0  0  0  0999 V2000
    3.6839    1.9739   -1.8127 O   0  0  0  0  0  0  0  0  0  0  0  0
    3.4132    1.4085   -0.7570 C   0  0  0  0  0  0  0  0  0  0  0  0
    4.4451    0.5643   -0.1187 C   0  0  0  0  0  0  0  0  0  0  0  0
    4.2411   -0.7602   -0.0613 C   0  0  0  0  0  0  0  0  0  0  0  0
    5.1879   -1.6593    0.5077 C   0  0  0  0  0  0  0  0  0  0  0  0
    6.4631   -1.4518    1.0092 C   0  0  0  0  0  0  0  0  0  0  0  0
    7.0756   -2.6431    1.4987 C   0  0  0  0  0  0  0  0  0  0  0  0
    6.2552   -3.7368    1.3596 C   0  0  0  0  0  0  0  0  0  0  0  0
    4.7610   -3.3283    0.6438 S   0  0  0  0  0  0  0  0  0  0  0  0
    2.1844    1.4952   -0.1293 N   0  0  0  0  0  0  0  0  0  0  0  0
    1.8992    1.1224    1.2478 C   0  0  0  0  0  0  0  0  0  0  0  0
    0.7605    0.1042    1.3059 C   0  0  0  0  0  0  0  0  0  0  0  0
   -0.3449    0.3303    0.2166 C   0  0  0  0  0  0  0  0  0  0  0  0
   -0.2739    1.8091   -0.2499 C   0  0  0  0  0  0  0  0  0  0  0  0
    1.0983    2.1508   -0.8409 C   0  0  0  0  0  0  0  0  0  0  0  0
   -0.0357   -0.4544   -0.9666 O   0  0  0  0  0  0  0  0  0  0  0  0
   -0.2328   -1.8027   -0.8621 C   0  0  0  0  0  0  0  0  0  0  0  0
    0.4182   -2.5945   -1.8087 C   0  0  0  0  0  0  0  0  0  0  0  0
    0.2950   -3.9835   -1.7544 C   0  0  0  0  0  0  0  0  0  0  0  0
   -0.4827   -4.5681   -0.7589 C   0  0  0  0  0  0  0  0  0  0  0  0
   -0.5966   -5.9011   -0.7121 F   0  0  0  0  0  0  0  0  0  0  0  0
   -1.1484   -3.7913    0.1809 C   0  0  0  0  0  0  0  0  0  0  0  0
   -1.0261   -2.4015    0.1177 C   0  0  0  0  0  0  0  0  0  0  0  0
   -1.7466   -1.5404    1.0750 C   0  0  0  0  0  0  0  0  0  0  0  0
   -2.3197   -2.0456    2.0343 O   0  0  0  0  0  0  0  0  0  0  0  0
   -1.7574   -0.0524    0.7401 C   0  0  0  0  0  0  0  0  0  0  0  0
   -2.9171    0.1980   -0.2168 C   0  0  0  0  0  0  0  0  0  0  0  0
   -3.4685    1.4388    0.3947 C   0  0  0  0  0  0  0  0  0  0  0  0
   -4.4818    2.2707   -0.2947 C   0  0  0  0  0  0  0  0  0  0  0  0
   -5.0508    1.8733   -1.5101 C   0  0  0  0  0  0  0  0  0  0  0  0
   -5.9996    2.6861   -2.1364 C   0  0  0  0  0  0  0  0  0  0  0  0
   -6.3837    3.8928   -1.5530 C   0  0  0  0  0  0  0  0  0  0  0  0
   -5.8233    4.2905   -0.3407 C   0  0  0  0  0  0  0  0  0  0  0  0
   -4.8751    3.4817    0.2885 C   0  0  0  0  0  0  0  0  0  0  0  0
   -2.9908    1.7249    1.5632 N   0  0  0  0  0  0  0  0  0  0  0  0
   -2.0764    0.7054    1.9119 O   0  0  0  0  0  0  0  0  0  0  0  0
    5.3463    1.0705    0.1960 H   0  0  0  0  0  0  0  0  0  0  0  0
    3.3147   -1.1722   -0.4584 H   0  0  0  0  0  0  0  0  0  0  0  0
    6.9514   -0.4853    1.0277 H   0  0  0  0  0  0  0  0  0  0  0  0
    8.0685   -2.6922    1.9287 H   0  0  0  0  0  0  0  0  0  0  0  0
    6.4612   -4.7599    1.6431 H   0  0  0  0  0  0  0  0  0  0  0  0
    1.6136    2.0404    1.7772 H   0  0  0  0  0  0  0  0  0  0  0  0
    2.7797    0.7389    1.7696 H   0  0  0  0  0  0  0  0  0  0  0  0
    1.2017   -0.8934    1.1975 H   0  0  0  0  0  0  0  0  0  0  0  0
    0.3386    0.1472    2.3167 H   0  0  0  0  0  0  0  0  0  0  0  0
   -0.4781    2.4779    0.5953 H   0  0  0  0  0  0  0  0  0  0  0  0
   -1.0218    2.0269   -1.0201 H   0  0  0  0  0  0  0  0  0  0  0  0
    1.2667    3.2333   -0.8028 H   0  0  0  0  0  0  0  0  0  0  0  0
    1.1400    1.8538   -1.8960 H   0  0  0  0  0  0  0  0  0  0  0  0
    1.0331   -2.1331   -2.5783 H   0  0  0  0  0  0  0  0  0  0  0  0
    0.8038   -4.6139   -2.4780 H   0  0  0  0  0  0  0  0  0  0  0  0
   -1.7557   -4.2712    0.9431 H   0  0  0  0  0  0  0  0  0  0  0  0
   -3.6859   -0.5817   -0.1745 H   0  0  0  0  0  0  0  0  0  0  0  0
   -2.6059    0.3406   -1.2540 H   0  0  0  0  0  0  0  0  0  0  0  0
   -4.7813    0.9360   -1.9868 H   0  0  0  0  0  0  0  0  0  0  0  0
   -6.4434    2.3767   -3.0799 H   0  0  0  0  0  0  0  0  0  0  0  0
   -7.1236    4.5225   -2.0414 H   0  0  0  0  0  0  0  0  0  0  0  0
   -6.1249    5.2291    0.1179 H   0  0  0  0  0  0  0  0  0  0  0  0
   -4.4483    3.8033    1.2366 H   0  0  0  0  0  0  0  0  0  0  0  0
  1  2  2  0
  2  3  1  0
  3  4  2  3
  4  5  1  0
  5  6  2  0
  6  7  1  0
  7  8  2  0
  8  9  1  0
  2 10  1  0
 10 11  1  0
 11 12  1  0
 12 13  1  0
 13 14  1  0
 14 15  1  0
 13 16  1  0
 16 17  1  0
 17 18  2  0
 18 19  1  0
 19 20  2  0
 20 21  1  0
 20 22  1  0
 22 23  2  0
 23 24  1  0
 24 25  2  0
 24 26  1  0
 26 27  1  0
 27 28  1  0
 28 29  1  0
 29 30  2  0
 30 31  1  0
 31 32  2  0
 32 33  1  0
 33 34  2  0
 28 35  2  0
 35 36  1  0
  9  5  1  0
 15 10  1  0
 23 17  1  0
 36 26  1  0
 26 13  1  0
 34 29  1  0
  3 37  1  0
  4 38  1  0
  6 39  1  0
  7 40  1  0
  8 41  1  0
 11 42  1  0
 11 43  1  0
 12 44  1  0
 12 45  1  0
 14 46  1  0
 14 47  1  0
 15 48  1  0
 15 49  1  0
 18 50  1  0
 19 51  1  0
 22 52  1  0
 27 53  1  0
 27 54  1  0
 30 55  1  0
 31 56  1  0
 32 57  1  0
 33 58  1  0
 34 59  1  0
M  END
$$$$
