
     RDKit          3D

 62 67  0  0  0  0  0  0  0  0999 V2000
   -2.9351   -3.6274    1.0869 C   0  0  0  0  0  0  0  0  0  0  0  0
   -3.3344   -2.3176    1.4677 O   0  0  0  0  0  0  0  0  0  0  0  0
   -3.0256   -1.9175    2.7444 C   0  0  0  0  0  0  0  0  0  0  0  0
   -2.6666   -2.7957    3.7744 C   0  0  0  0  0  0  0  0  0  0  0  0
   -2.3859   -2.3114    5.0551 C   0  0  0  0  0  0  0  0  0  0  0  0
   -2.4658   -0.9480    5.3218 C   0  0  0  0  0  0  0  0  0  0  0  0
   -2.8294   -0.0642    4.3071 C   0  0  0  0  0  0  0  0  0  0  0  0
   -3.1154   -0.5364    3.0145 C   0  0  0  0  0  0  0  0  0  0  0  0
   -3.4708    0.4319    1.9663 C   0  0  0  0  0  0  0  0  0  0  0  0
   -5.0295    1.1317    2.0042 S   0  0  0  0  0  0  0  0  0  0  0  0
   -4.7494    2.0585    0.5833 C   0  0  0  0  0  0  0  0  0  0  0  0
   -5.6640    2.9413   -0.0327 C   0  0  0  0  0  0  0  0  0  0  0  0
   -5.2272    3.5896   -1.1694 C   0  0  0  0  0  0  0  0  0  0  0  0
   -3.9746    3.3979   -1.6843 C   0  0  0  0  0  0  0  0  0  0  0  0
   -3.0644    2.5402   -1.0984 C   0  0  0  0  0  0  0  0  0  0  0  0
   -3.4588    1.8391    0.0755 C   0  0  0  0  0  0  0  0  0  0  0  0
   -2.7285    0.8918    0.8908 C   0  0  0  0  0  0  0  0  0  0  0  0
   -1.3670    0.4285    0.6450 C   0  0  0  0  0  0  0  0  0  0  0  0
   -0.3152    0.8471    1.4634 C   0  0  0  0  0  0  0  0  0  0  0  0
    0.9840    0.4012    1.2100 C   0  0  0  0  0  0  0  0  0  0  0  0
    1.2487   -0.4571    0.1393 C   0  0  0  0  0  0  0  0  0  0  0  0
    2.5616   -0.8138    0.0080 O   0  0  0  0  0  0  0  0  0  0  0  0
    2.9156   -1.5929   -1.1356 C   0  0  0  0  0  0  0  0  0  0  0  0
    4.4400   -1.8279   -1.1463 C   0  0  0  0  0  0  0  0  0  0  0  0
    5.2650   -0.6130   -1.2862 N   0  0  0  0  0  0  0  0  0  0  0  0
    4.9712    0.1348   -2.5260 C   0  0  0  0  0  0  0  0  0  0  0  0
    6.1538    1.0135   -2.9604 C   0  0  0  0  0  0  0  0  0  0  0  0
    7.3168    0.2423   -3.2939 O   0  0  0  0  0  0  0  0  0  0  0  0
    7.4218   -0.9719   -2.5377 C   0  0  0  0  0  0  0  0  0  0  0  0
    6.7090   -0.9080   -1.1777 C   0  0  0  0  0  0  0  0  0  0  0  0
    0.1979   -0.8753   -0.6777 C   0  0  0  0  0  0  0  0  0  0  0  0
   -1.1054   -0.4317   -0.4269 C   0  0  0  0  0  0  0  0  0  0  0  0
   -3.7528    4.1360   -2.8058 O   0  0  0  0  0  0  0  0  0  0  0  0
   -5.0164    4.8186   -2.9348 C   0  0  0  0  0  0  0  0  0  0  0  0
   -5.9596    4.4747   -1.8996 O   0  0  0  0  0  0  0  0  0  0  0  0
   -3.0989   -3.7263    0.0093 H   0  0  0  0  0  0  0  0  0  0  0  0
   -3.5496   -4.3832    1.5866 H   0  0  0  0  0  0  0  0  0  0  0  0
   -1.8691   -3.7932    1.2765 H   0  0  0  0  0  0  0  0  0  0  0  0
   -2.6069   -3.8671    3.6146 H   0  0  0  0  0  0  0  0  0  0  0  0
   -2.1080   -3.0029    5.8468 H   0  0  0  0  0  0  0  0  0  0  0  0
   -2.2471   -0.5726    6.3180 H   0  0  0  0  0  0  0  0  0  0  0  0
   -2.8859    1.0003    4.5245 H   0  0  0  0  0  0  0  0  0  0  0  0
   -6.6581    3.1015    0.3677 H   0  0  0  0  0  0  0  0  0  0  0  0
   -2.0749    2.4100   -1.5244 H   0  0  0  0  0  0  0  0  0  0  0  0
   -0.4966    1.5181    2.2990 H   0  0  0  0  0  0  0  0  0  0  0  0
    1.7996    0.7279    1.8508 H   0  0  0  0  0  0  0  0  0  0  0  0
    2.4242   -2.5716   -1.0713 H   0  0  0  0  0  0  0  0  0  0  0  0
    2.5998   -1.0951   -2.0596 H   0  0  0  0  0  0  0  0  0  0  0  0
    4.6814   -2.5398   -1.9457 H   0  0  0  0  0  0  0  0  0  0  0  0
    4.6980   -2.3040   -0.1914 H   0  0  0  0  0  0  0  0  0  0  0  0
    4.7497   -0.5614   -3.3455 H   0  0  0  0  0  0  0  0  0  0  0  0
    4.0913    0.7673   -2.3673 H   0  0  0  0  0  0  0  0  0  0  0  0
    5.8836    1.5960   -3.8471 H   0  0  0  0  0  0  0  0  0  0  0  0
    6.4252    1.7269   -2.1733 H   0  0  0  0  0  0  0  0  0  0  0  0
    8.4879   -1.1750   -2.3936 H   0  0  0  0  0  0  0  0  0  0  0  0
    7.0160   -1.7870   -3.1481 H   0  0  0  0  0  0  0  0  0  0  0  0
    7.1569   -0.0952   -0.5921 H   0  0  0  0  0  0  0  0  0  0  0  0
    6.8946   -1.8290   -0.6124 H   0  0  0  0  0  0  0  0  0  0  0  0
    0.3535   -1.5481   -1.5134 H   0  0  0  0  0  0  0  0  0  0  0  0
   -1.9189   -0.7703   -1.0648 H   0  0  0  0  0  0  0  0  0  0  0  0
   -5.4545    4.5653   -3.9071 H   0  0  0  0  0  0  0  0  0  0  0  0
   -4.8367    5.8994   -2.9010 H   0  0  0  0  0  0  0  0  0  0  0  0
  1  2  1  0
  2  3  1  0
  3  4  2  0
  4  5  1  0
  5  6  2  0
  6  7  1  0
  7  8  2  0
  8  9  1  0
  9 10  1  0
 10 11  1  0
 11 12  2  0
 12 13  1  0
 13 14  2  0
 14 15  1  0
 15 16  2  0
 16 17  1  0
 17 18  1  0
 18 19  2  0
 19 20  1  0
 20 21  2  0
 21 22  1  0
 22 23  1  0
 23 24  1  0
 24 25  1  0
 25 26  1  0
 26 27  1  0
 27 28  1  0
 28 29  1  0
 29 30  1  0
 21 31  1  0
 31 32  2  0
 14 33  1  0
 33 34  1  0
 34 35  1  0
  8  3  1  0
 17  9  2  0
 32 18  1  0
 16 11  1  0
 30 25  1  0
 35 13  1  0
  1 36  1  0
  1 37  1  0
  1 38  1  0
  4 39  1  0
  5 40  1  0
  6 41  1  0
  7 42  1  0
 12 43  1  0
 15 44  1  0
 19 45  1  0
 20 46  1  0
 23 47  1  0
 23 48  1  0
 24 49  1  0
 24 50  1  0
 26 51  1  0
 26 52  1  0
 27 53  1  0
 27 54  1  0
 29 55  1  0
 29 56  1  0
 30 57  1  0
 30 58  1  0
 31 59  1  0
 32 60  1  0
 34 61  1  0
 34 62  1  0
M  END
$$$$
