
     RDKit          3D

 51 53  0  0  0  0  0  0  0  0999 V2000
    9.6799   -0.6378   -1.6475 C   0  0  0  0  0  0  0  0  0  0  0  0
    8.2602   -0.6261   -1.5742 O   0  0  0  0  0  0  0  0  0  0  0  0
    7.7008   -0.1336   -0.4260 C   0  0  0  0  0  0  0  0  0  0  0  0
    8.3998    0.3555    0.6772 C   0  0  0  0  0  0  0  0  0  0  0  0
    7.7025    0.8301    1.7888 C   0  0  0  0  0  0  0  0  0  0  0  0
    6.3070    0.8167    1.7999 C   0  0  0  0  0  0  0  0  0  0  0  0
    5.5937    0.3289    0.7004 C   0  0  0  0  0  0  0  0  0  0  0  0
    4.1916    0.3480    0.7862 N   0  0  0  0  0  0  0  0  0  0  0  0
    3.2767   -0.0730   -0.1545 C   0  0  0  0  0  0  0  0  0  0  0  0
    3.4628   -0.5533   -1.2643 O   0  0  0  0  0  0  0  0  0  0  0  0
    1.8276    0.1171    0.3258 C   0  0  0  0  0  0  0  0  0  0  0  0
    1.6228    0.5930    1.4352 O   0  0  0  0  0  0  0  0  0  0  0  0
    0.9105   -0.3013   -0.6183 N   0  0  0  0  0  0  0  0  0  0  0  0
   -0.4273   -0.2113   -0.3769 N   0  0  0  0  0  0  0  0  0  0  0  0
   -1.1953   -0.6368   -1.3259 C   0  0  0  0  0  0  0  0  0  0  0  0
   -2.6409   -0.5827   -1.1900 C   0  0  0  0  0  0  0  0  0  0  0  0
   -3.5662   -0.9218   -2.2064 C   0  0  0  0  0  0  0  0  0  0  0  0
   -4.8445   -0.7151   -1.7282 C   0  0  0  0  0  0  0  0  0  0  0  0
   -6.1166   -0.8432   -2.4963 C   0  0  0  0  0  0  0  0  0  0  0  0
   -4.7425   -0.2528   -0.4191 N   0  0  0  0  0  0  0  0  0  0  0  0
   -5.8294    0.1527    0.4106 C   0  0  0  0  0  0  0  0  0  0  0  0
   -6.9852   -0.6309    0.4971 C   0  0  0  0  0  0  0  0  0  0  0  0
   -8.0468   -0.2215    1.3088 C   0  0  0  0  0  0  0  0  0  0  0  0
   -7.9623    0.9708    2.0337 C   0  0  0  0  0  0  0  0  0  0  0  0
   -9.3146    1.4120    3.0140 Cl  0  0  0  0  0  0  0  0  0  0  0  0
   -6.8079    1.7566    1.9473 C   0  0  0  0  0  0  0  0  0  0  0  0
   -6.6371    3.2462    2.8069 Cl  0  0  0  0  0  0  0  0  0  0  0  0
   -5.7423    1.3478    1.1379 C   0  0  0  0  0  0  0  0  0  0  0  0
   -3.3905   -0.2265   -0.0726 C   0  0  0  0  0  0  0  0  0  0  0  0
   -2.8965    0.0678    1.3115 C   0  0  0  0  0  0  0  0  0  0  0  0
    6.2996   -0.1441   -0.4079 C   0  0  0  0  0  0  0  0  0  0  0  0
   10.1101   -1.2795   -0.8715 H   0  0  0  0  0  0  0  0  0  0  0  0
   10.0865    0.3775   -1.5923 H   0  0  0  0  0  0  0  0  0  0  0  0
    9.9612   -1.0563   -2.6187 H   0  0  0  0  0  0  0  0  0  0  0  0
    9.4838    0.3813    0.7041 H   0  0  0  0  0  0  0  0  0  0  0  0
    8.2476    1.2114    2.6487 H   0  0  0  0  0  0  0  0  0  0  0  0
    5.7883    1.1923    2.6786 H   0  0  0  0  0  0  0  0  0  0  0  0
    3.7725    0.7138    1.6396 H   0  0  0  0  0  0  0  0  0  0  0  0
    1.2689   -0.6770   -1.4952 H   0  0  0  0  0  0  0  0  0  0  0  0
   -0.7981   -1.0390   -2.2749 H   0  0  0  0  0  0  0  0  0  0  0  0
   -3.3272   -1.2528   -3.2101 H   0  0  0  0  0  0  0  0  0  0  0  0
   -6.7949   -0.0069   -2.3023 H   0  0  0  0  0  0  0  0  0  0  0  0
   -6.6205   -1.7845   -2.2584 H   0  0  0  0  0  0  0  0  0  0  0  0
   -5.9135   -0.8456   -3.5732 H   0  0  0  0  0  0  0  0  0  0  0  0
   -7.0631   -1.5832   -0.0211 H   0  0  0  0  0  0  0  0  0  0  0  0
   -8.9364   -0.8437    1.3787 H   0  0  0  0  0  0  0  0  0  0  0  0
   -4.8648    1.9852    1.0539 H   0  0  0  0  0  0  0  0  0  0  0  0
   -2.5741    1.1107    1.3882 H   0  0  0  0  0  0  0  0  0  0  0  0
   -2.0493   -0.5761    1.5677 H   0  0  0  0  0  0  0  0  0  0  0  0
   -3.6536   -0.1279    2.0760 H   0  0  0  0  0  0  0  0  0  0  0  0
    5.7867   -0.5315   -1.2828 H   0  0  0  0  0  0  0  0  0  0  0  0
  1  2  1  0
  2  3  1  0
  3  4  2  0
  4  5  1  0
  5  6  2  0
  6  7  1  0
  7  8  1  0
  8  9  1  0
  9 10  2  0
  9 11  1  0
 11 12  2  0
 11 13  1  0
 13 14  1  0
 14 15  2  3
 15 16  1  0
 16 17  1  0
 17 18  2  0
 18 19  1  0
 18 20  1  0
 20 21  1  0
 21 22  2  0
 22 23  1  0
 23 24  2  0
 24 25  1  0
 24 26  1  0
 26 27  1  0
 26 28  2  0
 20 29  1  0
 29 30  1  0
  7 31  2  0
 31  3  1  0
 29 16  2  0
 28 21  1  0
  1 32  1  0
  1 33  1  0
  1 34  1  0
  4 35  1  0
  5 36  1  0
  6 37  1  0
  8 38  1  0
 13 39  1  0
 15 40  1  0
 17 41  1  0
 19 42  1  0
 19 43  1  0
 19 44  1  0
 22 45  1  0
 23 46  1  0
 28 47  1  0
 30 48  1  0
 30 49  1  0
 30 50  1  0
 31 51  1  0
M  END
$$$$
