
     RDKit          3D

 38 41  0  0  0  0  0  0  0  0999 V2000
   -4.4641   -3.0941    0.3762 O   0  0  0  0  0  0  0  0  0  0  0  0
   -3.9651   -2.4185   -0.5196 C   0  0  0  0  0  0  0  0  0  0  0  0
   -3.3413   -1.1230   -0.3214 C   0  0  0  0  0  0  0  0  0  0  0  0
   -2.8076   -0.3468   -1.3326 C   0  0  0  0  0  0  0  0  0  0  0  0
   -2.2772    0.7876   -0.7702 N   0  0  0  0  0  0  0  0  0  0  0  0
   -1.5519    1.8006   -1.5242 C   0  0  0  0  0  0  0  0  0  0  0  0
   -0.1484    1.3521   -1.8980 C   0  0  0  0  0  0  0  0  0  0  0  0
    0.2434    1.4724   -3.0563 O   0  0  0  0  0  0  0  0  0  0  0  0
    0.6033    0.8888   -0.8299 N   0  0  0  0  0  0  0  0  0  0  0  0
    1.9128    0.3646   -0.8582 C   0  0  0  0  0  0  0  0  0  0  0  0
    2.6556    0.1681   -2.0388 C   0  0  0  0  0  0  0  0  0  0  0  0
    3.9449   -0.3801   -1.9994 C   0  0  0  0  0  0  0  0  0  0  0  0
    4.4612   -0.7201   -0.7712 C   0  0  0  0  0  0  0  0  0  0  0  0
    3.7469   -0.5255    0.3871 C   0  0  0  0  0  0  0  0  0  0  0  0
    2.4752    0.0094    0.3773 C   0  0  0  0  0  0  0  0  0  0  0  0
    4.4334   -0.9185    1.4959 O   0  0  0  0  0  0  0  0  0  0  0  0
    5.6545   -1.4019    0.8954 C   0  0  0  0  0  0  0  0  0  0  0  0
    5.6825   -1.2694   -0.5417 O   0  0  0  0  0  0  0  0  0  0  0  0
   -2.4917    0.7915    0.5938 C   0  0  0  0  0  0  0  0  0  0  0  0
   -2.1559    1.7288    1.5861 C   0  0  0  0  0  0  0  0  0  0  0  0
   -2.4800    1.4312    2.9140 C   0  0  0  0  0  0  0  0  0  0  0  0
   -3.1162    0.2409    3.2459 C   0  0  0  0  0  0  0  0  0  0  0  0
   -3.4565   -0.6803    2.2508 C   0  0  0  0  0  0  0  0  0  0  0  0
   -3.1435   -0.4087    0.9018 C   0  0  0  0  0  0  0  0  0  0  0  0
   -3.9695   -2.7843   -1.5602 H   0  0  0  0  0  0  0  0  0  0  0  0
   -2.7424   -0.5198   -2.4013 H   0  0  0  0  0  0  0  0  0  0  0  0
   -1.5012    2.7275   -0.9458 H   0  0  0  0  0  0  0  0  0  0  0  0
   -2.1290    1.9965   -2.4359 H   0  0  0  0  0  0  0  0  0  0  0  0
    0.1601    0.8913    0.0834 H   0  0  0  0  0  0  0  0  0  0  0  0
    2.2483    0.4150   -3.0131 H   0  0  0  0  0  0  0  0  0  0  0  0
    4.5142   -0.5352   -2.9092 H   0  0  0  0  0  0  0  0  0  0  0  0
    1.9434    0.1418    1.3137 H   0  0  0  0  0  0  0  0  0  0  0  0
    5.7743   -2.4599    1.1518 H   0  0  0  0  0  0  0  0  0  0  0  0
    6.4967   -0.8397    1.3153 H   0  0  0  0  0  0  0  0  0  0  0  0
   -1.6619    2.6646    1.3502 H   0  0  0  0  0  0  0  0  0  0  0  0
   -2.2297    2.1393    3.7015 H   0  0  0  0  0  0  0  0  0  0  0  0
   -3.3593    0.0219    4.2827 H   0  0  0  0  0  0  0  0  0  0  0  0
   -3.9585   -1.6081    2.5200 H   0  0  0  0  0  0  0  0  0  0  0  0
  1  2  2  0
  2  3  1  0
  3  4  2  0
  4  5  1  0
  5  6  1  0
  6  7  1  0
  7  8  2  0
  7  9  1  0
  9 10  1  0
 10 11  2  0
 11 12  1  0
 12 13  2  0
 13 14  1  0
 14 15  2  0
 14 16  1  0
 16 17  1  0
 17 18  1  0
  5 19  1  0
 19 20  2  0
 20 21  1  0
 21 22  2  0
 22 23  1  0
 23 24  2  0
 24  3  1  0
 15 10  1  0
 24 19  1  0
 18 13  1  0
  2 25  1  0
  4 26  1  0
  6 27  1  0
  6 28  1  0
  9 29  1  0
 11 30  1  0
 12 31  1  0
 15 32  1  0
 17 33  1  0
 17 34  1  0
 20 35  1  0
 21 36  1  0
 22 37  1  0
 23 38  1  0
M  END
$$$$
