
     RDKit          3D

 36 37  0  0  0  0  0  0  0  0999 V2000
   -3.0803    0.1529    1.9827 C   0  0  0  0  0  0  0  0  0  0  0  0
   -3.0602   -0.2514    0.5095 C   0  0  0  0  0  0  0  0  0  0  0  0
   -1.7069   -0.4169   -0.0564 N   0  0  0  0  0  0  0  0  0  0  0  0
   -1.7657   -0.6895   -1.5161 C   0  0  0  0  0  0  0  0  0  0  0  0
   -2.4739    0.3830   -2.3680 C   0  0  0  0  0  0  0  0  0  0  0  0
   -3.8837    0.1704   -2.4269 O   0  0  0  0  0  0  0  0  0  0  0  0
   -0.9562   -1.4796    0.6432 C   0  0  0  0  0  0  0  0  0  0  0  0
    0.4963   -1.4956    0.2338 C   0  0  0  0  0  0  0  0  0  0  0  0
    1.1035   -2.5664   -0.3951 C   0  0  0  0  0  0  0  0  0  0  0  0
    2.7527   -2.3017   -0.7175 S   0  0  0  0  0  0  0  0  0  0  0  0
    2.7177   -0.7382   -0.0017 C   0  0  0  0  0  0  0  0  0  0  0  0
    3.8005    0.1576    0.1214 C   0  0  0  0  0  0  0  0  0  0  0  0
    3.6039    1.3985    0.7428 C   0  0  0  0  0  0  0  0  0  0  0  0
    4.7390    2.3743    0.8500 C   0  0  0  0  0  0  0  0  0  0  0  0
    2.3358    1.7403    1.2045 C   0  0  0  0  0  0  0  0  0  0  0  0
    1.2658    0.8475    1.0795 C   0  0  0  0  0  0  0  0  0  0  0  0
    1.4421   -0.4210    0.4714 C   0  0  0  0  0  0  0  0  0  0  0  0
   -4.0943    0.4511    2.2708 H   0  0  0  0  0  0  0  0  0  0  0  0
   -2.7895   -0.6714    2.6401 H   0  0  0  0  0  0  0  0  0  0  0  0
   -2.4171    1.0040    2.1690 H   0  0  0  0  0  0  0  0  0  0  0  0
   -3.6554   -1.1628    0.3732 H   0  0  0  0  0  0  0  0  0  0  0  0
   -3.5770    0.5587   -0.0143 H   0  0  0  0  0  0  0  0  0  0  0  0
   -0.7413   -0.7350   -1.9017 H   0  0  0  0  0  0  0  0  0  0  0  0
   -2.2341   -1.6658   -1.6951 H   0  0  0  0  0  0  0  0  0  0  0  0
   -2.0980    0.3462   -3.3962 H   0  0  0  0  0  0  0  0  0  0  0  0
   -2.2832    1.3906   -1.9844 H   0  0  0  0  0  0  0  0  0  0  0  0
   -4.0290   -0.7007   -2.8327 H   0  0  0  0  0  0  0  0  0  0  0  0
   -1.4188   -2.4603    0.4713 H   0  0  0  0  0  0  0  0  0  0  0  0
   -0.9559   -1.3157    1.7265 H   0  0  0  0  0  0  0  0  0  0  0  0
    0.6475   -3.5027   -0.6864 H   0  0  0  0  0  0  0  0  0  0  0  0
    4.7785   -0.1191   -0.2638 H   0  0  0  0  0  0  0  0  0  0  0  0
    4.7730    3.0079   -0.0416 H   0  0  0  0  0  0  0  0  0  0  0  0
    5.6958    1.8510    0.9496 H   0  0  0  0  0  0  0  0  0  0  0  0
    4.6248    3.0115    1.7333 H   0  0  0  0  0  0  0  0  0  0  0  0
    2.1603    2.7091    1.6673 H   0  0  0  0  0  0  0  0  0  0  0  0
    0.2831    1.1391    1.4432 H   0  0  0  0  0  0  0  0  0  0  0  0
  1  2  1  0
  2  3  1  0
  3  4  1  0
  4  5  1  0
  5  6  1  0
  3  7  1  0
  7  8  1  0
  8  9  2  0
  9 10  1  0
 10 11  1  0
 11 12  2  0
 12 13  1  0
 13 14  1  0
 13 15  2  0
 15 16  1  0
 16 17  2  0
 17  8  1  0
 17 11  1  0
  1 18  1  0
  1 19  1  0
  1 20  1  0
  2 21  1  0
  2 22  1  0
  4 23  1  0
  4 24  1  0
  5 25  1  0
  5 26  1  0
  6 27  1  0
  7 28  1  0
  7 29  1  0
  9 30  1  0
 12 31  1  0
 14 32  1  0
 14 33  1  0
 14 34  1  0
 15 35  1  0
 16 36  1  0
M  END
$$$$
