
     RDKit          3D

 69 74  0  0  0  0  0  0  0  0999 V2000
    7.5552   -1.1237   -0.4870 C   0  0  0  0  0  0  0  0  0  0  0  0
    6.6153   -1.9836    0.1401 O   0  0  0  0  0  0  0  0  0  0  0  0
    5.2932   -1.6146    0.0766 C   0  0  0  0  0  0  0  0  0  0  0  0
    4.7770   -0.7188   -0.8662 C   0  0  0  0  0  0  0  0  0  0  0  0
    3.4097   -0.4092   -0.8843 C   0  0  0  0  0  0  0  0  0  0  0  0
    2.5513   -0.9761    0.0736 C   0  0  0  0  0  0  0  0  0  0  0  0
    3.0707   -1.8923    1.0042 C   0  0  0  0  0  0  0  0  0  0  0  0
    4.4299   -2.2238    1.0053 C   0  0  0  0  0  0  0  0  0  0  0  0
    5.0097   -3.1059    1.8841 O   0  0  0  0  0  0  0  0  0  0  0  0
    4.1420   -3.9181    2.6603 C   0  0  0  0  0  0  0  0  0  0  0  0
    1.0613   -0.6778    0.0804 C   0  0  0  0  0  0  0  0  0  0  0  0
    0.7451    0.5154   -0.7228 N   0  0  0  0  0  0  0  0  0  0  0  0
   -0.6555    0.6434   -0.8138 C   0  0  0  0  0  0  0  0  0  0  0  0
   -1.3514   -0.1838   -1.6268 N   0  0  0  0  0  0  0  0  0  0  0  0
   -2.6950   -0.0833   -1.6970 C   0  0  0  0  0  0  0  0  0  0  0  0
   -3.4215   -1.1193   -2.5499 C   0  0  0  0  0  0  0  0  0  0  0  0
   -3.7760   -2.3681   -1.8308 N   0  0  0  0  0  0  0  0  0  0  0  0
   -4.2745   -3.4084   -2.7528 C   0  0  0  0  0  0  0  0  0  0  0  0
   -5.8059   -3.5195   -2.7843 C   0  0  0  0  0  0  0  0  0  0  0  0
   -6.3749   -3.8261   -1.5039 O   0  0  0  0  0  0  0  0  0  0  0  0
   -5.5774   -3.3577   -0.4053 C   0  0  0  0  0  0  0  0  0  0  0  0
   -4.7633   -2.1031   -0.7575 C   0  0  0  0  0  0  0  0  0  0  0  0
   -3.4527    0.8105   -1.0444 N   0  0  0  0  0  0  0  0  0  0  0  0
   -2.7372    1.6194   -0.2482 C   0  0  0  0  0  0  0  0  0  0  0  0
   -3.5215    2.8113    0.6839 S   0  0  0  0  0  0  0  0  0  0  0  0
   -2.0528    3.3226    1.3686 C   0  0  0  0  0  0  0  0  0  0  0  0
   -0.9656    2.6152    0.8890 C   0  0  0  0  0  0  0  0  0  0  0  0
   -1.3633    1.6053   -0.0647 C   0  0  0  0  0  0  0  0  0  0  0  0
    0.4284    2.8885    1.3755 C   0  0  0  0  0  0  0  0  0  0  0  0
    0.5334    4.2346    2.1080 C   0  0  0  0  0  0  0  0  0  0  0  0
   -0.6345    4.4499    3.0940 C   0  0  0  0  0  0  0  0  0  0  0  0
   -0.4549    5.7490    3.8771 C   0  0  0  0  0  0  0  0  0  0  0  0
   -1.9936    4.4416    2.3625 C   0  0  0  0  0  0  0  0  0  0  0  0
    1.3553    0.4546   -2.0582 C   0  0  0  0  0  0  0  0  0  0  0  0
    2.8741    0.5727   -1.8995 C   0  0  0  0  0  0  0  0  0  0  0  0
    7.4941   -1.2081   -1.5757 H   0  0  0  0  0  0  0  0  0  0  0  0
    7.4280   -0.0856   -0.1637 H   0  0  0  0  0  0  0  0  0  0  0  0
    8.5565   -1.4450   -0.1843 H   0  0  0  0  0  0  0  0  0  0  0  0
    5.4184   -0.2600   -1.6107 H   0  0  0  0  0  0  0  0  0  0  0  0
    2.3894   -2.3325    1.7253 H   0  0  0  0  0  0  0  0  0  0  0  0
    3.5993   -3.3191    3.3978 H   0  0  0  0  0  0  0  0  0  0  0  0
    4.7596   -4.6363    3.2075 H   0  0  0  0  0  0  0  0  0  0  0  0
    3.4532   -4.4862    2.0267 H   0  0  0  0  0  0  0  0  0  0  0  0
    0.5450   -1.5697   -0.2997 H   0  0  0  0  0  0  0  0  0  0  0  0
    0.7453   -0.5056    1.1172 H   0  0  0  0  0  0  0  0  0  0  0  0
   -4.3115   -0.6577   -2.9980 H   0  0  0  0  0  0  0  0  0  0  0  0
   -2.7457   -1.3639   -3.3806 H   0  0  0  0  0  0  0  0  0  0  0  0
   -3.8717   -4.3655   -2.3968 H   0  0  0  0  0  0  0  0  0  0  0  0
   -3.8834   -3.2742   -3.7682 H   0  0  0  0  0  0  0  0  0  0  0  0
   -6.2566   -2.5869   -3.1444 H   0  0  0  0  0  0  0  0  0  0  0  0
   -6.1090   -4.3147   -3.4732 H   0  0  0  0  0  0  0  0  0  0  0  0
   -6.2589   -3.1432    0.4243 H   0  0  0  0  0  0  0  0  0  0  0  0
   -4.9218   -4.1754   -0.0818 H   0  0  0  0  0  0  0  0  0  0  0  0
   -5.4715   -1.3236   -1.0692 H   0  0  0  0  0  0  0  0  0  0  0  0
   -4.2391   -1.7509    0.1377 H   0  0  0  0  0  0  0  0  0  0  0  0
    1.1388    2.8874    0.5426 H   0  0  0  0  0  0  0  0  0  0  0  0
    0.7201    2.0828    2.0608 H   0  0  0  0  0  0  0  0  0  0  0  0
    0.5524    5.0520    1.3744 H   0  0  0  0  0  0  0  0  0  0  0  0
    1.4906    4.2721    2.6422 H   0  0  0  0  0  0  0  0  0  0  0  0
   -0.6246    3.6197    3.8146 H   0  0  0  0  0  0  0  0  0  0  0  0
    0.4884    5.7420    4.4312 H   0  0  0  0  0  0  0  0  0  0  0  0
   -1.2694    5.8858    4.5974 H   0  0  0  0  0  0  0  0  0  0  0  0
   -0.4439    6.6168    3.2092 H   0  0  0  0  0  0  0  0  0  0  0  0
   -2.1467    5.3899    1.8361 H   0  0  0  0  0  0  0  0  0  0  0  0
   -2.7978    4.3412    3.0994 H   0  0  0  0  0  0  0  0  0  0  0  0
    1.1058   -0.4846   -2.5705 H   0  0  0  0  0  0  0  0  0  0  0  0
    1.0064    1.2849   -2.6855 H   0  0  0  0  0  0  0  0  0  0  0  0
    3.3484    0.4079   -2.8739 H   0  0  0  0  0  0  0  0  0  0  0  0
    3.1317    1.5854   -1.5628 H   0  0  0  0  0  0  0  0  0  0  0  0
  1  2  1  0
  2  3  1  0
  3  4  2  0
  4  5  1  0
  5  6  2  0
  6  7  1  0
  7  8  2  0
  8  9  1  0
  9 10  1  0
  6 11  1  0
 11 12  1  0
 12 13  1  0
 13 14  2  0
 14 15  1  0
 15 16  1  0
 16 17  1  0
 17 18  1  0
 18 19  1  0
 19 20  1  0
 20 21  1  0
 21 22  1  0
 15 23  2  0
 23 24  1  0
 24 25  1  0
 25 26  1  0
 26 27  2  0
 27 28  1  0
 27 29  1  0
 29 30  1  0
 30 31  1  0
 31 32  1  0
 31 33  1  0
 12 34  1  0
 34 35  1  0
  8  3  1  0
 28 13  1  0
 35  5  1  0
 22 17  1  0
 28 24  2  0
 33 26  1  0
  1 36  1  0
  1 37  1  0
  1 38  1  0
  4 39  1  0
  7 40  1  0
 10 41  1  0
 10 42  1  0
 10 43  1  0
 11 44  1  0
 11 45  1  0
 16 46  1  0
 16 47  1  0
 18 48  1  0
 18 49  1  0
 19 50  1  0
 19 51  1  0
 21 52  1  0
 21 53  1  0
 22 54  1  0
 22 55  1  0
 29 56  1  0
 29 57  1  0
 30 58  1  0
 30 59  1  0
 31 60  1  0
 32 61  1  0
 32 62  1  0
 32 63  1  0
 33 64  1  0
 33 65  1  0
 34 66  1  0
 34 67  1  0
 35 68  1  0
 35 69  1  0
M  END
$$$$
