
     RDKit          3D

 35 37  0  0  0  0  0  0  0  0999 V2000
   -2.7012    0.0998    1.8370 C   0  0  0  0  0  0  0  0  0  0  0  0
   -3.7039   -0.0586    0.7278 C   0  0  0  0  0  0  0  0  0  0  0  0
   -5.0742   -0.0709    1.0296 C   0  0  0  0  0  0  0  0  0  0  0  0
   -6.0210   -0.2165    0.0175 C   0  0  0  0  0  0  0  0  0  0  0  0
   -5.6072   -0.3510   -1.3039 C   0  0  0  0  0  0  0  0  0  0  0  0
   -4.2460   -0.3404   -1.6185 C   0  0  0  0  0  0  0  0  0  0  0  0
   -3.2882   -0.1948   -0.6099 C   0  0  0  0  0  0  0  0  0  0  0  0
   -1.9331   -0.1720   -0.8135 O   0  0  0  0  0  0  0  0  0  0  0  0
   -1.4699   -0.3069   -2.1564 C   0  0  0  0  0  0  0  0  0  0  0  0
    0.0589   -0.2609   -2.2082 C   0  0  0  0  0  0  0  0  0  0  0  0
    0.6503   -0.3609   -3.2784 O   0  0  0  0  0  0  0  0  0  0  0  0
    0.6277   -0.1022   -0.9657 N   0  0  0  0  0  0  0  0  0  0  0  0
    1.9761   -0.0346   -0.7718 C   0  0  0  0  0  0  0  0  0  0  0  0
    2.9617   -0.0974   -1.6302 N   0  0  0  0  0  0  0  0  0  0  0  0
    4.1913    0.0148   -1.0026 N   0  0  0  0  0  0  0  0  0  0  0  0
    4.0757    0.1573    0.3030 C   0  0  0  0  0  0  0  0  0  0  0  0
    5.2104    0.2937    1.1749 C   0  0  0  0  0  0  0  0  0  0  0  0
    5.2636    0.4503    2.5546 C   0  0  0  0  0  0  0  0  0  0  0  0
    6.6289    0.5381    2.9233 C   0  0  0  0  0  0  0  0  0  0  0  0
    7.3413    0.4315    1.7562 C   0  0  0  0  0  0  0  0  0  0  0  0
    6.5026    0.2848    0.7024 O   0  0  0  0  0  0  0  0  0  0  0  0
    2.4456    0.1640    0.8562 S   0  0  0  0  0  0  0  0  0  0  0  0
   -2.1012    1.0019    1.6793 H   0  0  0  0  0  0  0  0  0  0  0  0
   -3.1903    0.1929    2.8124 H   0  0  0  0  0  0  0  0  0  0  0  0
   -2.0413   -0.7728    1.8786 H   0  0  0  0  0  0  0  0  0  0  0  0
   -5.4131    0.0332    2.0580 H   0  0  0  0  0  0  0  0  0  0  0  0
   -7.0805   -0.2250    0.2604 H   0  0  0  0  0  0  0  0  0  0  0  0
   -6.3455   -0.4647   -2.0940 H   0  0  0  0  0  0  0  0  0  0  0  0
   -3.9728   -0.4486   -2.6631 H   0  0  0  0  0  0  0  0  0  0  0  0
   -1.8379    0.5237   -2.7693 H   0  0  0  0  0  0  0  0  0  0  0  0
   -1.7770   -1.2753   -2.5675 H   0  0  0  0  0  0  0  0  0  0  0  0
    0.0179   -0.0326   -0.1614 H   0  0  0  0  0  0  0  0  0  0  0  0
    4.4161    0.4965    3.2246 H   0  0  0  0  0  0  0  0  0  0  0  0
    7.0410    0.6633    3.9148 H   0  0  0  0  0  0  0  0  0  0  0  0
    8.3955    0.4404    1.5153 H   0  0  0  0  0  0  0  0  0  0  0  0
  1  2  1  0
  2  3  2  0
  3  4  1  0
  4  5  2  0
  5  6  1  0
  6  7  2  0
  7  8  1  0
  8  9  1  0
  9 10  1  0
 10 11  2  0
 10 12  1  0
 12 13  1  0
 13 14  2  0
 14 15  1  0
 15 16  2  0
 16 17  1  0
 17 18  2  0
 18 19  1  0
 19 20  2  0
 20 21  1  0
 16 22  1  0
  7  2  1  0
 22 13  1  0
 21 17  1  0
  1 23  1  0
  1 24  1  0
  1 25  1  0
  3 26  1  0
  4 27  1  0
  5 28  1  0
  6 29  1  0
  9 30  1  0
  9 31  1  0
 12 32  1  0
 18 33  1  0
 19 34  1  0
 20 35  1  0
M  END
$$$$
