
     RDKit          3D

 58 60  0  0  0  0  0  0  0  0999 V2000
   -1.1261    3.4202   -2.1768 C   0  0  0  0  0  0  0  0  0  0  0  0
   -1.7557    2.0699   -1.9566 C   0  0  0  0  0  0  0  0  0  0  0  0
   -2.8570    1.7098   -2.7555 C   0  0  0  0  0  0  0  0  0  0  0  0
   -3.4954    0.4830   -2.5825 C   0  0  0  0  0  0  0  0  0  0  0  0
   -3.0205   -0.4025   -1.6172 C   0  0  0  0  0  0  0  0  0  0  0  0
   -3.8156   -1.9782   -1.3858 S   0  0  0  0  0  6  0  0  0  0  0  0
   -4.8150   -2.1115   -2.4264 O   0  0  0  0  0  0  0  0  0  0  0  0
   -2.7782   -2.9724   -1.2163 O   0  0  0  0  0  0  0  0  0  0  0  0
   -4.6424   -1.8018    0.0807 N   0  0  0  0  0  0  0  0  0  0  0  0
   -5.7914   -0.8574    0.1035 C   0  0  0  0  0  0  0  0  0  0  0  0
   -6.3363   -0.7364    1.5305 C   0  0  0  0  0  0  0  0  0  0  0  0
   -5.3796   -0.2010    2.4567 O   0  0  0  0  0  0  0  0  0  0  0  0
   -4.0182   -0.5205    2.1244 C   0  0  0  0  0  0  0  0  0  0  0  0
   -3.8699   -1.8381    1.3555 C   0  0  0  0  0  0  0  0  0  0  0  0
   -1.9044   -0.0767   -0.8428 C   0  0  0  0  0  0  0  0  0  0  0  0
   -1.2941    1.1747   -0.9667 C   0  0  0  0  0  0  0  0  0  0  0  0
   -0.2263    1.5630   -0.1264 N   0  0  0  0  0  0  0  0  0  0  0  0
    0.1717    0.9596    1.0564 C   0  0  0  0  0  0  0  0  0  0  0  0
   -0.3947    0.0207    1.6138 O   0  0  0  0  0  0  0  0  0  0  0  0
    1.3868    1.6357    1.7061 C   0  0  0  0  0  0  0  0  0  0  0  0
    2.6021    1.5484    0.9624 O   0  0  0  0  0  0  0  0  0  0  0  0
    2.7514    2.4595   -0.0381 C   0  0  0  0  0  0  0  0  0  0  0  0
    1.9120    3.3133   -0.3110 O   0  0  0  0  0  0  0  0  0  0  0  0
    4.1030    2.3391   -0.7400 C   0  0  0  0  0  0  0  0  0  0  0  0
    4.8735    1.1653   -0.3549 N   0  0  0  0  0  0  0  0  0  0  0  0
    4.6421   -0.0377   -0.9938 C   0  0  0  0  0  0  0  0  0  0  0  0
    3.8842   -0.1433   -1.9512 O   0  0  0  0  0  0  0  0  0  0  0  0
    5.3241   -1.2341   -0.4268 C   0  0  0  0  0  0  0  0  0  0  0  0
    4.7371   -2.4902   -0.6253 C   0  0  0  0  0  0  0  0  0  0  0  0
    5.3425   -3.6373   -0.1102 C   0  0  0  0  0  0  0  0  0  0  0  0
    6.5398   -3.5355    0.5973 C   0  0  0  0  0  0  0  0  0  0  0  0
    7.1383   -2.2897    0.7847 C   0  0  0  0  0  0  0  0  0  0  0  0
    6.5356   -1.1379    0.2710 C   0  0  0  0  0  0  0  0  0  0  0  0
   -0.0627    3.3114   -2.4080 H   0  0  0  0  0  0  0  0  0  0  0  0
   -1.2501    4.0437   -1.2869 H   0  0  0  0  0  0  0  0  0  0  0  0
   -1.5863    3.9486   -3.0184 H   0  0  0  0  0  0  0  0  0  0  0  0
   -3.2293    2.3910   -3.5190 H   0  0  0  0  0  0  0  0  0  0  0  0
   -4.3482    0.2266   -3.2077 H   0  0  0  0  0  0  0  0  0  0  0  0
   -5.4684    0.1297   -0.2430 H   0  0  0  0  0  0  0  0  0  0  0  0
   -6.5816   -1.2306   -0.5551 H   0  0  0  0  0  0  0  0  0  0  0  0
   -6.6567   -1.7150    1.9072 H   0  0  0  0  0  0  0  0  0  0  0  0
   -7.2100   -0.0772    1.5465 H   0  0  0  0  0  0  0  0  0  0  0  0
   -3.6178    0.3182    1.5444 H   0  0  0  0  0  0  0  0  0  0  0  0
   -3.4553   -0.5655    3.0625 H   0  0  0  0  0  0  0  0  0  0  0  0
   -4.2783   -2.6633    1.9519 H   0  0  0  0  0  0  0  0  0  0  0  0
   -2.8134   -2.0606    1.1905 H   0  0  0  0  0  0  0  0  0  0  0  0
   -1.5145   -0.8204   -0.1562 H   0  0  0  0  0  0  0  0  0  0  0  0
    0.2451    2.4365   -0.3585 H   0  0  0  0  0  0  0  0  0  0  0  0
    1.5694    1.1337    2.6628 H   0  0  0  0  0  0  0  0  0  0  0  0
    1.1395    2.6764    1.9488 H   0  0  0  0  0  0  0  0  0  0  0  0
    4.7030    3.2140   -0.4718 H   0  0  0  0  0  0  0  0  0  0  0  0
    3.9289    2.3232   -1.8207 H   0  0  0  0  0  0  0  0  0  0  0  0
    5.2455    1.1392    0.5861 H   0  0  0  0  0  0  0  0  0  0  0  0
    3.8047   -2.5775   -1.1811 H   0  0  0  0  0  0  0  0  0  0  0  0
    4.8812   -4.6093   -0.2667 H   0  0  0  0  0  0  0  0  0  0  0  0
    7.0124   -4.4312    0.9929 H   0  0  0  0  0  0  0  0  0  0  0  0
    8.0816   -2.2180    1.3217 H   0  0  0  0  0  0  0  0  0  0  0  0
    7.0377   -0.1834    0.3985 H   0  0  0  0  0  0  0  0  0  0  0  0
  1  2  1  0
  2  3  2  0
  3  4  1  0
  4  5  2  0
  5  6  1  0
  6  7  2  0
  6  8  2  0
  6  9  1  0
  9 10  1  0
 10 11  1  0
 11 12  1  0
 12 13  1  0
 13 14  1  0
  5 15  1  0
 15 16  2  0
 16 17  1  0
 17 18  1  0
 18 19  2  0
 18 20  1  0
 20 21  1  0
 21 22  1  0
 22 23  2  0
 22 24  1  0
 24 25  1  0
 25 26  1  0
 26 27  2  0
 26 28  1  0
 28 29  2  0
 29 30  1  0
 30 31  2  0
 31 32  1  0
 32 33  2  0
 16  2  1  0
 33 28  1  0
 14  9  1  0
  1 34  1  0
  1 35  1  0
  1 36  1  0
  3 37  1  0
  4 38  1  0
 10 39  1  0
 10 40  1  0
 11 41  1  0
 11 42  1  0
 13 43  1  0
 13 44  1  0
 14 45  1  0
 14 46  1  0
 15 47  1  0
 17 48  1  0
 20 49  1  0
 20 50  1  0
 24 51  1  0
 24 52  1  0
 25 53  1  0
 29 54  1  0
 30 55  1  0
 31 56  1  0
 32 57  1  0
 33 58  1  0
M  END
$$$$
