
     RDKit          3D

 53 58  0  0  0  0  0  0  0  0999 V2000
    0.1382   -1.0190    1.3734 O   0  0  0  0  0  0  0  0  0  0  0  0
    1.0822   -0.4199    0.8533 C   0  0  0  0  0  0  0  0  0  0  0  0
    0.8692    0.3262   -0.4872 C   0  0  0  0  0  0  0  0  0  0  0  0
   -0.5418    0.2732   -0.9178 N   0  0  0  0  0  4  0  0  0  0  0  0
   -1.4359    1.3405   -0.9853 C   0  0  0  0  0  0  0  0  0  0  0  0
   -2.6857    0.8623   -1.3637 C   0  0  0  0  0  0  0  0  0  0  0  0
   -3.9825    1.7229   -1.5963 C   0  0  0  0  0  0  0  0  0  0  0  0
   -3.9438    3.1106   -1.3914 C   0  0  0  0  0  0  0  0  0  0  0  0
   -5.0894    3.8848   -1.6021 C   0  0  0  0  0  0  0  0  0  0  0  0
   -6.2648    3.2737   -2.0177 C   0  0  0  0  0  0  0  0  0  0  0  0
   -7.3584    4.0160   -2.2264 F   0  0  0  0  0  0  0  0  0  0  0  0
   -6.3161    1.9012   -2.2270 C   0  0  0  0  0  0  0  0  0  0  0  0
   -5.1737    1.1222   -2.0176 C   0  0  0  0  0  0  0  0  0  0  0  0
   -2.4821   -0.5014   -1.4756 N   0  0  0  0  0  0  0  0  0  0  0  0
   -1.2150   -0.8306   -1.2319 C   0  0  0  0  0  0  0  0  0  0  0  0
   -0.9486   -2.2800   -1.3878 C   0  0  0  0  0  0  0  0  0  0  0  0
   -2.3741   -2.8655   -1.4174 C   0  0  0  0  0  0  0  0  0  0  0  0
   -3.2956   -1.6701   -1.7824 C   0  0  0  0  0  0  0  0  0  0  0  0
    2.4253   -0.4707    1.2656 N   0  0  0  0  0  0  0  0  0  0  0  0
    3.0249   -1.6848    1.7690 C   0  0  0  0  0  0  0  0  0  0  0  0
    2.2469   -2.7001    2.3555 C   0  0  0  0  0  0  0  0  0  0  0  0
    2.8220   -3.8831    2.8389 C   0  0  0  0  0  0  0  0  0  0  0  0
    4.1900   -4.0888    2.7330 C   0  0  0  0  0  0  0  0  0  0  0  0
    4.9826   -3.1125    2.1395 C   0  0  0  0  0  0  0  0  0  0  0  0
    4.4114   -1.9206    1.6601 C   0  0  0  0  0  0  0  0  0  0  0  0
    5.5007   -0.7920    0.8213 S   0  0  0  0  0  0  0  0  0  0  0  0
    4.6212    0.7096    1.1352 C   0  0  0  0  0  0  0  0  0  0  0  0
    5.3545    1.9051    1.1782 C   0  0  0  0  0  0  0  0  0  0  0  0
    4.7213    3.1190    1.4306 C   0  0  0  0  0  0  0  0  0  0  0  0
    3.3486    3.1462    1.6445 C   0  0  0  0  0  0  0  0  0  0  0  0
    2.6112    1.9607    1.5892 C   0  0  0  0  0  0  0  0  0  0  0  0
    3.2283    0.7246    1.3048 C   0  0  0  0  0  0  0  0  0  0  0  0
    1.1554    1.3762   -0.4254 H   0  0  0  0  0  0  0  0  0  0  0  0
    1.4693   -0.1620   -1.2633 H   0  0  0  0  0  0  0  0  0  0  0  0
   -1.0617    2.3243   -0.7587 H   0  0  0  0  0  0  0  0  0  0  0  0
   -3.0412    3.6225   -1.0702 H   0  0  0  0  0  0  0  0  0  0  0  0
   -5.0742    4.9611   -1.4490 H   0  0  0  0  0  0  0  0  0  0  0  0
   -7.2473    1.4490   -2.5570 H   0  0  0  0  0  0  0  0  0  0  0  0
   -5.2513    0.0577   -2.2016 H   0  0  0  0  0  0  0  0  0  0  0  0
   -0.4266   -2.3986   -2.3392 H   0  0  0  0  0  0  0  0  0  0  0  0
   -0.3519   -2.6434   -0.5520 H   0  0  0  0  0  0  0  0  0  0  0  0
   -2.4775   -3.7070   -2.1070 H   0  0  0  0  0  0  0  0  0  0  0  0
   -2.6352   -3.2197   -0.4128 H   0  0  0  0  0  0  0  0  0  0  0  0
   -4.2046   -1.6801   -1.1758 H   0  0  0  0  0  0  0  0  0  0  0  0
   -3.5350   -1.6640   -2.8501 H   0  0  0  0  0  0  0  0  0  0  0  0
    1.1778   -2.5916    2.5115 H   0  0  0  0  0  0  0  0  0  0  0  0
    2.1958   -4.6369    3.3119 H   0  0  0  0  0  0  0  0  0  0  0  0
    4.6401   -5.0023    3.1125 H   0  0  0  0  0  0  0  0  0  0  0  0
    6.0535   -3.2893    2.0493 H   0  0  0  0  0  0  0  0  0  0  0  0
    6.4316    1.8956    1.0228 H   0  0  0  0  0  0  0  0  0  0  0  0
    5.3023    4.0379    1.4772 H   0  0  0  0  0  0  0  0  0  0  0  0
    2.8574    4.0896    1.8784 H   0  0  0  0  0  0  0  0  0  0  0  0
    1.5520    2.0212    1.8342 H   0  0  0  0  0  0  0  0  0  0  0  0
  1  2  2  0
  2  3  1  0
  3  4  1  0
  4  5  1  0
  5  6  2  0
  6  7  1  0
  7  8  2  0
  8  9  1  0
  9 10  2  0
 10 11  1  0
 10 12  1  0
 12 13  2  0
  6 14  1  0
 14 15  1  0
 15 16  1  0
 16 17  1  0
 17 18  1  0
  2 19  1  0
 19 20  1  0
 20 21  2  0
 21 22  1  0
 22 23  2  0
 23 24  1  0
 24 25  2  0
 25 26  1  0
 26 27  1  0
 27 28  2  0
 28 29  1  0
 29 30  2  0
 30 31  1  0
 31 32  2  0
 15  4  2  0
 32 19  1  0
 13  7  1  0
 18 14  1  0
 25 20  1  0
 32 27  1  0
  3 33  1  0
  3 34  1  0
  5 35  1  0
  8 36  1  0
  9 37  1  0
 12 38  1  0
 13 39  1  0
 16 40  1  0
 16 41  1  0
 17 42  1  0
 17 43  1  0
 18 44  1  0
 18 45  1  0
 21 46  1  0
 22 47  1  0
 23 48  1  0
 24 49  1  0
 28 50  1  0
 29 51  1  0
 30 52  1  0
 31 53  1  0
M  CHG  1   4   1
M  END
$$$$
