
     RDKit          3D

 68 70  0  0  0  0  0  0  0  0999 V2000
   -4.2992    2.6917    6.1048 C   0  0  0  0  0  0  0  0  0  0  0  0
   -3.4520    1.5543    6.0008 O   0  0  0  0  0  0  0  0  0  0  0  0
   -3.1577    1.1186    4.7384 C   0  0  0  0  0  0  0  0  0  0  0  0
   -3.6224    1.6716    3.5474 C   0  0  0  0  0  0  0  0  0  0  0  0
   -3.2393    1.1251    2.3149 C   0  0  0  0  0  0  0  0  0  0  0  0
   -2.3894    0.0116    2.2487 C   0  0  0  0  0  0  0  0  0  0  0  0
   -1.9022   -0.5973    0.9345 C   0  0  0  0  0  0  0  0  0  0  0  0
   -2.9317   -0.6737   -0.2363 C   0  0  0  0  0  0  0  0  0  0  0  0
   -4.0507   -0.1692   -0.2114 O   0  0  0  0  0  0  0  0  0  0  0  0
   -2.4873   -1.4364   -1.3115 N   0  0  0  0  0  0  0  0  0  0  0  0
   -3.2710   -1.7396   -2.5172 C   0  0  0  0  0  0  0  0  0  0  0  0
   -4.5164   -2.5687   -2.1689 C   0  0  0  0  0  0  0  0  0  0  0  0
   -2.3797   -2.5667   -3.4656 C   0  0  0  0  0  0  0  0  0  0  0  0
   -3.6787   -0.4506   -3.2524 C   0  0  0  0  0  0  0  0  0  0  0  0
   -0.5938   -0.0465    0.4784 N   0  0  0  0  0  0  0  0  0  0  0  0
    0.3376   -0.9413   -0.0530 C   0  0  0  0  0  0  0  0  0  0  0  0
    0.0907   -2.1441   -0.1779 O   0  0  0  0  0  0  0  0  0  0  0  0
    1.6831   -0.3702   -0.4750 C   0  0  0  0  0  0  0  0  0  0  0  0
    2.7570   -1.4540   -0.5079 C   0  0  0  0  0  0  0  0  0  0  0  0
    4.0996   -0.8952   -0.9353 C   0  0  0  0  0  0  0  0  0  0  0  0
    4.2162    0.2239   -1.4248 O   0  0  0  0  0  0  0  0  0  0  0  0
    5.1207   -1.7960   -0.7292 N   0  0  0  0  0  0  0  0  0  0  0  0
    6.4477   -1.5709   -1.0204 C   0  0  0  0  0  0  0  0  0  0  0  0
    7.0668   -0.4323   -1.5832 C   0  0  0  0  0  0  0  0  0  0  0  0
    8.3999   -0.7553   -1.6392 C   0  0  0  0  0  0  0  0  0  0  0  0
    9.6115   -0.0521   -2.0950 C   0  0  0  0  0  0  0  0  0  0  0  0
    8.5727   -2.0104   -1.1460 O   0  0  0  0  0  0  0  0  0  0  0  0
    7.3492   -2.5235   -0.7546 N   0  0  0  0  0  0  0  0  0  0  0  0
   -0.5594    1.3335    0.1283 C   0  0  0  0  0  0  0  0  0  0  0  0
   -0.6717    1.7306   -1.2117 C   0  0  0  0  0  0  0  0  0  0  0  0
   -0.6252    3.0848   -1.5528 C   0  0  0  0  0  0  0  0  0  0  0  0
   -0.4599    4.0447   -0.5565 C   0  0  0  0  0  0  0  0  0  0  0  0
   -0.3407    3.6430    0.7696 C   0  0  0  0  0  0  0  0  0  0  0  0
   -0.1735    4.5688    1.7234 F   0  0  0  0  0  0  0  0  0  0  0  0
   -0.3868    2.2987    1.1222 C   0  0  0  0  0  0  0  0  0  0  0  0
   -1.9203   -0.5291    3.4583 C   0  0  0  0  0  0  0  0  0  0  0  0
   -2.3062    0.0163    4.6854 C   0  0  0  0  0  0  0  0  0  0  0  0
   -3.8437    3.5676    5.6309 H   0  0  0  0  0  0  0  0  0  0  0  0
   -5.2900    2.4853    5.6873 H   0  0  0  0  0  0  0  0  0  0  0  0
   -4.4267    2.9177    7.1682 H   0  0  0  0  0  0  0  0  0  0  0  0
   -4.2841    2.5310    3.5356 H   0  0  0  0  0  0  0  0  0  0  0  0
   -3.6125    1.5943    1.4059 H   0  0  0  0  0  0  0  0  0  0  0  0
   -1.7421   -1.6595    1.1775 H   0  0  0  0  0  0  0  0  0  0  0  0
   -1.6647   -2.0137   -1.1358 H   0  0  0  0  0  0  0  0  0  0  0  0
   -5.2225   -2.0076   -1.5485 H   0  0  0  0  0  0  0  0  0  0  0  0
   -4.2446   -3.4738   -1.6150 H   0  0  0  0  0  0  0  0  0  0  0  0
   -5.0520   -2.8764   -3.0745 H   0  0  0  0  0  0  0  0  0  0  0  0
   -2.0798   -3.5117   -2.9975 H   0  0  0  0  0  0  0  0  0  0  0  0
   -1.4617   -2.0237   -3.7207 H   0  0  0  0  0  0  0  0  0  0  0  0
   -2.9006   -2.8058   -4.3998 H   0  0  0  0  0  0  0  0  0  0  0  0
   -4.3496    0.1741   -2.6537 H   0  0  0  0  0  0  0  0  0  0  0  0
   -4.1993   -0.6793   -4.1902 H   0  0  0  0  0  0  0  0  0  0  0  0
   -2.7991    0.1567   -3.4971 H   0  0  0  0  0  0  0  0  0  0  0  0
    1.9889    0.4169    0.2240 H   0  0  0  0  0  0  0  0  0  0  0  0
    1.5746    0.0711   -1.4718 H   0  0  0  0  0  0  0  0  0  0  0  0
    2.4837   -2.2462   -1.2151 H   0  0  0  0  0  0  0  0  0  0  0  0
    2.8566   -1.9074    0.4863 H   0  0  0  0  0  0  0  0  0  0  0  0
    4.9389   -2.7047   -0.3240 H   0  0  0  0  0  0  0  0  0  0  0  0
    6.6134    0.4956   -1.9004 H   0  0  0  0  0  0  0  0  0  0  0  0
    9.3538    0.8274   -2.6937 H   0  0  0  0  0  0  0  0  0  0  0  0
   10.2021    0.2819   -1.2363 H   0  0  0  0  0  0  0  0  0  0  0  0
   10.2362   -0.7101   -2.7096 H   0  0  0  0  0  0  0  0  0  0  0  0
   -0.8118    0.9939   -1.9994 H   0  0  0  0  0  0  0  0  0  0  0  0
   -0.7206    3.3893   -2.5926 H   0  0  0  0  0  0  0  0  0  0  0  0
   -0.4201    5.1020   -0.8019 H   0  0  0  0  0  0  0  0  0  0  0  0
   -0.2778    2.0253    2.1668 H   0  0  0  0  0  0  0  0  0  0  0  0
   -1.2458   -1.3832    3.4564 H   0  0  0  0  0  0  0  0  0  0  0  0
   -1.9370   -0.4213    5.6093 H   0  0  0  0  0  0  0  0  0  0  0  0
  1  2  1  0
  2  3  1  0
  3  4  2  0
  4  5  1  0
  5  6  2  0
  6  7  1  0
  7  8  1  0
  8  9  2  0
  8 10  1  0
 10 11  1  0
 11 12  1  0
 11 13  1  0
 11 14  1  0
  7 15  1  0
 15 16  1  0
 16 17  2  0
 16 18  1  0
 18 19  1  0
 19 20  1  0
 20 21  2  0
 20 22  1  0
 22 23  1  0
 23 24  1  0
 24 25  2  0
 25 26  1  0
 25 27  1  0
 27 28  1  0
 15 29  1  0
 29 30  2  0
 30 31  1  0
 31 32  2  0
 32 33  1  0
 33 34  1  0
 33 35  2  0
  6 36  1  0
 36 37  2  0
 37  3  1  0
 28 23  2  0
 35 29  1  0
  1 38  1  0
  1 39  1  0
  1 40  1  0
  4 41  1  0
  5 42  1  0
  7 43  1  0
 10 44  1  0
 12 45  1  0
 12 46  1  0
 12 47  1  0
 13 48  1  0
 13 49  1  0
 13 50  1  0
 14 51  1  0
 14 52  1  0
 14 53  1  0
 18 54  1  0
 18 55  1  0
 19 56  1  0
 19 57  1  0
 22 58  1  0
 24 59  1  0
 26 60  1  0
 26 61  1  0
 26 62  1  0
 30 63  1  0
 31 64  1  0
 32 65  1  0
 35 66  1  0
 36 67  1  0
 37 68  1  0
M  END
$$$$
