
     RDKit          3D

 33 34  0  0  0  0  0  0  0  0999 V2000
   -2.6354   -1.5527    0.6799 C   0  0  0  0  0  0  0  0  0  0  0  0
   -2.4410   -0.0488    0.8213 C   0  0  0  0  0  0  0  0  0  0  0  0
   -1.7455    0.5276   -0.3413 N   0  0  0  0  0  0  0  0  0  0  0  0
   -1.9190    1.9801   -0.5343 C   0  0  0  0  0  0  0  0  0  0  0  0
   -1.2236    2.8216    0.5272 C   0  0  0  0  0  0  0  0  0  0  0  0
   -0.4445    0.0671   -0.6704 C   0  0  0  0  0  0  0  0  0  0  0  0
   -0.1986   -0.0813   -2.0533 C   0  0  0  0  0  0  0  0  0  0  0  0
    1.0208   -0.5350   -2.5250 C   0  0  0  0  0  0  0  0  0  0  0  0
    2.0142   -0.8375   -1.5969 C   0  0  0  0  0  0  0  0  0  0  0  0
    3.2801   -1.2984   -2.1356 N   0  0  0  0  0  4  0  0  0  0  0  0
    3.2683   -2.3652   -2.7636 O   0  0  0  0  0  0  0  0  0  0  0  0
    4.2729   -0.5833   -1.9462 O   0  0  0  0  0  1  0  0  0  0  0  0
    1.8300   -0.7085   -0.1975 C   0  0  0  0  0  0  0  0  0  0  0  0
    2.8210   -1.0224    0.7679 C   0  0  0  0  0  0  0  0  0  0  0  0
    2.5779   -0.8573    2.1227 C   0  0  0  0  0  0  0  0  0  0  0  0
    1.3442   -0.3811    2.4887 C   0  0  0  0  0  0  0  0  0  0  0  0
    0.3717   -0.0803    1.6046 N   0  0  0  0  0  0  0  0  0  0  0  0
    0.5773   -0.2423    0.2746 C   0  0  0  0  0  0  0  0  0  0  0  0
   -1.6849   -2.0936    0.7080 H   0  0  0  0  0  0  0  0  0  0  0  0
   -3.1335   -1.7962   -0.2646 H   0  0  0  0  0  0  0  0  0  0  0  0
   -3.2562   -1.9300    1.4988 H   0  0  0  0  0  0  0  0  0  0  0  0
   -1.9630    0.2003    1.7723 H   0  0  0  0  0  0  0  0  0  0  0  0
   -3.4433    0.3960    0.8741 H   0  0  0  0  0  0  0  0  0  0  0  0
   -2.9918    2.2090   -0.5204 H   0  0  0  0  0  0  0  0  0  0  0  0
   -1.5673    2.2840   -1.5281 H   0  0  0  0  0  0  0  0  0  0  0  0
   -1.4318    3.8830    0.3570 H   0  0  0  0  0  0  0  0  0  0  0  0
   -0.1379    2.6891    0.4996 H   0  0  0  0  0  0  0  0  0  0  0  0
   -1.5715    2.5698    1.5336 H   0  0  0  0  0  0  0  0  0  0  0  0
   -0.9947    0.1438   -2.7613 H   0  0  0  0  0  0  0  0  0  0  0  0
    1.1836   -0.6517   -3.5935 H   0  0  0  0  0  0  0  0  0  0  0  0
    3.8013   -1.3946    0.4753 H   0  0  0  0  0  0  0  0  0  0  0  0
    3.3327   -1.0895    2.8651 H   0  0  0  0  0  0  0  0  0  0  0  0
    1.0873   -0.2217    3.5319 H   0  0  0  0  0  0  0  0  0  0  0  0
  1  2  1  0
  2  3  1  0
  3  4  1  0
  4  5  1  0
  3  6  1  0
  6  7  2  0
  7  8  1  0
  8  9  2  0
  9 10  1  0
 10 11  2  0
 10 12  1  0
  9 13  1  0
 13 14  2  0
 14 15  1  0
 15 16  2  0
 16 17  1  0
 17 18  2  0
 18  6  1  0
 18 13  1  0
  1 19  1  0
  1 20  1  0
  1 21  1  0
  2 22  1  0
  2 23  1  0
  4 24  1  0
  4 25  1  0
  5 26  1  0
  5 27  1  0
  5 28  1  0
  7 29  1  0
  8 30  1  0
 14 31  1  0
 15 32  1  0
 16 33  1  0
M  CHG  2  10   1  12  -1
M  END
$$$$
