
     RDKit          3D

 60 65  0  0  0  0  0  0  0  0999 V2000
   -1.1926   -0.2664   -3.1492 O   0  0  0  0  0  0  0  0  0  0  0  0
   -1.6986   -0.5278   -2.0643 C   0  0  0  0  0  0  0  0  0  0  0  0
   -1.0019   -1.1722   -1.0454 N   0  0  0  0  0  0  0  0  0  0  0  0
   -1.5400   -1.4852    0.1970 C   0  0  0  0  0  0  0  0  0  0  0  0
   -0.6266   -2.1481    1.2284 C   0  0  0  0  0  0  0  0  0  0  0  0
    0.3654   -1.1381    1.8209 C   0  0  0  0  0  0  0  0  0  0  0  0
    1.6375   -0.9706    0.9979 C   0  0  0  0  0  0  0  0  0  0  0  0
    2.2283   -2.2692    0.5700 N   0  0  0  0  0  0  0  0  0  0  0  0
    2.7083   -2.3653   -1.0691 S   0  0  0  0  0  6  0  0  0  0  0  0
    3.3757   -3.6289   -1.2832 O   0  0  0  0  0  0  0  0  0  0  0  0
    1.5324   -1.9892   -1.8302 O   0  0  0  0  0  0  0  0  0  0  0  0
    3.9216   -1.0836   -1.2038 C   0  0  0  0  0  0  0  0  0  0  0  0
    5.0890   -1.1740   -0.4372 C   0  0  0  0  0  0  0  0  0  0  0  0
    6.0525   -0.1696   -0.5308 C   0  0  0  0  0  0  0  0  0  0  0  0
    5.8460    0.9124   -1.3859 C   0  0  0  0  0  0  0  0  0  0  0  0
    4.6879    0.9793   -2.1710 C   0  0  0  0  0  0  0  0  0  0  0  0
    3.7140   -0.0120   -2.0739 C   0  0  0  0  0  0  0  0  0  0  0  0
    4.4397    1.9976   -3.0560 O   0  0  0  0  0  0  0  0  0  0  0  0
    5.6328    2.7360   -3.3477 C   0  0  0  0  0  0  0  0  0  0  0  0
    6.3802    3.0647   -2.0655 C   0  0  0  0  0  0  0  0  0  0  0  0
    6.8280    1.8685   -1.4132 O   0  0  0  0  0  0  0  0  0  0  0  0
    1.5247   -3.4731    1.0777 C   0  0  0  0  0  0  0  0  0  0  0  0
    0.0462   -3.4263    0.7183 C   0  0  0  0  0  0  0  0  0  0  0  0
   -2.7659   -1.2024    0.5514 N   0  0  0  0  0  0  0  0  0  0  0  0
   -3.4700   -0.5786   -0.4244 C   0  0  0  0  0  0  0  0  0  0  0  0
   -3.0486   -0.2179   -1.6805 C   0  0  0  0  0  0  0  0  0  0  0  0
   -4.0540    0.3879   -2.3681 N   0  0  0  0  0  0  0  0  0  0  0  0
   -5.1204    0.4155   -1.5684 N   0  0  0  0  0  0  0  0  0  0  0  0
   -4.7704   -0.1593   -0.3914 N   0  0  0  0  0  0  0  0  0  0  0  0
   -5.7411   -0.3433    0.6678 C   0  0  0  0  0  0  0  0  0  0  0  0
   -5.7871    0.8400    1.5953 C   0  0  0  0  0  0  0  0  0  0  0  0
   -4.7991    1.0374    2.5726 C   0  0  0  0  0  0  0  0  0  0  0  0
   -4.8549    2.1457    3.4220 C   0  0  0  0  0  0  0  0  0  0  0  0
   -5.8950    3.0679    3.3042 C   0  0  0  0  0  0  0  0  0  0  0  0
   -6.8801    2.8822    2.3361 C   0  0  0  0  0  0  0  0  0  0  0  0
   -6.8187    1.7763    1.4927 C   0  0  0  0  0  0  0  0  0  0  0  0
   -7.7848    1.6089    0.5789 F   0  0  0  0  0  0  0  0  0  0  0  0
   -0.0673   -1.4678   -1.3240 H   0  0  0  0  0  0  0  0  0  0  0  0
   -1.2887   -2.4456    2.0552 H   0  0  0  0  0  0  0  0  0  0  0  0
    0.6454   -1.4775    2.8270 H   0  0  0  0  0  0  0  0  0  0  0  0
   -0.1108   -0.1591    1.9563 H   0  0  0  0  0  0  0  0  0  0  0  0
    2.3884   -0.4406    1.5949 H   0  0  0  0  0  0  0  0  0  0  0  0
    1.4201   -0.3302    0.1378 H   0  0  0  0  0  0  0  0  0  0  0  0
    5.2491   -2.0201    0.2269 H   0  0  0  0  0  0  0  0  0  0  0  0
    6.9613   -0.2256    0.0630 H   0  0  0  0  0  0  0  0  0  0  0  0
    2.8193    0.0532   -2.6879 H   0  0  0  0  0  0  0  0  0  0  0  0
    5.3357    3.6581   -3.8605 H   0  0  0  0  0  0  0  0  0  0  0  0
    6.2516    2.1447   -4.0368 H   0  0  0  0  0  0  0  0  0  0  0  0
    5.7476    3.6255   -1.3645 H   0  0  0  0  0  0  0  0  0  0  0  0
    7.2641    3.6704   -2.2895 H   0  0  0  0  0  0  0  0  0  0  0  0
    1.6600   -3.5261    2.1653 H   0  0  0  0  0  0  0  0  0  0  0  0
    1.9799   -4.3882    0.6846 H   0  0  0  0  0  0  0  0  0  0  0  0
   -0.4493   -4.2956    1.1706 H   0  0  0  0  0  0  0  0  0  0  0  0
   -0.0833   -3.5518   -0.3618 H   0  0  0  0  0  0  0  0  0  0  0  0
   -5.4752   -1.2499    1.2229 H   0  0  0  0  0  0  0  0  0  0  0  0
   -6.7132   -0.5350    0.1995 H   0  0  0  0  0  0  0  0  0  0  0  0
   -3.9779    0.3301    2.6767 H   0  0  0  0  0  0  0  0  0  0  0  0
   -4.0841    2.2909    4.1757 H   0  0  0  0  0  0  0  0  0  0  0  0
   -5.9367    3.9297    3.9655 H   0  0  0  0  0  0  0  0  0  0  0  0
   -7.6961    3.5905    2.2313 H   0  0  0  0  0  0  0  0  0  0  0  0
  1  2  2  0
  2  3  1  0
  3  4  1  0
  4  5  1  0
  5  6  1  0
  6  7  1  0
  7  8  1  0
  8  9  1  0
  9 10  2  0
  9 11  2  0
  9 12  1  0
 12 13  2  0
 13 14  1  0
 14 15  2  0
 15 16  1  0
 16 17  2  0
 16 18  1  0
 18 19  1  0
 19 20  1  0
 20 21  1  0
  8 22  1  0
 22 23  1  0
  4 24  2  0
 24 25  1  0
 25 26  2  0
 26 27  1  0
 27 28  2  0
 28 29  1  0
 29 30  1  0
 30 31  1  0
 31 32  2  0
 32 33  1  0
 33 34  2  0
 34 35  1  0
 35 36  2  0
 36 37  1  0
 26  2  1  0
 36 31  1  0
 23  5  1  0
 29 25  1  0
 17 12  1  0
 21 15  1  0
  3 38  1  0
  5 39  1  0
  6 40  1  0
  6 41  1  0
  7 42  1  0
  7 43  1  0
 13 44  1  0
 14 45  1  0
 17 46  1  0
 19 47  1  0
 19 48  1  0
 20 49  1  0
 20 50  1  0
 22 51  1  0
 22 52  1  0
 23 53  1  0
 23 54  1  0
 30 55  1  0
 30 56  1  0
 32 57  1  0
 33 58  1  0
 34 59  1  0
 35 60  1  0
M  END
$$$$
