
     RDKit          3D

 57 61  0  0  0  0  0  0  0  0999 V2000
    0.9349    3.2753   -1.0483 O   0  0  0  0  0  0  0  0  0  0  0  0
    0.5407    1.9355   -0.6901 C   0  0  0  0  0  0  0  0  0  0  0  0
    0.8475    1.7224    0.8009 C   0  0  0  0  0  0  0  0  0  0  0  0
    2.2168    2.1361    1.1218 N   0  0  0  0  0  0  0  0  0  0  0  0
    3.3080    1.3337    0.8601 C   0  0  0  0  0  0  0  0  0  0  0  0
    3.1916    0.3237    0.0425 N   0  0  0  0  0  0  0  0  0  0  0  0
    4.3001   -0.5026   -0.2322 C   0  0  0  0  0  0  0  0  0  0  0  0
    4.1309   -1.5662   -1.1208 C   0  0  0  0  0  0  0  0  0  0  0  0
    5.1977   -2.4148   -1.4284 C   0  0  0  0  0  0  0  0  0  0  0  0
    6.4489   -2.2068   -0.8462 C   0  0  0  0  0  0  0  0  0  0  0  0
    6.6412   -1.1504    0.0455 C   0  0  0  0  0  0  0  0  0  0  0  0
    5.5654   -0.3090    0.3423 C   0  0  0  0  0  0  0  0  0  0  0  0
    5.6728    0.7825    1.2197 N   0  0  0  0  0  0  0  0  0  0  0  0
    6.7592    1.2361    1.9292 C   0  0  0  0  0  0  0  0  0  0  0  0
    6.3757    2.3567    2.6341 C   0  0  0  0  0  0  0  0  0  0  0  0
    5.0089    2.5874    2.3481 C   0  0  0  0  0  0  0  0  0  0  0  0
    4.5924    1.5958    1.4785 C   0  0  0  0  0  0  0  0  0  0  0  0
   -0.9490    1.7642   -1.0566 C   0  0  0  0  0  0  0  0  0  0  0  0
   -1.4901    0.4237   -0.7828 N   0  0  0  0  0  0  0  0  0  0  0  0
   -2.1648    0.3179    0.5307 C   0  0  0  0  0  0  0  0  0  0  0  0
   -3.7118    0.2361    0.5034 C   0  0  0  0  0  0  0  0  0  0  0  0
   -4.1685   -0.8645   -0.3560 N   0  0  0  0  0  0  0  0  0  0  0  0
   -5.4185   -1.4424   -0.2082 C   0  0  0  0  0  0  0  0  0  0  0  0
   -6.4441   -0.8257    0.5274 C   0  0  0  0  0  0  0  0  0  0  0  0
   -7.7083   -1.4111    0.6775 C   0  0  0  0  0  0  0  0  0  0  0  0
   -7.9797   -2.6426    0.0952 C   0  0  0  0  0  0  0  0  0  0  0  0
   -6.9866   -3.2840   -0.6341 C   0  0  0  0  0  0  0  0  0  0  0  0
   -5.7268   -2.6889   -0.7794 C   0  0  0  0  0  0  0  0  0  0  0  0
   -3.2967   -1.2107   -1.4915 C   0  0  0  0  0  0  0  0  0  0  0  0
   -2.3902   -0.0170   -1.8713 C   0  0  0  0  0  0  0  0  0  0  0  0
    1.8562    3.3426   -0.7258 H   0  0  0  0  0  0  0  0  0  0  0  0
    1.1384    1.2557   -1.3075 H   0  0  0  0  0  0  0  0  0  0  0  0
    0.1802    2.3579    1.3947 H   0  0  0  0  0  0  0  0  0  0  0  0
    0.6780    0.6854    1.1099 H   0  0  0  0  0  0  0  0  0  0  0  0
    2.2874    2.6763    1.9756 H   0  0  0  0  0  0  0  0  0  0  0  0
    3.1576   -1.7302   -1.5761 H   0  0  0  0  0  0  0  0  0  0  0  0
    5.0500   -3.2373   -2.1244 H   0  0  0  0  0  0  0  0  0  0  0  0
    7.2757   -2.8694   -1.0898 H   0  0  0  0  0  0  0  0  0  0  0  0
    7.6233   -1.0077    0.4835 H   0  0  0  0  0  0  0  0  0  0  0  0
    7.7186    0.7421    1.8804 H   0  0  0  0  0  0  0  0  0  0  0  0
    7.0141    2.9447    3.2811 H   0  0  0  0  0  0  0  0  0  0  0  0
    4.4020    3.3946    2.7356 H   0  0  0  0  0  0  0  0  0  0  0  0
   -1.5573    2.5492   -0.5868 H   0  0  0  0  0  0  0  0  0  0  0  0
   -1.0146    1.9840   -2.1323 H   0  0  0  0  0  0  0  0  0  0  0  0
   -1.7909   -0.6031    0.9970 H   0  0  0  0  0  0  0  0  0  0  0  0
   -1.8703    1.1298    1.2051 H   0  0  0  0  0  0  0  0  0  0  0  0
   -4.1280    1.1850    0.1436 H   0  0  0  0  0  0  0  0  0  0  0  0
   -4.0471    0.0850    1.5369 H   0  0  0  0  0  0  0  0  0  0  0  0
   -6.2878    0.1459    0.9863 H   0  0  0  0  0  0  0  0  0  0  0  0
   -8.4770   -0.8974    1.2486 H   0  0  0  0  0  0  0  0  0  0  0  0
   -8.9575   -3.1009    0.2110 H   0  0  0  0  0  0  0  0  0  0  0  0
   -7.1818   -4.2516   -1.0880 H   0  0  0  0  0  0  0  0  0  0  0  0
   -4.9731   -3.2398   -1.3354 H   0  0  0  0  0  0  0  0  0  0  0  0
   -3.8891   -1.4638   -2.3795 H   0  0  0  0  0  0  0  0  0  0  0  0
   -2.6834   -2.0816   -1.2301 H   0  0  0  0  0  0  0  0  0  0  0  0
   -1.7810   -0.2986   -2.7383 H   0  0  0  0  0  0  0  0  0  0  0  0
   -3.0404    0.8127   -2.1832 H   0  0  0  0  0  0  0  0  0  0  0  0
  1  2  1  0
  2  3  1  0
  3  4  1  0
  4  5  1  0
  5  6  2  0
  6  7  1  0
  7  8  2  0
  8  9  1  0
  9 10  2  0
 10 11  1  0
 11 12  2  0
 12 13  1  0
 13 14  1  0
 14 15  2  0
 15 16  1  0
 16 17  2  0
  2 18  1  0
 18 19  1  0
 19 20  1  0
 20 21  1  0
 21 22  1  0
 22 23  1  0
 23 24  2  0
 24 25  1  0
 25 26  2  0
 26 27  1  0
 27 28  2  0
 22 29  1  0
 29 30  1  0
 17  5  1  0
 30 19  1  0
 12  7  1  0
 17 13  1  0
 28 23  1  0
  1 31  1  0
  2 32  1  0
  3 33  1  0
  3 34  1  0
  4 35  1  0
  8 36  1  0
  9 37  1  0
 10 38  1  0
 11 39  1  0
 14 40  1  0
 15 41  1  0
 16 42  1  0
 18 43  1  0
 18 44  1  0
 20 45  1  0
 20 46  1  0
 21 47  1  0
 21 48  1  0
 24 49  1  0
 25 50  1  0
 26 51  1  0
 27 52  1  0
 28 53  1  0
 29 54  1  0
 29 55  1  0
 30 56  1  0
 30 57  1  0
M  END
$$$$
