
     RDKit          3D

 46 49  0  0  0  0  0  0  0  0999 V2000
    0.4852    1.9470   -0.7361 O   0  0  0  0  0  0  0  0  0  0  0  0
    0.8073    0.7809   -0.9448 C   0  0  0  0  0  0  0  0  0  0  0  0
   -0.2143   -0.2242   -1.4467 C   0  0  0  0  0  0  0  0  0  0  0  0
   -0.4015   -1.3135   -0.5070 N   0  0  0  0  0  0  0  0  0  0  0  0
   -1.1058   -1.2577    0.6794 C   0  0  0  0  0  0  0  0  0  0  0  0
   -1.8756   -0.0619    1.1501 C   0  0  0  0  0  0  0  0  0  0  0  0
   -2.9195    0.1538    0.2027 O   0  0  0  0  0  0  0  0  0  0  0  0
   -3.7484    1.2182    0.4264 C   0  0  0  0  0  0  0  0  0  0  0  0
   -4.7796    1.3581   -0.5068 C   0  0  0  0  0  0  0  0  0  0  0  0
   -5.6974    2.4045   -0.4021 C   0  0  0  0  0  0  0  0  0  0  0  0
   -5.5879    3.3208    0.6404 C   0  0  0  0  0  0  0  0  0  0  0  0
   -4.5624    3.1879    1.5749 C   0  0  0  0  0  0  0  0  0  0  0  0
   -3.6433    2.1388    1.4700 C   0  0  0  0  0  0  0  0  0  0  0  0
   -0.9780   -2.3915    1.3435 N   0  0  0  0  0  0  0  0  0  0  0  0
   -0.2189   -3.2132    0.5533 C   0  0  0  0  0  0  0  0  0  0  0  0
    0.2009   -4.5308    0.7855 C   0  0  0  0  0  0  0  0  0  0  0  0
    0.9843   -5.1700   -0.1818 C   0  0  0  0  0  0  0  0  0  0  0  0
    1.3398   -4.5109   -1.3590 C   0  0  0  0  0  0  0  0  0  0  0  0
    0.9297   -3.1958   -1.6083 C   0  0  0  0  0  0  0  0  0  0  0  0
    0.1508   -2.5711   -0.6244 C   0  0  0  0  0  0  0  0  0  0  0  0
    2.0783    0.2559   -0.7853 N   0  0  0  0  0  0  0  0  0  0  0  0
    3.2507    0.9183   -0.3458 C   0  0  0  0  0  0  0  0  0  0  0  0
    3.3011    2.2843   -0.0522 C   0  0  0  0  0  0  0  0  0  0  0  0
    4.4955    2.8774    0.3819 C   0  0  0  0  0  0  0  0  0  0  0  0
    4.4727    4.5719    0.7242 Cl  0  0  0  0  0  0  0  0  0  0  0  0
    5.6535    2.1054    0.5242 C   0  0  0  0  0  0  0  0  0  0  0  0
    7.1559    2.7736    1.0529 Cl  0  0  0  0  0  0  0  0  0  0  0  0
    5.6185    0.7422    0.2314 C   0  0  0  0  0  0  0  0  0  0  0  0
    4.4270    0.1570   -0.2006 C   0  0  0  0  0  0  0  0  0  0  0  0
    4.4374   -1.5374   -0.5597 Cl  0  0  0  0  0  0  0  0  0  0  0  0
    0.1132   -0.6247   -2.4108 H   0  0  0  0  0  0  0  0  0  0  0  0
   -1.1766    0.2675   -1.6107 H   0  0  0  0  0  0  0  0  0  0  0  0
   -1.2074    0.8041    1.2092 H   0  0  0  0  0  0  0  0  0  0  0  0
   -2.2999   -0.2734    2.1388 H   0  0  0  0  0  0  0  0  0  0  0  0
   -4.8712    0.6433   -1.3207 H   0  0  0  0  0  0  0  0  0  0  0  0
   -6.4958    2.5017   -1.1328 H   0  0  0  0  0  0  0  0  0  0  0  0
   -6.3003    4.1372    0.7256 H   0  0  0  0  0  0  0  0  0  0  0  0
   -4.4761    3.9034    2.3889 H   0  0  0  0  0  0  0  0  0  0  0  0
   -2.8614    2.0752    2.2192 H   0  0  0  0  0  0  0  0  0  0  0  0
   -0.0834   -5.0365    1.7017 H   0  0  0  0  0  0  0  0  0  0  0  0
    1.3140   -6.1924   -0.0125 H   0  0  0  0  0  0  0  0  0  0  0  0
    1.9450   -5.0316   -2.0988 H   0  0  0  0  0  0  0  0  0  0  0  0
    1.2075   -2.7020   -2.5331 H   0  0  0  0  0  0  0  0  0  0  0  0
    2.1954   -0.7452   -0.9310 H   0  0  0  0  0  0  0  0  0  0  0  0
    2.4249    2.9178   -0.1524 H   0  0  0  0  0  0  0  0  0  0  0  0
    6.5159    0.1377    0.3391 H   0  0  0  0  0  0  0  0  0  0  0  0
  1  2  2  0
  2  3  1  0
  3  4  1  0
  4  5  1  0
  5  6  1  0
  6  7  1  0
  7  8  1  0
  8  9  2  0
  9 10  1  0
 10 11  2  0
 11 12  1  0
 12 13  2  0
  5 14  2  0
 14 15  1  0
 15 16  2  0
 16 17  1  0
 17 18  2  0
 18 19  1  0
 19 20  2  0
  2 21  1  0
 21 22  1  0
 22 23  2  0
 23 24  1  0
 24 25  1  0
 24 26  2  0
 26 27  1  0
 26 28  1  0
 28 29  2  0
 29 30  1  0
 20  4  1  0
 29 22  1  0
 13  8  1  0
 20 15  1  0
  3 31  1  0
  3 32  1  0
  6 33  1  0
  6 34  1  0
  9 35  1  0
 10 36  1  0
 11 37  1  0
 12 38  1  0
 13 39  1  0
 16 40  1  0
 17 41  1  0
 18 42  1  0
 19 43  1  0
 21 44  1  0
 23 45  1  0
 28 46  1  0
M  END
$$$$
