
     RDKit          3D

 57 62  0  0  0  0  0  0  0  0999 V2000
    6.5002   -0.8007    1.2405 C   0  0  0  0  0  0  0  0  0  0  0  0
    5.0937   -0.6622    1.3947 O   0  0  0  0  0  0  0  0  0  0  0  0
    4.3048   -1.1608    0.3931 C   0  0  0  0  0  0  0  0  0  0  0  0
    4.7671   -1.7761   -0.7858 C   0  0  0  0  0  0  0  0  0  0  0  0
    3.8688   -2.2555   -1.7469 C   0  0  0  0  0  0  0  0  0  0  0  0
    2.5227   -2.0976   -1.4969 C   0  0  0  0  0  0  0  0  0  0  0  0
    2.0403   -1.4852   -0.3385 C   0  0  0  0  0  0  0  0  0  0  0  0
    2.9295   -1.0169    0.6177 C   0  0  0  0  0  0  0  0  0  0  0  0
    0.5379   -1.4797   -0.3812 C   0  0  0  0  0  0  0  0  0  0  0  0
   -0.1353   -2.1337    0.7917 N   0  0  0  0  0  0  0  0  0  0  0  0
   -0.6502   -1.0453    1.7102 C   0  0  2  0  0  0  0  0  0  0  0  0
   -2.0057   -1.3575    2.3759 C   0  0  0  0  0  0  0  0  0  0  0  0
   -3.1220   -1.8143    1.4603 C   0  0  0  0  0  0  0  0  0  0  0  0
   -3.8931   -0.8862    0.7496 C   0  0  0  0  0  0  0  0  0  0  0  0
   -4.9064   -1.3150   -0.1089 C   0  0  0  0  0  0  0  0  0  0  0  0
   -5.1627   -2.6757   -0.2624 C   0  0  0  0  0  0  0  0  0  0  0  0
   -4.4086   -3.6089    0.4452 C   0  0  0  0  0  0  0  0  0  0  0  0
   -3.3950   -3.1816    1.3038 C   0  0  0  0  0  0  0  0  0  0  0  0
   -0.6016    0.1615    0.8541 C   0  0  0  0  0  0  0  0  0  0  0  0
    0.0749   -0.0834   -0.3385 C   0  0  0  0  0  0  0  0  0  0  0  0
    0.0858    1.0678   -1.0847 C   0  0  0  0  0  0  0  0  0  0  0  0
    0.6421    1.3184   -2.2677 O   0  0  0  0  0  0  0  0  0  0  0  0
   -0.5509    2.0634   -0.3178 N   0  0  0  0  0  0  0  0  0  0  0  0
   -0.6632    3.4485   -0.6590 C   0  0  0  0  0  0  0  0  0  0  0  0
   -0.7992    3.8442   -1.9952 C   0  0  0  0  0  0  0  0  0  0  0  0
   -0.9183    5.1983   -2.3193 C   0  0  0  0  0  0  0  0  0  0  0  0
   -0.8909    6.1647   -1.3160 C   0  0  0  0  0  0  0  0  0  0  0  0
   -0.7375    5.7810    0.0143 C   0  0  0  0  0  0  0  0  0  0  0  0
   -0.6209    4.4286    0.3447 C   0  0  0  0  0  0  0  0  0  0  0  0
   -1.0262    1.4613    0.8656 C   0  0  0  0  0  0  0  0  0  0  0  0
   -1.7962    2.0634    1.7713 O   0  0  0  0  0  0  0  0  0  0  0  0
    0.2391   -2.2221   -1.7131 C   0  0  0  0  0  0  0  0  0  0  0  0
   -0.8466   -2.5246   -2.1836 O   0  0  0  0  0  0  0  0  0  0  0  0
    1.4710   -2.5077   -2.3046 N   0  0  0  0  0  0  0  0  0  0  0  0
    6.9778   -0.3661    2.1240 H   0  0  0  0  0  0  0  0  0  0  0  0
    6.8573   -0.2496    0.3642 H   0  0  0  0  0  0  0  0  0  0  0  0
    6.7902   -1.8556    1.1905 H   0  0  0  0  0  0  0  0  0  0  0  0
    5.8281   -1.8986   -0.9796 H   0  0  0  0  0  0  0  0  0  0  0  0
    4.2296   -2.7355   -2.6495 H   0  0  0  0  0  0  0  0  0  0  0  0
    2.5700   -0.5458    1.5277 H   0  0  0  0  0  0  0  0  0  0  0  0
   -0.9697   -2.5706    0.3880 H   0  0  0  0  0  0  0  0  0  0  0  0
    0.0936   -0.9190    2.5079 H   0  0  0  0  0  0  0  0  0  0  0  0
   -1.8446   -2.1395    3.1308 H   0  0  0  0  0  0  0  0  0  0  0  0
   -2.3557   -0.4830    2.9403 H   0  0  0  0  0  0  0  0  0  0  0  0
   -3.7090    0.1796    0.8583 H   0  0  0  0  0  0  0  0  0  0  0  0
   -5.4929   -0.5859   -0.6613 H   0  0  0  0  0  0  0  0  0  0  0  0
   -5.9481   -3.0083   -0.9355 H   0  0  0  0  0  0  0  0  0  0  0  0
   -4.6066   -4.6705    0.3247 H   0  0  0  0  0  0  0  0  0  0  0  0
   -2.8132   -3.9244    1.8456 H   0  0  0  0  0  0  0  0  0  0  0  0
    1.1076    0.5158   -2.5608 H   0  0  0  0  0  0  0  0  0  0  0  0
   -0.8471    3.1156   -2.8004 H   0  0  0  0  0  0  0  0  0  0  0  0
   -1.0327    5.4964   -3.3584 H   0  0  0  0  0  0  0  0  0  0  0  0
   -0.9776    7.2174   -1.5729 H   0  0  0  0  0  0  0  0  0  0  0  0
   -0.6912    6.5366    0.7947 H   0  0  0  0  0  0  0  0  0  0  0  0
   -0.4415    4.1683    1.3859 H   0  0  0  0  0  0  0  0  0  0  0  0
   -2.2242    2.8323    1.3529 H   0  0  0  0  0  0  0  0  0  0  0  0
    1.5525   -3.0198   -3.1703 H   0  0  0  0  0  0  0  0  0  0  0  0
  1  2  1  0
  2  3  1  0
  3  4  2  0
  4  5  1  0
  5  6  2  0
  6  7  1  0
  7  8  2  0
  7  9  1  0
  9 10  1  0
 10 11  1  0
 11 12  1  0
 12 13  1  0
 13 14  2  0
 14 15  1  0
 15 16  2  0
 16 17  1  0
 17 18  2  0
 11 19  1  0
 19 20  1  0
 20 21  2  0
 21 22  1  0
 21 23  1  0
 23 24  1  0
 24 25  2  0
 25 26  1  0
 26 27  2  0
 27 28  1  0
 28 29  2  0
 23 30  1  0
 30 31  1  0
  9 32  1  0
 32 33  2  0
 32 34  1  0
  8  3  1  0
 20  9  1  0
 29 24  1  0
 34  6  1  0
 18 13  1  0
 30 19  2  0
  1 35  1  0
  1 36  1  0
  1 37  1  0
  4 38  1  0
  5 39  1  0
  8 40  1  0
 10 41  1  0
 11 42  1  1
 12 43  1  0
 12 44  1  0
 14 45  1  0
 15 46  1  0
 16 47  1  0
 17 48  1  0
 18 49  1  0
 22 50  1  0
 25 51  1  0
 26 52  1  0
 27 53  1  0
 28 54  1  0
 29 55  1  0
 31 56  1  0
 34 57  1  0
M  END
$$$$
