
     RDKit          3D

 30 32  0  0  0  0  0  0  0  0999 V2000
   -0.1377    2.0400    0.7594 C   0  0  0  0  0  0  0  0  0  0  0  0
   -0.6018    0.7250    0.3651 N   0  0  0  0  0  0  0  0  0  0  0  0
    0.2141   -0.3142   -0.0387 C   0  0  0  0  0  0  0  0  0  0  0  0
    1.6708   -0.2337   -0.1242 C   0  0  0  0  0  0  0  0  0  0  0  0
    2.2608    0.2787   -1.2867 C   0  0  0  0  0  0  0  0  0  0  0  0
    3.6506    0.3792   -1.3893 C   0  0  0  0  0  0  0  0  0  0  0  0
    4.4610   -0.0322   -0.3313 C   0  0  0  0  0  0  0  0  0  0  0  0
    3.8844   -0.5478    0.8291 C   0  0  0  0  0  0  0  0  0  0  0  0
    2.4988   -0.6505    0.9281 C   0  0  0  0  0  0  0  0  0  0  0  0
    2.0041   -1.1653    2.0962 O   0  0  0  0  0  0  0  0  0  0  0  0
   -0.6077   -1.3888   -0.3206 C   0  0  0  0  0  0  0  0  0  0  0  0
   -1.9519   -0.9957   -0.0937 C   0  0  0  0  0  0  0  0  0  0  0  0
   -3.1902   -1.6562   -0.2169 C   0  0  0  0  0  0  0  0  0  0  0  0
   -4.3702   -0.9690    0.0833 C   0  0  0  0  0  0  0  0  0  0  0  0
   -4.3283    0.3580    0.4986 C   0  0  0  0  0  0  0  0  0  0  0  0
   -3.1108    1.0340    0.6281 C   0  0  0  0  0  0  0  0  0  0  0  0
   -1.9286    0.3353    0.3296 C   0  0  0  0  0  0  0  0  0  0  0  0
   -0.8620    2.5009    1.4344 H   0  0  0  0  0  0  0  0  0  0  0  0
    0.8148    1.9501    1.2868 H   0  0  0  0  0  0  0  0  0  0  0  0
   -0.0224    2.6426   -0.1449 H   0  0  0  0  0  0  0  0  0  0  0  0
    1.6392    0.5989   -2.1200 H   0  0  0  0  0  0  0  0  0  0  0  0
    4.1004    0.7760   -2.2959 H   0  0  0  0  0  0  0  0  0  0  0  0
    5.5422    0.0447   -0.4109 H   0  0  0  0  0  0  0  0  0  0  0  0
    4.5118   -0.8726    1.6543 H   0  0  0  0  0  0  0  0  0  0  0  0
    1.0400   -1.2595    1.9959 H   0  0  0  0  0  0  0  0  0  0  0  0
   -0.2729   -2.3595   -0.6641 H   0  0  0  0  0  0  0  0  0  0  0  0
   -3.2303   -2.6907   -0.5452 H   0  0  0  0  0  0  0  0  0  0  0  0
   -5.3267   -1.4768   -0.0122 H   0  0  0  0  0  0  0  0  0  0  0  0
   -5.2556    0.8793    0.7252 H   0  0  0  0  0  0  0  0  0  0  0  0
   -3.0958    2.0701    0.9497 H   0  0  0  0  0  0  0  0  0  0  0  0
  1  2  1  0
  2  3  1  0
  3  4  1  0
  4  5  2  0
  5  6  1  0
  6  7  2  0
  7  8  1  0
  8  9  2  0
  9 10  1  0
  3 11  2  0
 11 12  1  0
 12 13  2  0
 13 14  1  0
 14 15  2  0
 15 16  1  0
 16 17  2  0
 17  2  1  0
  9  4  1  0
 17 12  1  0
  1 18  1  0
  1 19  1  0
  1 20  1  0
  5 21  1  0
  6 22  1  0
  7 23  1  0
  8 24  1  0
 10 25  1  0
 11 26  1  0
 13 27  1  0
 14 28  1  0
 15 29  1  0
 16 30  1  0
M  END
$$$$
