
     RDKit          3D

 32 32  0  0  0  0  0  0  0  0999 V2000
   -4.8856   -1.3291    0.8738 C   0  0  0  0  0  0  0  0  0  0  0  0
   -3.7812   -1.4240    0.4107 C   0  0  0  0  0  0  0  0  0  0  0  0
   -2.4251   -1.5473   -0.1502 C   0  0  0  0  0  0  0  0  0  0  0  0
   -2.0737   -0.5161   -1.1426 N   0  0  0  0  0  0  0  0  0  0  0  0
   -2.8894   -0.6397   -2.3523 C   0  0  0  0  0  0  0  0  0  0  0  0
   -2.1144    0.8596   -0.6252 C   0  0  0  0  0  0  0  0  0  0  0  0
   -1.1288    1.1465    0.5112 C   0  0  0  0  0  0  0  0  0  0  0  0
    0.3210    0.8664    0.1272 C   0  0  0  0  0  0  0  0  0  0  0  0
    1.1452    1.2340    1.2449 O   0  0  0  0  0  0  0  0  0  0  0  0
    2.4154    0.7469    1.0818 C   0  0  0  0  0  0  0  0  0  0  0  0
    3.3373    1.5173    0.3707 C   0  0  0  0  0  0  0  0  0  0  0  0
    4.6481    1.0627    0.2215 C   0  0  0  0  0  0  0  0  0  0  0  0
    5.0308   -0.1504    0.7957 C   0  0  0  0  0  0  0  0  0  0  0  0
    6.6489   -0.7060    0.6085 Cl  0  0  0  0  0  0  0  0  0  0  0  0
    4.1191   -0.9138    1.5238 C   0  0  0  0  0  0  0  0  0  0  0  0
    2.8087   -0.4593    1.6734 C   0  0  0  0  0  0  0  0  0  0  0  0
    1.6999   -1.4152    2.5878 Cl  0  0  0  0  0  0  0  0  0  0  0  0
   -5.8645   -1.2443    1.2860 H   0  0  0  0  0  0  0  0  0  0  0  0
   -1.6910   -1.5431    0.6636 H   0  0  0  0  0  0  0  0  0  0  0  0
   -2.3163   -2.5364   -0.6135 H   0  0  0  0  0  0  0  0  0  0  0  0
   -3.9445   -0.4020   -2.1771 H   0  0  0  0  0  0  0  0  0  0  0  0
   -2.5163    0.0329   -3.1330 H   0  0  0  0  0  0  0  0  0  0  0  0
   -2.8250   -1.6535   -2.7632 H   0  0  0  0  0  0  0  0  0  0  0  0
   -1.8674    1.5490   -1.4439 H   0  0  0  0  0  0  0  0  0  0  0  0
   -3.1262    1.1301   -0.2979 H   0  0  0  0  0  0  0  0  0  0  0  0
   -1.2207    2.2013    0.8014 H   0  0  0  0  0  0  0  0  0  0  0  0
   -1.3895    0.5814    1.4141 H   0  0  0  0  0  0  0  0  0  0  0  0
    0.4520   -0.1949   -0.1169 H   0  0  0  0  0  0  0  0  0  0  0  0
    0.6016    1.4712   -0.7437 H   0  0  0  0  0  0  0  0  0  0  0  0
    3.0374    2.4689   -0.0595 H   0  0  0  0  0  0  0  0  0  0  0  0
    5.3658    1.6595   -0.3359 H   0  0  0  0  0  0  0  0  0  0  0  0
    4.4282   -1.8526    1.9745 H   0  0  0  0  0  0  0  0  0  0  0  0
  1  2  3  0
  2  3  1  0
  3  4  1  0
  4  5  1  0
  4  6  1  0
  6  7  1  0
  7  8  1  0
  8  9  1  0
  9 10  1  0
 10 11  2  0
 11 12  1  0
 12 13  2  0
 13 14  1  0
 13 15  1  0
 15 16  2  0
 16 17  1  0
 16 10  1  0
  1 18  1  0
  3 19  1  0
  3 20  1  0
  5 21  1  0
  5 22  1  0
  5 23  1  0
  6 24  1  0
  6 25  1  0
  7 26  1  0
  7 27  1  0
  8 28  1  0
  8 29  1  0
 11 30  1  0
 12 31  1  0
 15 32  1  0
M  END
$$$$
