
     RDKit          3D

 55 58  0  0  0  0  0  0  0  0999 V2000
    4.2030   -2.9272    0.2083 C   0  0  0  0  0  0  0  0  0  0  0  0
    3.2219   -1.8779    0.1539 N   0  0  0  0  0  0  0  0  0  0  0  0
    3.2811   -0.7357   -0.6137 C   0  0  0  0  0  0  0  0  0  0  0  0
    4.3652   -0.3897   -1.5806 C   0  0  0  0  0  0  0  0  0  0  0  0
    5.7029   -0.1185   -0.9296 C   0  0  0  0  0  0  0  0  0  0  0  0
    5.8379    0.8951    0.0303 C   0  0  0  0  0  0  0  0  0  0  0  0
    7.0761    1.1530    0.6200 C   0  0  0  0  0  0  0  0  0  0  0  0
    8.1936    0.4065    0.2516 C   0  0  0  0  0  0  0  0  0  0  0  0
    8.0746   -0.5953   -0.7088 C   0  0  0  0  0  0  0  0  0  0  0  0
    6.8374   -0.8547   -1.3002 C   0  0  0  0  0  0  0  0  0  0  0  0
    2.2217    0.0059   -0.3554 N   0  0  0  0  0  0  0  0  0  0  0  0
    1.4648   -0.6378    0.5861 N   0  0  0  0  0  0  0  0  0  0  0  0
    2.0654   -1.7657    0.8683 C   0  0  0  0  0  0  0  0  0  0  0  0
    1.4591   -2.9209    1.9942 S   0  0  0  0  0  0  0  0  0  0  0  0
    0.2736   -3.8205    0.9621 C   0  0  0  0  0  0  0  0  0  0  0  0
   -1.0059   -3.0995    0.5509 C   0  0  0  0  0  0  0  0  0  0  0  0
   -1.8075   -3.7064   -0.1637 O   0  0  0  0  0  0  0  0  0  0  0  0
   -1.1671   -1.8109    1.0073 N   0  0  0  0  0  0  0  0  0  0  0  0
   -2.2495   -0.9394    0.7733 C   0  0  0  0  0  0  0  0  0  0  0  0
   -3.4666   -1.3265    0.2256 C   0  0  0  0  0  0  0  0  0  0  0  0
   -4.4837   -0.3816    0.0279 C   0  0  0  0  0  0  0  0  0  0  0  0
   -4.3214    0.9707    0.3689 C   0  0  0  0  0  0  0  0  0  0  0  0
   -5.3780    1.8683    0.1525 N   0  0  0  0  0  0  0  0  0  0  0  0
   -5.7114    2.0463   -1.2815 C   0  0  0  0  0  0  0  0  0  0  0  0
   -7.0096    2.8595   -1.4247 C   0  0  0  0  0  0  0  0  0  0  0  0
   -6.9354    4.1171   -0.7337 O   0  0  0  0  0  0  0  0  0  0  0  0
   -6.6842    3.8936    0.6622 C   0  0  0  0  0  0  0  0  0  0  0  0
   -5.3511    3.1591    0.8724 C   0  0  0  0  0  0  0  0  0  0  0  0
   -3.0970    1.3358    0.9369 C   0  0  0  0  0  0  0  0  0  0  0  0
   -2.0749    0.3980    1.1336 C   0  0  0  0  0  0  0  0  0  0  0  0
    4.6334   -3.0748   -0.7863 H   0  0  0  0  0  0  0  0  0  0  0  0
    3.7377   -3.8652    0.5206 H   0  0  0  0  0  0  0  0  0  0  0  0
    4.9759   -2.6358    0.9242 H   0  0  0  0  0  0  0  0  0  0  0  0
    4.4552   -1.1952   -2.3209 H   0  0  0  0  0  0  0  0  0  0  0  0
    4.0745    0.5058   -2.1457 H   0  0  0  0  0  0  0  0  0  0  0  0
    4.9772    1.4965    0.3203 H   0  0  0  0  0  0  0  0  0  0  0  0
    7.1700    1.9431    1.3600 H   0  0  0  0  0  0  0  0  0  0  0  0
    9.1585    0.6137    0.7075 H   0  0  0  0  0  0  0  0  0  0  0  0
    8.9497   -1.1637   -1.0071 H   0  0  0  0  0  0  0  0  0  0  0  0
    6.7702   -1.6307   -2.0580 H   0  0  0  0  0  0  0  0  0  0  0  0
   -0.0361   -4.7023    1.5317 H   0  0  0  0  0  0  0  0  0  0  0  0
    0.7812   -4.1678    0.0577 H   0  0  0  0  0  0  0  0  0  0  0  0
   -0.3399   -1.3714    1.4015 H   0  0  0  0  0  0  0  0  0  0  0  0
   -3.6674   -2.3559   -0.0477 H   0  0  0  0  0  0  0  0  0  0  0  0
   -5.4321   -0.7233   -0.3768 H   0  0  0  0  0  0  0  0  0  0  0  0
   -5.8482    1.0878   -1.7915 H   0  0  0  0  0  0  0  0  0  0  0  0
   -4.8942    2.5865   -1.7753 H   0  0  0  0  0  0  0  0  0  0  0  0
   -7.8665    2.2943   -1.0402 H   0  0  0  0  0  0  0  0  0  0  0  0
   -7.1948    3.0764   -2.4801 H   0  0  0  0  0  0  0  0  0  0  0  0
   -6.6521    4.8708    1.1532 H   0  0  0  0  0  0  0  0  0  0  0  0
   -7.5199    3.3280    1.0892 H   0  0  0  0  0  0  0  0  0  0  0  0
   -4.5367    3.7862    0.4884 H   0  0  0  0  0  0  0  0  0  0  0  0
   -5.2052    2.9952    1.9452 H   0  0  0  0  0  0  0  0  0  0  0  0
   -2.8932    2.3629    1.2197 H   0  0  0  0  0  0  0  0  0  0  0  0
   -1.1325    0.7386    1.5580 H   0  0  0  0  0  0  0  0  0  0  0  0
  1  2  1  0
  2  3  1  0
  3  4  1  0
  4  5  1  0
  5  6  2  0
  6  7  1  0
  7  8  2  0
  8  9  1  0
  9 10  2  0
  3 11  2  0
 11 12  1  0
 12 13  2  0
 13 14  1  0
 14 15  1  0
 15 16  1  0
 16 17  2  0
 16 18  1  0
 18 19  1  0
 19 20  2  0
 20 21  1  0
 21 22  2  0
 22 23  1  0
 23 24  1  0
 24 25  1  0
 25 26  1  0
 26 27  1  0
 27 28  1  0
 22 29  1  0
 29 30  2  0
 13  2  1  0
 30 19  1  0
 10  5  1  0
 28 23  1  0
  1 31  1  0
  1 32  1  0
  1 33  1  0
  4 34  1  0
  4 35  1  0
  6 36  1  0
  7 37  1  0
  8 38  1  0
  9 39  1  0
 10 40  1  0
 15 41  1  0
 15 42  1  0
 18 43  1  0
 20 44  1  0
 21 45  1  0
 24 46  1  0
 24 47  1  0
 25 48  1  0
 25 49  1  0
 27 50  1  0
 27 51  1  0
 28 52  1  0
 28 53  1  0
 29 54  1  0
 30 55  1  0
M  END
$$$$
