
     RDKit          3D

 57 61  0  0  0  0  0  0  0  0999 V2000
    0.3858   -1.2541    0.9289 O   0  0  0  0  0  0  0  0  0  0  0  0
    0.0247   -0.3963    2.0196 C   0  0  0  0  0  0  0  0  0  0  0  0
    1.2546   -0.1545    2.9281 C   0  0  0  0  0  0  0  0  0  0  0  0
    2.1162    0.9061    2.4103 N   0  0  0  0  0  0  0  0  0  0  0  0
    2.9987    0.7454    1.3651 C   0  0  0  0  0  0  0  0  0  0  0  0
    2.8861   -0.2906    0.5770 N   0  0  0  0  0  0  0  0  0  0  0  0
    3.7889   -0.4716   -0.4930 C   0  0  0  0  0  0  0  0  0  0  0  0
    3.6352   -1.5961   -1.3063 C   0  0  0  0  0  0  0  0  0  0  0  0
    4.5018   -1.8229   -2.3789 C   0  0  0  0  0  0  0  0  0  0  0  0
    5.5341   -0.9234   -2.6486 C   0  0  0  0  0  0  0  0  0  0  0  0
    5.7066    0.2070   -1.8491 C   0  0  0  0  0  0  0  0  0  0  0  0
    4.8325    0.4212   -0.7797 C   0  0  0  0  0  0  0  0  0  0  0  0
    4.9322    1.5327    0.0731 N   0  0  0  0  0  0  0  0  0  0  0  0
    5.8286    2.5743    0.0572 C   0  0  0  0  0  0  0  0  0  0  0  0
    5.5132    3.4300    1.0909 C   0  0  0  0  0  0  0  0  0  0  0  0
    4.3895    2.8877    1.7587 C   0  0  0  0  0  0  0  0  0  0  0  0
    4.0511    1.7101    1.1166 C   0  0  0  0  0  0  0  0  0  0  0  0
   -1.1146   -1.0562    2.8441 C   0  0  0  0  0  0  0  0  0  0  0  0
   -2.4449   -1.2162    2.2302 N   0  0  0  0  0  0  0  0  0  0  0  0
   -2.4552   -2.0779    1.0319 C   0  0  0  0  0  0  0  0  0  0  0  0
   -2.6197   -1.3443   -0.3212 C   0  0  0  0  0  0  0  0  0  0  0  0
   -3.8360   -0.5084   -0.3263 N   0  0  0  0  0  0  0  0  0  0  0  0
   -4.4814   -0.1689   -1.5028 C   0  0  0  0  0  0  0  0  0  0  0  0
   -5.8171    0.2663   -1.5174 C   0  0  0  0  0  0  0  0  0  0  0  0
   -6.4754    0.6107   -2.7050 C   0  0  0  0  0  0  0  0  0  0  0  0
   -5.8080    0.5289   -3.9205 C   0  0  0  0  0  0  0  0  0  0  0  0
   -4.4865    0.1020   -3.9432 C   0  0  0  0  0  0  0  0  0  0  0  0
   -3.8384   -0.2416   -2.7498 C   0  0  0  0  0  0  0  0  0  0  0  0
   -4.3094   -0.0364    0.9844 C   0  0  0  0  0  0  0  0  0  0  0  0
   -3.1359    0.0633    1.9894 C   0  0  0  0  0  0  0  0  0  0  0  0
    1.2556   -0.9265    0.6049 H   0  0  0  0  0  0  0  0  0  0  0  0
   -0.3086    0.5562    1.5959 H   0  0  0  0  0  0  0  0  0  0  0  0
    1.8354   -1.0751    3.0590 H   0  0  0  0  0  0  0  0  0  0  0  0
    0.9210    0.1690    3.9204 H   0  0  0  0  0  0  0  0  0  0  0  0
    2.4025    1.5824    3.1076 H   0  0  0  0  0  0  0  0  0  0  0  0
    2.8330   -2.3009   -1.1014 H   0  0  0  0  0  0  0  0  0  0  0  0
    4.3688   -2.7029   -3.0035 H   0  0  0  0  0  0  0  0  0  0  0  0
    6.2049   -1.1050   -3.4852 H   0  0  0  0  0  0  0  0  0  0  0  0
    6.5157    0.8922   -2.0793 H   0  0  0  0  0  0  0  0  0  0  0  0
    6.6157    2.6380   -0.6801 H   0  0  0  0  0  0  0  0  0  0  0  0
    6.0355    4.3469    1.3332 H   0  0  0  0  0  0  0  0  0  0  0  0
    3.8854    3.3190    2.6130 H   0  0  0  0  0  0  0  0  0  0  0  0
   -0.7794   -2.0539    3.1580 H   0  0  0  0  0  0  0  0  0  0  0  0
   -1.2561   -0.4881    3.7726 H   0  0  0  0  0  0  0  0  0  0  0  0
   -1.5894   -2.7488    0.9998 H   0  0  0  0  0  0  0  0  0  0  0  0
   -3.3188   -2.7477    1.1457 H   0  0  0  0  0  0  0  0  0  0  0  0
   -1.7475   -0.7138   -0.5257 H   0  0  0  0  0  0  0  0  0  0  0  0
   -2.6774   -2.1125   -1.1018 H   0  0  0  0  0  0  0  0  0  0  0  0
   -6.3871    0.3225   -0.5946 H   0  0  0  0  0  0  0  0  0  0  0  0
   -7.5114    0.9363   -2.6728 H   0  0  0  0  0  0  0  0  0  0  0  0
   -6.3144    0.7950   -4.8436 H   0  0  0  0  0  0  0  0  0  0  0  0
   -3.9501    0.0371   -4.8857 H   0  0  0  0  0  0  0  0  0  0  0  0
   -2.7985   -0.5492   -2.8153 H   0  0  0  0  0  0  0  0  0  0  0  0
   -4.7521    0.9638    0.9035 H   0  0  0  0  0  0  0  0  0  0  0  0
   -5.0778   -0.7191    1.3671 H   0  0  0  0  0  0  0  0  0  0  0  0
   -2.4424    0.8190    1.6031 H   0  0  0  0  0  0  0  0  0  0  0  0
   -3.5196    0.4398    2.9447 H   0  0  0  0  0  0  0  0  0  0  0  0
  1  2  1  0
  2  3  1  0
  3  4  1  0
  4  5  1  0
  5  6  2  0
  6  7  1  0
  7  8  2  0
  8  9  1  0
  9 10  2  0
 10 11  1  0
 11 12  2  0
 12 13  1  0
 13 14  1  0
 14 15  2  0
 15 16  1  0
 16 17  2  0
  2 18  1  0
 18 19  1  0
 19 20  1  0
 20 21  1  0
 21 22  1  0
 22 23  1  0
 23 24  2  0
 24 25  1  0
 25 26  2  0
 26 27  1  0
 27 28  2  0
 22 29  1  0
 29 30  1  0
 17  5  1  0
 30 19  1  0
 12  7  1  0
 17 13  1  0
 28 23  1  0
  1 31  1  0
  2 32  1  0
  3 33  1  0
  3 34  1  0
  4 35  1  0
  8 36  1  0
  9 37  1  0
 10 38  1  0
 11 39  1  0
 14 40  1  0
 15 41  1  0
 16 42  1  0
 18 43  1  0
 18 44  1  0
 20 45  1  0
 20 46  1  0
 21 47  1  0
 21 48  1  0
 24 49  1  0
 25 50  1  0
 26 51  1  0
 27 52  1  0
 28 53  1  0
 29 54  1  0
 29 55  1  0
 30 56  1  0
 30 57  1  0
M  END
$$$$
