
     RDKit          3D

 33 33  0  0  0  0  0  0  0  0999 V2000
   -3.5528    3.4805   -1.0369 C   0  0  0  0  0  0  0  0  0  0  0  0
   -3.3907    2.6890    0.2369 C   0  0  0  0  0  0  0  0  0  0  0  0
   -4.1087    2.9107    1.2059 O   0  0  0  0  0  0  0  0  0  0  0  0
   -2.4104    1.7255    0.1347 N   0  0  0  0  0  0  0  0  0  0  0  0
   -1.9632    0.8209    1.1240 C   0  0  0  0  0  0  0  0  0  0  0  0
   -2.4539    0.8038    2.4311 C   0  0  0  0  0  0  0  0  0  0  0  0
   -1.9475   -0.1064    3.3605 C   0  0  0  0  0  0  0  0  0  0  0  0
   -0.9457   -0.9993    2.9907 C   0  0  0  0  0  0  0  0  0  0  0  0
   -0.4488   -0.9955    1.6856 C   0  0  0  0  0  0  0  0  0  0  0  0
   -0.9592   -0.0975    0.7432 C   0  0  0  0  0  0  0  0  0  0  0  0
   -0.5559   -0.0144   -0.5702 O   0  0  0  0  0  0  0  0  0  0  0  0
    0.2839   -1.0385   -1.0766 C   0  0  0  0  0  0  0  0  0  0  0  0
    1.7817   -0.8572   -0.7999 C   0  0  0  0  0  0  0  0  0  0  0  0
    2.2818    0.1849   -0.3912 O   0  0  0  0  0  0  0  0  0  0  0  0
    2.5369   -1.9901   -1.0453 N   0  0  0  0  0  0  0  0  0  0  0  0
    4.0000   -1.9279   -0.9667 C   0  0  0  0  0  0  0  0  0  0  0  0
    4.6934   -1.4143   -2.2319 C   0  0  0  0  0  0  0  0  0  0  0  0
    4.3452   -0.1514   -2.5451 F   0  0  0  0  0  0  0  0  0  0  0  0
    6.0375   -1.4556   -2.0929 F   0  0  0  0  0  0  0  0  0  0  0  0
    4.3728   -2.2017   -3.2888 F   0  0  0  0  0  0  0  0  0  0  0  0
   -2.6031    3.5700   -1.5722 H   0  0  0  0  0  0  0  0  0  0  0  0
   -4.2877    2.9860   -1.6774 H   0  0  0  0  0  0  0  0  0  0  0  0
   -3.8992    4.4891   -0.7938 H   0  0  0  0  0  0  0  0  0  0  0  0
   -1.9184    1.6321   -0.7482 H   0  0  0  0  0  0  0  0  0  0  0  0
   -3.2246    1.4937    2.7597 H   0  0  0  0  0  0  0  0  0  0  0  0
   -2.3322   -0.1071    4.3775 H   0  0  0  0  0  0  0  0  0  0  0  0
   -0.5450   -1.6955    3.7235 H   0  0  0  0  0  0  0  0  0  0  0  0
    0.3442   -1.6955    1.4498 H   0  0  0  0  0  0  0  0  0  0  0  0
   -0.0549   -2.0329   -0.7608 H   0  0  0  0  0  0  0  0  0  0  0  0
    0.1752   -1.0136   -2.1677 H   0  0  0  0  0  0  0  0  0  0  0  0
    2.1259   -2.7440   -1.5841 H   0  0  0  0  0  0  0  0  0  0  0  0
    4.3399   -2.9475   -0.7582 H   0  0  0  0  0  0  0  0  0  0  0  0
    4.2835   -1.3002   -0.1151 H   0  0  0  0  0  0  0  0  0  0  0  0
  1  2  1  0
  2  3  2  0
  2  4  1  0
  4  5  1  0
  5  6  2  0
  6  7  1  0
  7  8  2  0
  8  9  1  0
  9 10  2  0
 10 11  1  0
 11 12  1  0
 12 13  1  0
 13 14  2  0
 13 15  1  0
 15 16  1  0
 16 17  1  0
 17 18  1  0
 17 19  1  0
 17 20  1  0
 10  5  1  0
  1 21  1  0
  1 22  1  0
  1 23  1  0
  4 24  1  0
  6 25  1  0
  7 26  1  0
  8 27  1  0
  9 28  1  0
 12 29  1  0
 12 30  1  0
 15 31  1  0
 16 32  1  0
 16 33  1  0
M  END
$$$$
