
     RDKit          3D

 45 47  0  0  0  0  0  0  0  0999 V2000
   -2.5460   -0.3320    1.0159 O   0  0  0  0  0  0  0  0  0  0  0  0
   -2.7073    0.3826    0.0277 C   0  0  0  0  0  0  0  0  0  0  0  0
   -4.0830    0.6809   -0.5565 C   0  0  0  0  0  0  0  0  0  0  0  0
   -5.2317    0.0325    0.1822 C   0  0  0  0  0  0  0  0  0  0  0  0
   -5.6730   -1.2502   -0.1754 C   0  0  0  0  0  0  0  0  0  0  0  0
   -6.7270   -1.8533    0.5148 C   0  0  0  0  0  0  0  0  0  0  0  0
   -7.3402   -1.1800    1.5687 C   0  0  0  0  0  0  0  0  0  0  0  0
   -8.6395   -1.9230    2.4175 Cl  0  0  0  0  0  0  0  0  0  0  0  0
   -6.9067    0.0903    1.9411 C   0  0  0  0  0  0  0  0  0  0  0  0
   -5.8529    0.6945    1.2516 C   0  0  0  0  0  0  0  0  0  0  0  0
   -1.5424    0.9829   -0.6335 C   0  0  0  0  0  0  0  0  0  0  0  0
   -1.5323    1.7984   -1.7495 C   0  0  0  0  0  0  0  0  0  0  0  0
   -0.2325    2.1300   -2.0301 N   0  0  0  0  0  0  0  0  0  0  0  0
    0.6214    1.5522   -1.1155 C   0  0  0  0  0  0  0  0  0  0  0  0
    2.0518    1.7512   -1.1973 C   0  0  0  0  0  0  0  0  0  0  0  0
    2.5674    2.3946   -2.1062 O   0  0  0  0  0  0  0  0  0  0  0  0
    2.7864    1.1682   -0.1916 N   0  0  0  0  0  0  0  0  0  0  0  0
    4.2176    1.3479   -0.0753 C   0  0  0  0  0  0  0  0  0  0  0  0
    5.0180    0.5585   -1.1125 C   0  0  0  0  0  0  0  0  0  0  0  0
    4.7474   -0.9462   -1.1033 C   0  0  0  0  0  0  0  0  0  0  0  0
    5.0559   -1.5862    0.1574 N   0  0  0  0  0  0  0  0  0  0  0  0
    4.1544   -2.0795    1.0581 C   0  0  0  0  0  0  0  0  0  0  0  0
    4.9201   -2.5810    2.0849 C   0  0  0  0  0  0  0  0  0  0  0  0
    6.2551   -2.4102    1.8239 N   0  0  0  0  0  0  0  0  0  0  0  0
    6.3071   -1.8226    0.6500 C   0  0  0  0  0  0  0  0  0  0  0  0
   -0.1766    0.8329   -0.2417 C   0  0  0  0  0  0  0  0  0  0  0  0
   -4.0992    0.3470   -1.6014 H   0  0  0  0  0  0  0  0  0  0  0  0
   -4.2330    1.7676   -0.5616 H   0  0  0  0  0  0  0  0  0  0  0  0
   -5.1951   -1.7925   -0.9885 H   0  0  0  0  0  0  0  0  0  0  0  0
   -7.0591   -2.8479    0.2300 H   0  0  0  0  0  0  0  0  0  0  0  0
   -7.3791    0.6120    2.7689 H   0  0  0  0  0  0  0  0  0  0  0  0
   -5.5165    1.6818    1.5610 H   0  0  0  0  0  0  0  0  0  0  0  0
   -2.3303    2.1756   -2.3758 H   0  0  0  0  0  0  0  0  0  0  0  0
    0.0845    2.7165   -2.7943 H   0  0  0  0  0  0  0  0  0  0  0  0
    2.2967    0.7530    0.5888 H   0  0  0  0  0  0  0  0  0  0  0  0
    4.4375    2.4163   -0.1835 H   0  0  0  0  0  0  0  0  0  0  0  0
    4.5013    1.0566    0.9412 H   0  0  0  0  0  0  0  0  0  0  0  0
    4.7973    0.9386   -2.1170 H   0  0  0  0  0  0  0  0  0  0  0  0
    6.0853    0.7432   -0.9387 H   0  0  0  0  0  0  0  0  0  0  0  0
    3.7001   -1.1598   -1.3453 H   0  0  0  0  0  0  0  0  0  0  0  0
    5.3603   -1.4393   -1.8672 H   0  0  0  0  0  0  0  0  0  0  0  0
    3.0854   -2.0409    0.9042 H   0  0  0  0  0  0  0  0  0  0  0  0
    4.5821   -3.0587    2.9955 H   0  0  0  0  0  0  0  0  0  0  0  0
    7.2119   -1.5464    0.1240 H   0  0  0  0  0  0  0  0  0  0  0  0
    0.1584    0.2439    0.6035 H   0  0  0  0  0  0  0  0  0  0  0  0
  1  2  2  0
  2  3  1  0
  3  4  1  0
  4  5  2  0
  5  6  1  0
  6  7  2  0
  7  8  1  0
  7  9  1  0
  9 10  2  0
  2 11  1  0
 11 12  2  0
 12 13  1  0
 13 14  1  0
 14 15  1  0
 15 16  2  0
 15 17  1  0
 17 18  1  0
 18 19  1  0
 19 20  1  0
 20 21  1  0
 21 22  1  0
 22 23  2  0
 23 24  1  0
 24 25  2  0
 14 26  2  0
 10  4  1  0
 26 11  1  0
 25 21  1  0
  3 27  1  0
  3 28  1  0
  5 29  1  0
  6 30  1  0
  9 31  1  0
 10 32  1  0
 12 33  1  0
 13 34  1  0
 17 35  1  0
 18 36  1  0
 18 37  1  0
 19 38  1  0
 19 39  1  0
 20 40  1  0
 20 41  1  0
 22 42  1  0
 23 43  1  0
 25 44  1  0
 26 45  1  0
M  END
$$$$
