
     RDKit          3D

 36 38  0  0  0  0  0  0  0  0999 V2000
   -5.1608   -0.8113   -0.7383 C   0  0  0  0  0  0  0  0  0  0  0  0
   -4.0295    0.1235   -0.4151 C   0  0  0  0  0  0  0  0  0  0  0  0
   -4.3033    1.4036    0.0995 C   0  0  0  0  0  0  0  0  0  0  0  0
   -3.2672    2.2737    0.4396 C   0  0  0  0  0  0  0  0  0  0  0  0
   -1.9604    1.8450    0.2672 C   0  0  0  0  0  0  0  0  0  0  0  0
   -1.6550    0.5660   -0.2417 C   0  0  0  0  0  0  0  0  0  0  0  0
   -2.6975   -0.2983   -0.5708 C   0  0  0  0  0  0  0  0  0  0  0  0
   -0.2541    0.2833   -0.3364 N   0  0  0  0  0  0  0  0  0  0  0  0
    0.0844   -0.4526   -1.5593 C   0  0  0  0  0  0  0  0  0  0  0  0
    0.4832    1.3843    0.1298 C   0  0  0  0  0  0  0  0  0  0  0  0
    1.8046    1.4704    0.3685 C   0  0  0  0  0  0  0  0  0  0  0  0
    2.7675    0.3775    0.2470 C   0  0  0  0  0  0  0  0  0  0  0  0
    3.7879    0.4812   -0.7074 C   0  0  0  0  0  0  0  0  0  0  0  0
    4.7073   -0.5480   -0.8600 C   0  0  0  0  0  0  0  0  0  0  0  0
    4.6019   -1.6706   -0.0553 C   0  0  0  0  0  0  0  0  0  0  0  0
    3.5901   -1.7367    0.8939 C   0  0  0  0  0  0  0  0  0  0  0  0
    2.7029   -0.7240    1.0478 N   0  0  0  0  0  4  0  0  0  0  0  0
    1.6826   -0.8523    2.1123 C   0  0  0  0  0  0  0  0  0  0  0  0
   -0.4939    2.7948    0.6143 S   0  0  0  0  0  0  0  0  0  0  0  0
   -5.4201   -1.4029    0.1450 H   0  0  0  0  0  0  0  0  0  0  0  0
   -6.0456   -0.2552   -1.0656 H   0  0  0  0  0  0  0  0  0  0  0  0
   -4.8852   -1.4903   -1.5520 H   0  0  0  0  0  0  0  0  0  0  0  0
   -5.3339    1.7285    0.2363 H   0  0  0  0  0  0  0  0  0  0  0  0
   -3.4866    3.2635    0.8282 H   0  0  0  0  0  0  0  0  0  0  0  0
   -2.5018   -1.3019   -0.9340 H   0  0  0  0  0  0  0  0  0  0  0  0
   -0.2545    0.0849   -2.4531 H   0  0  0  0  0  0  0  0  0  0  0  0
   -0.3555   -1.4554   -1.5536 H   0  0  0  0  0  0  0  0  0  0  0  0
    1.1626   -0.5999   -1.6577 H   0  0  0  0  0  0  0  0  0  0  0  0
    2.2359    2.4030    0.7303 H   0  0  0  0  0  0  0  0  0  0  0  0
    3.8611    1.3617   -1.3447 H   0  0  0  0  0  0  0  0  0  0  0  0
    5.4982   -0.4745   -1.6053 H   0  0  0  0  0  0  0  0  0  0  0  0
    5.3099   -2.4902   -0.1618 H   0  0  0  0  0  0  0  0  0  0  0  0
    3.4859   -2.6020    1.5435 H   0  0  0  0  0  0  0  0  0  0  0  0
    2.0520   -1.5385    2.8801 H   0  0  0  0  0  0  0  0  0  0  0  0
    0.7747   -1.2583    1.6626 H   0  0  0  0  0  0  0  0  0  0  0  0
    1.5121    0.1180    2.5830 H   0  0  0  0  0  0  0  0  0  0  0  0
  1  2  1  0
  2  3  2  0
  3  4  1  0
  4  5  2  0
  5  6  1  0
  6  7  2  0
  6  8  1  0
  8  9  1  0
  8 10  1  0
 10 11  2  3
 11 12  1  0
 12 13  2  0
 13 14  1  0
 14 15  2  0
 15 16  1  0
 16 17  2  0
 17 18  1  0
 10 19  1  0
  7  2  1  0
 17 12  1  0
 19  5  1  0
  1 20  1  0
  1 21  1  0
  1 22  1  0
  3 23  1  0
  4 24  1  0
  7 25  1  0
  9 26  1  0
  9 27  1  0
  9 28  1  0
 11 29  1  0
 13 30  1  0
 14 31  1  0
 15 32  1  0
 16 33  1  0
 18 34  1  0
 18 35  1  0
 18 36  1  0
M  CHG  1  17   1
M  END
$$$$
