
     RDKit          3D

 37 39  0  0  0  0  0  0  0  0999 V2000
    3.6748    1.2922    1.1262 N   0  0  0  0  0  0  0  0  0  0  0  0
    3.5678    0.0235    0.4160 C   0  0  0  0  0  0  0  0  0  0  0  0
    2.1871   -0.1787   -0.2066 C   0  0  0  0  0  0  0  0  0  0  0  0
    1.0720   -0.3106    0.8395 C   0  0  0  0  0  0  0  0  0  0  0  0
   -0.2476   -0.5505    0.2074 N   0  0  0  0  0  0  0  0  0  0  0  0
   -0.6558   -1.9067    0.0429 C   0  0  0  0  0  0  0  0  0  0  0  0
    0.2552   -2.9849    0.1286 C   0  0  0  0  0  0  0  0  0  0  0  0
   -0.1337   -4.3194   -0.0429 C   0  0  0  0  0  0  0  0  0  0  0  0
   -1.4563   -4.6254   -0.3121 C   0  0  0  0  0  0  0  0  0  0  0  0
   -2.3812   -3.5932   -0.4115 C   0  0  0  0  0  0  0  0  0  0  0  0
   -1.9935   -2.2485   -0.2421 C   0  0  0  0  0  0  0  0  0  0  0  0
   -3.3050   -1.0577   -0.3762 S   0  0  0  0  0  0  0  0  0  0  0  0
   -2.4195    0.4820   -0.3806 C   0  0  0  0  0  0  0  0  0  0  0  0
   -3.1941    1.6203   -0.6776 C   0  0  0  0  0  0  0  0  0  0  0  0
   -2.6306    2.8919   -0.6918 C   0  0  0  0  0  0  0  0  0  0  0  0
   -1.2774    3.0474   -0.4043 C   0  0  0  0  0  0  0  0  0  0  0  0
   -0.6242    4.4073   -0.4285 C   0  0  0  0  0  0  0  0  0  0  0  0
    0.1608    4.6321    0.6618 F   0  0  0  0  0  0  0  0  0  0  0  0
    0.1806    4.5783   -1.5128 F   0  0  0  0  0  0  0  0  0  0  0  0
   -1.5165    5.4369   -0.4599 F   0  0  0  0  0  0  0  0  0  0  0  0
   -0.5082    1.9025   -0.1123 C   0  0  0  0  0  0  0  0  0  0  0  0
   -1.0473    0.5941   -0.0821 C   0  0  0  0  0  0  0  0  0  0  0  0
    3.1951    1.2423    2.0243 H   0  0  0  0  0  0  0  0  0  0  0  0
    4.6544    1.4694    1.3530 H   0  0  0  0  0  0  0  0  0  0  0  0
    4.3148    0.0130   -0.3855 H   0  0  0  0  0  0  0  0  0  0  0  0
    3.8103   -0.8024    1.0937 H   0  0  0  0  0  0  0  0  0  0  0  0
    2.2232   -1.0780   -0.8322 H   0  0  0  0  0  0  0  0  0  0  0  0
    1.9760    0.6445   -0.8991 H   0  0  0  0  0  0  0  0  0  0  0  0
    1.3170   -1.1064    1.5548 H   0  0  0  0  0  0  0  0  0  0  0  0
    1.0327    0.5741    1.4870 H   0  0  0  0  0  0  0  0  0  0  0  0
    1.3114   -2.8236    0.3153 H   0  0  0  0  0  0  0  0  0  0  0  0
    0.6052   -5.1134    0.0302 H   0  0  0  0  0  0  0  0  0  0  0  0
   -1.7688   -5.6569   -0.4472 H   0  0  0  0  0  0  0  0  0  0  0  0
   -3.4195   -3.8414   -0.6236 H   0  0  0  0  0  0  0  0  0  0  0  0
   -4.2549    1.5170   -0.9013 H   0  0  0  0  0  0  0  0  0  0  0  0
   -3.2537    3.7526   -0.9284 H   0  0  0  0  0  0  0  0  0  0  0  0
    0.5489    2.0762    0.0777 H   0  0  0  0  0  0  0  0  0  0  0  0
  1  2  1  0
  2  3  1  0
  3  4  1  0
  4  5  1  0
  5  6  1  0
  6  7  2  0
  7  8  1  0
  8  9  2  0
  9 10  1  0
 10 11  2  0
 11 12  1  0
 12 13  1  0
 13 14  2  0
 14 15  1  0
 15 16  2  0
 16 17  1  0
 17 18  1  0
 17 19  1  0
 17 20  1  0
 16 21  1  0
 21 22  2  0
 22  5  1  0
 11  6  1  0
 22 13  1  0
  1 23  1  0
  1 24  1  0
  2 25  1  0
  2 26  1  0
  3 27  1  0
  3 28  1  0
  4 29  1  0
  4 30  1  0
  7 31  1  0
  8 32  1  0
  9 33  1  0
 10 34  1  0
 14 35  1  0
 15 36  1  0
 21 37  1  0
M  END
$$$$
