
     RDKit          3D

 45 44  0  0  0  0  0  0  0  0999 V2000
    4.5344   -3.9968    2.0787 C   0  0  0  0  0  0  0  0  0  0  0  0
    4.5903   -2.8713    1.0575 C   0  0  0  0  0  0  0  0  0  0  0  0
    4.6375   -1.5015    1.7381 C   0  0  0  0  0  0  0  0  0  0  0  0
    4.7474   -0.3525    0.7358 C   0  0  0  0  0  0  0  0  0  0  0  0
    3.5780   -0.2295   -0.1021 N   0  0  0  0  0  0  0  0  0  0  0  0
    2.4382    0.3903    0.3086 C   0  0  0  0  0  0  0  0  0  0  0  0
    2.2908    0.9808    1.3669 O   0  0  0  0  0  0  0  0  0  0  0  0
    1.4892    0.2412   -0.6462 O   0  0  0  0  0  0  0  0  0  0  0  0
    0.2240    0.8301   -0.3122 C   0  0  0  0  0  0  0  0  0  0  0  0
   -0.7271    0.7343   -1.5214 C   0  0  0  0  0  0  0  0  0  0  0  0
   -0.1810    1.5304   -2.7202 C   0  0  0  0  0  0  0  0  0  0  0  0
   -1.0114    1.3338   -3.9827 C   0  0  0  0  0  0  0  0  0  0  0  0
   -2.0633    1.1927   -1.1676 N   0  0  0  0  0  0  0  0  0  0  0  0
   -2.9365    0.4210   -0.4634 C   0  0  0  0  0  0  0  0  0  0  0  0
   -2.7613   -0.7497   -0.1659 O   0  0  0  0  0  0  0  0  0  0  0  0
   -4.0148    1.1705   -0.1339 O   0  0  0  0  0  0  0  0  0  0  0  0
   -5.0368    0.5040    0.6303 C   0  0  0  0  0  0  0  0  0  0  0  0
   -4.6755    0.5446    2.1110 C   0  0  0  0  0  0  0  0  0  0  0  0
   -6.3438    1.2447    0.3742 C   0  0  0  0  0  0  0  0  0  0  0  0
    5.4160   -3.9823    2.7274 H   0  0  0  0  0  0  0  0  0  0  0  0
    4.5014   -4.9665    1.5724 H   0  0  0  0  0  0  0  0  0  0  0  0
    3.6427   -3.9113    2.7079 H   0  0  0  0  0  0  0  0  0  0  0  0
    3.7123   -2.9406    0.4054 H   0  0  0  0  0  0  0  0  0  0  0  0
    5.4761   -3.0033    0.4254 H   0  0  0  0  0  0  0  0  0  0  0  0
    3.7449   -1.3709    2.3619 H   0  0  0  0  0  0  0  0  0  0  0  0
    5.5053   -1.4625    2.4078 H   0  0  0  0  0  0  0  0  0  0  0  0
    4.8860    0.5894    1.2783 H   0  0  0  0  0  0  0  0  0  0  0  0
    5.6103   -0.4935    0.0767 H   0  0  0  0  0  0  0  0  0  0  0  0
    3.5078   -0.7564   -0.9610 H   0  0  0  0  0  0  0  0  0  0  0  0
   -0.1981    0.2904    0.5442 H   0  0  0  0  0  0  0  0  0  0  0  0
    0.3596    1.8822   -0.0303 H   0  0  0  0  0  0  0  0  0  0  0  0
   -0.7961   -0.3220   -1.8132 H   0  0  0  0  0  0  0  0  0  0  0  0
   -0.1498    2.6001   -2.4786 H   0  0  0  0  0  0  0  0  0  0  0  0
    0.8476    1.2206   -2.9383 H   0  0  0  0  0  0  0  0  0  0  0  0
   -0.5605    1.8796   -4.8176 H   0  0  0  0  0  0  0  0  0  0  0  0
   -1.0612    0.2754   -4.2575 H   0  0  0  0  0  0  0  0  0  0  0  0
   -2.0324    1.7055   -3.8532 H   0  0  0  0  0  0  0  0  0  0  0  0
   -2.2937    2.1764   -1.2016 H   0  0  0  0  0  0  0  0  0  0  0  0
   -5.1547   -0.5332    0.2933 H   0  0  0  0  0  0  0  0  0  0  0  0
   -3.7382    0.0110    2.2992 H   0  0  0  0  0  0  0  0  0  0  0  0
   -4.5219    1.5757    2.4482 H   0  0  0  0  0  0  0  0  0  0  0  0
   -5.4597    0.0881    2.7226 H   0  0  0  0  0  0  0  0  0  0  0  0
   -6.2625    2.2985    0.6629 H   0  0  0  0  0  0  0  0  0  0  0  0
   -6.5864    1.2295   -0.6939 H   0  0  0  0  0  0  0  0  0  0  0  0
   -7.1729    0.7918    0.9263 H   0  0  0  0  0  0  0  0  0  0  0  0
  1  2  1  0
  2  3  1  0
  3  4  1  0
  4  5  1  0
  5  6  1  0
  6  7  2  0
  6  8  1  0
  8  9  1  0
  9 10  1  0
 10 11  1  0
 11 12  1  0
 10 13  1  0
 13 14  1  0
 14 15  2  0
 14 16  1  0
 16 17  1  0
 17 18  1  0
 17 19  1  0
  1 20  1  0
  1 21  1  0
  1 22  1  0
  2 23  1  0
  2 24  1  0
  3 25  1  0
  3 26  1  0
  4 27  1  0
  4 28  1  0
  5 29  1  0
  9 30  1  0
  9 31  1  0
 10 32  1  0
 11 33  1  0
 11 34  1  0
 12 35  1  0
 12 36  1  0
 12 37  1  0
 13 38  1  0
 17 39  1  0
 18 40  1  0
 18 41  1  0
 18 42  1  0
 19 43  1  0
 19 44  1  0
 19 45  1  0
M  END
$$$$
