
     RDKit          3D

 49 52  0  0  0  0  0  0  0  0999 V2000
   -3.8033   -0.8882    2.1490 C   0  0  0  0  0  0  0  0  0  0  0  0
   -3.9849    0.1217    1.0336 C   0  0  0  0  0  0  0  0  0  0  0  0
   -3.0969    0.3497    0.1093 N   0  0  0  0  0  0  0  0  0  0  0  0
   -1.9115   -0.3169    0.1456 N   0  0  0  0  0  0  0  0  0  0  0  0
   -0.9591   -0.1241   -0.8453 C   0  0  0  0  0  0  0  0  0  0  0  0
   -1.0923    0.5981   -1.8278 O   0  0  0  0  0  0  0  0  0  0  0  0
    0.2486   -0.9118   -0.6073 C   0  0  0  0  0  0  0  0  0  0  0  0
    0.3481   -1.7962    0.4330 N   0  0  0  0  0  0  0  0  0  0  0  0
    1.5498   -2.3413    0.3960 N   0  0  0  0  0  0  0  0  0  0  0  0
    2.2308   -1.8639   -0.6900 N   0  0  0  0  0  0  0  0  0  0  0  0
    3.5078   -2.3794   -1.0302 C   0  0  0  0  0  0  0  0  0  0  0  0
    4.1006   -2.0642   -2.1816 N   0  0  0  0  0  0  0  0  0  0  0  0
    5.2940   -2.7834   -2.1599 O   0  0  0  0  0  0  0  0  0  0  0  0
    5.4010   -3.5475   -1.0038 N   0  0  0  0  0  0  0  0  0  0  0  0
    4.2971   -3.2921   -0.3035 C   0  0  0  0  0  0  0  0  0  0  0  0
    4.0203   -3.8312    0.8983 N   0  0  0  0  0  0  0  0  0  0  0  0
    1.4428   -0.9009   -1.3132 C   0  0  0  0  0  0  0  0  0  0  0  0
    1.8637   -0.0199   -2.4347 C   0  0  0  0  0  0  0  0  0  0  0  0
    2.1501    1.2751   -1.8828 O   0  0  0  0  0  0  0  0  0  0  0  0
    3.3976    1.4004   -1.3363 C   0  0  0  0  0  0  0  0  0  0  0  0
    4.5660    1.2184   -2.0769 C   0  0  0  0  0  0  0  0  0  0  0  0
    5.8067    1.3700   -1.4565 C   0  0  0  0  0  0  0  0  0  0  0  0
    5.8636    1.7291   -0.1141 C   0  0  0  0  0  0  0  0  0  0  0  0
    7.0557    1.8743    0.4793 F   0  0  0  0  0  0  0  0  0  0  0  0
    4.7025    1.9497    0.6189 C   0  0  0  0  0  0  0  0  0  0  0  0
    3.4625    1.7936    0.0019 C   0  0  0  0  0  0  0  0  0  0  0  0
   -5.2586    0.9068    0.9902 C   0  0  0  0  0  0  0  0  0  0  0  0
   -5.7157    1.3897   -0.2456 C   0  0  0  0  0  0  0  0  0  0  0  0
   -6.8957    2.1349   -0.3207 C   0  0  0  0  0  0  0  0  0  0  0  0
   -7.6165    2.4057    0.8407 C   0  0  0  0  0  0  0  0  0  0  0  0
   -9.0684    3.3240    0.7529 Cl  0  0  0  0  0  0  0  0  0  0  0  0
   -7.1647    1.9419    2.0755 C   0  0  0  0  0  0  0  0  0  0  0  0
   -5.9835    1.1965    2.1531 C   0  0  0  0  0  0  0  0  0  0  0  0
   -3.4287   -1.8320    1.7419 H   0  0  0  0  0  0  0  0  0  0  0  0
   -4.7418   -1.1206    2.6590 H   0  0  0  0  0  0  0  0  0  0  0  0
   -3.0879   -0.4956    2.8759 H   0  0  0  0  0  0  0  0  0  0  0  0
   -1.6832   -0.9334    0.9175 H   0  0  0  0  0  0  0  0  0  0  0  0
    3.0885   -3.7684    1.3051 H   0  0  0  0  0  0  0  0  0  0  0  0
    4.5740   -4.6146    1.2273 H   0  0  0  0  0  0  0  0  0  0  0  0
    1.0251    0.1132   -3.1266 H   0  0  0  0  0  0  0  0  0  0  0  0
    2.6731   -0.3980   -3.0587 H   0  0  0  0  0  0  0  0  0  0  0  0
    4.5249    0.9661   -3.1322 H   0  0  0  0  0  0  0  0  0  0  0  0
    6.7280    1.2169   -2.0094 H   0  0  0  0  0  0  0  0  0  0  0  0
    4.7723    2.2417    1.6608 H   0  0  0  0  0  0  0  0  0  0  0  0
    2.5495    1.9709    0.5637 H   0  0  0  0  0  0  0  0  0  0  0  0
   -5.1539    1.1910   -1.1579 H   0  0  0  0  0  0  0  0  0  0  0  0
   -7.2377    2.5052   -1.2834 H   0  0  0  0  0  0  0  0  0  0  0  0
   -7.7215    2.1656    2.9825 H   0  0  0  0  0  0  0  0  0  0  0  0
   -5.6392    0.8736    3.1312 H   0  0  0  0  0  0  0  0  0  0  0  0
  1  2  1  0
  2  3  2  3
  3  4  1  0
  4  5  1  0
  5  6  2  0
  5  7  1  0
  7  8  1  0
  8  9  2  0
  9 10  1  0
 10 11  1  0
 11 12  2  0
 12 13  1  0
 13 14  1  0
 14 15  2  0
 15 16  1  0
 10 17  1  0
 17 18  1  0
 18 19  1  0
 19 20  1  0
 20 21  2  0
 21 22  1  0
 22 23  2  0
 23 24  1  0
 23 25  1  0
 25 26  2  0
  2 27  1  0
 27 28  2  0
 28 29  1  0
 29 30  2  0
 30 31  1  0
 30 32  1  0
 32 33  2  0
 17  7  2  0
 26 20  1  0
 33 27  1  0
 15 11  1  0
  1 34  1  0
  1 35  1  0
  1 36  1  0
  4 37  1  0
 16 38  1  0
 16 39  1  0
 18 40  1  0
 18 41  1  0
 21 42  1  0
 22 43  1  0
 25 44  1  0
 26 45  1  0
 28 46  1  0
 29 47  1  0
 32 48  1  0
 33 49  1  0
M  END
$$$$
