
     RDKit          3D

 58 63  0  0  0  0  0  0  0  0999 V2000
    7.0744    1.5111    3.0892 C   0  0  0  0  0  0  0  0  0  0  0  0
    6.3225    1.1305    1.8603 C   0  0  0  0  0  0  0  0  0  0  0  0
    6.3435    1.7329    0.6192 C   0  0  0  0  0  0  0  0  0  0  0  0
    5.4925    1.0727   -0.3139 C   0  0  0  0  0  0  0  0  0  0  0  0
    4.8181    0.0114    0.2555 C   0  0  0  0  0  0  0  0  0  0  0  0
    3.9041   -0.9061   -0.4022 C   0  0  0  0  0  0  0  0  0  0  0  0
    4.2892   -1.6318   -1.3185 O   0  0  0  0  0  0  0  0  0  0  0  0
    2.5603   -0.9000    0.0034 N   0  0  0  0  0  0  0  0  0  0  0  0
    1.9974    0.0875    0.9201 C   0  0  0  0  0  0  0  0  0  0  0  0
    0.4686    0.0671    0.9452 C   0  0  0  0  0  0  0  0  0  0  0  0
   -0.1213    0.1014   -0.4879 C   0  0  0  0  0  0  0  0  0  0  0  0
    0.5278   -1.0108   -1.3734 C   0  0  0  0  0  0  0  0  0  0  0  0
    1.6200   -1.7964   -0.6508 C   0  0  0  0  0  0  0  0  0  0  0  0
    0.3166    1.3399   -1.1159 O   0  0  0  0  0  0  0  0  0  0  0  0
   -0.3991    2.4737   -0.8726 C   0  0  0  0  0  0  0  0  0  0  0  0
    0.1853    3.6680   -1.2941 C   0  0  0  0  0  0  0  0  0  0  0  0
   -0.4614    4.8849   -1.0639 C   0  0  0  0  0  0  0  0  0  0  0  0
   -1.6948    4.9036   -0.4124 C   0  0  0  0  0  0  0  0  0  0  0  0
   -2.4829    6.4043   -0.1226 Cl  0  0  0  0  0  0  0  0  0  0  0  0
   -2.2915    3.7164    0.0026 C   0  0  0  0  0  0  0  0  0  0  0  0
   -1.6393    2.5041   -0.2439 C   0  0  0  0  0  0  0  0  0  0  0  0
   -2.2481    1.2321    0.1653 C   0  0  0  0  0  0  0  0  0  0  0  0
   -3.1493    1.2274    0.9994 O   0  0  0  0  0  0  0  0  0  0  0  0
   -1.6710   -0.0174   -0.4872 C   0  0  0  0  0  0  0  0  0  0  0  0
   -2.2131   -1.2847    0.1588 C   0  0  0  0  0  0  0  0  0  0  0  0
   -3.3256   -1.5706   -0.7921 C   0  0  0  0  0  0  0  0  0  0  0  0
   -4.3780   -2.5712   -0.4952 C   0  0  0  0  0  0  0  0  0  0  0  0
   -5.4182   -2.7529   -1.4155 C   0  0  0  0  0  0  0  0  0  0  0  0
   -6.4233   -3.6894   -1.1668 C   0  0  0  0  0  0  0  0  0  0  0  0
   -6.3939   -4.4492    0.0009 C   0  0  0  0  0  0  0  0  0  0  0  0
   -5.3603   -4.2748    0.9203 C   0  0  0  0  0  0  0  0  0  0  0  0
   -4.3519   -3.3388    0.6749 C   0  0  0  0  0  0  0  0  0  0  0  0
   -3.2749   -0.9046   -1.9020 N   0  0  0  0  0  0  0  0  0  0  0  0
   -2.1545   -0.0483   -1.8401 O   0  0  0  0  0  0  0  0  0  0  0  0
    5.2857   -0.2316    1.8821 S   0  0  0  0  0  0  0  0  0  0  0  0
    7.6955    0.6803    3.4403 H   0  0  0  0  0  0  0  0  0  0  0  0
    7.7350    2.3628    2.8949 H   0  0  0  0  0  0  0  0  0  0  0  0
    6.3851    1.7966    3.8910 H   0  0  0  0  0  0  0  0  0  0  0  0
    6.9525    2.5978    0.3835 H   0  0  0  0  0  0  0  0  0  0  0  0
    5.3738    1.3611   -1.3518 H   0  0  0  0  0  0  0  0  0  0  0  0
    2.3684   -0.1263    1.9273 H   0  0  0  0  0  0  0  0  0  0  0  0
    2.3593    1.0813    0.6322 H   0  0  0  0  0  0  0  0  0  0  0  0
    0.1300   -0.8314    1.4751 H   0  0  0  0  0  0  0  0  0  0  0  0
    0.1321    0.9251    1.5382 H   0  0  0  0  0  0  0  0  0  0  0  0
   -0.2142   -1.7327   -1.7319 H   0  0  0  0  0  0  0  0  0  0  0  0
    0.9645   -0.5605   -2.2752 H   0  0  0  0  0  0  0  0  0  0  0  0
    1.1843   -2.4397    0.1232 H   0  0  0  0  0  0  0  0  0  0  0  0
    2.1222   -2.4622   -1.3599 H   0  0  0  0  0  0  0  0  0  0  0  0
    1.1485    3.6538   -1.7993 H   0  0  0  0  0  0  0  0  0  0  0  0
    0.0016    5.8118   -1.3934 H   0  0  0  0  0  0  0  0  0  0  0  0
   -3.2573    3.7289    0.5023 H   0  0  0  0  0  0  0  0  0  0  0  0
   -2.5572   -1.1498    1.1866 H   0  0  0  0  0  0  0  0  0  0  0  0
   -1.5125   -2.1241    0.1223 H   0  0  0  0  0  0  0  0  0  0  0  0
   -5.4549   -2.1653   -2.3309 H   0  0  0  0  0  0  0  0  0  0  0  0
   -7.2286   -3.8231   -1.8849 H   0  0  0  0  0  0  0  0  0  0  0  0
   -7.1784   -5.1765    0.1948 H   0  0  0  0  0  0  0  0  0  0  0  0
   -5.3413   -4.8685    1.8312 H   0  0  0  0  0  0  0  0  0  0  0  0
   -3.5620   -3.2296    1.4113 H   0  0  0  0  0  0  0  0  0  0  0  0
  1  2  1  0
  2  3  2  0
  3  4  1  0
  4  5  2  0
  5  6  1  0
  6  7  2  0
  6  8  1  0
  8  9  1  0
  9 10  1  0
 10 11  1  0
 11 12  1  0
 12 13  1  0
 11 14  1  0
 14 15  1  0
 15 16  2  0
 16 17  1  0
 17 18  2  0
 18 19  1  0
 18 20  1  0
 20 21  2  0
 21 22  1  0
 22 23  2  0
 22 24  1  0
 24 25  1  0
 25 26  1  0
 26 27  1  0
 27 28  2  0
 28 29  1  0
 29 30  2  0
 30 31  1  0
 31 32  2  0
 26 33  2  0
 33 34  1  0
  5 35  1  0
 35  2  1  0
 13  8  1  0
 21 15  1  0
 34 24  1  0
 24 11  1  0
 32 27  1  0
  1 36  1  0
  1 37  1  0
  1 38  1  0
  3 39  1  0
  4 40  1  0
  9 41  1  0
  9 42  1  0
 10 43  1  0
 10 44  1  0
 12 45  1  0
 12 46  1  0
 13 47  1  0
 13 48  1  0
 16 49  1  0
 17 50  1  0
 20 51  1  0
 25 52  1  0
 25 53  1  0
 28 54  1  0
 29 55  1  0
 30 56  1  0
 31 57  1  0
 32 58  1  0
M  END
$$$$
