
     RDKit          3D

 33 34  0  0  0  0  0  0  0  0999 V2000
   -4.7299    1.4146   -0.4702 C   0  0  0  0  0  0  0  0  0  0  0  0
   -3.6991    0.3243   -0.4162 C   0  0  0  0  0  0  0  0  0  0  0  0
   -4.0691   -0.9787   -0.0647 C   0  0  0  0  0  0  0  0  0  0  0  0
   -3.1105   -1.9886    0.0071 C   0  0  0  0  0  0  0  0  0  0  0  0
   -1.7744   -1.7001   -0.2577 C   0  0  0  0  0  0  0  0  0  0  0  0
   -0.9054   -2.7561   -0.1745 O   0  0  0  0  0  0  0  0  0  0  0  0
   -1.3733   -0.3951   -0.5819 C   0  0  0  0  0  0  0  0  0  0  0  0
    0.0702   -0.1061   -0.8323 C   0  0  0  0  0  0  0  0  0  0  0  0
    0.8328   -1.0585   -1.0034 O   0  0  0  0  0  0  0  0  0  0  0  0
    0.5394    1.3279   -0.8836 C   0  0  0  0  0  0  0  0  0  0  0  0
    2.0201    1.5595   -0.6926 C   0  0  0  0  0  0  0  0  0  0  0  0
    2.5926    2.4828   -1.2748 O   0  0  0  0  0  0  0  0  0  0  0  0
    2.8259    0.7055    0.2158 C   0  0  0  0  0  0  0  0  0  0  0  0
    4.0359    0.2166   -0.3029 C   0  0  0  0  0  0  0  0  0  0  0  0
    4.8558   -0.6057    0.4706 C   0  0  0  0  0  0  0  0  0  0  0  0
    4.4791   -0.9363    1.7698 C   0  0  0  0  0  0  0  0  0  0  0  0
    3.2886   -0.4352    2.2997 C   0  0  0  0  0  0  0  0  0  0  0  0
    2.4615    0.3918    1.5301 C   0  0  0  0  0  0  0  0  0  0  0  0
    1.0518    1.0243    2.3000 Cl  0  0  0  0  0  0  0  0  0  0  0  0
   -2.3470    0.6123   -0.6635 C   0  0  0  0  0  0  0  0  0  0  0  0
   -4.4675    2.1617   -1.2267 H   0  0  0  0  0  0  0  0  0  0  0  0
   -4.8042    1.9070    0.5042 H   0  0  0  0  0  0  0  0  0  0  0  0
   -5.7121    1.0120   -0.7391 H   0  0  0  0  0  0  0  0  0  0  0  0
   -5.1085   -1.2189    0.1500 H   0  0  0  0  0  0  0  0  0  0  0  0
   -3.4037   -3.0022    0.2683 H   0  0  0  0  0  0  0  0  0  0  0  0
   -0.0259   -2.4495   -0.4899 H   0  0  0  0  0  0  0  0  0  0  0  0
    0.2849    1.6977   -1.8848 H   0  0  0  0  0  0  0  0  0  0  0  0
    0.0164    1.9433   -0.1469 H   0  0  0  0  0  0  0  0  0  0  0  0
    4.3372    0.4708   -1.3179 H   0  0  0  0  0  0  0  0  0  0  0  0
    5.7868   -0.9875    0.0577 H   0  0  0  0  0  0  0  0  0  0  0  0
    5.1163   -1.5776    2.3745 H   0  0  0  0  0  0  0  0  0  0  0  0
    3.0159   -0.6879    3.3221 H   0  0  0  0  0  0  0  0  0  0  0  0
   -2.0807    1.6319   -0.9295 H   0  0  0  0  0  0  0  0  0  0  0  0
  1  2  1  0
  2  3  2  0
  3  4  1  0
  4  5  2  0
  5  6  1  0
  5  7  1  0
  7  8  1  0
  8  9  2  0
  8 10  1  0
 10 11  1  0
 11 12  2  0
 11 13  1  0
 13 14  2  0
 14 15  1  0
 15 16  2  0
 16 17  1  0
 17 18  2  0
 18 19  1  0
  7 20  2  0
 20  2  1  0
 18 13  1  0
  1 21  1  0
  1 22  1  0
  1 23  1  0
  3 24  1  0
  4 25  1  0
  6 26  1  0
 10 27  1  0
 10 28  1  0
 14 29  1  0
 15 30  1  0
 16 31  1  0
 17 32  1  0
 20 33  1  0
M  END
$$$$
