
     RDKit          3D

 36 37  0  0  0  0  0  0  0  0999 V2000
   -2.5293   -1.1230    2.3665 O   0  0  0  0  0  0  0  0  0  0  0  0
   -1.4241   -0.6332    2.1481 C   0  0  0  0  0  0  0  0  0  0  0  0
   -0.2376   -0.8551    3.0936 C   0  0  0  0  0  0  0  0  0  0  0  0
    0.9295   -1.3985    2.4721 O   0  0  0  0  0  0  0  0  0  0  0  0
    1.7135   -0.4991    1.8321 C   0  0  0  0  0  0  0  0  0  0  0  0
    1.5059    0.6987    1.7399 O   0  0  0  0  0  0  0  0  0  0  0  0
    2.8550   -1.2094    1.2240 C   0  0  0  0  0  0  0  0  0  0  0  0
    3.6279   -2.0472    2.0460 C   0  0  0  0  0  0  0  0  0  0  0  0
    4.7336   -2.7133    1.5231 C   0  0  0  0  0  0  0  0  0  0  0  0
    5.0710   -2.5428    0.1819 C   0  0  0  0  0  0  0  0  0  0  0  0
    4.3024   -1.7108   -0.6421 C   0  0  0  0  0  0  0  0  0  0  0  0
    4.7977   -1.5686   -2.2943 Cl  0  0  0  0  0  0  0  0  0  0  0  0
    3.1841   -1.0354   -0.1285 C   0  0  0  0  0  0  0  0  0  0  0  0
    2.2050   -0.0455   -1.1644 Cl  0  0  0  0  0  0  0  0  0  0  0  0
   -1.1567    0.1787    1.0664 N   0  0  0  0  0  0  0  0  0  0  0  0
   -2.2063    0.5877    0.1513 C   0  0  0  0  0  0  0  0  0  0  0  0
   -1.6483    1.0690   -1.1901 C   0  0  0  0  0  0  0  0  0  0  0  0
   -2.6934    1.5082   -2.0959 N   0  0  0  0  0  0  0  0  0  0  0  0
   -3.2440    2.7651   -2.0649 C   0  0  0  0  0  0  0  0  0  0  0  0
   -2.7664    3.6716   -1.1672 O   0  0  0  0  0  0  0  0  0  0  0  0
   -4.2296    2.9628   -2.9475 C   0  0  0  0  0  0  0  0  0  0  0  0
   -4.5333    1.5297   -3.8823 S   0  0  0  0  0  0  0  0  0  0  0  0
   -3.2700    0.6392   -3.0081 C   0  0  0  0  0  0  0  0  0  0  0  0
   -3.0046   -0.5330   -3.2126 O   0  0  0  0  0  0  0  0  0  0  0  0
   -0.0122    0.0805    3.6198 H   0  0  0  0  0  0  0  0  0  0  0  0
   -0.5519   -1.5772    3.8552 H   0  0  0  0  0  0  0  0  0  0  0  0
    3.3730   -2.1782    3.0963 H   0  0  0  0  0  0  0  0  0  0  0  0
    5.3329   -3.3625    2.1582 H   0  0  0  0  0  0  0  0  0  0  0  0
    5.9365   -3.0655   -0.2214 H   0  0  0  0  0  0  0  0  0  0  0  0
   -0.3213    0.7618    1.1267 H   0  0  0  0  0  0  0  0  0  0  0  0
   -2.7718    1.3852    0.6463 H   0  0  0  0  0  0  0  0  0  0  0  0
   -2.8964   -0.2503   -0.0013 H   0  0  0  0  0  0  0  0  0  0  0  0
   -0.9287    1.8839   -1.0446 H   0  0  0  0  0  0  0  0  0  0  0  0
   -1.0958    0.2479   -1.6633 H   0  0  0  0  0  0  0  0  0  0  0  0
   -3.2525    4.5053   -1.2865 H   0  0  0  0  0  0  0  0  0  0  0  0
   -4.7936    3.8732   -3.0855 H   0  0  0  0  0  0  0  0  0  0  0  0
  1  2  2  0
  2  3  1  0
  3  4  1  0
  4  5  1  0
  5  6  2  0
  5  7  1  0
  7  8  2  0
  8  9  1  0
  9 10  2  0
 10 11  1  0
 11 12  1  0
 11 13  2  0
 13 14  1  0
  2 15  1  0
 15 16  1  0
 16 17  1  0
 17 18  1  0
 18 19  1  0
 19 20  1  0
 19 21  2  0
 21 22  1  0
 22 23  1  0
 23 24  2  0
 13  7  1  0
 23 18  1  0
  3 25  1  0
  3 26  1  0
  8 27  1  0
  9 28  1  0
 10 29  1  0
 15 30  1  0
 16 31  1  0
 16 32  1  0
 17 33  1  0
 17 34  1  0
 20 35  1  0
 21 36  1  0
M  END
$$$$
