
     RDKit          3D

 41 42  0  0  0  0  0  0  0  0999 V2000
    3.2429    2.1100   -1.2958 C   0  0  0  0  0  0  0  0  0  0  0  0
    2.1618    3.0459   -0.7891 C   0  0  0  0  0  0  0  0  0  0  0  0
    1.1051    2.2965   -0.1685 O   0  0  0  0  0  0  0  0  0  0  0  0
    1.3008    1.9725    1.1541 C   0  0  0  0  0  0  0  0  0  0  0  0
    2.2735    2.3349    1.8057 O   0  0  0  0  0  0  0  0  0  0  0  0
    0.1215    1.1071    1.6889 C   0  0  0  0  0  0  0  0  0  0  0  0
   -0.7928    0.7411    0.5887 N   0  0  0  0  0  0  0  0  0  0  0  0
   -1.9197   -0.0161    0.7669 C   0  0  0  0  0  0  0  0  0  0  0  0
   -2.2466   -0.4662    1.8579 O   0  0  0  0  0  0  0  0  0  0  0  0
   -2.7092   -0.3381   -0.4523 C   0  0  0  0  0  0  0  0  0  0  0  0
   -2.6956    0.4850   -1.5874 C   0  0  0  0  0  0  0  0  0  0  0  0
   -3.4548    0.1419   -2.7089 C   0  0  0  0  0  0  0  0  0  0  0  0
   -4.2320   -1.0166   -2.6978 C   0  0  0  0  0  0  0  0  0  0  0  0
   -4.2552   -1.8260   -1.5628 C   0  0  0  0  0  0  0  0  0  0  0  0
   -5.2205   -3.2501   -1.5523 Cl  0  0  0  0  0  0  0  0  0  0  0  0
   -3.5029   -1.4918   -0.4391 C   0  0  0  0  0  0  0  0  0  0  0  0
    0.5979   -0.1642    2.2783 N   0  0  0  0  0  0  0  0  0  0  0  0
    1.3397   -1.0129    1.5272 C   0  0  0  0  0  0  0  0  0  0  0  0
    1.9462   -0.7229    0.3954 N   0  0  0  0  0  0  0  0  0  0  0  0
    2.5935   -1.8043   -0.1618 N   0  0  0  0  0  0  0  0  0  0  0  0
    2.4664   -2.8854    0.5765 C   0  0  0  0  0  0  0  0  0  0  0  0
    3.0571   -4.2086    0.2578 C   0  0  0  0  0  0  0  0  0  0  0  0
    1.5240   -2.6608    1.9925 S   0  0  0  0  0  0  0  0  0  0  0  0
   -0.5131    2.0735    2.7432 C   0  0  0  0  0  0  0  0  0  0  0  0
   -1.5641    1.5172    3.3935 F   0  0  0  0  0  0  0  0  0  0  0  0
    0.3569    2.4552    3.7084 F   0  0  0  0  0  0  0  0  0  0  0  0
   -0.9785    3.2067    2.1540 F   0  0  0  0  0  0  0  0  0  0  0  0
    3.7162    1.5712   -0.4691 H   0  0  0  0  0  0  0  0  0  0  0  0
    2.8163    1.3558   -1.9653 H   0  0  0  0  0  0  0  0  0  0  0  0
    4.0149    2.6658   -1.8355 H   0  0  0  0  0  0  0  0  0  0  0  0
    2.5682    3.8015   -0.1073 H   0  0  0  0  0  0  0  0  0  0  0  0
    1.7163    3.5826   -1.6332 H   0  0  0  0  0  0  0  0  0  0  0  0
   -0.4123    0.8813   -0.3399 H   0  0  0  0  0  0  0  0  0  0  0  0
   -2.1224    1.4078   -1.6111 H   0  0  0  0  0  0  0  0  0  0  0  0
   -3.4473    0.7808   -3.5893 H   0  0  0  0  0  0  0  0  0  0  0  0
   -4.8223   -1.2794   -3.5724 H   0  0  0  0  0  0  0  0  0  0  0  0
   -3.5302   -2.1268    0.4438 H   0  0  0  0  0  0  0  0  0  0  0  0
   -0.1405   -0.6075    2.8264 H   0  0  0  0  0  0  0  0  0  0  0  0
    3.7406   -4.5315    1.0495 H   0  0  0  0  0  0  0  0  0  0  0  0
    3.6246   -4.1597   -0.6771 H   0  0  0  0  0  0  0  0  0  0  0  0
    2.2757   -4.9656    0.1377 H   0  0  0  0  0  0  0  0  0  0  0  0
  1  2  1  0
  2  3  1  0
  3  4  1  0
  4  5  2  0
  4  6  1  0
  6  7  1  0
  7  8  1  0
  8  9  2  0
  8 10  1  0
 10 11  2  0
 11 12  1  0
 12 13  2  0
 13 14  1  0
 14 15  1  0
 14 16  2  0
  6 17  1  0
 17 18  1  0
 18 19  2  0
 19 20  1  0
 20 21  2  0
 21 22  1  0
 21 23  1  0
  6 24  1  0
 24 25  1  0
 24 26  1  0
 24 27  1  0
 16 10  1  0
 23 18  1  0
  1 28  1  0
  1 29  1  0
  1 30  1  0
  2 31  1  0
  2 32  1  0
  7 33  1  0
 11 34  1  0
 12 35  1  0
 13 36  1  0
 16 37  1  0
 17 38  1  0
 22 39  1  0
 22 40  1  0
 22 41  1  0
M  END
$$$$
