
     RDKit          3D

 53 58  0  0  0  0  0  0  0  0999 V2000
    1.7625    0.2280   -1.4676 O   0  0  0  0  0  0  0  0  0  0  0  0
    1.7213   -0.3728   -0.3933 C   0  0  0  0  0  0  0  0  0  0  0  0
    0.5729   -1.3463   -0.0734 C   0  0  0  0  0  0  0  0  0  0  0  0
   -0.7211   -0.8356   -0.5529 N   0  0  0  0  0  4  0  0  0  0  0  0
   -1.7615   -0.3308    0.2251 C   0  0  0  0  0  0  0  0  0  0  0  0
   -2.7944    0.0779   -0.6100 C   0  0  0  0  0  0  0  0  0  0  0  0
   -4.1700    0.6925   -0.1580 C   0  0  0  0  0  0  0  0  0  0  0  0
   -4.4178    0.9200    1.2043 C   0  0  0  0  0  0  0  0  0  0  0  0
   -5.6376    1.4654    1.6145 C   0  0  0  0  0  0  0  0  0  0  0  0
   -6.6036    1.7788    0.6679 C   0  0  0  0  0  0  0  0  0  0  0  0
   -7.7709    2.3003    1.0621 F   0  0  0  0  0  0  0  0  0  0  0  0
   -6.3730    1.5551   -0.6830 C   0  0  0  0  0  0  0  0  0  0  0  0
   -5.1545    1.0097   -1.0990 C   0  0  0  0  0  0  0  0  0  0  0  0
   -2.3069   -0.1978   -1.8746 N   0  0  0  0  0  0  0  0  0  0  0  0
   -1.0993   -0.7569   -1.8264 C   0  0  0  0  0  0  0  0  0  0  0  0
   -0.5807   -1.1348   -3.1626 C   0  0  0  0  0  0  0  0  0  0  0  0
   -1.5302   -0.3695   -4.1041 C   0  0  0  0  0  0  0  0  0  0  0  0
   -2.7844   -0.0580   -3.2442 C   0  0  0  0  0  0  0  0  0  0  0  0
    2.6960   -0.3205    0.6073 N   0  0  0  0  0  0  0  0  0  0  0  0
    2.3616    0.2546    1.8848 C   0  0  0  0  0  0  0  0  0  0  0  0
    1.2345    1.1025    1.9816 C   0  0  0  0  0  0  0  0  0  0  0  0
    0.8521    1.6824    3.1940 C   0  0  0  0  0  0  0  0  0  0  0  0
    1.5924    1.4335    4.3396 C   0  0  0  0  0  0  0  0  0  0  0  0
    2.7226    0.6237    4.2631 C   0  0  0  0  0  0  0  0  0  0  0  0
    3.1195    0.0465    3.0447 C   0  0  0  0  0  0  0  0  0  0  0  0
    4.5675   -0.9645    3.0761 S   0  0  0  0  0  0  0  0  0  0  0  0
    4.9869   -0.9755    1.3531 C   0  0  0  0  0  0  0  0  0  0  0  0
    6.3020   -1.3640    1.0402 C   0  0  0  0  0  0  0  0  0  0  0  0
    6.7117   -1.5015   -0.2815 C   0  0  0  0  0  0  0  0  0  0  0  0
    5.8041   -1.2643   -1.3014 C   0  0  0  0  0  0  0  0  0  0  0  0
    4.4933   -0.8810   -0.9973 C   0  0  0  0  0  0  0  0  0  0  0  0
    4.0563   -0.7083    0.3329 C   0  0  0  0  0  0  0  0  0  0  0  0
    0.7778   -2.2915   -0.5883 H   0  0  0  0  0  0  0  0  0  0  0  0
    0.4977   -1.5590    0.9968 H   0  0  0  0  0  0  0  0  0  0  0  0
   -1.6363   -0.3326    1.2947 H   0  0  0  0  0  0  0  0  0  0  0  0
   -3.6863    0.6887    1.9729 H   0  0  0  0  0  0  0  0  0  0  0  0
   -5.8436    1.6488    2.6656 H   0  0  0  0  0  0  0  0  0  0  0  0
   -7.1474    1.8058   -1.4030 H   0  0  0  0  0  0  0  0  0  0  0  0
   -5.0171    0.8404   -2.1590 H   0  0  0  0  0  0  0  0  0  0  0  0
    0.4598   -0.8351   -3.2673 H   0  0  0  0  0  0  0  0  0  0  0  0
   -0.6992   -2.2177   -3.2430 H   0  0  0  0  0  0  0  0  0  0  0  0
   -1.7673   -0.9248   -5.0154 H   0  0  0  0  0  0  0  0  0  0  0  0
   -1.0581    0.5756   -4.3981 H   0  0  0  0  0  0  0  0  0  0  0  0
   -3.5750   -0.7937   -3.4183 H   0  0  0  0  0  0  0  0  0  0  0  0
   -3.1451    0.9559   -3.4312 H   0  0  0  0  0  0  0  0  0  0  0  0
    0.6641    1.3873    1.1004 H   0  0  0  0  0  0  0  0  0  0  0  0
   -0.0042    2.3517    3.2393 H   0  0  0  0  0  0  0  0  0  0  0  0
    1.3113    1.8865    5.2880 H   0  0  0  0  0  0  0  0  0  0  0  0
    3.3051    0.4533    5.1682 H   0  0  0  0  0  0  0  0  0  0  0  0
    7.0194   -1.5737    1.8326 H   0  0  0  0  0  0  0  0  0  0  0  0
    7.7326   -1.7983   -0.5103 H   0  0  0  0  0  0  0  0  0  0  0  0
    6.1150   -1.3675   -2.3391 H   0  0  0  0  0  0  0  0  0  0  0  0
    3.8453   -0.6890   -1.8474 H   0  0  0  0  0  0  0  0  0  0  0  0
  1  2  2  0
  2  3  1  0
  3  4  1  0
  4  5  1  0
  5  6  2  0
  6  7  1  0
  7  8  2  0
  8  9  1  0
  9 10  2  0
 10 11  1  0
 10 12  1  0
 12 13  2  0
  6 14  1  0
 14 15  1  0
 15 16  1  0
 16 17  1  0
 17 18  1  0
  2 19  1  0
 19 20  1  0
 20 21  2  0
 21 22  1  0
 22 23  2  0
 23 24  1  0
 24 25  2  0
 25 26  1  0
 26 27  1  0
 27 28  2  0
 28 29  1  0
 29 30  2  0
 30 31  1  0
 31 32  2  0
 15  4  2  0
 32 19  1  0
 13  7  1  0
 18 14  1  0
 25 20  1  0
 32 27  1  0
  3 33  1  0
  3 34  1  0
  5 35  1  0
  8 36  1  0
  9 37  1  0
 12 38  1  0
 13 39  1  0
 16 40  1  0
 16 41  1  0
 17 42  1  0
 17 43  1  0
 18 44  1  0
 18 45  1  0
 21 46  1  0
 22 47  1  0
 23 48  1  0
 24 49  1  0
 28 50  1  0
 29 51  1  0
 30 52  1  0
 31 53  1  0
M  CHG  1   4   1
M  END
$$$$
