
     RDKit          3D

 36 37  0  0  0  0  0  0  0  0999 V2000
   -0.6501   -1.4140   -2.8706 O   0  0  0  0  0  0  0  0  0  0  0  0
   -0.4661   -1.1529   -1.6836 C   0  0  0  0  0  0  0  0  0  0  0  0
   -0.1070   -2.2238   -0.6490 C   0  0  0  0  0  0  0  0  0  0  0  0
    1.1799   -2.0517   -0.0503 O   0  0  0  0  0  0  0  0  0  0  0  0
    1.2310   -1.1440    0.9523 C   0  0  0  0  0  0  0  0  0  0  0  0
    0.3075   -0.4705    1.3756 O   0  0  0  0  0  0  0  0  0  0  0  0
    2.6169   -1.0696    1.4443 C   0  0  0  0  0  0  0  0  0  0  0  0
    3.2079   -2.2461    1.9330 C   0  0  0  0  0  0  0  0  0  0  0  0
    4.5060   -2.2163    2.4361 C   0  0  0  0  0  0  0  0  0  0  0  0
    5.2122   -1.0146    2.4531 C   0  0  0  0  0  0  0  0  0  0  0  0
    4.6258    0.1598    1.9633 C   0  0  0  0  0  0  0  0  0  0  0  0
    5.5852    1.5992    2.0175 Cl  0  0  0  0  0  0  0  0  0  0  0  0
    3.3190    0.1436    1.4525 C   0  0  0  0  0  0  0  0  0  0  0  0
    2.6080    1.5858    0.8008 Cl  0  0  0  0  0  0  0  0  0  0  0  0
   -0.5919    0.1222   -1.1736 N   0  0  0  0  0  0  0  0  0  0  0  0
   -1.1421    1.2013   -1.9669 C   0  0  0  0  0  0  0  0  0  0  0  0
   -2.6709    1.1155   -2.1038 C   0  0  0  0  0  0  0  0  0  0  0  0
   -3.3551    1.2665   -0.8266 N   0  0  0  0  0  0  0  0  0  0  0  0
   -3.5955    2.4653   -0.1961 C   0  0  0  0  0  0  0  0  0  0  0  0
   -3.3553    3.6554   -0.8130 O   0  0  0  0  0  0  0  0  0  0  0  0
   -4.0732    2.3604    1.0467 C   0  0  0  0  0  0  0  0  0  0  0  0
   -4.2640    0.7029    1.5165 S   0  0  0  0  0  0  0  0  0  0  0  0
   -3.6195    0.1470   -0.0392 C   0  0  0  0  0  0  0  0  0  0  0  0
   -3.4400   -1.0295   -0.3082 O   0  0  0  0  0  0  0  0  0  0  0  0
   -0.0935   -3.1917   -1.1619 H   0  0  0  0  0  0  0  0  0  0  0  0
   -0.8947   -2.2822    0.1117 H   0  0  0  0  0  0  0  0  0  0  0  0
    2.6553   -3.1841    1.9269 H   0  0  0  0  0  0  0  0  0  0  0  0
    4.9668   -3.1256    2.8167 H   0  0  0  0  0  0  0  0  0  0  0  0
    6.2262   -0.9973    2.8481 H   0  0  0  0  0  0  0  0  0  0  0  0
   -0.5685    0.2283   -0.1583 H   0  0  0  0  0  0  0  0  0  0  0  0
   -0.8441    2.1387   -1.4860 H   0  0  0  0  0  0  0  0  0  0  0  0
   -0.6864    1.1679   -2.9626 H   0  0  0  0  0  0  0  0  0  0  0  0
   -3.0302    1.8793   -2.8006 H   0  0  0  0  0  0  0  0  0  0  0  0
   -2.9512    0.1457   -2.5321 H   0  0  0  0  0  0  0  0  0  0  0  0
   -3.5318    3.5377   -1.7589 H   0  0  0  0  0  0  0  0  0  0  0  0
   -4.3164    3.1914    1.6933 H   0  0  0  0  0  0  0  0  0  0  0  0
  1  2  2  0
  2  3  1  0
  3  4  1  0
  4  5  1  0
  5  6  2  0
  5  7  1  0
  7  8  2  0
  8  9  1  0
  9 10  2  0
 10 11  1  0
 11 12  1  0
 11 13  2  0
 13 14  1  0
  2 15  1  0
 15 16  1  0
 16 17  1  0
 17 18  1  0
 18 19  1  0
 19 20  1  0
 19 21  2  0
 21 22  1  0
 22 23  1  0
 23 24  2  0
 13  7  1  0
 23 18  1  0
  3 25  1  0
  3 26  1  0
  8 27  1  0
  9 28  1  0
 10 29  1  0
 15 30  1  0
 16 31  1  0
 16 32  1  0
 17 33  1  0
 17 34  1  0
 20 35  1  0
 21 36  1  0
M  END
$$$$
