
     RDKit          3D

 53 55  0  0  0  0  0  0  0  0999 V2000
    8.3346    1.5306    0.5875 C   0  0  0  0  0  0  0  0  0  0  0  0
    7.8100    0.6817   -0.4254 O   0  0  0  0  0  0  0  0  0  0  0  0
    6.6933   -0.0411   -0.1073 C   0  0  0  0  0  0  0  0  0  0  0  0
    6.0307   -0.0322    1.1195 C   0  0  0  0  0  0  0  0  0  0  0  0
    4.8933   -0.8249    1.3102 C   0  0  0  0  0  0  0  0  0  0  0  0
    4.4066   -1.6414    0.2801 C   0  0  0  0  0  0  0  0  0  0  0  0
    3.1670   -2.4711    0.4867 C   0  0  0  0  0  0  0  0  0  0  0  0
    1.9819   -1.6968    0.2250 N   0  0  0  0  0  0  0  0  0  0  0  0
    1.2822   -1.0631    1.2235 C   0  0  0  0  0  0  0  0  0  0  0  0
    1.4713   -1.1728    2.4269 O   0  0  0  0  0  0  0  0  0  0  0  0
    0.1665   -0.1314    0.6966 C   0  0  0  0  0  0  0  0  0  0  0  0
   -0.0644   -0.0571   -0.5026 O   0  0  0  0  0  0  0  0  0  0  0  0
   -0.5075    0.5432    1.6869 N   0  0  0  0  0  0  0  0  0  0  0  0
   -1.6603    1.3802    1.3982 C   0  0  0  0  0  0  0  0  0  0  0  0
   -2.8844    0.5845    0.8971 C   0  0  0  0  0  0  0  0  0  0  0  0
   -3.2958   -0.3461    1.9307 O   0  0  0  0  0  0  0  0  0  0  0  0
   -4.5556    0.1090    2.4367 C   0  0  0  0  0  0  0  0  0  0  0  0
   -5.1990    0.8158    1.2665 C   0  0  0  0  0  0  0  0  0  0  0  0
   -4.0403    1.4592    0.6537 N   0  0  0  0  0  0  0  0  0  0  0  0
   -4.1995    2.2006   -0.8408 S   0  0  0  0  0  6  0  0  0  0  0  0
   -2.9400    2.8359   -1.1603 O   0  0  0  0  0  0  0  0  0  0  0  0
   -5.4279    2.9676   -0.8111 O   0  0  0  0  0  0  0  0  0  0  0  0
   -4.4353    0.8611   -1.9882 C   0  0  0  0  0  0  0  0  0  0  0  0
   -3.3285    0.2975   -2.6319 C   0  0  0  0  0  0  0  0  0  0  0  0
   -3.5198   -0.7320   -3.5531 C   0  0  0  0  0  0  0  0  0  0  0  0
   -4.8096   -1.1797   -3.8432 C   0  0  0  0  0  0  0  0  0  0  0  0
   -5.9139   -0.5947   -3.2212 C   0  0  0  0  0  0  0  0  0  0  0  0
   -5.7309    0.4343   -2.2973 C   0  0  0  0  0  0  0  0  0  0  0  0
    5.0702   -1.6385   -0.9522 C   0  0  0  0  0  0  0  0  0  0  0  0
    6.2061   -0.8468   -1.1389 C   0  0  0  0  0  0  0  0  0  0  0  0
    7.6099    2.3005    0.8724 H   0  0  0  0  0  0  0  0  0  0  0  0
    8.6606    0.9518    1.4580 H   0  0  0  0  0  0  0  0  0  0  0  0
    9.2135    2.0370    0.1770 H   0  0  0  0  0  0  0  0  0  0  0  0
    6.3677    0.5807    1.9486 H   0  0  0  0  0  0  0  0  0  0  0  0
    4.3824   -0.7988    2.2719 H   0  0  0  0  0  0  0  0  0  0  0  0
    3.1442   -2.8725    1.5063 H   0  0  0  0  0  0  0  0  0  0  0  0
    3.1600   -3.3252   -0.1993 H   0  0  0  0  0  0  0  0  0  0  0  0
    1.7769   -1.4025   -0.7252 H   0  0  0  0  0  0  0  0  0  0  0  0
   -0.3019    0.2713    2.6449 H   0  0  0  0  0  0  0  0  0  0  0  0
   -1.9006    1.9049    2.3295 H   0  0  0  0  0  0  0  0  0  0  0  0
   -1.3472    2.1228    0.6590 H   0  0  0  0  0  0  0  0  0  0  0  0
   -2.6376   -0.0266    0.0276 H   0  0  0  0  0  0  0  0  0  0  0  0
   -5.1434   -0.7374    2.8014 H   0  0  0  0  0  0  0  0  0  0  0  0
   -4.3623    0.7956    3.2686 H   0  0  0  0  0  0  0  0  0  0  0  0
   -5.9567    1.5317    1.5920 H   0  0  0  0  0  0  0  0  0  0  0  0
   -5.6423    0.0824    0.5868 H   0  0  0  0  0  0  0  0  0  0  0  0
   -2.3192    0.6503   -2.4244 H   0  0  0  0  0  0  0  0  0  0  0  0
   -2.6630   -1.1796   -4.0515 H   0  0  0  0  0  0  0  0  0  0  0  0
   -4.9550   -1.9786   -4.5669 H   0  0  0  0  0  0  0  0  0  0  0  0
   -6.9173   -0.9349   -3.4661 H   0  0  0  0  0  0  0  0  0  0  0  0
   -6.5971    0.9000   -1.8327 H   0  0  0  0  0  0  0  0  0  0  0  0
    4.7111   -2.2501   -1.7765 H   0  0  0  0  0  0  0  0  0  0  0  0
    6.7159   -0.8546   -2.0994 H   0  0  0  0  0  0  0  0  0  0  0  0
  1  2  1  0
  2  3  1  0
  3  4  2  0
  4  5  1  0
  5  6  2  0
  6  7  1  0
  7  8  1  0
  8  9  1  0
  9 10  2  0
  9 11  1  0
 11 12  2  0
 11 13  1  0
 13 14  1  0
 14 15  1  0
 15 16  1  0
 16 17  1  0
 17 18  1  0
 18 19  1  0
 19 20  1  0
 20 21  2  0
 20 22  2  0
 20 23  1  0
 23 24  2  0
 24 25  1  0
 25 26  2  0
 26 27  1  0
 27 28  2  0
  6 29  1  0
 29 30  2  0
 30  3  1  0
 19 15  1  0
 28 23  1  0
  1 31  1  0
  1 32  1  0
  1 33  1  0
  4 34  1  0
  5 35  1  0
  7 36  1  0
  7 37  1  0
  8 38  1  0
 13 39  1  0
 14 40  1  0
 14 41  1  0
 15 42  1  0
 17 43  1  0
 17 44  1  0
 18 45  1  0
 18 46  1  0
 24 47  1  0
 25 48  1  0
 26 49  1  0
 27 50  1  0
 28 51  1  0
 29 52  1  0
 30 53  1  0
M  END
$$$$
