
     RDKit          3D

 44 45  0  0  0  0  0  0  0  0999 V2000
   -8.0131   -0.3083    2.7760 C   0  0  0  0  0  0  0  0  0  0  0  0
   -6.7709   -0.6254    1.9629 C   0  0  0  0  0  0  0  0  0  0  0  0
   -6.4388    0.4917    0.9799 C   0  0  0  0  0  0  0  0  0  0  0  0
   -5.2917    0.1299    0.1945 O   0  0  0  0  0  0  0  0  0  0  0  0
   -4.0859    0.4391    0.7357 C   0  0  0  0  0  0  0  0  0  0  0  0
   -3.9069    0.9831    1.8130 O   0  0  0  0  0  0  0  0  0  0  0  0
   -2.9835    0.0158   -0.1730 C   0  0  0  0  0  0  0  0  0  0  0  0
   -3.2310   -0.6147   -1.3996 C   0  0  0  0  0  0  0  0  0  0  0  0
   -2.1671   -0.9933   -2.2160 C   0  0  0  0  0  0  0  0  0  0  0  0
   -0.8549   -0.7440   -1.8108 C   0  0  0  0  0  0  0  0  0  0  0  0
   -0.5891   -0.1149   -0.5877 C   0  0  0  0  0  0  0  0  0  0  0  0
    0.7636    0.0952   -0.2622 N   0  0  0  0  0  0  0  0  0  0  0  0
    1.2921    0.6876    0.8697 C   0  0  0  0  0  0  0  0  0  0  0  0
    0.6623    1.1483    1.8169 O   0  0  0  0  0  0  0  0  0  0  0  0
    2.8238    0.7342    0.8625 C   0  0  0  0  0  0  0  0  0  0  0  0
    3.3602    0.1498   -0.3240 O   0  0  0  0  0  0  0  0  0  0  0  0
    4.7222    0.1328   -0.4456 C   0  0  0  0  0  0  0  0  0  0  0  0
    5.1928   -0.4513   -1.6271 C   0  0  0  0  0  0  0  0  0  0  0  0
    6.5634   -0.5379   -1.8864 C   0  0  0  0  0  0  0  0  0  0  0  0
    7.4712   -0.0328   -0.9496 C   0  0  0  0  0  0  0  0  0  0  0  0
    8.9134   -0.1182   -1.2112 N   0  0  0  0  0  4  0  0  0  0  0  0
    9.2762   -0.6448   -2.2727 O   0  0  0  0  0  0  0  0  0  0  0  0
    9.6822    0.3413   -0.3549 O   0  0  0  0  0  1  0  0  0  0  0  0
    7.0118    0.5538    0.2363 C   0  0  0  0  0  0  0  0  0  0  0  0
    5.6360    0.6347    0.4846 C   0  0  0  0  0  0  0  0  0  0  0  0
   -1.6591    0.2627    0.2272 C   0  0  0  0  0  0  0  0  0  0  0  0
   -7.8757    0.6071    3.3604 H   0  0  0  0  0  0  0  0  0  0  0  0
   -8.2306   -1.1254    3.4709 H   0  0  0  0  0  0  0  0  0  0  0  0
   -8.8838   -0.1742    2.1263 H   0  0  0  0  0  0  0  0  0  0  0  0
   -5.9237   -0.7966    2.6370 H   0  0  0  0  0  0  0  0  0  0  0  0
   -6.9138   -1.5645    1.4150 H   0  0  0  0  0  0  0  0  0  0  0  0
   -6.2831    1.4508    1.4886 H   0  0  0  0  0  0  0  0  0  0  0  0
   -7.2688    0.6340    0.2792 H   0  0  0  0  0  0  0  0  0  0  0  0
   -4.2465   -0.8171   -1.7313 H   0  0  0  0  0  0  0  0  0  0  0  0
   -2.3597   -1.4825   -3.1678 H   0  0  0  0  0  0  0  0  0  0  0  0
   -0.0431   -1.0496   -2.4666 H   0  0  0  0  0  0  0  0  0  0  0  0
    1.4569   -0.2226   -0.9336 H   0  0  0  0  0  0  0  0  0  0  0  0
    3.1641    0.1774    1.7433 H   0  0  0  0  0  0  0  0  0  0  0  0
    3.1112    1.7902    0.9250 H   0  0  0  0  0  0  0  0  0  0  0  0
    4.4864   -0.8440   -2.3555 H   0  0  0  0  0  0  0  0  0  0  0  0
    6.9005   -0.9972   -2.8134 H   0  0  0  0  0  0  0  0  0  0  0  0
    7.7062    0.9512    0.9746 H   0  0  0  0  0  0  0  0  0  0  0  0
    5.3165    1.0961    1.4146 H   0  0  0  0  0  0  0  0  0  0  0  0
   -1.4926    0.7526    1.1830 H   0  0  0  0  0  0  0  0  0  0  0  0
  1  2  1  0
  2  3  1  0
  3  4  1  0
  4  5  1  0
  5  6  2  0
  5  7  1  0
  7  8  2  0
  8  9  1  0
  9 10  2  0
 10 11  1  0
 11 12  1  0
 12 13  1  0
 13 14  2  0
 13 15  1  0
 15 16  1  0
 16 17  1  0
 17 18  2  0
 18 19  1  0
 19 20  2  0
 20 21  1  0
 21 22  2  0
 21 23  1  0
 20 24  1  0
 24 25  2  0
 11 26  2  0
 26  7  1  0
 25 17  1  0
  1 27  1  0
  1 28  1  0
  1 29  1  0
  2 30  1  0
  2 31  1  0
  3 32  1  0
  3 33  1  0
  8 34  1  0
  9 35  1  0
 10 36  1  0
 12 37  1  0
 15 38  1  0
 15 39  1  0
 18 40  1  0
 19 41  1  0
 24 42  1  0
 25 43  1  0
 26 44  1  0
M  CHG  2  21   1  23  -1
M  END
$$$$
