
     RDKit          3D

 67 72  0  0  0  0  0  0  0  0999 V2000
    1.9543   -2.6660    2.0842 O   0  0  0  0  0  0  0  0  0  0  0  0
    1.8992   -1.5491    1.5627 C   0  0  0  0  0  0  0  0  0  0  0  0
    3.1117   -0.5980    1.5696 C   0  0  0  0  0  0  0  0  0  0  0  0
    4.0837   -0.9755    2.7022 C   0  0  0  0  0  0  0  0  0  0  0  0
    5.3886   -0.2109    2.6407 C   0  0  0  0  0  0  0  0  0  0  0  0
    6.3902   -0.5875    1.7356 C   0  0  0  0  0  0  0  0  0  0  0  0
    7.5830    0.1330    1.6626 C   0  0  0  0  0  0  0  0  0  0  0  0
    7.7852    1.2358    2.4902 C   0  0  0  0  0  0  0  0  0  0  0  0
    6.7958    1.6181    3.3940 C   0  0  0  0  0  0  0  0  0  0  0  0
    5.6029    0.8981    3.4704 C   0  0  0  0  0  0  0  0  0  0  0  0
    2.6806    0.7893    1.7102 N   0  0  0  0  0  0  0  0  0  0  0  0
    1.7247    1.1502    0.7579 C   0  0  0  0  0  0  0  0  0  0  0  0
    1.8383    2.4135    0.3237 N   0  0  0  0  0  0  0  0  0  0  0  0
    0.8832    2.8307   -0.5024 C   0  0  0  0  0  0  0  0  0  0  0  0
   -0.1840    2.1240   -0.8806 N   0  0  0  0  0  0  0  0  0  0  0  0
   -0.2982    0.8600   -0.4092 C   0  0  0  0  0  0  0  0  0  0  0  0
   -1.5409    0.2283   -0.6491 N   0  0  0  0  0  0  0  0  0  0  0  0
   -2.4450    0.5318    0.5021 C   0  0  0  0  0  0  0  0  0  0  0  0
   -3.9361    0.3442    0.1392 C   0  0  0  0  0  0  0  0  0  0  0  0
   -4.3291    1.2263   -0.9751 N   0  0  0  0  0  0  0  0  0  0  0  0
   -5.6123    1.7372   -1.0721 C   0  0  0  0  0  0  0  0  0  0  0  0
   -5.8925    2.9213   -1.7734 C   0  0  0  0  0  0  0  0  0  0  0  0
   -7.1915    3.4362   -1.8742 C   0  0  0  0  0  0  0  0  0  0  0  0
   -8.2537    2.7714   -1.2747 C   0  0  0  0  0  0  0  0  0  0  0  0
   -8.0134    1.5944   -0.5781 C   0  0  0  0  0  0  0  0  0  0  0  0
   -6.7105    1.0889   -0.4820 C   0  0  0  0  0  0  0  0  0  0  0  0
   -3.2435    1.6635   -1.8738 C   0  0  0  0  0  0  0  0  0  0  0  0
   -2.1396    0.5869   -1.9650 C   0  0  0  0  0  0  0  0  0  0  0  0
    0.7049    0.2650    0.3762 C   0  0  0  0  0  0  0  0  0  0  0  0
    0.7860   -1.1116    0.8192 N   0  0  0  0  0  0  0  0  0  0  0  0
   -0.1241   -2.1617    0.3787 C   0  0  0  0  0  0  0  0  0  0  0  0
    0.4243   -2.9426   -0.8042 C   0  0  0  0  0  0  0  0  0  0  0  0
    0.3610   -2.4257   -2.1054 C   0  0  0  0  0  0  0  0  0  0  0  0
    0.8830   -3.1424   -3.1851 C   0  0  0  0  0  0  0  0  0  0  0  0
    1.4763   -4.3833   -2.9694 C   0  0  0  0  0  0  0  0  0  0  0  0
    2.1865   -5.3511   -4.4293 Br  0  0  0  0  0  0  0  0  0  0  0  0
    1.5528   -4.9133   -1.6846 C   0  0  0  0  0  0  0  0  0  0  0  0
    1.0296   -4.1944   -0.6075 C   0  0  0  0  0  0  0  0  0  0  0  0
    3.6178   -0.7288    0.6022 H   0  0  0  0  0  0  0  0  0  0  0  0
    3.6071   -0.8140    3.6785 H   0  0  0  0  0  0  0  0  0  0  0  0
    4.3208   -2.0470    2.6657 H   0  0  0  0  0  0  0  0  0  0  0  0
    6.2503   -1.4466    1.0832 H   0  0  0  0  0  0  0  0  0  0  0  0
    8.3563   -0.1668    0.9601 H   0  0  0  0  0  0  0  0  0  0  0  0
    8.7146    1.7960    2.4316 H   0  0  0  0  0  0  0  0  0  0  0  0
    6.9531    2.4777    4.0404 H   0  0  0  0  0  0  0  0  0  0  0  0
    4.8384    1.2100    4.1792 H   0  0  0  0  0  0  0  0  0  0  0  0
    3.4244    1.4841    1.6844 H   0  0  0  0  0  0  0  0  0  0  0  0
    0.9683    3.8409   -0.8865 H   0  0  0  0  0  0  0  0  0  0  0  0
   -2.3086    1.5673    0.8464 H   0  0  0  0  0  0  0  0  0  0  0  0
   -2.1996   -0.1266    1.3437 H   0  0  0  0  0  0  0  0  0  0  0  0
   -4.1229   -0.6980   -0.1457 H   0  0  0  0  0  0  0  0  0  0  0  0
   -4.5198    0.5642    1.0410 H   0  0  0  0  0  0  0  0  0  0  0  0
   -5.0933    3.4884   -2.2419 H   0  0  0  0  0  0  0  0  0  0  0  0
   -7.3658    4.3596   -2.4195 H   0  0  0  0  0  0  0  0  0  0  0  0
   -9.2623    3.1672   -1.3521 H   0  0  0  0  0  0  0  0  0  0  0  0
   -8.8366    1.0598   -0.1115 H   0  0  0  0  0  0  0  0  0  0  0  0
   -6.5754    0.1513    0.0494 H   0  0  0  0  0  0  0  0  0  0  0  0
   -2.8294    2.6114   -1.5115 H   0  0  0  0  0  0  0  0  0  0  0  0
   -3.6270    1.8222   -2.8887 H   0  0  0  0  0  0  0  0  0  0  0  0
   -1.3787    0.8783   -2.7005 H   0  0  0  0  0  0  0  0  0  0  0  0
   -2.5908   -0.3323   -2.3619 H   0  0  0  0  0  0  0  0  0  0  0  0
   -1.1319   -1.8215    0.1623 H   0  0  0  0  0  0  0  0  0  0  0  0
   -0.2718   -2.8572    1.2163 H   0  0  0  0  0  0  0  0  0  0  0  0
   -0.0952   -1.4583   -2.2910 H   0  0  0  0  0  0  0  0  0  0  0  0
    0.8220   -2.7224   -4.1854 H   0  0  0  0  0  0  0  0  0  0  0  0
    2.0185   -5.8786   -1.5068 H   0  0  0  0  0  0  0  0  0  0  0  0
    1.1066   -4.6150    0.3944 H   0  0  0  0  0  0  0  0  0  0  0  0
  1  2  2  0
  2  3  1  0
  3  4  1  0
  4  5  1  0
  5  6  2  0
  6  7  1  0
  7  8  2  0
  8  9  1  0
  9 10  2  0
  3 11  1  0
 11 12  1  0
 12 13  2  0
 13 14  1  0
 14 15  2  0
 15 16  1  0
 16 17  1  0
 17 18  1  0
 18 19  1  0
 19 20  1  0
 20 21  1  0
 21 22  2  0
 22 23  1  0
 23 24  2  0
 24 25  1  0
 25 26  2  0
 20 27  1  0
 27 28  1  0
 16 29  2  0
 29 30  1  0
 30 31  1  0
 31 32  1  0
 32 33  2  0
 33 34  1  0
 34 35  2  0
 35 36  1  0
 35 37  1  0
 37 38  2  0
 30  2  1  0
 38 32  1  0
 10  5  1  0
 29 12  1  0
 28 17  1  0
 26 21  1  0
  3 39  1  0
  4 40  1  0
  4 41  1  0
  6 42  1  0
  7 43  1  0
  8 44  1  0
  9 45  1  0
 10 46  1  0
 11 47  1  0
 14 48  1  0
 18 49  1  0
 18 50  1  0
 19 51  1  0
 19 52  1  0
 22 53  1  0
 23 54  1  0
 24 55  1  0
 25 56  1  0
 26 57  1  0
 27 58  1  0
 27 59  1  0
 28 60  1  0
 28 61  1  0
 31 62  1  0
 31 63  1  0
 33 64  1  0
 34 65  1  0
 37 66  1  0
 38 67  1  0
M  END
$$$$
