
     RDKit          3D

 37 39  0  0  0  0  0  0  0  0999 V2000
    6.2679   -0.7515   -0.3809 C   0  0  0  0  0  0  0  0  0  0  0  0
    5.8186   -0.3431    1.0156 C   0  0  0  0  0  0  0  0  0  0  0  0
    4.5653   -1.0832    1.4874 C   0  0  0  0  0  0  0  0  0  0  0  0
    3.3439   -0.7170    0.7088 C   0  0  0  0  0  0  0  0  0  0  0  0
    2.8790   -1.3943   -0.3207 N   0  0  0  0  0  0  0  0  0  0  0  0
    1.7351   -0.8217   -0.8397 N   0  0  0  0  0  0  0  0  0  0  0  0
    1.3766    0.2581   -0.1813 C   0  0  0  0  0  0  0  0  0  0  0  0
    0.2701    0.9885   -0.5257 N   0  0  0  0  0  0  0  0  0  0  0  0
   -0.2236    2.1071    0.1055 C   0  0  0  0  0  0  0  0  0  0  0  0
    0.2500    2.6776    1.0832 O   0  0  0  0  0  0  0  0  0  0  0  0
   -1.4802    2.6572   -0.5800 C   0  0  0  0  0  0  0  0  0  0  0  0
   -2.1966    1.7054   -1.3579 O   0  0  0  0  0  0  0  0  0  0  0  0
   -3.0526    0.8572   -0.7067 C   0  0  0  0  0  0  0  0  0  0  0  0
   -3.8046    0.0285   -1.5649 C   0  0  0  0  0  0  0  0  0  0  0  0
   -4.7135   -0.9049   -1.0572 C   0  0  0  0  0  0  0  0  0  0  0  0
   -4.8434   -0.9857    0.3100 C   0  0  0  0  0  0  0  0  0  0  0  0
   -4.1105   -0.1828    1.1512 C   0  0  0  0  0  0  0  0  0  0  0  0
   -3.2059    0.7479    0.6781 C   0  0  0  0  0  0  0  0  0  0  0  0
   -4.3845   -0.4217    2.4626 O   0  0  0  0  0  0  0  0  0  0  0  0
   -5.3712   -1.4687    2.3486 C   0  0  0  0  0  0  0  0  0  0  0  0
   -5.6699   -1.8282    0.9837 O   0  0  0  0  0  0  0  0  0  0  0  0
    2.4038    0.6621    1.1151 S   0  0  0  0  0  0  0  0  0  0  0  0
    7.2074   -0.2499   -0.6345 H   0  0  0  0  0  0  0  0  0  0  0  0
    5.5280   -0.4741   -1.1377 H   0  0  0  0  0  0  0  0  0  0  0  0
    6.4348   -1.8317   -0.4395 H   0  0  0  0  0  0  0  0  0  0  0  0
    6.6337   -0.5598    1.7165 H   0  0  0  0  0  0  0  0  0  0  0  0
    5.6586    0.7413    1.0409 H   0  0  0  0  0  0  0  0  0  0  0  0
    4.7263   -2.1659    1.4150 H   0  0  0  0  0  0  0  0  0  0  0  0
    4.4026   -0.8686    2.5510 H   0  0  0  0  0  0  0  0  0  0  0  0
   -0.2542    0.6068   -1.3049 H   0  0  0  0  0  0  0  0  0  0  0  0
   -1.1382    3.4368   -1.2707 H   0  0  0  0  0  0  0  0  0  0  0  0
   -2.1290    3.1507    0.1528 H   0  0  0  0  0  0  0  0  0  0  0  0
   -3.6790    0.1162   -2.6423 H   0  0  0  0  0  0  0  0  0  0  0  0
   -5.2937   -1.5422   -1.7146 H   0  0  0  0  0  0  0  0  0  0  0  0
   -2.6545    1.3448    1.3934 H   0  0  0  0  0  0  0  0  0  0  0  0
   -6.2954   -1.1335    2.8332 H   0  0  0  0  0  0  0  0  0  0  0  0
   -5.0014   -2.3576    2.8727 H   0  0  0  0  0  0  0  0  0  0  0  0
  1  2  1  0
  2  3  1  0
  3  4  1  0
  4  5  2  0
  5  6  1  0
  6  7  2  0
  7  8  1  0
  8  9  1  0
  9 10  2  0
  9 11  1  0
 11 12  1  0
 12 13  1  0
 13 14  2  0
 14 15  1  0
 15 16  2  0
 16 17  1  0
 17 18  2  0
 17 19  1  0
 19 20  1  0
 20 21  1  0
  7 22  1  0
 22  4  1  0
 18 13  1  0
 21 16  1  0
  1 23  1  0
  1 24  1  0
  1 25  1  0
  2 26  1  0
  2 27  1  0
  3 28  1  0
  3 29  1  0
  8 30  1  0
 11 31  1  0
 11 32  1  0
 14 33  1  0
 15 34  1  0
 18 35  1  0
 20 36  1  0
 20 37  1  0
M  END
$$$$
