
     RDKit          3D

 46 49  0  0  0  0  0  0  0  0999 V2000
    3.2050    2.9727   -2.2571 O   0  0  0  0  0  0  0  0  0  0  0  0
    2.9329    2.0722   -1.4658 C   0  0  0  0  0  0  0  0  0  0  0  0
    2.4616    2.4076   -0.0574 C   0  0  0  0  0  0  0  0  0  0  0  0
    0.6468    2.4922    0.0041 S   0  0  0  0  0  0  0  0  0  0  0  0
    0.2639    0.8253    0.2566 C   0  0  0  0  0  0  0  0  0  0  0  0
    1.1464   -0.1388    0.3701 N   0  0  0  0  0  0  0  0  0  0  0  0
    0.4657   -1.3132    0.5135 N   0  0  0  0  0  0  0  0  0  0  0  0
   -0.8272   -1.0512    0.4811 C   0  0  0  0  0  0  0  0  0  0  0  0
   -1.9068   -2.0810    0.5633 C   0  0  0  0  0  0  0  0  0  0  0  0
   -2.5848   -2.1563    1.9018 C   0  0  0  0  0  0  0  0  0  0  0  0
   -2.0816   -1.8778    3.1613 C   0  0  0  0  0  0  0  0  0  0  0  0
   -3.0356   -2.1162    4.1935 C   0  0  0  0  0  0  0  0  0  0  0  0
   -4.2311   -2.5798    3.6936 C   0  0  0  0  0  0  0  0  0  0  0  0
   -4.2073   -2.7129    1.9899 S   0  0  0  0  0  0  0  0  0  0  0  0
   -1.0021    0.3111    0.3388 N   0  0  0  0  0  0  0  0  0  0  0  0
   -2.2590    1.0263    0.2216 C   0  0  0  0  0  0  0  0  0  0  0  0
   -2.7656    1.4730    1.5439 C   0  0  0  0  0  0  0  0  0  0  0  0
   -3.9260    1.2180    2.2489 C   0  0  0  0  0  0  0  0  0  0  0  0
   -3.8310    1.9484    3.4581 C   0  0  0  0  0  0  0  0  0  0  0  0
   -2.6343    2.6203    3.4049 C   0  0  0  0  0  0  0  0  0  0  0  0
   -1.9843    2.3435    2.2457 O   0  0  0  0  0  0  0  0  0  0  0  0
    3.0238    0.7141   -1.7244 N   0  0  0  0  0  0  0  0  0  0  0  0
    3.4934    0.0870   -2.9074 C   0  0  0  0  0  0  0  0  0  0  0  0
    3.9917    0.8014   -4.0018 C   0  0  0  0  0  0  0  0  0  0  0  0
    4.4478    0.1364   -5.1471 C   0  0  0  0  0  0  0  0  0  0  0  0
    4.4110   -1.2532   -5.2085 C   0  0  0  0  0  0  0  0  0  0  0  0
    4.9725   -2.0645   -6.6177 Cl  0  0  0  0  0  0  0  0  0  0  0  0
    3.9255   -1.9878   -4.1348 C   0  0  0  0  0  0  0  0  0  0  0  0
    3.4733   -1.3201   -2.9917 C   0  0  0  0  0  0  0  0  0  0  0  0
    2.9028   -2.2929   -1.6818 Cl  0  0  0  0  0  0  0  0  0  0  0  0
    2.8644    3.3916    0.2043 H   0  0  0  0  0  0  0  0  0  0  0  0
    2.8722    1.7028    0.6716 H   0  0  0  0  0  0  0  0  0  0  0  0
   -1.4615   -3.0611    0.3652 H   0  0  0  0  0  0  0  0  0  0  0  0
   -2.6342   -1.9129   -0.2429 H   0  0  0  0  0  0  0  0  0  0  0  0
   -1.0712   -1.5250    3.3386 H   0  0  0  0  0  0  0  0  0  0  0  0
   -2.8478   -1.9663    5.2492 H   0  0  0  0  0  0  0  0  0  0  0  0
   -5.1204   -2.8525    4.2487 H   0  0  0  0  0  0  0  0  0  0  0  0
   -2.9834    0.3632   -0.2676 H   0  0  0  0  0  0  0  0  0  0  0  0
   -2.1210    1.8819   -0.4512 H   0  0  0  0  0  0  0  0  0  0  0  0
   -4.7378    0.5773    1.9370 H   0  0  0  0  0  0  0  0  0  0  0  0
   -4.5493    1.9878    4.2655 H   0  0  0  0  0  0  0  0  0  0  0  0
   -2.1270    3.3022    4.0733 H   0  0  0  0  0  0  0  0  0  0  0  0
    2.6535    0.0796   -1.0097 H   0  0  0  0  0  0  0  0  0  0  0  0
    4.0443    1.8857   -4.0024 H   0  0  0  0  0  0  0  0  0  0  0  0
    4.8307    0.7157   -5.9834 H   0  0  0  0  0  0  0  0  0  0  0  0
    3.9014   -3.0737   -4.1817 H   0  0  0  0  0  0  0  0  0  0  0  0
  1  2  2  0
  2  3  1  0
  3  4  1  0
  4  5  1  0
  5  6  2  0
  6  7  1  0
  7  8  2  0
  8  9  1  0
  9 10  1  0
 10 11  2  0
 11 12  1  0
 12 13  2  0
 13 14  1  0
  8 15  1  0
 15 16  1  0
 16 17  1  0
 17 18  2  0
 18 19  1  0
 19 20  2  0
 20 21  1  0
  2 22  1  0
 22 23  1  0
 23 24  2  0
 24 25  1  0
 25 26  2  0
 26 27  1  0
 26 28  1  0
 28 29  2  0
 29 30  1  0
 15  5  1  0
 21 17  1  0
 29 23  1  0
 14 10  1  0
  3 31  1  0
  3 32  1  0
  9 33  1  0
  9 34  1  0
 11 35  1  0
 12 36  1  0
 13 37  1  0
 16 38  1  0
 16 39  1  0
 18 40  1  0
 19 41  1  0
 20 42  1  0
 22 43  1  0
 24 44  1  0
 25 45  1  0
 28 46  1  0
M  END
$$$$
