
     RDKit          3D

 55 60  0  0  0  0  0  0  0  0999 V2000
    4.8887    1.7568    1.0624 O   0  0  0  0  0  0  0  0  0  0  0  0
    4.1941    0.7483    1.1778 C   0  0  0  0  0  0  0  0  0  0  0  0
    4.7101   -0.4182    1.8804 C   0  0  0  0  0  0  0  0  0  0  0  0
    4.0646   -1.3891    2.7029 C   0  0  0  0  0  0  0  0  0  0  0  0
    5.0432   -2.2512    3.1396 C   0  0  0  0  0  0  0  0  0  0  0  0
    6.2541   -1.8705    2.6630 O   0  0  0  0  0  0  0  0  0  0  0  0
    6.0506   -0.7519    1.9229 C   0  0  0  0  0  0  0  0  0  0  0  0
    2.8952    0.6967    0.6572 N   0  0  0  0  0  0  0  0  0  0  0  0
    2.3412    1.9408    0.1306 C   0  0  0  0  0  0  0  0  0  0  0  0
    0.8246    1.8612    0.0115 C   0  0  0  0  0  0  0  0  0  0  0  0
    0.4044    0.7640   -1.0021 C   0  0  0  0  0  0  0  0  0  0  0  0
    1.4015   -0.4284   -0.9734 C   0  0  0  0  0  0  0  0  0  0  0  0
    2.1907   -0.5397    0.3290 C   0  0  0  0  0  0  0  0  0  0  0  0
    0.5753    1.4316   -2.2870 O   0  0  0  0  0  0  0  0  0  0  0  0
   -0.0853    0.9269   -3.3662 C   0  0  0  0  0  0  0  0  0  0  0  0
    0.3082    1.4214   -4.6112 C   0  0  0  0  0  0  0  0  0  0  0  0
   -0.2979    0.9461   -5.7755 C   0  0  0  0  0  0  0  0  0  0  0  0
   -1.2959   -0.0189   -5.6859 C   0  0  0  0  0  0  0  0  0  0  0  0
   -1.8713   -0.4764   -6.8048 F   0  0  0  0  0  0  0  0  0  0  0  0
   -1.7057   -0.5120   -4.4544 C   0  0  0  0  0  0  0  0  0  0  0  0
   -1.0997   -0.0220   -3.2947 C   0  0  0  0  0  0  0  0  0  0  0  0
   -1.5195   -0.5033   -1.9738 C   0  0  0  0  0  0  0  0  0  0  0  0
   -2.1725   -1.5398   -1.8822 O   0  0  0  0  0  0  0  0  0  0  0  0
   -1.0748    0.3378   -0.7809 C   0  0  0  0  0  0  0  0  0  0  0  0
   -1.3612   -0.3879    0.5270 C   0  0  0  0  0  0  0  0  0  0  0  0
   -2.6983    0.2039    0.8245 C   0  0  0  0  0  0  0  0  0  0  0  0
   -3.6039   -0.3626    1.8522 C   0  0  0  0  0  0  0  0  0  0  0  0
   -4.8695    0.2135    2.0301 C   0  0  0  0  0  0  0  0  0  0  0  0
   -5.7476   -0.2927    2.9925 C   0  0  0  0  0  0  0  0  0  0  0  0
   -5.3610   -1.3749    3.7790 C   0  0  0  0  0  0  0  0  0  0  0  0
   -6.4381   -2.0000    4.9650 Cl  0  0  0  0  0  0  0  0  0  0  0  0
   -4.1042   -1.9545    3.6113 C   0  0  0  0  0  0  0  0  0  0  0  0
   -3.2233   -1.4493    2.6486 C   0  0  0  0  0  0  0  0  0  0  0  0
   -2.9829    1.2669    0.1418 N   0  0  0  0  0  0  0  0  0  0  0  0
   -1.9099    1.5066   -0.7434 O   0  0  0  0  0  0  0  0  0  0  0  0
    3.0186   -1.4441    2.9660 H   0  0  0  0  0  0  0  0  0  0  0  0
    5.0455   -3.1272    3.7736 H   0  0  0  0  0  0  0  0  0  0  0  0
    6.9375   -0.3078    1.4904 H   0  0  0  0  0  0  0  0  0  0  0  0
    2.6186    2.7661    0.7966 H   0  0  0  0  0  0  0  0  0  0  0  0
    2.8080    2.1345   -0.8427 H   0  0  0  0  0  0  0  0  0  0  0  0
    0.4137    1.6709    1.0082 H   0  0  0  0  0  0  0  0  0  0  0  0
    0.4462    2.8403   -0.3089 H   0  0  0  0  0  0  0  0  0  0  0  0
    0.8863   -1.3786   -1.1552 H   0  0  0  0  0  0  0  0  0  0  0  0
    2.1227   -0.3234   -1.7959 H   0  0  0  0  0  0  0  0  0  0  0  0
    1.5202   -0.7650    1.1639 H   0  0  0  0  0  0  0  0  0  0  0  0
    2.9011   -1.3664    0.2331 H   0  0  0  0  0  0  0  0  0  0  0  0
    1.0914    2.1732   -4.6765 H   0  0  0  0  0  0  0  0  0  0  0  0
    0.0020    1.3206   -6.7497 H   0  0  0  0  0  0  0  0  0  0  0  0
   -2.4936   -1.2580   -4.4079 H   0  0  0  0  0  0  0  0  0  0  0  0
   -0.6911   -0.1109    1.3435 H   0  0  0  0  0  0  0  0  0  0  0  0
   -1.3852   -1.4762    0.4388 H   0  0  0  0  0  0  0  0  0  0  0  0
   -5.1826    1.0589    1.4195 H   0  0  0  0  0  0  0  0  0  0  0  0
   -6.7269    0.1617    3.1197 H   0  0  0  0  0  0  0  0  0  0  0  0
   -3.8052   -2.8000    4.2261 H   0  0  0  0  0  0  0  0  0  0  0  0
   -2.2515   -1.9214    2.5433 H   0  0  0  0  0  0  0  0  0  0  0  0
  1  2  2  0
  2  3  1  0
  3  4  1  0
  4  5  2  0
  5  6  1  0
  6  7  1  0
  2  8  1  0
  8  9  1  0
  9 10  1  0
 10 11  1  0
 11 12  1  0
 12 13  1  0
 11 14  1  0
 14 15  1  0
 15 16  2  0
 16 17  1  0
 17 18  2  0
 18 19  1  0
 18 20  1  0
 20 21  2  0
 21 22  1  0
 22 23  2  0
 22 24  1  0
 24 25  1  0
 25 26  1  0
 26 27  1  0
 27 28  2  0
 28 29  1  0
 29 30  2  0
 30 31  1  0
 30 32  1  0
 32 33  2  0
 26 34  2  0
 34 35  1  0
  7  3  2  0
 13  8  1  0
 21 15  1  0
 35 24  1  0
 24 11  1  0
 33 27  1  0
  4 36  1  0
  5 37  1  0
  7 38  1  0
  9 39  1  0
  9 40  1  0
 10 41  1  0
 10 42  1  0
 12 43  1  0
 12 44  1  0
 13 45  1  0
 13 46  1  0
 16 47  1  0
 17 48  1  0
 20 49  1  0
 25 50  1  0
 25 51  1  0
 28 52  1  0
 29 53  1  0
 32 54  1  0
 33 55  1  0
M  END
$$$$
