
     RDKit          3D

 36 37  0  0  0  0  0  0  0  0999 V2000
   -0.6757    1.9487    0.4183 O   0  0  0  0  0  0  0  0  0  0  0  0
   -0.6927    0.8723   -0.1710 C   0  0  0  0  0  0  0  0  0  0  0  0
    0.5475    0.0140   -0.4083 C   0  0  0  0  0  0  0  0  0  0  0  0
    1.7071    0.6286    0.1484 O   0  0  0  0  0  0  0  0  0  0  0  0
    2.8355   -0.1009    0.0101 C   0  0  0  0  0  0  0  0  0  0  0  0
    2.9168   -1.1917   -0.5314 O   0  0  0  0  0  0  0  0  0  0  0  0
    3.9940    0.6086    0.6145 C   0  0  0  0  0  0  0  0  0  0  0  0
    3.8664    1.8583    1.2362 C   0  0  0  0  0  0  0  0  0  0  0  0
    4.9910    2.4743    1.7852 C   0  0  0  0  0  0  0  0  0  0  0  0
    4.8344    4.0088    2.5482 Cl  0  0  0  0  0  0  0  0  0  0  0  0
    6.2409    1.8628    1.7238 C   0  0  0  0  0  0  0  0  0  0  0  0
    6.3626    0.6213    1.1055 C   0  0  0  0  0  0  0  0  0  0  0  0
    7.9023   -0.1422    1.0246 Cl  0  0  0  0  0  0  0  0  0  0  0  0
    5.2500   -0.0094    0.5511 C   0  0  0  0  0  0  0  0  0  0  0  0
   -1.8448    0.3209   -0.6923 N   0  0  0  0  0  0  0  0  0  0  0  0
   -3.1422    0.9400   -0.4861 C   0  0  0  0  0  0  0  0  0  0  0  0
   -4.2564    0.2233   -1.2545 C   0  0  0  0  0  0  0  0  0  0  0  0
   -4.5742   -1.0838   -0.6984 N   0  0  0  0  0  0  0  0  0  0  0  0
   -3.9110   -2.2445   -1.0139 C   0  0  0  0  0  0  0  0  0  0  0  0
   -2.8644   -2.1950   -1.8882 O   0  0  0  0  0  0  0  0  0  0  0  0
   -4.3665   -3.3349   -0.3866 C   0  0  0  0  0  0  0  0  0  0  0  0
   -5.6815   -2.9445    0.6792 S   0  0  0  0  0  0  0  0  0  0  0  0
   -5.5808   -1.2275    0.2456 C   0  0  0  0  0  0  0  0  0  0  0  0
   -6.2955   -0.3634    0.7243 O   0  0  0  0  0  0  0  0  0  0  0  0
    0.3794   -0.9603    0.0657 H   0  0  0  0  0  0  0  0  0  0  0  0
    0.6770   -0.1047   -1.4903 H   0  0  0  0  0  0  0  0  0  0  0  0
    2.9005    2.3563    1.2973 H   0  0  0  0  0  0  0  0  0  0  0  0
    7.1119    2.3498    2.1542 H   0  0  0  0  0  0  0  0  0  0  0  0
    5.3592   -0.9801    0.0705 H   0  0  0  0  0  0  0  0  0  0  0  0
   -1.8325   -0.6310   -1.0475 H   0  0  0  0  0  0  0  0  0  0  0  0
   -3.0693    1.9812   -0.8197 H   0  0  0  0  0  0  0  0  0  0  0  0
   -3.3446    0.9458    0.5909 H   0  0  0  0  0  0  0  0  0  0  0  0
   -5.1605    0.8422   -1.2117 H   0  0  0  0  0  0  0  0  0  0  0  0
   -3.9948    0.1085   -2.3132 H   0  0  0  0  0  0  0  0  0  0  0  0
   -2.6062   -3.1120   -2.0957 H   0  0  0  0  0  0  0  0  0  0  0  0
   -3.9829   -4.3399   -0.4846 H   0  0  0  0  0  0  0  0  0  0  0  0
  1  2  2  0
  2  3  1  0
  3  4  1  0
  4  5  1  0
  5  6  2  0
  5  7  1  0
  7  8  2  0
  8  9  1  0
  9 10  1  0
  9 11  2  0
 11 12  1  0
 12 13  1  0
 12 14  2  0
  2 15  1  0
 15 16  1  0
 16 17  1  0
 17 18  1  0
 18 19  1  0
 19 20  1  0
 19 21  2  0
 21 22  1  0
 22 23  1  0
 23 24  2  0
 14  7  1  0
 23 18  1  0
  3 25  1  0
  3 26  1  0
  8 27  1  0
 11 28  1  0
 14 29  1  0
 15 30  1  0
 16 31  1  0
 16 32  1  0
 17 33  1  0
 17 34  1  0
 20 35  1  0
 21 36  1  0
M  END
$$$$
