
     RDKit          3D

 31 32  0  0  0  0  0  0  0  0999 V2000
    4.8035   -1.6432    0.2835 O   0  0  0  0  0  0  0  0  0  0  0  0
    4.7762   -0.4302    0.4895 C   0  0  0  0  0  0  0  0  0  0  0  0
    3.6428    0.3739    0.4379 N   0  0  0  0  0  0  0  0  0  0  0  0
    2.3191   -0.0115    0.1502 C   0  0  0  0  0  0  0  0  0  0  0  0
    1.9264   -1.3169   -0.1348 C   0  0  0  0  0  0  0  0  0  0  0  0
    0.5834   -1.6094   -0.4115 C   0  0  0  0  0  0  0  0  0  0  0  0
   -0.3960   -0.6089   -0.4147 C   0  0  0  0  0  0  0  0  0  0  0  0
   -1.7322   -0.9629   -0.6618 N   0  0  0  0  0  0  0  0  0  0  0  0
   -2.9499   -0.3753   -0.2768 C   0  0  0  0  0  0  0  0  0  0  0  0
   -3.0815    0.4348    0.8565 C   0  0  0  0  0  0  0  0  0  0  0  0
   -4.3049    1.0301    1.1798 C   0  0  0  0  0  0  0  0  0  0  0  0
   -5.4157    0.8297    0.3650 C   0  0  0  0  0  0  0  0  0  0  0  0
   -5.3032    0.0333   -0.7708 C   0  0  0  0  0  0  0  0  0  0  0  0
   -4.0787   -0.5614   -1.0885 C   0  0  0  0  0  0  0  0  0  0  0  0
    0.0062    0.6952   -0.1200 C   0  0  0  0  0  0  0  0  0  0  0  0
    1.3469    0.9935    0.1550 C   0  0  0  0  0  0  0  0  0  0  0  0
    6.0622    0.3216    0.8356 C   0  0  0  0  0  0  0  0  0  0  0  0
    5.8951    1.0787    2.4357 Cl  0  0  0  0  0  0  0  0  0  0  0  0
    6.3761    1.5599   -0.4011 Cl  0  0  0  0  0  0  0  0  0  0  0  0
    3.7868    1.3604    0.6298 H   0  0  0  0  0  0  0  0  0  0  0  0
    2.6330   -2.1401   -0.1475 H   0  0  0  0  0  0  0  0  0  0  0  0
    0.3103   -2.6423   -0.6144 H   0  0  0  0  0  0  0  0  0  0  0  0
   -1.8408   -1.8047   -1.2160 H   0  0  0  0  0  0  0  0  0  0  0  0
   -2.2385    0.5847    1.5252 H   0  0  0  0  0  0  0  0  0  0  0  0
   -4.3876    1.6453    2.0718 H   0  0  0  0  0  0  0  0  0  0  0  0
   -6.3665    1.2926    0.6154 H   0  0  0  0  0  0  0  0  0  0  0  0
   -6.1652   -0.1231   -1.4137 H   0  0  0  0  0  0  0  0  0  0  0  0
   -4.0097   -1.1664   -1.9890 H   0  0  0  0  0  0  0  0  0  0  0  0
   -0.7152    1.5079   -0.1338 H   0  0  0  0  0  0  0  0  0  0  0  0
    1.6103    2.0264    0.3668 H   0  0  0  0  0  0  0  0  0  0  0  0
    6.9075   -0.3715    0.8615 H   0  0  0  0  0  0  0  0  0  0  0  0
  1  2  2  0
  2  3  1  0
  3  4  1  0
  4  5  2  0
  5  6  1  0
  6  7  2  0
  7  8  1  0
  8  9  1  0
  9 10  2  0
 10 11  1  0
 11 12  2  0
 12 13  1  0
 13 14  2  0
  7 15  1  0
 15 16  2  0
  2 17  1  0
 17 18  1  0
 17 19  1  0
 16  4  1  0
 14  9  1  0
  3 20  1  0
  5 21  1  0
  6 22  1  0
  8 23  1  0
 10 24  1  0
 11 25  1  0
 12 26  1  0
 13 27  1  0
 14 28  1  0
 15 29  1  0
 16 30  1  0
 17 31  1  0
M  END
$$$$
