
     RDKit          3D

 44 45  0  0  0  0  0  0  0  0999 V2000
   -7.4594   -1.5471    0.3063 C   0  0  0  0  0  0  0  0  0  0  0  0
   -7.0339   -0.9921    1.6578 C   0  0  0  0  0  0  0  0  0  0  0  0
   -5.5422   -1.1746    1.9185 C   0  0  0  0  0  0  0  0  0  0  0  0
   -4.8017   -0.4478    0.9299 O   0  0  0  0  0  0  0  0  0  0  0  0
   -3.4558   -0.5598    1.0436 C   0  0  0  0  0  0  0  0  0  0  0  0
   -2.8593   -1.1980    1.8968 O   0  0  0  0  0  0  0  0  0  0  0  0
   -2.7736    0.2053   -0.0344 C   0  0  0  0  0  0  0  0  0  0  0  0
   -3.4763    0.9794   -0.9649 C   0  0  0  0  0  0  0  0  0  0  0  0
   -2.7817    1.6742   -1.9537 C   0  0  0  0  0  0  0  0  0  0  0  0
   -1.3868    1.6007   -2.0191 C   0  0  0  0  0  0  0  0  0  0  0  0
   -0.6711    0.8336   -1.0979 C   0  0  0  0  0  0  0  0  0  0  0  0
    0.7312    0.7107   -1.0992 N   0  0  0  0  0  0  0  0  0  0  0  0
    1.6388    1.2995   -1.9621 C   0  0  0  0  0  0  0  0  0  0  0  0
    1.3777    2.0418   -2.9061 O   0  0  0  0  0  0  0  0  0  0  0  0
    3.0921    0.9281   -1.6510 C   0  0  0  0  0  0  0  0  0  0  0  0
    3.2022    0.1973   -0.4297 O   0  0  0  0  0  0  0  0  0  0  0  0
    4.4734    0.0571    0.0586 C   0  0  0  0  0  0  0  0  0  0  0  0
    5.6349    0.0562   -0.7200 C   0  0  0  0  0  0  0  0  0  0  0  0
    6.8868   -0.1019   -0.1148 C   0  0  0  0  0  0  0  0  0  0  0  0
    6.9699   -0.2639    1.2749 C   0  0  0  0  0  0  0  0  0  0  0  0
    8.2827   -0.4191    1.9121 N   0  0  0  0  0  4  0  0  0  0  0  0
    8.3378   -0.3305    3.1481 O   0  0  0  0  0  0  0  0  0  0  0  0
    9.2580   -0.6261    1.1740 O   0  0  0  0  0  1  0  0  0  0  0  0
    5.8110   -0.2812    2.0587 C   0  0  0  0  0  0  0  0  0  0  0  0
    4.5653   -0.1289    1.4426 C   0  0  0  0  0  0  0  0  0  0  0  0
   -1.3728    0.1374   -0.1062 C   0  0  0  0  0  0  0  0  0  0  0  0
   -8.5379   -1.4204    0.1688 H   0  0  0  0  0  0  0  0  0  0  0  0
   -7.2304   -2.6151    0.2328 H   0  0  0  0  0  0  0  0  0  0  0  0
   -6.9534   -1.0297   -0.5157 H   0  0  0  0  0  0  0  0  0  0  0  0
   -7.6049   -1.4909    2.4495 H   0  0  0  0  0  0  0  0  0  0  0  0
   -7.2828    0.0753    1.6889 H   0  0  0  0  0  0  0  0  0  0  0  0
   -5.2991   -0.7812    2.9122 H   0  0  0  0  0  0  0  0  0  0  0  0
   -5.2770   -2.2376    1.8744 H   0  0  0  0  0  0  0  0  0  0  0  0
   -4.5607    1.0526   -0.9335 H   0  0  0  0  0  0  0  0  0  0  0  0
   -3.3238    2.2776   -2.6789 H   0  0  0  0  0  0  0  0  0  0  0  0
   -0.8890    2.1591   -2.8056 H   0  0  0  0  0  0  0  0  0  0  0  0
    1.1472    0.1334   -0.3722 H   0  0  0  0  0  0  0  0  0  0  0  0
    3.6504    1.8689   -1.5809 H   0  0  0  0  0  0  0  0  0  0  0  0
    3.4505    0.3170   -2.4873 H   0  0  0  0  0  0  0  0  0  0  0  0
    5.5989    0.1603   -1.8013 H   0  0  0  0  0  0  0  0  0  0  0  0
    7.7801   -0.0959   -0.7370 H   0  0  0  0  0  0  0  0  0  0  0  0
    5.8585   -0.4121    3.1381 H   0  0  0  0  0  0  0  0  0  0  0  0
    3.6623   -0.1431    2.0507 H   0  0  0  0  0  0  0  0  0  0  0  0
   -0.8363   -0.4687    0.6221 H   0  0  0  0  0  0  0  0  0  0  0  0
  1  2  1  0
  2  3  1  0
  3  4  1  0
  4  5  1  0
  5  6  2  0
  5  7  1  0
  7  8  2  0
  8  9  1  0
  9 10  2  0
 10 11  1  0
 11 12  1  0
 12 13  1  0
 13 14  2  0
 13 15  1  0
 15 16  1  0
 16 17  1  0
 17 18  2  0
 18 19  1  0
 19 20  2  0
 20 21  1  0
 21 22  2  0
 21 23  1  0
 20 24  1  0
 24 25  2  0
 11 26  2  0
 26  7  1  0
 25 17  1  0
  1 27  1  0
  1 28  1  0
  1 29  1  0
  2 30  1  0
  2 31  1  0
  3 32  1  0
  3 33  1  0
  8 34  1  0
  9 35  1  0
 10 36  1  0
 12 37  1  0
 15 38  1  0
 15 39  1  0
 18 40  1  0
 19 41  1  0
 24 42  1  0
 25 43  1  0
 26 44  1  0
M  CHG  2  21   1  23  -1
M  END
$$$$
