
     RDKit          3D

 57 60  0  0  0  0  0  0  0  0999 V2000
    5.4653    3.3347   -0.1486 C   0  0  0  0  0  0  0  0  0  0  0  0
    4.3709    2.3249   -0.0443 C   0  0  0  0  0  0  0  0  0  0  0  0
    3.0146    2.5604   -0.1370 C   0  0  0  0  0  0  0  0  0  0  0  0
    2.3464    1.3188   -0.1035 C   0  0  0  0  0  0  0  0  0  0  0  0
    0.9266    1.1849   -0.1945 C   0  0  0  0  0  0  0  0  0  0  0  0
    0.2587    0.1251   -0.6784 C   0  0  0  0  0  0  0  0  0  0  0  0
   -1.2037    0.1049   -0.7764 C   0  0  0  0  0  0  0  0  0  0  0  0
   -1.8111    0.9099   -1.7408 C   0  0  0  0  0  0  0  0  0  0  0  0
   -3.1858    0.8929   -1.8917 C   0  0  0  0  0  0  0  0  0  0  0  0
   -3.9549    0.0603   -1.0855 C   0  0  0  0  0  0  0  0  0  0  0  0
   -5.3560    0.0230   -1.2401 C   0  0  0  0  0  0  0  0  0  0  0  0
   -6.1902   -0.7978   -0.4633 C   0  0  0  0  0  0  0  0  0  0  0  0
   -7.5690   -0.8370   -0.6487 N   0  0  0  0  0  0  0  0  0  0  0  0
   -8.4195   -1.5977    0.2693 C   0  0  0  0  0  0  0  0  0  0  0  0
   -8.2399    0.2442   -1.3755 C   0  0  0  0  0  0  0  0  0  0  0  0
   -5.5386   -1.6051    0.4775 C   0  0  0  0  0  0  0  0  0  0  0  0
   -4.1450   -1.5856    0.6537 C   0  0  0  0  0  0  0  0  0  0  0  0
   -3.3227   -0.7515   -0.1164 C   0  0  0  0  0  0  0  0  0  0  0  0
   -1.9570   -0.6997    0.0271 N   0  0  0  0  0  4  0  0  0  0  0  0
   -1.3110   -1.5135    1.0849 C   0  0  0  0  0  0  0  0  0  0  0  0
    3.3047    0.3332    0.0811 C   0  0  0  0  0  0  0  0  0  0  0  0
    3.1355   -1.1245    0.3685 C   0  0  0  0  0  0  0  0  0  0  0  0
    4.5638    0.9511    0.0628 N   0  0  0  0  0  0  0  0  0  0  0  0
    5.8229    0.2864    0.1360 C   0  0  0  0  0  0  0  0  0  0  0  0
    6.8213    0.7572    0.9968 C   0  0  0  0  0  0  0  0  0  0  0  0
    8.0512    0.0992    1.0633 C   0  0  0  0  0  0  0  0  0  0  0  0
    8.2892   -1.0228    0.2709 C   0  0  0  0  0  0  0  0  0  0  0  0
    7.2984   -1.4917   -0.5904 C   0  0  0  0  0  0  0  0  0  0  0  0
    6.0647   -0.8413   -0.6593 C   0  0  0  0  0  0  0  0  0  0  0  0
    5.8446    3.5991    0.8434 H   0  0  0  0  0  0  0  0  0  0  0  0
    5.0916    4.2557   -0.6117 H   0  0  0  0  0  0  0  0  0  0  0  0
    6.2907    2.9769   -0.7719 H   0  0  0  0  0  0  0  0  0  0  0  0
    2.5687    3.5409   -0.2558 H   0  0  0  0  0  0  0  0  0  0  0  0
    0.3619    2.0631    0.1224 H   0  0  0  0  0  0  0  0  0  0  0  0
    0.7746   -0.7546   -1.0513 H   0  0  0  0  0  0  0  0  0  0  0  0
   -1.2116    1.5496   -2.3879 H   0  0  0  0  0  0  0  0  0  0  0  0
   -3.6469    1.5252   -2.6501 H   0  0  0  0  0  0  0  0  0  0  0  0
   -5.7978    0.6549   -2.0088 H   0  0  0  0  0  0  0  0  0  0  0  0
   -9.4673   -1.5834   -0.0504 H   0  0  0  0  0  0  0  0  0  0  0  0
   -8.3742   -1.1787    1.2803 H   0  0  0  0  0  0  0  0  0  0  0  0
   -8.1283   -2.6532    0.2948 H   0  0  0  0  0  0  0  0  0  0  0  0
   -8.0413    1.2137   -0.9049 H   0  0  0  0  0  0  0  0  0  0  0  0
   -9.3266    0.1056   -1.3941 H   0  0  0  0  0  0  0  0  0  0  0  0
   -7.9194    0.2711   -2.4227 H   0  0  0  0  0  0  0  0  0  0  0  0
   -6.1058   -2.2841    1.1108 H   0  0  0  0  0  0  0  0  0  0  0  0
   -3.7491   -2.2565    1.4106 H   0  0  0  0  0  0  0  0  0  0  0  0
   -1.7925   -1.2781    2.0384 H   0  0  0  0  0  0  0  0  0  0  0  0
   -1.4356   -2.5667    0.8181 H   0  0  0  0  0  0  0  0  0  0  0  0
   -0.2504   -1.2938    1.1911 H   0  0  0  0  0  0  0  0  0  0  0  0
    3.1120   -1.7000   -0.5616 H   0  0  0  0  0  0  0  0  0  0  0  0
    3.9294   -1.5155    1.0111 H   0  0  0  0  0  0  0  0  0  0  0  0
    2.2005   -1.3089    0.9063 H   0  0  0  0  0  0  0  0  0  0  0  0
    6.6508    1.6059    1.6527 H   0  0  0  0  0  0  0  0  0  0  0  0
    8.8242    0.4589    1.7386 H   0  0  0  0  0  0  0  0  0  0  0  0
    9.2499   -1.5299    0.3228 H   0  0  0  0  0  0  0  0  0  0  0  0
    7.4932   -2.3587   -1.2169 H   0  0  0  0  0  0  0  0  0  0  0  0
    5.3246   -1.2012   -1.3682 H   0  0  0  0  0  0  0  0  0  0  0  0
  1  2  1  0
  2  3  2  0
  3  4  1  0
  4  5  1  0
  5  6  2  3
  6  7  1  0
  7  8  2  0
  8  9  1  0
  9 10  2  0
 10 11  1  0
 11 12  2  0
 12 13  1  0
 13 14  1  0
 13 15  1  0
 12 16  1  0
 16 17  2  0
 17 18  1  0
 18 19  2  0
 19 20  1  0
  4 21  2  0
 21 22  1  0
 21 23  1  0
 23 24  1  0
 24 25  2  0
 25 26  1  0
 26 27  2  0
 27 28  1  0
 28 29  2  0
 23  2  1  0
 29 24  1  0
 19  7  1  0
 18 10  1  0
  1 30  1  0
  1 31  1  0
  1 32  1  0
  3 33  1  0
  5 34  1  0
  6 35  1  0
  8 36  1  0
  9 37  1  0
 11 38  1  0
 14 39  1  0
 14 40  1  0
 14 41  1  0
 15 42  1  0
 15 43  1  0
 15 44  1  0
 16 45  1  0
 17 46  1  0
 20 47  1  0
 20 48  1  0
 20 49  1  0
 22 50  1  0
 22 51  1  0
 22 52  1  0
 25 53  1  0
 26 54  1  0
 27 55  1  0
 28 56  1  0
 29 57  1  0
M  CHG  1  19   1
M  END
$$$$
