
     RDKit          3D

 46 49  0  0  0  0  0  0  0  0999 V2000
    1.7582    3.2434    1.5080 O   0  0  0  0  0  0  0  0  0  0  0  0
    1.4698    2.1706    2.0310 C   0  0  0  0  0  0  0  0  0  0  0  0
    0.1874    1.4414    1.6654 C   0  0  0  0  0  0  0  0  0  0  0  0
    0.5856   -0.0860    0.7626 S   0  0  0  0  0  0  0  0  0  0  0  0
   -1.0111   -0.6957    0.5083 C   0  0  0  0  0  0  0  0  0  0  0  0
   -2.0505   -0.4315    1.2629 N   0  0  0  0  0  0  0  0  0  0  0  0
   -3.1172   -1.1298    0.7627 N   0  0  0  0  0  0  0  0  0  0  0  0
   -2.7104   -1.8107   -0.2921 C   0  0  0  0  0  0  0  0  0  0  0  0
   -3.5662   -2.7256   -1.1058 C   0  0  0  0  0  0  0  0  0  0  0  0
   -3.9563   -2.1647   -2.4446 C   0  0  0  0  0  0  0  0  0  0  0  0
   -4.2251   -0.8561   -2.8010 C   0  0  0  0  0  0  0  0  0  0  0  0
   -4.5774   -0.7265   -4.1751 C   0  0  0  0  0  0  0  0  0  0  0  0
   -4.5839   -1.9408   -4.8220 C   0  0  0  0  0  0  0  0  0  0  0  0
   -4.1668   -3.2269   -3.7769 S   0  0  0  0  0  0  0  0  0  0  0  0
   -1.3688   -1.5560   -0.4956 N   0  0  0  0  0  0  0  0  0  0  0  0
   -0.5115   -2.1313   -1.5161 C   0  0  0  0  0  0  0  0  0  0  0  0
   -0.4601   -1.2955   -2.7423 C   0  0  0  0  0  0  0  0  0  0  0  0
   -0.6754   -1.5652   -4.0793 C   0  0  0  0  0  0  0  0  0  0  0  0
   -0.4570   -0.3512   -4.7747 C   0  0  0  0  0  0  0  0  0  0  0  0
   -0.1088    0.5776   -3.8234 C   0  0  0  0  0  0  0  0  0  0  0  0
   -0.0997    0.0120   -2.5903 O   0  0  0  0  0  0  0  0  0  0  0  0
    2.2068    1.5057    3.0017 N   0  0  0  0  0  0  0  0  0  0  0  0
    3.4232    1.9093    3.5891 C   0  0  0  0  0  0  0  0  0  0  0  0
    4.0597    3.1218    3.3122 C   0  0  0  0  0  0  0  0  0  0  0  0
    5.2678    3.4510    3.9370 C   0  0  0  0  0  0  0  0  0  0  0  0
    5.8496    2.5703    4.8463 C   0  0  0  0  0  0  0  0  0  0  0  0
    5.2177    1.3631    5.1278 C   0  0  0  0  0  0  0  0  0  0  0  0
    5.9272    0.2702    6.2536 Cl  0  0  0  0  0  0  0  0  0  0  0  0
    4.0130    1.0292    4.5060 C   0  0  0  0  0  0  0  0  0  0  0  0
   -0.4261    2.0968    1.0393 H   0  0  0  0  0  0  0  0  0  0  0  0
   -0.3664    1.2204    2.5840 H   0  0  0  0  0  0  0  0  0  0  0  0
   -3.0557   -3.6902   -1.2159 H   0  0  0  0  0  0  0  0  0  0  0  0
   -4.4870   -2.9330   -0.5444 H   0  0  0  0  0  0  0  0  0  0  0  0
   -4.1678   -0.0234   -2.1078 H   0  0  0  0  0  0  0  0  0  0  0  0
   -4.8213    0.2109   -4.6602 H   0  0  0  0  0  0  0  0  0  0  0  0
   -4.8208   -2.1357   -5.8587 H   0  0  0  0  0  0  0  0  0  0  0  0
    0.4915   -2.2662   -1.0994 H   0  0  0  0  0  0  0  0  0  0  0  0
   -0.8862   -3.1337   -1.7474 H   0  0  0  0  0  0  0  0  0  0  0  0
   -0.9629   -2.5178   -4.5032 H   0  0  0  0  0  0  0  0  0  0  0  0
   -0.5417   -0.1742   -5.8376 H   0  0  0  0  0  0  0  0  0  0  0  0
    0.1498    1.6271   -3.8575 H   0  0  0  0  0  0  0  0  0  0  0  0
    1.8543    0.5965    3.2788 H   0  0  0  0  0  0  0  0  0  0  0  0
    3.6410    3.8404    2.6134 H   0  0  0  0  0  0  0  0  0  0  0  0
    5.7499    4.3993    3.7100 H   0  0  0  0  0  0  0  0  0  0  0  0
    6.7872    2.8315    5.3293 H   0  0  0  0  0  0  0  0  0  0  0  0
    3.5426    0.0790    4.7435 H   0  0  0  0  0  0  0  0  0  0  0  0
  1  2  2  0
  2  3  1  0
  3  4  1  0
  4  5  1  0
  5  6  2  0
  6  7  1  0
  7  8  2  0
  8  9  1  0
  9 10  1  0
 10 11  2  0
 11 12  1  0
 12 13  2  0
 13 14  1  0
  8 15  1  0
 15 16  1  0
 16 17  1  0
 17 18  2  0
 18 19  1  0
 19 20  2  0
 20 21  1  0
  2 22  1  0
 22 23  1  0
 23 24  2  0
 24 25  1  0
 25 26  2  0
 26 27  1  0
 27 28  1  0
 27 29  2  0
 15  5  1  0
 21 17  1  0
 29 23  1  0
 14 10  1  0
  3 30  1  0
  3 31  1  0
  9 32  1  0
  9 33  1  0
 11 34  1  0
 12 35  1  0
 13 36  1  0
 16 37  1  0
 16 38  1  0
 18 39  1  0
 19 40  1  0
 20 41  1  0
 22 42  1  0
 24 43  1  0
 25 44  1  0
 26 45  1  0
 29 46  1  0
M  END
$$$$
