
     RDKit          3D

 54 57  0  0  0  0  0  0  0  0999 V2000
   -5.3563    3.4069   -2.7311 C   0  0  0  0  0  0  0  0  0  0  0  0
   -4.4553    2.5583   -1.8842 C   0  0  0  0  0  0  0  0  0  0  0  0
   -4.8434    1.2816   -1.4775 C   0  0  0  0  0  0  0  0  0  0  0  0
   -4.0030    0.4673   -0.6908 C   0  0  0  0  0  0  0  0  0  0  0  0
   -4.5962   -0.8311   -0.2120 C   0  0  0  0  0  0  0  0  0  0  0  0
   -2.7070    0.9227   -0.3678 C   0  0  0  0  0  0  0  0  0  0  0  0
   -1.7727    0.1599    0.3762 N   0  0  0  0  0  0  0  0  0  0  0  0
   -1.5314   -1.2007    0.2489 C   0  0  0  0  0  0  0  0  0  0  0  0
   -2.0394   -1.9630   -0.5684 O   0  0  0  0  0  0  0  0  0  0  0  0
   -0.4359   -1.6908    1.1977 C   0  0  0  0  0  0  0  0  0  0  0  0
    0.8873   -1.5112    0.5987 N   0  0  0  0  0  0  0  0  0  0  0  0
    1.4958   -0.2782    0.7903 C   0  0  0  0  0  0  0  0  0  0  0  0
    0.8833    0.6425    1.3433 O   0  0  0  0  0  0  0  0  0  0  0  0
    2.7861   -0.1250    0.3173 N   0  0  0  0  0  0  0  0  0  0  0  0
    3.4633    1.1335    0.5946 C   0  0  0  0  0  0  0  0  0  0  0  0
    4.0068    1.1122    1.9824 C   0  0  0  0  0  0  0  0  0  0  0  0
    3.5331    1.5810    3.1916 C   0  0  0  0  0  0  0  0  0  0  0  0
    4.5130    1.2537    4.1590 C   0  0  0  0  0  0  0  0  0  0  0  0
    5.5196    0.6078    3.4811 C   0  0  0  0  0  0  0  0  0  0  0  0
    5.2215    0.5174    2.1601 O   0  0  0  0  0  0  0  0  0  0  0  0
    3.4688   -1.0710   -0.4319 C   0  0  0  0  0  0  0  0  0  0  0  0
    4.5912   -0.9004   -0.9026 O   0  0  0  0  0  0  0  0  0  0  0  0
    2.7676   -2.3376   -0.6982 C   0  0  0  0  0  0  0  0  0  0  0  0
    3.4008   -3.3230   -1.4728 C   0  0  0  0  0  0  0  0  0  0  0  0
    2.7446   -4.5167   -1.7552 C   0  0  0  0  0  0  0  0  0  0  0  0
    1.4580   -4.7202   -1.2701 C   0  0  0  0  0  0  0  0  0  0  0  0
    0.8315   -3.7369   -0.4949 C   0  0  0  0  0  0  0  0  0  0  0  0
    1.4836   -2.5323   -0.1884 C   0  0  0  0  0  0  0  0  0  0  0  0
   -2.3203    2.2314   -0.7491 C   0  0  0  0  0  0  0  0  0  0  0  0
   -0.9715    2.8101   -0.4029 C   0  0  0  0  0  0  0  0  0  0  0  0
   -3.1963    3.0258   -1.5100 C   0  0  0  0  0  0  0  0  0  0  0  0
   -6.3851    3.0329   -2.7178 H   0  0  0  0  0  0  0  0  0  0  0  0
   -5.3776    4.4355   -2.3558 H   0  0  0  0  0  0  0  0  0  0  0  0
   -5.0029    3.4104   -3.7666 H   0  0  0  0  0  0  0  0  0  0  0  0
   -5.8310    0.9154   -1.7537 H   0  0  0  0  0  0  0  0  0  0  0  0
   -4.4536   -1.6176   -0.9591 H   0  0  0  0  0  0  0  0  0  0  0  0
   -4.1790   -1.1396    0.7509 H   0  0  0  0  0  0  0  0  0  0  0  0
   -5.6739   -0.7213   -0.0434 H   0  0  0  0  0  0  0  0  0  0  0  0
   -0.9923    0.6754    0.7819 H   0  0  0  0  0  0  0  0  0  0  0  0
   -0.6207   -2.7303    1.4827 H   0  0  0  0  0  0  0  0  0  0  0  0
   -0.4998   -1.1266    2.1369 H   0  0  0  0  0  0  0  0  0  0  0  0
    2.7540    1.9627    0.4868 H   0  0  0  0  0  0  0  0  0  0  0  0
    4.2736    1.3139   -0.1200 H   0  0  0  0  0  0  0  0  0  0  0  0
    2.5915    2.0896    3.3502 H   0  0  0  0  0  0  0  0  0  0  0  0
    4.4891    1.4603    5.2195 H   0  0  0  0  0  0  0  0  0  0  0  0
    6.4646    0.1732    3.7764 H   0  0  0  0  0  0  0  0  0  0  0  0
    4.4042   -3.1575   -1.8615 H   0  0  0  0  0  0  0  0  0  0  0  0
    3.2305   -5.2785   -2.3595 H   0  0  0  0  0  0  0  0  0  0  0  0
    0.9298   -5.6428   -1.5017 H   0  0  0  0  0  0  0  0  0  0  0  0
   -0.1850   -3.9438   -0.1728 H   0  0  0  0  0  0  0  0  0  0  0  0
   -0.8447    3.8168   -0.8143 H   0  0  0  0  0  0  0  0  0  0  0  0
   -0.8587    2.8875    0.6828 H   0  0  0  0  0  0  0  0  0  0  0  0
   -0.1720    2.1885   -0.8180 H   0  0  0  0  0  0  0  0  0  0  0  0
   -2.8883    4.0222   -1.8239 H   0  0  0  0  0  0  0  0  0  0  0  0
  1  2  1  0
  2  3  2  0
  3  4  1  0
  4  5  1  0
  4  6  2  0
  6  7  1  0
  7  8  1  0
  8  9  2  0
  8 10  1  0
 10 11  1  0
 11 12  1  0
 12 13  2  0
 12 14  1  0
 14 15  1  0
 15 16  1  0
 16 17  2  0
 17 18  1  0
 18 19  2  0
 19 20  1  0
 14 21  1  0
 21 22  2  0
 21 23  1  0
 23 24  2  0
 24 25  1  0
 25 26  2  0
 26 27  1  0
 27 28  2  0
  6 29  1  0
 29 30  1  0
 29 31  2  0
 31  2  1  0
 28 11  1  0
 20 16  1  0
 28 23  1  0
  1 32  1  0
  1 33  1  0
  1 34  1  0
  3 35  1  0
  5 36  1  0
  5 37  1  0
  5 38  1  0
  7 39  1  0
 10 40  1  0
 10 41  1  0
 15 42  1  0
 15 43  1  0
 17 44  1  0
 18 45  1  0
 19 46  1  0
 24 47  1  0
 25 48  1  0
 26 49  1  0
 27 50  1  0
 30 51  1  0
 30 52  1  0
 30 53  1  0
 31 54  1  0
M  END
$$$$
