
     RDKit          3D

 48 50  0  0  0  0  0  0  0  0999 V2000
   -3.9494   -1.9164   -3.8150 C   0  0  0  0  0  0  0  0  0  0  0  0
   -4.5791   -0.8382   -3.1367 O   0  0  0  0  0  0  0  0  0  0  0  0
   -3.9331   -0.3112   -2.0485 C   0  0  0  0  0  0  0  0  0  0  0  0
   -2.8070   -0.8713   -1.4409 C   0  0  0  0  0  0  0  0  0  0  0  0
   -2.2164   -0.2510   -0.3309 C   0  0  0  0  0  0  0  0  0  0  0  0
   -1.0439   -0.8788    0.2940 C   0  0  0  0  0  0  0  0  0  0  0  0
    0.1987   -0.3548    0.3328 C   0  0  0  0  0  0  0  0  0  0  0  0
    0.5189    0.9020   -0.2482 C   0  0  0  0  0  0  0  0  0  0  0  0
    0.8723    1.9135   -0.6936 N   0  0  0  0  0  0  0  0  0  0  0  0
    1.2743   -1.1673    1.0124 C   0  0  0  0  0  0  0  0  0  0  0  0
    0.9736   -2.2184    1.5714 O   0  0  0  0  0  0  0  0  0  0  0  0
    2.5507   -0.6319    0.9324 N   0  0  0  0  0  0  0  0  0  0  0  0
    3.7613   -1.1544    1.4737 C   0  0  0  0  0  0  0  0  0  0  0  0
    3.7811   -2.3381    2.2186 C   0  0  0  0  0  0  0  0  0  0  0  0
    4.9738   -2.8293    2.7389 C   0  0  0  0  0  0  0  0  0  0  0  0
    6.1611   -2.1399    2.5190 C   0  0  0  0  0  0  0  0  0  0  0  0
    6.1951   -0.9645    1.7906 C   0  0  0  0  0  0  0  0  0  0  0  0
    7.3937   -0.3751    1.6397 N   0  0  0  0  0  0  0  0  0  0  0  0
    7.4623    0.7716    0.9372 C   0  0  0  0  0  0  0  0  0  0  0  0
    6.3674    1.3753    0.3625 C   0  0  0  0  0  0  0  0  0  0  0  0
    5.1272    0.7630    0.5217 C   0  0  0  0  0  0  0  0  0  0  0  0
    4.9912   -0.4459    1.2516 C   0  0  0  0  0  0  0  0  0  0  0  0
   -2.7611    0.9339    0.1842 C   0  0  0  0  0  0  0  0  0  0  0  0
   -3.8826    1.5128   -0.4137 C   0  0  0  0  0  0  0  0  0  0  0  0
   -4.4859    2.6653    0.0201 O   0  0  0  0  0  0  0  0  0  0  0  0
   -3.7126    3.5229    0.8494 C   0  0  0  0  0  0  0  0  0  0  0  0
   -4.4755    0.8696   -1.5131 C   0  0  0  0  0  0  0  0  0  0  0  0
   -5.5628    1.4540   -2.1255 O   0  0  0  0  0  0  0  0  0  0  0  0
   -6.7684    0.9432   -1.5582 C   0  0  0  0  0  0  0  0  0  0  0  0
   -3.9346   -2.8162   -3.1915 H   0  0  0  0  0  0  0  0  0  0  0  0
   -4.5411   -2.1403   -4.7073 H   0  0  0  0  0  0  0  0  0  0  0  0
   -2.9403   -1.6463   -4.1439 H   0  0  0  0  0  0  0  0  0  0  0  0
   -2.3738   -1.7947   -1.8135 H   0  0  0  0  0  0  0  0  0  0  0  0
   -1.2458   -1.8574    0.7307 H   0  0  0  0  0  0  0  0  0  0  0  0
    2.6621    0.2326    0.4234 H   0  0  0  0  0  0  0  0  0  0  0  0
    2.8838   -2.9129    2.4214 H   0  0  0  0  0  0  0  0  0  0  0  0
    4.9779   -3.7500    3.3175 H   0  0  0  0  0  0  0  0  0  0  0  0
    7.0892   -2.5316    2.9302 H   0  0  0  0  0  0  0  0  0  0  0  0
    8.4551    1.2022    0.8476 H   0  0  0  0  0  0  0  0  0  0  0  0
    6.4706    2.2985   -0.1970 H   0  0  0  0  0  0  0  0  0  0  0  0
    4.2787    1.2575    0.0606 H   0  0  0  0  0  0  0  0  0  0  0  0
   -2.3102    1.3833    1.0631 H   0  0  0  0  0  0  0  0  0  0  0  0
   -3.6038    3.0975    1.8524 H   0  0  0  0  0  0  0  0  0  0  0  0
   -4.2523    4.4705    0.9471 H   0  0  0  0  0  0  0  0  0  0  0  0
   -2.7353    3.7401    0.4040 H   0  0  0  0  0  0  0  0  0  0  0  0
   -7.6073    1.4528   -2.0418 H   0  0  0  0  0  0  0  0  0  0  0  0
   -6.8250    1.1471   -0.4832 H   0  0  0  0  0  0  0  0  0  0  0  0
   -6.8728   -0.1314   -1.7456 H   0  0  0  0  0  0  0  0  0  0  0  0
  1  2  1  0
  2  3  1  0
  3  4  2  0
  4  5  1  0
  5  6  1  0
  6  7  2  3
  7  8  1  0
  8  9  3  0
  7 10  1  0
 10 11  2  0
 10 12  1  0
 12 13  1  0
 13 14  2  0
 14 15  1  0
 15 16  2  0
 16 17  1  0
 17 18  2  0
 18 19  1  0
 19 20  2  0
 20 21  1  0
 21 22  2  0
  5 23  2  0
 23 24  1  0
 24 25  1  0
 25 26  1  0
 24 27  2  0
 27 28  1  0
 28 29  1  0
 27  3  1  0
 22 13  1  0
 22 17  1  0
  1 30  1  0
  1 31  1  0
  1 32  1  0
  4 33  1  0
  6 34  1  0
 12 35  1  0
 14 36  1  0
 15 37  1  0
 16 38  1  0
 19 39  1  0
 20 40  1  0
 21 41  1  0
 23 42  1  0
 26 43  1  0
 26 44  1  0
 26 45  1  0
 29 46  1  0
 29 47  1  0
 29 48  1  0
M  END
$$$$
