
     RDKit          3D

 36 36  0  0  0  0  0  0  0  0999 V2000
   -0.9701   -2.6632    3.2656 C   0  0  0  0  0  0  0  0  0  0  0  0
   -1.3819   -1.5679    2.2989 C   0  0  0  0  0  0  0  0  0  0  0  0
   -0.9983   -1.8893    0.9638 O   0  0  0  0  0  0  0  0  0  0  0  0
    0.3514   -1.5405    0.6637 C   0  0  0  0  0  0  0  0  0  0  0  0
    0.6474   -1.9668   -0.7705 C   0  0  0  0  0  0  0  0  0  0  0  0
    2.0178   -1.4981   -1.2478 C   0  0  0  0  0  0  0  0  0  0  0  0
    2.0757   -0.0598   -1.4356 N   0  0  0  0  0  0  0  0  0  0  0  0
    1.6402    0.5363   -2.5997 C   0  0  0  0  0  0  0  0  0  0  0  0
    1.2240   -0.0653   -3.5809 O   0  0  0  0  0  0  0  0  0  0  0  0
    1.6969    2.0166   -2.5733 C   0  0  0  0  0  0  0  0  0  0  0  0
    2.7515    2.6306   -3.2982 C   0  0  0  0  0  0  0  0  0  0  0  0
    3.6118    3.1660   -3.8624 N   0  0  0  0  0  0  0  0  0  0  0  0
    0.8053    2.7579   -1.8919 C   0  0  0  0  0  0  0  0  0  0  0  0
   -0.3165    2.2312   -1.1928 C   0  0  0  0  0  0  0  0  0  0  0  0
   -1.2403    1.2527   -1.5584 C   0  0  0  0  0  0  0  0  0  0  0  0
   -2.1731    1.1032   -0.5019 C   0  0  0  0  0  0  0  0  0  0  0  0
   -1.7817    2.0128    0.4440 C   0  0  0  0  0  0  0  0  0  0  0  0
   -2.3027    2.3272    1.7357 N   0  0  0  0  0  4  0  0  0  0  0  0
   -1.7503    3.2298    2.3777 O   0  0  0  0  0  0  0  0  0  0  0  0
   -3.2674    1.6522    2.1182 O   0  0  0  0  0  1  0  0  0  0  0  0
   -0.6849    2.7066    0.0480 O   0  0  0  0  0  0  0  0  0  0  0  0
   -1.3668   -3.6307    2.9402 H   0  0  0  0  0  0  0  0  0  0  0  0
   -1.3429   -2.4490    4.2716 H   0  0  0  0  0  0  0  0  0  0  0  0
    0.1191   -2.7639    3.3144 H   0  0  0  0  0  0  0  0  0  0  0  0
   -0.9706   -0.5976    2.5994 H   0  0  0  0  0  0  0  0  0  0  0  0
   -2.4736   -1.4797    2.3049 H   0  0  0  0  0  0  0  0  0  0  0  0
    0.4729   -0.4588    0.7816 H   0  0  0  0  0  0  0  0  0  0  0  0
    1.0361   -2.0486    1.3489 H   0  0  0  0  0  0  0  0  0  0  0  0
   -0.1419   -1.6015   -1.4402 H   0  0  0  0  0  0  0  0  0  0  0  0
    0.5998   -3.0612   -0.8246 H   0  0  0  0  0  0  0  0  0  0  0  0
    2.2572   -1.9820   -2.2010 H   0  0  0  0  0  0  0  0  0  0  0  0
    2.7971   -1.7680   -0.5286 H   0  0  0  0  0  0  0  0  0  0  0  0
    2.3790    0.5143   -0.6591 H   0  0  0  0  0  0  0  0  0  0  0  0
    0.9264    3.8388   -1.8478 H   0  0  0  0  0  0  0  0  0  0  0  0
   -1.2393    0.6982   -2.4910 H   0  0  0  0  0  0  0  0  0  0  0  0
   -3.0075    0.4176   -0.4419 H   0  0  0  0  0  0  0  0  0  0  0  0
  1  2  1  0
  2  3  1  0
  3  4  1  0
  4  5  1  0
  5  6  1  0
  6  7  1  0
  7  8  1  0
  8  9  2  0
  8 10  1  0
 10 11  1  0
 11 12  3  0
 10 13  2  3
 13 14  1  0
 14 15  2  0
 15 16  1  0
 16 17  2  0
 17 18  1  0
 18 19  2  0
 18 20  1  0
 17 21  1  0
 21 14  1  0
  1 22  1  0
  1 23  1  0
  1 24  1  0
  2 25  1  0
  2 26  1  0
  4 27  1  0
  4 28  1  0
  5 29  1  0
  5 30  1  0
  6 31  1  0
  6 32  1  0
  7 33  1  0
 13 34  1  0
 15 35  1  0
 16 36  1  0
M  CHG  2  18   1  20  -1
M  END
$$$$
