
     RDKit          3D

 59 64  0  0  0  0  0  0  0  0999 V2000
    2.6453    1.0532    3.0190 O   0  0  0  0  0  0  0  0  0  0  0  0
    2.8434    0.6366    1.8810 C   0  0  0  0  0  0  0  0  0  0  0  0
    3.9530   -0.3204    1.6714 C   0  0  0  0  0  0  0  0  0  0  0  0
    5.0010    0.0188    0.9076 C   0  0  0  0  0  0  0  0  0  0  0  0
    6.1084   -0.8550    0.7055 C   0  0  0  0  0  0  0  0  0  0  0  0
    6.4727   -2.0312    1.3418 C   0  0  0  0  0  0  0  0  0  0  0  0
    7.6725   -2.6026    0.8260 C   0  0  0  0  0  0  0  0  0  0  0  0
    8.1983   -1.8515   -0.1974 C   0  0  0  0  0  0  0  0  0  0  0  0
    7.2559   -0.4672   -0.5253 S   0  0  0  0  0  0  0  0  0  0  0  0
    2.0656    0.9700    0.7856 N   0  0  0  0  0  0  0  0  0  0  0  0
    2.1625    0.3428   -0.5302 C   0  0  0  0  0  0  0  0  0  0  0  0
    0.8959    0.5416   -1.3671 C   0  0  0  0  0  0  0  0  0  0  0  0
   -0.3842    0.3305   -0.5116 C   0  0  0  0  0  0  0  0  0  0  0  0
   -0.3651    1.3607    0.6629 C   0  0  0  0  0  0  0  0  0  0  0  0
    1.0149    1.9598    0.9425 C   0  0  0  0  0  0  0  0  0  0  0  0
   -0.3206   -0.9699    0.1351 O   0  0  0  0  0  0  0  0  0  0  0  0
   -0.5639   -2.0561   -0.6547 C   0  0  0  0  0  0  0  0  0  0  0  0
   -0.1386   -3.2873   -0.1535 C   0  0  0  0  0  0  0  0  0  0  0  0
   -0.3291   -4.4478   -0.9053 C   0  0  0  0  0  0  0  0  0  0  0  0
   -0.9482   -4.3681   -2.1490 C   0  0  0  0  0  0  0  0  0  0  0  0
   -1.1264   -5.4840   -2.8672 F   0  0  0  0  0  0  0  0  0  0  0  0
   -1.3900   -3.1519   -2.6534 C   0  0  0  0  0  0  0  0  0  0  0  0
   -1.2031   -1.9953   -1.8922 C   0  0  0  0  0  0  0  0  0  0  0  0
   -1.6965   -0.6929   -2.3758 C   0  0  0  0  0  0  0  0  0  0  0  0
   -2.1202   -0.5989   -3.5225 O   0  0  0  0  0  0  0  0  0  0  0  0
   -1.6864    0.4397   -1.3534 C   0  0  0  0  0  0  0  0  0  0  0  0
   -2.9898    0.3616   -0.5664 C   0  0  0  0  0  0  0  0  0  0  0  0
   -3.4451    1.7726   -0.6959 C   0  0  0  0  0  0  0  0  0  0  0  0
   -4.6133    2.2895    0.0552 C   0  0  0  0  0  0  0  0  0  0  0  0
   -5.4218    1.4435    0.8230 C   0  0  0  0  0  0  0  0  0  0  0  0
   -6.5088    1.9665    1.5286 C   0  0  0  0  0  0  0  0  0  0  0  0
   -6.7919    3.3303    1.4700 C   0  0  0  0  0  0  0  0  0  0  0  0
   -5.9928    4.1758    0.7029 C   0  0  0  0  0  0  0  0  0  0  0  0
   -4.9066    3.6573   -0.0045 C   0  0  0  0  0  0  0  0  0  0  0  0
   -2.7395    2.5038   -1.4975 N   0  0  0  0  0  0  0  0  0  0  0  0
   -1.7231    1.6919   -2.0471 O   0  0  0  0  0  0  0  0  0  0  0  0
    3.8819   -1.2370    2.2408 H   0  0  0  0  0  0  0  0  0  0  0  0
    5.0105    0.9876    0.4108 H   0  0  0  0  0  0  0  0  0  0  0  0
    5.9123   -2.4707    2.1577 H   0  0  0  0  0  0  0  0  0  0  0  0
    8.1259   -3.5165    1.1911 H   0  0  0  0  0  0  0  0  0  0  0  0
    9.0962   -2.0459   -0.7674 H   0  0  0  0  0  0  0  0  0  0  0  0
    3.0165    0.7828   -1.0561 H   0  0  0  0  0  0  0  0  0  0  0  0
    2.3639   -0.7263   -0.4026 H   0  0  0  0  0  0  0  0  0  0  0  0
    0.8922    1.5530   -1.7937 H   0  0  0  0  0  0  0  0  0  0  0  0
    0.9464   -0.1485   -2.2163 H   0  0  0  0  0  0  0  0  0  0  0  0
   -1.0327    2.2069    0.4808 H   0  0  0  0  0  0  0  0  0  0  0  0
   -0.7230    0.8734    1.5795 H   0  0  0  0  0  0  0  0  0  0  0  0
    1.0261    2.4078    1.9415 H   0  0  0  0  0  0  0  0  0  0  0  0
    1.2267    2.7729    0.2371 H   0  0  0  0  0  0  0  0  0  0  0  0
    0.3505   -3.3434    0.8166 H   0  0  0  0  0  0  0  0  0  0  0  0
    0.0029   -5.4121   -0.5320 H   0  0  0  0  0  0  0  0  0  0  0  0
   -1.8795   -3.1170   -3.6230 H   0  0  0  0  0  0  0  0  0  0  0  0
   -3.7359   -0.2966   -1.0246 H   0  0  0  0  0  0  0  0  0  0  0  0
   -2.8508    0.0740    0.4785 H   0  0  0  0  0  0  0  0  0  0  0  0
   -5.2343    0.3763    0.8840 H   0  0  0  0  0  0  0  0  0  0  0  0
   -7.1379    1.3093    2.1244 H   0  0  0  0  0  0  0  0  0  0  0  0
   -7.6377    3.7354    2.0206 H   0  0  0  0  0  0  0  0  0  0  0  0
   -6.2127    5.2391    0.6549 H   0  0  0  0  0  0  0  0  0  0  0  0
   -4.2916    4.3290   -0.6004 H   0  0  0  0  0  0  0  0  0  0  0  0
  1  2  2  0
  2  3  1  0
  3  4  2  3
  4  5  1  0
  5  6  2  0
  6  7  1  0
  7  8  2  0
  8  9  1  0
  2 10  1  0
 10 11  1  0
 11 12  1  0
 12 13  1  0
 13 14  1  0
 14 15  1  0
 13 16  1  0
 16 17  1  0
 17 18  2  0
 18 19  1  0
 19 20  2  0
 20 21  1  0
 20 22  1  0
 22 23  2  0
 23 24  1  0
 24 25  2  0
 24 26  1  0
 26 27  1  0
 27 28  1  0
 28 29  1  0
 29 30  2  0
 30 31  1  0
 31 32  2  0
 32 33  1  0
 33 34  2  0
 28 35  2  0
 35 36  1  0
  9  5  1  0
 15 10  1  0
 23 17  1  0
 36 26  1  0
 26 13  1  0
 34 29  1  0
  3 37  1  0
  4 38  1  0
  6 39  1  0
  7 40  1  0
  8 41  1  0
 11 42  1  0
 11 43  1  0
 12 44  1  0
 12 45  1  0
 14 46  1  0
 14 47  1  0
 15 48  1  0
 15 49  1  0
 18 50  1  0
 19 51  1  0
 22 52  1  0
 27 53  1  0
 27 54  1  0
 30 55  1  0
 31 56  1  0
 32 57  1  0
 33 58  1  0
 34 59  1  0
M  END
$$$$
