
     RDKit          3D

 59 64  0  0  0  0  0  0  0  0999 V2000
    3.7764   -2.0583    1.8778 O   0  0  0  0  0  0  0  0  0  0  0  0
    3.3407   -1.0811    1.2727 C   0  0  0  0  0  0  0  0  0  0  0  0
    4.1386    0.1722    1.1979 C   0  0  0  0  0  0  0  0  0  0  0  0
    5.4602    0.1202    1.4259 C   0  0  0  0  0  0  0  0  0  0  0  0
    6.3294    1.2548    1.4068 C   0  0  0  0  0  0  0  0  0  0  0  0
    7.6806    1.2611    1.7233 C   0  0  0  0  0  0  0  0  0  0  0  0
    8.2872    2.5449    1.6067 C   0  0  0  0  0  0  0  0  0  0  0  0
    7.3861    3.4986    1.1991 C   0  0  0  0  0  0  0  0  0  0  0  0
    5.8285    2.8447    0.9613 S   0  0  0  0  0  0  0  0  0  0  0  0
    2.0956   -1.0725    0.6567 N   0  0  0  0  0  0  0  0  0  0  0  0
    1.6092   -0.0264   -0.2404 C   0  0  0  0  0  0  0  0  0  0  0  0
    0.6272   -0.5487   -1.2866 C   0  0  0  0  0  0  0  0  0  0  0  0
   -0.5606   -1.3765   -0.7072 C   0  0  0  0  0  0  0  0  0  0  0  0
   -0.2339   -1.8611    0.7270 C   0  0  0  0  0  0  0  0  0  0  0  0
    1.2377   -2.2358    0.8542 C   0  0  0  0  0  0  0  0  0  0  0  0
   -0.5947   -2.5495   -1.5744 O   0  0  0  0  0  0  0  0  0  0  0  0
   -1.7397   -3.2894   -1.6121 C   0  0  0  0  0  0  0  0  0  0  0  0
   -1.6494   -4.5275   -2.2503 C   0  0  0  0  0  0  0  0  0  0  0  0
   -2.7652   -5.3644   -2.3114 C   0  0  0  0  0  0  0  0  0  0  0  0
   -3.9642   -4.9561   -1.7350 C   0  0  0  0  0  0  0  0  0  0  0  0
   -5.0299   -5.7646   -1.7914 F   0  0  0  0  0  0  0  0  0  0  0  0
   -4.0729   -3.7233   -1.1058 C   0  0  0  0  0  0  0  0  0  0  0  0
   -2.9537   -2.8889   -1.0603 C   0  0  0  0  0  0  0  0  0  0  0  0
   -3.0303   -1.5683   -0.4236 C   0  0  0  0  0  0  0  0  0  0  0  0
   -3.9506   -1.3131    0.3482 O   0  0  0  0  0  0  0  0  0  0  0  0
   -1.9075   -0.6002   -0.7768 C   0  0  0  0  0  0  0  0  0  0  0  0
   -1.9788    0.6637    0.0650 C   0  0  0  0  0  0  0  0  0  0  0  0
   -2.7745    1.5151   -0.8660 C   0  0  0  0  0  0  0  0  0  0  0  0
   -3.3987    2.7874   -0.4329 C   0  0  0  0  0  0  0  0  0  0  0  0
   -3.2186    3.2904    0.8607 C   0  0  0  0  0  0  0  0  0  0  0  0
   -3.8186    4.4968    1.2322 C   0  0  0  0  0  0  0  0  0  0  0  0
   -4.5966    5.2041    0.3165 C   0  0  0  0  0  0  0  0  0  0  0  0
   -4.7777    4.7086   -0.9732 C   0  0  0  0  0  0  0  0  0  0  0  0
   -4.1803    3.5038   -1.3482 C   0  0  0  0  0  0  0  0  0  0  0  0
   -2.8367    1.0723   -2.0817 N   0  0  0  0  0  0  0  0  0  0  0  0
   -2.1439   -0.1570   -2.1248 O   0  0  0  0  0  0  0  0  0  0  0  0
    3.6154    1.0960    1.0036 H   0  0  0  0  0  0  0  0  0  0  0  0
    5.9200   -0.8424    1.6478 H   0  0  0  0  0  0  0  0  0  0  0  0
    8.2170    0.3707    2.0312 H   0  0  0  0  0  0  0  0  0  0  0  0
    9.3299    2.7545    1.8112 H   0  0  0  0  0  0  0  0  0  0  0  0
    7.5675    4.5508    1.0280 H   0  0  0  0  0  0  0  0  0  0  0  0
    1.1456    0.7413    0.3868 H   0  0  0  0  0  0  0  0  0  0  0  0
    2.4529    0.4401   -0.7594 H   0  0  0  0  0  0  0  0  0  0  0  0
    1.1984   -1.1716   -1.9900 H   0  0  0  0  0  0  0  0  0  0  0  0
    0.2712    0.2991   -1.8828 H   0  0  0  0  0  0  0  0  0  0  0  0
   -0.8340   -2.7385    0.9932 H   0  0  0  0  0  0  0  0  0  0  0  0
   -0.4610   -1.0790    1.4614 H   0  0  0  0  0  0  0  0  0  0  0  0
    1.5228   -2.9918    0.1131 H   0  0  0  0  0  0  0  0  0  0  0  0
    1.4207   -2.6646    1.8460 H   0  0  0  0  0  0  0  0  0  0  0  0
   -0.7088   -4.8446   -2.6945 H   0  0  0  0  0  0  0  0  0  0  0  0
   -2.7067   -6.3314   -2.8020 H   0  0  0  0  0  0  0  0  0  0  0  0
   -5.0206   -3.4205   -0.6707 H   0  0  0  0  0  0  0  0  0  0  0  0
   -1.0102    1.1481    0.2025 H   0  0  0  0  0  0  0  0  0  0  0  0
   -2.4586    0.5284    1.0365 H   0  0  0  0  0  0  0  0  0  0  0  0
   -2.6189    2.7666    1.5983 H   0  0  0  0  0  0  0  0  0  0  0  0
   -3.6811    4.8856    2.2384 H   0  0  0  0  0  0  0  0  0  0  0  0
   -5.0640    6.1415    0.6085 H   0  0  0  0  0  0  0  0  0  0  0  0
   -5.3853    5.2577   -1.6884 H   0  0  0  0  0  0  0  0  0  0  0  0
   -4.3321    3.1278   -2.3583 H   0  0  0  0  0  0  0  0  0  0  0  0
  1  2  2  0
  2  3  1  0
  3  4  2  3
  4  5  1  0
  5  6  2  0
  6  7  1  0
  7  8  2  0
  8  9  1  0
  2 10  1  0
 10 11  1  0
 11 12  1  0
 12 13  1  0
 13 14  1  0
 14 15  1  0
 13 16  1  0
 16 17  1  0
 17 18  2  0
 18 19  1  0
 19 20  2  0
 20 21  1  0
 20 22  1  0
 22 23  2  0
 23 24  1  0
 24 25  2  0
 24 26  1  0
 26 27  1  0
 27 28  1  0
 28 29  1  0
 29 30  2  0
 30 31  1  0
 31 32  2  0
 32 33  1  0
 33 34  2  0
 28 35  2  0
 35 36  1  0
  9  5  1  0
 15 10  1  0
 23 17  1  0
 36 26  1  0
 26 13  1  0
 34 29  1  0
  3 37  1  0
  4 38  1  0
  6 39  1  0
  7 40  1  0
  8 41  1  0
 11 42  1  0
 11 43  1  0
 12 44  1  0
 12 45  1  0
 14 46  1  0
 14 47  1  0
 15 48  1  0
 15 49  1  0
 18 50  1  0
 19 51  1  0
 22 52  1  0
 27 53  1  0
 27 54  1  0
 30 55  1  0
 31 56  1  0
 32 57  1  0
 33 58  1  0
 34 59  1  0
M  END
$$$$
