
     RDKit          3D

 27 27  0  0  0  0  0  0  0  0999 V2000
   -0.7537    1.2201   -1.2723 C   0  0  0  0  0  0  0  0  0  0  0  0
   -1.4202    0.2443   -0.2995 C   0  0  0  0  0  0  0  0  0  0  0  0
   -2.7249   -0.2735   -0.9329 C   0  0  0  0  0  0  0  0  0  0  0  0
   -1.7652    0.9799    1.0036 C   0  0  0  0  0  0  0  0  0  0  0  0
   -0.3617   -1.2005    0.0313 S   0  0  0  0  0  6  0  0  0  0  0  0
    0.0504   -1.8276   -1.2071 O   0  0  0  0  0  0  0  0  0  0  0  0
   -0.9675   -1.9907    1.0871 O   0  0  0  0  0  0  0  0  0  0  0  0
    1.1084   -0.6241    0.7684 C   0  0  0  0  0  0  0  0  0  0  0  0
    1.1906   -0.3449    2.1738 C   0  0  0  0  0  0  0  0  0  0  0  0
    2.4600    0.0130    2.5638 C   0  0  0  0  0  0  0  0  0  0  0  0
    3.5585   -0.0225    1.2593 S   0  0  0  0  0  0  0  0  0  0  0  0
    2.3364   -0.4870    0.1437 C   0  0  0  0  0  0  0  0  0  0  0  0
    2.7343   -0.6841   -1.2248 C   0  0  0  0  0  0  0  0  0  0  0  0
    3.7085   -1.2845   -1.6531 O   0  0  0  0  0  0  0  0  0  0  0  0
    1.9250   -0.0154   -2.0717 O   0  0  0  0  0  0  0  0  0  0  0  0
   -0.5342    0.7393   -2.2310 H   0  0  0  0  0  0  0  0  0  0  0  0
    0.1810    1.6189   -0.8662 H   0  0  0  0  0  0  0  0  0  0  0  0
   -1.4074    2.0751   -1.4807 H   0  0  0  0  0  0  0  0  0  0  0  0
   -2.5272   -0.8097   -1.8679 H   0  0  0  0  0  0  0  0  0  0  0  0
   -3.4117    0.5498   -1.1591 H   0  0  0  0  0  0  0  0  0  0  0  0
   -3.2447   -0.9670   -0.2622 H   0  0  0  0  0  0  0  0  0  0  0  0
   -0.8810    1.4417    1.4531 H   0  0  0  0  0  0  0  0  0  0  0  0
   -2.2034    0.3041    1.7457 H   0  0  0  0  0  0  0  0  0  0  0  0
   -2.4886    1.7831    0.8213 H   0  0  0  0  0  0  0  0  0  0  0  0
    0.3621   -0.4303    2.8688 H   0  0  0  0  0  0  0  0  0  0  0  0
    2.8019    0.2674    3.5585 H   0  0  0  0  0  0  0  0  0  0  0  0
    2.2743   -0.2750   -2.9499 H   0  0  0  0  0  0  0  0  0  0  0  0
  1  2  1  0
  2  3  1  0
  2  4  1  0
  2  5  1  0
  5  6  2  0
  5  7  2  0
  5  8  1  0
  8  9  1  0
  9 10  2  0
 10 11  1  0
 11 12  1  0
 12 13  1  0
 13 14  2  0
 13 15  1  0
 12  8  2  0
  1 16  1  0
  1 17  1  0
  1 18  1  0
  3 19  1  0
  3 20  1  0
  3 21  1  0
  4 22  1  0
  4 23  1  0
  4 24  1  0
  9 25  1  0
 10 26  1  0
 15 27  1  0
M  END
$$$$
