
     RDKit          3D

 39 39  0  0  0  0  0  0  0  0999 V2000
   -3.4326    4.0773   -0.0047 C   0  0  0  0  0  0  0  0  0  0  0  0
   -2.4953    3.0042   -0.4669 C   0  0  0  0  0  0  0  0  0  0  0  0
   -2.5511    2.4622   -1.5612 O   0  0  0  0  0  0  0  0  0  0  0  0
   -1.5926    2.7230    0.5126 O   0  0  0  0  0  0  0  0  0  0  0  0
   -0.6061    1.7286    0.1869 C   0  0  0  0  0  0  0  0  0  0  0  0
   -1.1610    0.3289    0.4463 C   0  0  0  0  0  0  0  0  0  0  0  0
   -0.0884   -0.7640    0.2894 C   0  0  0  0  0  0  0  0  0  0  0  0
    0.2997   -0.8548   -1.1302 N   0  0  0  0  0  0  0  0  0  0  0  0
    1.9314   -0.7934   -1.4821 S   0  0  0  0  0  6  0  0  0  0  0  0
    2.0587   -0.9480   -2.9114 O   0  0  0  0  0  0  0  0  0  0  0  0
    2.6304   -1.6625   -0.5656 O   0  0  0  0  0  0  0  0  0  0  0  0
    2.3233    0.7309   -1.1057 O   0  0  0  0  0  0  0  0  0  0  0  0
    3.6269    1.1794   -1.4693 C   0  0  0  0  0  0  0  0  0  0  0  0
    3.9737    2.4972   -0.7651 C   0  0  0  0  0  0  0  0  0  0  0  0
    5.6166    3.0226   -1.2445 Cl  0  0  0  0  0  0  0  0  0  0  0  0
    2.8069    3.7808   -1.2120 Cl  0  0  0  0  0  0  0  0  0  0  0  0
    3.9364    2.2834    1.0146 Cl  0  0  0  0  0  0  0  0  0  0  0  0
   -0.5644   -2.1183    0.7924 C   0  0  0  0  0  0  0  0  0  0  0  0
    0.2929   -2.9052    1.5784 C   0  0  0  0  0  0  0  0  0  0  0  0
   -0.1068   -4.1636    2.0321 C   0  0  0  0  0  0  0  0  0  0  0  0
   -1.3651   -4.6582    1.6995 C   0  0  0  0  0  0  0  0  0  0  0  0
   -2.2217   -3.8986    0.9068 C   0  0  0  0  0  0  0  0  0  0  0  0
   -1.8232   -2.6401    0.4507 C   0  0  0  0  0  0  0  0  0  0  0  0
   -4.1371    4.3134   -0.8073 H   0  0  0  0  0  0  0  0  0  0  0  0
   -2.8696    4.9817    0.2396 H   0  0  0  0  0  0  0  0  0  0  0  0
   -3.9964    3.7279    0.8638 H   0  0  0  0  0  0  0  0  0  0  0  0
   -0.2626    1.8535   -0.8464 H   0  0  0  0  0  0  0  0  0  0  0  0
    0.2542    1.9202    0.8374 H   0  0  0  0  0  0  0  0  0  0  0  0
   -1.5787    0.3024    1.4618 H   0  0  0  0  0  0  0  0  0  0  0  0
   -2.0088    0.1526   -0.2270 H   0  0  0  0  0  0  0  0  0  0  0  0
    0.7668   -0.4490    0.9017 H   0  0  0  0  0  0  0  0  0  0  0  0
   -0.1485   -1.6169   -1.6392 H   0  0  0  0  0  0  0  0  0  0  0  0
    4.3626    0.4091   -1.2041 H   0  0  0  0  0  0  0  0  0  0  0  0
    3.6552    1.3074   -2.5584 H   0  0  0  0  0  0  0  0  0  0  0  0
    1.2891   -2.5485    1.8360 H   0  0  0  0  0  0  0  0  0  0  0  0
    0.5690   -4.7605    2.6396 H   0  0  0  0  0  0  0  0  0  0  0  0
   -1.6745   -5.6390    2.0513 H   0  0  0  0  0  0  0  0  0  0  0  0
   -3.2005   -4.2887    0.6388 H   0  0  0  0  0  0  0  0  0  0  0  0
   -2.5090   -2.0773   -0.1787 H   0  0  0  0  0  0  0  0  0  0  0  0
  1  2  1  0
  2  3  2  0
  2  4  1  0
  4  5  1  0
  5  6  1  0
  6  7  1  0
  7  8  1  0
  8  9  1  0
  9 10  2  0
  9 11  2  0
  9 12  1  0
 12 13  1  0
 13 14  1  0
 14 15  1  0
 14 16  1  0
 14 17  1  0
  7 18  1  0
 18 19  2  0
 19 20  1  0
 20 21  2  0
 21 22  1  0
 22 23  2  0
 23 18  1  0
  1 24  1  0
  1 25  1  0
  1 26  1  0
  5 27  1  0
  5 28  1  0
  6 29  1  0
  6 30  1  0
  7 31  1  0
  8 32  1  0
 13 33  1  0
 13 34  1  0
 19 35  1  0
 20 36  1  0
 21 37  1  0
 22 38  1  0
 23 39  1  0
M  END
$$$$
