
     RDKit          3D

 69 74  0  0  0  0  0  0  0  0999 V2000
    1.3350    2.9748    1.5006 O   0  0  0  0  0  0  0  0  0  0  0  0
    2.1308    1.8422    1.1298 C   0  0  0  0  0  0  0  0  0  0  0  0
    3.6115    2.2313    1.1623 C   0  0  0  0  0  0  0  0  0  0  0  0
    4.4642    1.1313    0.8465 O   0  0  0  0  0  0  0  0  0  0  0  0
    4.7571    0.1912    1.7929 C   0  0  0  0  0  0  0  0  0  0  0  0
    4.4216    0.3383    3.1470 C   0  0  0  0  0  0  0  0  0  0  0  0
    4.7490   -0.6442    4.0831 C   0  0  0  0  0  0  0  0  0  0  0  0
    5.4244   -1.7908    3.6810 C   0  0  0  0  0  0  0  0  0  0  0  0
    5.7790   -1.9729    2.3441 C   0  0  0  0  0  0  0  0  0  0  0  0
    6.4643   -3.1678    2.0263 N   0  0  0  0  0  0  0  0  0  0  0  0
    6.7962   -3.3802    0.7935 C   0  0  0  0  0  0  0  0  0  0  0  0
    6.4836   -2.4445   -0.2403 C   0  0  0  0  0  0  0  0  0  0  0  0
    6.7280   -2.4929   -1.5955 C   0  0  0  0  0  0  0  0  0  0  0  0
    6.2077   -1.3050   -2.1499 C   0  0  0  0  0  0  0  0  0  0  0  0
    5.6639   -0.5720   -1.1154 C   0  0  0  0  0  0  0  0  0  0  0  0
    5.8272   -1.2690    0.0608 N   0  0  0  0  0  0  0  0  0  0  0  0
    5.4398   -0.9761    1.3959 C   0  0  0  0  0  0  0  0  0  0  0  0
    1.7005    1.3589   -0.2734 C   0  0  0  0  0  0  0  0  0  0  0  0
    0.2368    1.1680   -0.3420 N   0  0  0  0  0  0  0  0  0  0  0  0
   -0.2197    0.0015    0.4476 C   0  0  0  0  0  0  0  0  0  0  0  0
   -1.5678   -0.6198   -0.0132 C   0  0  0  0  0  0  0  0  0  0  0  0
   -2.4573    0.3772   -0.6348 N   0  0  0  0  0  0  0  0  0  0  0  0
   -3.7953   -0.1774   -0.9861 C   0  0  0  0  0  0  0  0  0  0  0  0
   -4.7113    0.8388   -1.6842 C   0  0  0  0  0  0  0  0  0  0  0  0
   -5.4424    0.4577   -2.8210 C   0  0  0  0  0  0  0  0  0  0  0  0
   -6.2906    1.3638   -3.4603 C   0  0  0  0  0  0  0  0  0  0  0  0
   -6.4229    2.6612   -2.9735 C   0  0  0  0  0  0  0  0  0  0  0  0
   -5.7125    3.0550   -1.8430 C   0  0  0  0  0  0  0  0  0  0  0  0
   -4.8680    2.1490   -1.1995 C   0  0  0  0  0  0  0  0  0  0  0  0
   -4.5372   -0.7991    0.2042 C   0  0  0  0  0  0  0  0  0  0  0  0
   -5.1552   -2.0545    0.0670 C   0  0  0  0  0  0  0  0  0  0  0  0
   -5.8522   -2.6267    1.1337 C   0  0  0  0  0  0  0  0  0  0  0  0
   -5.9444   -1.9524    2.3497 C   0  0  0  0  0  0  0  0  0  0  0  0
   -5.3428   -0.7049    2.5003 C   0  0  0  0  0  0  0  0  0  0  0  0
   -4.6472   -0.1306    1.4352 C   0  0  0  0  0  0  0  0  0  0  0  0
   -1.7740    0.9471   -1.8251 C   0  0  0  0  0  0  0  0  0  0  0  0
   -0.2260    1.0310   -1.7285 C   0  0  0  0  0  0  0  0  0  0  0  0
    0.4548    2.7934    1.1070 H   0  0  0  0  0  0  0  0  0  0  0  0
    1.9358    1.0524    1.8626 H   0  0  0  0  0  0  0  0  0  0  0  0
    3.7906    2.9945    0.3948 H   0  0  0  0  0  0  0  0  0  0  0  0
    3.8972    2.7274    2.0968 H   0  0  0  0  0  0  0  0  0  0  0  0
    3.9018    1.2151    3.5221 H   0  0  0  0  0  0  0  0  0  0  0  0
    4.4795   -0.5128    5.1285 H   0  0  0  0  0  0  0  0  0  0  0  0
    5.6822   -2.5533    4.4112 H   0  0  0  0  0  0  0  0  0  0  0  0
    7.3328   -4.3069    0.5325 H   0  0  0  0  0  0  0  0  0  0  0  0
    7.2277   -3.2926   -2.1271 H   0  0  0  0  0  0  0  0  0  0  0  0
    6.2276   -1.0069   -3.1905 H   0  0  0  0  0  0  0  0  0  0  0  0
    5.1823    0.3923   -1.1511 H   0  0  0  0  0  0  0  0  0  0  0  0
    1.9721    2.1454   -0.9913 H   0  0  0  0  0  0  0  0  0  0  0  0
    2.2410    0.4494   -0.5647 H   0  0  0  0  0  0  0  0  0  0  0  0
   -0.3290    0.3268    1.4893 H   0  0  0  0  0  0  0  0  0  0  0  0
    0.5311   -0.7994    0.4344 H   0  0  0  0  0  0  0  0  0  0  0  0
   -2.0215   -1.0826    0.8691 H   0  0  0  0  0  0  0  0  0  0  0  0
   -1.3643   -1.4300   -0.7266 H   0  0  0  0  0  0  0  0  0  0  0  0
   -3.6084   -0.9910   -1.7033 H   0  0  0  0  0  0  0  0  0  0  0  0
   -5.3604   -0.5511   -3.2154 H   0  0  0  0  0  0  0  0  0  0  0  0
   -6.8516    1.0541   -4.3370 H   0  0  0  0  0  0  0  0  0  0  0  0
   -7.0830    3.3659   -3.4719 H   0  0  0  0  0  0  0  0  0  0  0  0
   -5.8160    4.0660   -1.4597 H   0  0  0  0  0  0  0  0  0  0  0  0
   -4.3177    2.4695   -0.3179 H   0  0  0  0  0  0  0  0  0  0  0  0
   -5.1023   -2.5923   -0.8772 H   0  0  0  0  0  0  0  0  0  0  0  0
   -6.3287   -3.5963    1.0132 H   0  0  0  0  0  0  0  0  0  0  0  0
   -6.4881   -2.3963    3.1795 H   0  0  0  0  0  0  0  0  0  0  0  0
   -5.4169   -0.1735    3.4447 H   0  0  0  0  0  0  0  0  0  0  0  0
   -4.1816    0.8435    1.5680 H   0  0  0  0  0  0  0  0  0  0  0  0
   -2.0077    0.3707   -2.7290 H   0  0  0  0  0  0  0  0  0  0  0  0
   -2.1493    1.9646   -1.9777 H   0  0  0  0  0  0  0  0  0  0  0  0
    0.2115    0.1310   -2.1793 H   0  0  0  0  0  0  0  0  0  0  0  0
    0.1047    1.8855   -2.3303 H   0  0  0  0  0  0  0  0  0  0  0  0
  1  2  1  0
  2  3  1  0
  3  4  1  0
  4  5  1  0
  5  6  2  0
  6  7  1  0
  7  8  2  0
  8  9  1  0
  9 10  1  0
 10 11  2  0
 11 12  1  0
 12 13  2  0
 13 14  1  0
 14 15  2  0
 15 16  1  0
 16 17  1  0
  2 18  1  0
 18 19  1  0
 19 20  1  0
 20 21  1  0
 21 22  1  0
 22 23  1  0
 23 24  1  0
 24 25  2  0
 25 26  1  0
 26 27  2  0
 27 28  1  0
 28 29  2  0
 23 30  1  0
 30 31  2  0
 31 32  1  0
 32 33  2  0
 33 34  1  0
 34 35  2  0
 22 36  1  0
 36 37  1  0
 17  5  1  0
 37 19  1  0
 17  9  2  0
 29 24  1  0
 35 30  1  0
 16 12  1  0
  1 38  1  0
  2 39  1  0
  3 40  1  0
  3 41  1  0
  6 42  1  0
  7 43  1  0
  8 44  1  0
 11 45  1  0
 13 46  1  0
 14 47  1  0
 15 48  1  0
 18 49  1  0
 18 50  1  0
 20 51  1  0
 20 52  1  0
 21 53  1  0
 21 54  1  0
 23 55  1  0
 25 56  1  0
 26 57  1  0
 27 58  1  0
 28 59  1  0
 29 60  1  0
 31 61  1  0
 32 62  1  0
 33 63  1  0
 34 64  1  0
 35 65  1  0
 36 66  1  0
 36 67  1  0
 37 68  1  0
 37 69  1  0
M  END
$$$$
