
     RDKit          3D

 57 60  0  0  0  0  0  0  0  0999 V2000
    8.6905    1.2424   -1.6502 C   0  0  0  0  0  0  0  0  0  0  0  0
    7.1965    1.2542   -1.3707 C   0  0  0  0  0  0  0  0  0  0  0  0
    6.9711    0.4738   -0.1963 O   0  0  0  0  0  0  0  0  0  0  0  0
    5.6976    0.4383    0.2962 C   0  0  0  0  0  0  0  0  0  0  0  0
    4.5648    0.9880   -0.3034 C   0  0  0  0  0  0  0  0  0  0  0  0
    3.3168    0.8882    0.3289 C   0  0  0  0  0  0  0  0  0  0  0  0
    3.1846    0.2260    1.5560 C   0  0  0  0  0  0  0  0  0  0  0  0
    1.8994    0.1931    2.1374 N   0  0  0  0  0  0  0  0  0  0  0  0
    1.4968   -0.5170    3.2553 C   0  0  0  0  0  0  0  0  0  0  0  0
    2.1734   -1.3323    3.8766 O   0  0  0  0  0  0  0  0  0  0  0  0
    0.0732   -0.1946    3.6938 C   0  0  0  0  0  0  0  0  0  0  0  0
   -1.1292   -1.2565    2.8407 S   0  0  0  0  0  0  0  0  0  0  0  0
   -1.3197   -0.4188    1.3338 C   0  0  0  0  0  0  0  0  0  0  0  0
   -0.6269    0.6473    1.0015 N   0  0  0  0  0  0  0  0  0  0  0  0
   -0.9294    0.9564   -0.2900 N   0  0  0  0  0  0  0  0  0  0  0  0
   -1.8480    0.1041   -0.7246 C   0  0  0  0  0  0  0  0  0  0  0  0
   -2.5630    0.2261   -2.0370 C   0  0  0  0  0  0  0  0  0  0  0  0
   -3.3714    1.4920   -2.1362 C   0  0  0  0  0  0  0  0  0  0  0  0
   -2.9744    2.7411   -2.5870 C   0  0  0  0  0  0  0  0  0  0  0  0
   -4.0874    3.6130   -2.5041 C   0  0  0  0  0  0  0  0  0  0  0  0
   -5.1387    2.8830   -2.0010 C   0  0  0  0  0  0  0  0  0  0  0  0
   -4.7003    1.6001   -1.7764 N   0  0  0  0  0  0  0  0  0  0  0  0
   -5.5321    0.5486   -1.2306 C   0  0  0  0  0  0  0  0  0  0  0  0
   -2.1048   -0.8392    0.2681 N   0  0  0  0  0  0  0  0  0  0  0  0
   -2.9708   -1.9656    0.1912 C   0  0  0  0  0  0  0  0  0  0  0  0
   -3.8508   -2.2533    1.2459 C   0  0  0  0  0  0  0  0  0  0  0  0
   -4.7125   -3.3506    1.1540 C   0  0  0  0  0  0  0  0  0  0  0  0
   -4.6915   -4.1517    0.0189 C   0  0  0  0  0  0  0  0  0  0  0  0
   -5.5226   -5.2018   -0.0668 F   0  0  0  0  0  0  0  0  0  0  0  0
   -3.8160   -3.8831   -1.0283 C   0  0  0  0  0  0  0  0  0  0  0  0
   -2.9487   -2.7907   -0.9439 C   0  0  0  0  0  0  0  0  0  0  0  0
    4.3185   -0.3353    2.1428 C   0  0  0  0  0  0  0  0  0  0  0  0
    5.5657   -0.2256    1.5160 C   0  0  0  0  0  0  0  0  0  0  0  0
    8.9273    1.7925   -2.5661 H   0  0  0  0  0  0  0  0  0  0  0  0
    9.2393    1.6843   -0.8118 H   0  0  0  0  0  0  0  0  0  0  0  0
    9.0498    0.2102   -1.7528 H   0  0  0  0  0  0  0  0  0  0  0  0
    6.6671    0.8133   -2.2233 H   0  0  0  0  0  0  0  0  0  0  0  0
    6.8684    2.2886   -1.2147 H   0  0  0  0  0  0  0  0  0  0  0  0
    4.6133    1.4963   -1.2595 H   0  0  0  0  0  0  0  0  0  0  0  0
    2.4455    1.3294   -0.1577 H   0  0  0  0  0  0  0  0  0  0  0  0
    1.1605    0.6716    1.6161 H   0  0  0  0  0  0  0  0  0  0  0  0
   -0.1496    0.8685    3.5531 H   0  0  0  0  0  0  0  0  0  0  0  0
    0.0051   -0.3850    4.7714 H   0  0  0  0  0  0  0  0  0  0  0  0
   -3.2137   -0.6202   -2.2555 H   0  0  0  0  0  0  0  0  0  0  0  0
   -1.8062    0.2260   -2.8311 H   0  0  0  0  0  0  0  0  0  0  0  0
   -1.9796    2.9967   -2.9305 H   0  0  0  0  0  0  0  0  0  0  0  0
   -4.1188    4.6633   -2.7735 H   0  0  0  0  0  0  0  0  0  0  0  0
   -6.1575    3.1799   -1.7817 H   0  0  0  0  0  0  0  0  0  0  0  0
   -5.5789   -0.2757   -1.9520 H   0  0  0  0  0  0  0  0  0  0  0  0
   -6.5419    0.9362   -1.0516 H   0  0  0  0  0  0  0  0  0  0  0  0
   -5.0918    0.2226   -0.2834 H   0  0  0  0  0  0  0  0  0  0  0  0
   -3.9150   -1.6227    2.1310 H   0  0  0  0  0  0  0  0  0  0  0  0
   -5.4059   -3.5833    1.9577 H   0  0  0  0  0  0  0  0  0  0  0  0
   -3.8043   -4.5377   -1.8972 H   0  0  0  0  0  0  0  0  0  0  0  0
   -2.2386   -2.6304   -1.7533 H   0  0  0  0  0  0  0  0  0  0  0  0
    4.2732   -0.8616    3.0924 H   0  0  0  0  0  0  0  0  0  0  0  0
    6.4418   -0.6624    1.9920 H   0  0  0  0  0  0  0  0  0  0  0  0
  1  2  1  0
  2  3  1  0
  3  4  1  0
  4  5  2  0
  5  6  1  0
  6  7  2  0
  7  8  1  0
  8  9  1  0
  9 10  2  0
  9 11  1  0
 11 12  1  0
 12 13  1  0
 13 14  2  0
 14 15  1  0
 15 16  2  0
 16 17  1  0
 17 18  1  0
 18 19  2  0
 19 20  1  0
 20 21  2  0
 21 22  1  0
 22 23  1  0
 16 24  1  0
 24 25  1  0
 25 26  2  0
 26 27  1  0
 27 28  2  0
 28 29  1  0
 28 30  1  0
 30 31  2  0
  7 32  1  0
 32 33  2  0
 33  4  1  0
 24 13  1  0
 31 25  1  0
 22 18  1  0
  1 34  1  0
  1 35  1  0
  1 36  1  0
  2 37  1  0
  2 38  1  0
  5 39  1  0
  6 40  1  0
  8 41  1  0
 11 42  1  0
 11 43  1  0
 17 44  1  0
 17 45  1  0
 19 46  1  0
 20 47  1  0
 21 48  1  0
 23 49  1  0
 23 50  1  0
 23 51  1  0
 26 52  1  0
 27 53  1  0
 30 54  1  0
 31 55  1  0
 32 56  1  0
 33 57  1  0
M  END
$$$$
