
     RDKit          3D

 46 49  0  0  0  0  0  0  0  0999 V2000
    2.9450    3.2033   -0.8231 O   0  0  0  0  0  0  0  0  0  0  0  0
    2.8817    2.1351   -0.2290 C   0  0  0  0  0  0  0  0  0  0  0  0
    1.6855    1.7979    0.6454 C   0  0  0  0  0  0  0  0  0  0  0  0
    0.6690    0.5403   -0.1886 S   0  0  0  0  0  0  0  0  0  0  0  0
   -0.5046    0.2350    1.0411 C   0  0  0  0  0  0  0  0  0  0  0  0
   -0.3478    0.4826    2.3184 N   0  0  0  0  0  0  0  0  0  0  0  0
   -1.4913    0.0884    2.9640 N   0  0  0  0  0  0  0  0  0  0  0  0
   -2.3303   -0.3933    2.0661 C   0  0  0  0  0  0  0  0  0  0  0  0
   -3.6907   -0.9376    2.3585 C   0  0  0  0  0  0  0  0  0  0  0  0
   -4.7790    0.0619    2.0952 C   0  0  0  0  0  0  0  0  0  0  0  0
   -4.9344    1.3135    2.6592 C   0  0  0  0  0  0  0  0  0  0  0  0
   -6.0859    1.9880    2.1670 C   0  0  0  0  0  0  0  0  0  0  0  0
   -6.7957    1.2166    1.2756 C   0  0  0  0  0  0  0  0  0  0  0  0
   -6.0672   -0.3065    1.0253 S   0  0  0  0  0  0  0  0  0  0  0  0
   -1.7391   -0.3148    0.8206 N   0  0  0  0  0  0  0  0  0  0  0  0
   -2.3352   -0.6728   -0.4509 C   0  0  0  0  0  0  0  0  0  0  0  0
   -2.3018   -2.1382   -0.6727 C   0  0  0  0  0  0  0  0  0  0  0  0
   -3.2858   -3.0867   -0.8765 C   0  0  0  0  0  0  0  0  0  0  0  0
   -2.6173   -4.3255   -1.0217 C   0  0  0  0  0  0  0  0  0  0  0  0
   -1.2733   -4.0527   -0.9208 C   0  0  0  0  0  0  0  0  0  0  0  0
   -1.0738   -2.7284   -0.7161 O   0  0  0  0  0  0  0  0  0  0  0  0
    3.8335    1.1276   -0.2476 N   0  0  0  0  0  0  0  0  0  0  0  0
    5.0455    1.0968   -0.9635 C   0  0  0  0  0  0  0  0  0  0  0  0
    5.5159    2.1510   -1.7481 C   0  0  0  0  0  0  0  0  0  0  0  0
    6.7274    2.0366   -2.4388 C   0  0  0  0  0  0  0  0  0  0  0  0
    7.4740    0.8670   -2.3443 C   0  0  0  0  0  0  0  0  0  0  0  0
    9.1093    0.7180   -3.2809 Br  0  0  0  0  0  0  0  0  0  0  0  0
    7.0200   -0.1908   -1.5643 C   0  0  0  0  0  0  0  0  0  0  0  0
    5.8100   -0.0743   -0.8740 C   0  0  0  0  0  0  0  0  0  0  0  0
    2.0446    1.4468    1.6187 H   0  0  0  0  0  0  0  0  0  0  0  0
    1.0894    2.7047    0.7972 H   0  0  0  0  0  0  0  0  0  0  0  0
   -3.8522   -1.8674    1.8055 H   0  0  0  0  0  0  0  0  0  0  0  0
   -3.7379   -1.2122    3.4163 H   0  0  0  0  0  0  0  0  0  0  0  0
   -4.2388    1.7313    3.3820 H   0  0  0  0  0  0  0  0  0  0  0  0
   -6.3842    2.9857    2.4612 H   0  0  0  0  0  0  0  0  0  0  0  0
   -7.7081    1.4769    0.7587 H   0  0  0  0  0  0  0  0  0  0  0  0
   -3.3612   -0.2961   -0.4532 H   0  0  0  0  0  0  0  0  0  0  0  0
   -1.8177   -0.1536   -1.2617 H   0  0  0  0  0  0  0  0  0  0  0  0
   -4.3531   -2.9093   -0.9058 H   0  0  0  0  0  0  0  0  0  0  0  0
   -3.0590   -5.2995   -1.1850 H   0  0  0  0  0  0  0  0  0  0  0  0
   -0.3792   -4.6596   -0.9621 H   0  0  0  0  0  0  0  0  0  0  0  0
    3.5950    0.2839    0.2605 H   0  0  0  0  0  0  0  0  0  0  0  0
    4.9625    3.0811   -1.8484 H   0  0  0  0  0  0  0  0  0  0  0  0
    7.0703    2.8691   -3.0488 H   0  0  0  0  0  0  0  0  0  0  0  0
    7.5929   -1.1084   -1.4900 H   0  0  0  0  0  0  0  0  0  0  0  0
    5.4733   -0.9114   -0.2691 H   0  0  0  0  0  0  0  0  0  0  0  0
  1  2  2  0
  2  3  1  0
  3  4  1  0
  4  5  1  0
  5  6  2  0
  6  7  1  0
  7  8  2  0
  8  9  1  0
  9 10  1  0
 10 11  2  0
 11 12  1  0
 12 13  2  0
 13 14  1  0
  8 15  1  0
 15 16  1  0
 16 17  1  0
 17 18  2  0
 18 19  1  0
 19 20  2  0
 20 21  1  0
  2 22  1  0
 22 23  1  0
 23 24  2  0
 24 25  1  0
 25 26  2  0
 26 27  1  0
 26 28  1  0
 28 29  2  0
 15  5  1  0
 21 17  1  0
 29 23  1  0
 14 10  1  0
  3 30  1  0
  3 31  1  0
  9 32  1  0
  9 33  1  0
 11 34  1  0
 12 35  1  0
 13 36  1  0
 16 37  1  0
 16 38  1  0
 18 39  1  0
 19 40  1  0
 20 41  1  0
 22 42  1  0
 24 43  1  0
 25 44  1  0
 28 45  1  0
 29 46  1  0
M  END
$$$$
