
     RDKit          3D

 59 62  0  0  0  0  0  0  0  0999 V2000
   -9.3950    2.5042   -0.3674 C   0  0  0  0  0  0  0  0  0  0  0  0
   -8.1609    1.8667    0.2008 C   0  0  0  0  0  0  0  0  0  0  0  0
   -7.6302    0.7036   -0.3732 C   0  0  0  0  0  0  0  0  0  0  0  0
   -6.4690    0.1260    0.1447 C   0  0  0  0  0  0  0  0  0  0  0  0
   -5.8157    0.7278    1.2249 C   0  0  0  0  0  0  0  0  0  0  0  0
   -4.5917    0.1290    1.8054 C   0  0  0  0  0  0  0  0  0  0  0  0
   -4.5705   -0.0783    3.0166 O   0  0  0  0  0  0  0  0  0  0  0  0
   -3.5253   -0.1745    0.9677 N   0  0  0  0  0  0  0  0  0  0  0  0
   -2.3742   -0.8775    1.5433 C   0  0  0  0  0  0  0  0  0  0  0  0
   -1.4955   -1.5274    0.4652 C   0  0  0  0  0  0  0  0  0  0  0  0
   -0.9975   -0.5380   -0.5178 N   0  0  0  0  0  0  0  0  0  0  0  0
    0.3601   -0.1879   -0.5001 C   0  0  0  0  0  0  0  0  0  0  0  0
    1.1648   -0.2525    0.6426 C   0  0  0  0  0  0  0  0  0  0  0  0
    2.5178    0.1195    0.6110 C   0  0  0  0  0  0  0  0  0  0  0  0
    3.1026    0.5636   -0.5709 C   0  0  0  0  0  0  0  0  0  0  0  0
    4.4525    0.9417   -0.6927 N   0  0  0  0  0  0  0  0  0  0  0  0
    5.4373    0.9155    0.2816 C   0  0  0  0  0  0  0  0  0  0  0  0
    5.2821    0.6213    1.4639 O   0  0  0  0  0  0  0  0  0  0  0  0
    6.7982    1.3783   -0.2230 C   0  0  0  0  0  0  0  0  0  0  0  0
    7.2571    0.5830   -1.8029 S   0  0  0  0  0  0  0  0  0  0  0  0
    7.4483   -1.0960   -1.2343 C   0  0  0  0  0  0  0  0  0  0  0  0
    6.4394   -2.0350   -1.4737 C   0  0  0  0  0  0  0  0  0  0  0  0
    6.5845   -3.3521   -1.0293 C   0  0  0  0  0  0  0  0  0  0  0  0
    7.7428   -3.7311   -0.3542 C   0  0  0  0  0  0  0  0  0  0  0  0
    7.9251   -5.3537    0.1879 Cl  0  0  0  0  0  0  0  0  0  0  0  0
    8.7575   -2.8049   -0.1206 C   0  0  0  0  0  0  0  0  0  0  0  0
    8.6106   -1.4871   -0.5624 C   0  0  0  0  0  0  0  0  0  0  0  0
    2.3126    0.6372   -1.7199 C   0  0  0  0  0  0  0  0  0  0  0  0
    0.9624    0.2694   -1.6802 C   0  0  0  0  0  0  0  0  0  0  0  0
   -1.8782    0.6375   -0.7390 C   0  0  0  0  0  0  0  0  0  0  0  0
   -3.3515    0.3342   -0.4023 C   0  0  0  0  0  0  0  0  0  0  0  0
   -6.3435    1.8809    1.8115 C   0  0  0  0  0  0  0  0  0  0  0  0
   -7.5060    2.4541    1.2924 C   0  0  0  0  0  0  0  0  0  0  0  0
   -9.9831    1.7824   -0.9441 H   0  0  0  0  0  0  0  0  0  0  0  0
   -9.1179    3.3341   -1.0251 H   0  0  0  0  0  0  0  0  0  0  0  0
  -10.0381    2.8824    0.4343 H   0  0  0  0  0  0  0  0  0  0  0  0
   -8.1254    0.2337   -1.2210 H   0  0  0  0  0  0  0  0  0  0  0  0
   -6.0875   -0.7957   -0.2865 H   0  0  0  0  0  0  0  0  0  0  0  0
   -2.7335   -1.6389    2.2447 H   0  0  0  0  0  0  0  0  0  0  0  0
   -1.7986   -0.1412    2.1167 H   0  0  0  0  0  0  0  0  0  0  0  0
   -0.6908   -2.1138    0.9213 H   0  0  0  0  0  0  0  0  0  0  0  0
   -2.1047   -2.2516   -0.0910 H   0  0  0  0  0  0  0  0  0  0  0  0
    0.7575   -0.5701    1.5975 H   0  0  0  0  0  0  0  0  0  0  0  0
    3.0809    0.0483    1.5362 H   0  0  0  0  0  0  0  0  0  0  0  0
    4.7651    1.1982   -1.6228 H   0  0  0  0  0  0  0  0  0  0  0  0
    6.7582    2.4620   -0.3711 H   0  0  0  0  0  0  0  0  0  0  0  0
    7.5600    1.1649    0.5325 H   0  0  0  0  0  0  0  0  0  0  0  0
    5.5300   -1.7540   -1.9994 H   0  0  0  0  0  0  0  0  0  0  0  0
    5.7921   -4.0729   -1.2131 H   0  0  0  0  0  0  0  0  0  0  0  0
    9.6639   -3.1015    0.4010 H   0  0  0  0  0  0  0  0  0  0  0  0
    9.4120   -0.7750   -0.3797 H   0  0  0  0  0  0  0  0  0  0  0  0
    2.7285    0.9744   -2.6652 H   0  0  0  0  0  0  0  0  0  0  0  0
    0.3792    0.3182   -2.5966 H   0  0  0  0  0  0  0  0  0  0  0  0
   -1.8176    0.9575   -1.7855 H   0  0  0  0  0  0  0  0  0  0  0  0
   -1.5482    1.4746   -0.1088 H   0  0  0  0  0  0  0  0  0  0  0  0
   -3.9469    1.2402   -0.5488 H   0  0  0  0  0  0  0  0  0  0  0  0
   -3.7310   -0.4408   -1.0781 H   0  0  0  0  0  0  0  0  0  0  0  0
   -5.8515    2.3298    2.6712 H   0  0  0  0  0  0  0  0  0  0  0  0
   -7.9035    3.3574    1.7504 H   0  0  0  0  0  0  0  0  0  0  0  0
  1  2  1  0
  2  3  2  0
  3  4  1  0
  4  5  2  0
  5  6  1  0
  6  7  2  0
  6  8  1  0
  8  9  1  0
  9 10  1  0
 10 11  1  0
 11 12  1  0
 12 13  2  0
 13 14  1  0
 14 15  2  0
 15 16  1  0
 16 17  1  0
 17 18  2  0
 17 19  1  0
 19 20  1  0
 20 21  1  0
 21 22  2  0
 22 23  1  0
 23 24  2  0
 24 25  1  0
 24 26  1  0
 26 27  2  0
 15 28  1  0
 28 29  2  0
 11 30  1  0
 30 31  1  0
  5 32  1  0
 32 33  2  0
 33  2  1  0
 31  8  1  0
 29 12  1  0
 27 21  1  0
  1 34  1  0
  1 35  1  0
  1 36  1  0
  3 37  1  0
  4 38  1  0
  9 39  1  0
  9 40  1  0
 10 41  1  0
 10 42  1  0
 13 43  1  0
 14 44  1  0
 16 45  1  0
 19 46  1  0
 19 47  1  0
 22 48  1  0
 23 49  1  0
 26 50  1  0
 27 51  1  0
 28 52  1  0
 29 53  1  0
 30 54  1  0
 30 55  1  0
 31 56  1  0
 31 57  1  0
 32 58  1  0
 33 59  1  0
M  END
$$$$
