
     RDKit          3D

 55 58  0  0  0  0  0  0  0  0999 V2000
    3.2919   -2.7841    1.6255 O   0  0  0  0  0  0  0  0  0  0  0  0
    2.4689   -1.8692    1.5577 C   0  0  0  0  0  0  0  0  0  0  0  0
    0.9750   -2.1282    1.4911 C   0  0  0  0  0  0  0  0  0  0  0  0
    0.1614   -1.0280    0.2935 S   0  0  0  0  0  0  0  0  0  0  0  0
   -1.4782   -1.5473    0.4562 C   0  0  0  0  0  0  0  0  0  0  0  0
   -1.8852   -2.6161    1.0951 N   0  0  0  0  0  0  0  0  0  0  0  0
   -3.2446   -2.6914    0.9512 N   0  0  0  0  0  0  0  0  0  0  0  0
   -3.6589   -1.6451    0.2537 C   0  0  0  0  0  0  0  0  0  0  0  0
   -5.0514   -1.4392   -0.1495 C   0  0  0  0  0  0  0  0  0  0  0  0
   -5.6734   -0.1857   -0.0594 C   0  0  0  0  0  0  0  0  0  0  0  0
   -7.0003   -0.0145   -0.4676 C   0  0  0  0  0  0  0  0  0  0  0  0
   -7.7266   -1.0957   -0.9624 C   0  0  0  0  0  0  0  0  0  0  0  0
   -7.1343   -2.3541   -1.0329 C   0  0  0  0  0  0  0  0  0  0  0  0
   -5.8157   -2.5232   -0.6147 C   0  0  0  0  0  0  0  0  0  0  0  0
   -5.3172   -3.7983   -0.6851 O   0  0  0  0  0  0  0  0  0  0  0  0
   -2.5517   -0.8924   -0.0896 N   0  0  0  0  0  0  0  0  0  0  0  0
   -2.5069    0.2649   -0.9666 C   0  0  0  0  0  0  0  0  0  0  0  0
   -2.2830    1.5819   -0.2526 C   0  0  0  0  0  0  0  0  0  0  0  0
   -2.5866    1.7931    1.1025 C   0  0  0  0  0  0  0  0  0  0  0  0
   -2.3901    3.0448    1.6916 C   0  0  0  0  0  0  0  0  0  0  0  0
   -1.8955    4.1054    0.9361 C   0  0  0  0  0  0  0  0  0  0  0  0
   -1.5959    3.9166   -0.4098 C   0  0  0  0  0  0  0  0  0  0  0  0
   -1.7926    2.6667   -1.0007 C   0  0  0  0  0  0  0  0  0  0  0  0
    2.8308   -0.5334    1.6346 N   0  0  0  0  0  0  0  0  0  0  0  0
    4.1940   -0.2407    1.4391 N   0  0  0  0  0  0  0  0  0  0  0  0
    4.5196    0.5726    0.3715 C   0  0  0  0  0  0  0  0  0  0  0  0
    3.6724    1.2500   -0.2102 O   0  0  0  0  0  0  0  0  0  0  0  0
    5.9505    0.5879   -0.0645 C   0  0  0  0  0  0  0  0  0  0  0  0
    6.2862    1.4360   -1.1337 C   0  0  0  0  0  0  0  0  0  0  0  0
    7.5983    1.5033   -1.6076 C   0  0  0  0  0  0  0  0  0  0  0  0
    8.5922    0.7276   -1.0148 C   0  0  0  0  0  0  0  0  0  0  0  0
    8.2765   -0.1226    0.0450 C   0  0  0  0  0  0  0  0  0  0  0  0
    6.9614   -0.1963    0.5148 C   0  0  0  0  0  0  0  0  0  0  0  0
    6.6792   -1.0553    1.5448 O   0  0  0  0  0  0  0  0  0  0  0  0
    0.8232   -3.1683    1.1835 H   0  0  0  0  0  0  0  0  0  0  0  0
    0.5555   -1.9834    2.4919 H   0  0  0  0  0  0  0  0  0  0  0  0
   -5.1481    0.6751    0.3438 H   0  0  0  0  0  0  0  0  0  0  0  0
   -7.4692    0.9640   -0.3912 H   0  0  0  0  0  0  0  0  0  0  0  0
   -8.7582   -0.9631   -1.2784 H   0  0  0  0  0  0  0  0  0  0  0  0
   -7.6993   -3.2069   -1.3997 H   0  0  0  0  0  0  0  0  0  0  0  0
   -4.5130   -3.8395   -0.1254 H   0  0  0  0  0  0  0  0  0  0  0  0
   -3.4359    0.3140   -1.5420 H   0  0  0  0  0  0  0  0  0  0  0  0
   -1.7026    0.0830   -1.6908 H   0  0  0  0  0  0  0  0  0  0  0  0
   -2.9750    0.9928    1.7294 H   0  0  0  0  0  0  0  0  0  0  0  0
   -2.6230    3.1918    2.7441 H   0  0  0  0  0  0  0  0  0  0  0  0
   -1.7406    5.0774    1.3981 H   0  0  0  0  0  0  0  0  0  0  0  0
   -1.2084    4.7435   -1.0002 H   0  0  0  0  0  0  0  0  0  0  0  0
   -1.5511    2.5446   -2.0549 H   0  0  0  0  0  0  0  0  0  0  0  0
    2.1989    0.1502    1.2111 H   0  0  0  0  0  0  0  0  0  0  0  0
    4.8608   -0.9605    1.7322 H   0  0  0  0  0  0  0  0  0  0  0  0
    5.5199    2.0516   -1.6061 H   0  0  0  0  0  0  0  0  0  0  0  0
    7.8420    2.1613   -2.4385 H   0  0  0  0  0  0  0  0  0  0  0  0
    9.6142    0.7834   -1.3825 H   0  0  0  0  0  0  0  0  0  0  0  0
    9.0674   -0.7196    0.4906 H   0  0  0  0  0  0  0  0  0  0  0  0
    7.4721   -1.5812    1.7521 H   0  0  0  0  0  0  0  0  0  0  0  0
  1  2  2  0
  2  3  1  0
  3  4  1  0
  4  5  1  0
  5  6  2  0
  6  7  1  0
  7  8  2  0
  8  9  1  0
  9 10  2  0
 10 11  1  0
 11 12  2  0
 12 13  1  0
 13 14  2  0
 14 15  1  0
  8 16  1  0
 16 17  1  0
 17 18  1  0
 18 19  2  0
 19 20  1  0
 20 21  2  0
 21 22  1  0
 22 23  2  0
  2 24  1  0
 24 25  1  0
 25 26  1  0
 26 27  2  0
 26 28  1  0
 28 29  2  0
 29 30  1  0
 30 31  2  0
 31 32  1  0
 32 33  2  0
 33 34  1  0
 16  5  1  0
 23 18  1  0
 33 28  1  0
 14  9  1  0
  3 35  1  0
  3 36  1  0
 10 37  1  0
 11 38  1  0
 12 39  1  0
 13 40  1  0
 15 41  1  0
 17 42  1  0
 17 43  1  0
 19 44  1  0
 20 45  1  0
 21 46  1  0
 22 47  1  0
 23 48  1  0
 24 49  1  0
 25 50  1  0
 29 51  1  0
 30 52  1  0
 31 53  1  0
 32 54  1  0
 34 55  1  0
M  END
$$$$
