
     RDKit          3D

 55 60  0  0  0  0  0  0  0  0999 V2000
    4.3437    0.2828    2.3149 O   0  0  0  0  0  0  0  0  0  0  0  0
    3.9926    0.9361    1.3343 C   0  0  0  0  0  0  0  0  0  0  0  0
    4.9991    1.4381    0.4095 C   0  0  0  0  0  0  0  0  0  0  0  0
    6.2223    0.7990    0.0457 C   0  0  0  0  0  0  0  0  0  0  0  0
    6.8722    1.6482   -0.8170 C   0  0  0  0  0  0  0  0  0  0  0  0
    6.1512    2.7841   -0.9909 O   0  0  0  0  0  0  0  0  0  0  0  0
    5.0338    2.6619   -0.2287 C   0  0  0  0  0  0  0  0  0  0  0  0
    2.6415    1.2003    1.0716 N   0  0  0  0  0  0  0  0  0  0  0  0
    2.1308    1.5612   -0.2489 C   0  0  0  0  0  0  0  0  0  0  0  0
    0.6649    1.1619   -0.4459 C   0  0  0  0  0  0  0  0  0  0  0  0
    0.4042   -0.2881    0.0376 C   0  0  0  0  0  0  0  0  0  0  0  0
    0.8841   -0.4608    1.5152 C   0  0  0  0  0  0  0  0  0  0  0  0
    1.6525    0.7513    2.0391 C   0  0  0  0  0  0  0  0  0  0  0  0
    1.2846   -1.1695   -0.7145 O   0  0  0  0  0  0  0  0  0  0  0  0
    0.8780   -1.5919   -1.9440 C   0  0  0  0  0  0  0  0  0  0  0  0
    1.8447   -2.2288   -2.7221 C   0  0  0  0  0  0  0  0  0  0  0  0
    1.5284   -2.6741   -4.0081 C   0  0  0  0  0  0  0  0  0  0  0  0
    0.2422   -2.4822   -4.5125 C   0  0  0  0  0  0  0  0  0  0  0  0
   -0.1410   -3.0241   -6.0989 Cl  0  0  0  0  0  0  0  0  0  0  0  0
   -0.7325   -1.8572   -3.7398 C   0  0  0  0  0  0  0  0  0  0  0  0
   -0.4064   -1.4259   -2.4502 C   0  0  0  0  0  0  0  0  0  0  0  0
   -1.4147   -0.7775   -1.6027 C   0  0  0  0  0  0  0  0  0  0  0  0
   -2.4368   -0.3220   -2.1089 O   0  0  0  0  0  0  0  0  0  0  0  0
   -1.0851   -0.7030   -0.1171 C   0  0  0  0  0  0  0  0  0  0  0  0
   -2.0758    0.1845    0.6244 C   0  0  0  0  0  0  0  0  0  0  0  0
   -3.0173   -0.8707    1.0977 C   0  0  0  0  0  0  0  0  0  0  0  0
   -4.3509   -0.5463    1.6578 C   0  0  0  0  0  0  0  0  0  0  0  0
   -4.7728    0.7774    1.8309 C   0  0  0  0  0  0  0  0  0  0  0  0
   -6.0375    1.0449    2.3663 C   0  0  0  0  0  0  0  0  0  0  0  0
   -6.8779   -0.0067    2.7291 C   0  0  0  0  0  0  0  0  0  0  0  0
   -8.4306    0.3292    3.3877 Cl  0  0  0  0  0  0  0  0  0  0  0  0
   -6.4661   -1.3265    2.5621 C   0  0  0  0  0  0  0  0  0  0  0  0
   -5.2033   -1.5962    2.0272 C   0  0  0  0  0  0  0  0  0  0  0  0
   -2.5636   -2.0805    1.0122 N   0  0  0  0  0  0  0  0  0  0  0  0
   -1.2800   -2.0179    0.4282 O   0  0  0  0  0  0  0  0  0  0  0  0
    6.5732   -0.1675    0.3814 H   0  0  0  0  0  0  0  0  0  0  0  0
    7.8103    1.6010   -1.3526 H   0  0  0  0  0  0  0  0  0  0  0  0
    4.3815    3.5234   -0.2348 H   0  0  0  0  0  0  0  0  0  0  0  0
    2.2184    2.6466   -0.3599 H   0  0  0  0  0  0  0  0  0  0  0  0
    2.7503    1.0876   -1.0185 H   0  0  0  0  0  0  0  0  0  0  0  0
    0.0224    1.8644    0.0988 H   0  0  0  0  0  0  0  0  0  0  0  0
    0.4253    1.2812   -1.5087 H   0  0  0  0  0  0  0  0  0  0  0  0
    0.0485   -0.6391    2.2006 H   0  0  0  0  0  0  0  0  0  0  0  0
    1.5308   -1.3450    1.5943 H   0  0  0  0  0  0  0  0  0  0  0  0
    0.9688    1.5885    2.2252 H   0  0  0  0  0  0  0  0  0  0  0  0
    2.1136    0.5113    3.0030 H   0  0  0  0  0  0  0  0  0  0  0  0
    2.8486   -2.3760   -2.3299 H   0  0  0  0  0  0  0  0  0  0  0  0
    2.2882   -3.1677   -4.6093 H   0  0  0  0  0  0  0  0  0  0  0  0
   -1.7381   -1.7155   -4.1291 H   0  0  0  0  0  0  0  0  0  0  0  0
   -2.5601    0.9355   -0.0037 H   0  0  0  0  0  0  0  0  0  0  0  0
   -1.6470    0.6753    1.5031 H   0  0  0  0  0  0  0  0  0  0  0  0
   -4.1413    1.6177    1.5596 H   0  0  0  0  0  0  0  0  0  0  0  0
   -6.3617    2.0745    2.4970 H   0  0  0  0  0  0  0  0  0  0  0  0
   -7.1185   -2.1493    2.8431 H   0  0  0  0  0  0  0  0  0  0  0  0
   -4.8920   -2.6317    1.8994 H   0  0  0  0  0  0  0  0  0  0  0  0
  1  2  2  0
  2  3  1  0
  3  4  1  0
  4  5  2  0
  5  6  1  0
  6  7  1  0
  2  8  1  0
  8  9  1  0
  9 10  1  0
 10 11  1  0
 11 12  1  0
 12 13  1  0
 11 14  1  0
 14 15  1  0
 15 16  2  0
 16 17  1  0
 17 18  2  0
 18 19  1  0
 18 20  1  0
 20 21  2  0
 21 22  1  0
 22 23  2  0
 22 24  1  0
 24 25  1  0
 25 26  1  0
 26 27  1  0
 27 28  2  0
 28 29  1  0
 29 30  2  0
 30 31  1  0
 30 32  1  0
 32 33  2  0
 26 34  2  0
 34 35  1  0
  7  3  2  0
 13  8  1  0
 21 15  1  0
 35 24  1  0
 24 11  1  0
 33 27  1  0
  4 36  1  0
  5 37  1  0
  7 38  1  0
  9 39  1  0
  9 40  1  0
 10 41  1  0
 10 42  1  0
 12 43  1  0
 12 44  1  0
 13 45  1  0
 13 46  1  0
 16 47  1  0
 17 48  1  0
 20 49  1  0
 25 50  1  0
 25 51  1  0
 28 52  1  0
 29 53  1  0
 32 54  1  0
 33 55  1  0
M  END
$$$$
