
     RDKit          3D

 43 45  0  0  0  0  0  0  0  0999 V2000
   -5.7609   -2.0492    1.9215 C   0  0  0  0  0  0  0  0  0  0  0  0
   -5.9082   -1.2238    0.7237 N   0  0  0  0  0  0  0  0  0  0  0  0
   -6.9385   -1.6593   -0.2176 C   0  0  0  0  0  0  0  0  0  0  0  0
   -4.7892   -0.5401    0.2317 C   0  0  0  0  0  0  0  0  0  0  0  0
   -4.7733    0.0487   -1.0442 C   0  0  0  0  0  0  0  0  0  0  0  0
   -3.6595    0.7484   -1.5367 C   0  0  0  0  0  0  0  0  0  0  0  0
   -2.5055    0.8886   -0.7669 C   0  0  0  0  0  0  0  0  0  0  0  0
   -1.3722    1.6546   -1.3062 C   0  0  0  0  0  0  0  0  0  0  0  0
   -0.0839    1.3864   -1.0364 C   0  0  0  0  0  0  0  0  0  0  0  0
    1.0062    2.1616   -1.5934 C   0  0  0  0  0  0  0  0  0  0  0  0
    2.3219    1.9977   -1.3809 C   0  0  0  0  0  0  0  0  0  0  0  0
    3.4909    3.0097   -2.1393 S   0  0  0  0  0  0  0  0  0  0  0  0
    4.8540    2.0984   -1.4936 C   0  0  0  0  0  0  0  0  0  0  0  0
    6.3982    2.4255   -2.0549 S   0  0  0  0  0  0  0  0  0  0  0  0
    4.3977    1.1247   -0.6130 N   0  0  0  0  0  0  0  0  0  0  0  0
    5.2488    0.2674    0.1637 C   0  0  0  0  0  0  0  0  0  0  0  0
    6.4022    0.7547    0.7975 C   0  0  0  0  0  0  0  0  0  0  0  0
    7.2205   -0.0882    1.5576 C   0  0  0  0  0  0  0  0  0  0  0  0
    6.8944   -1.4323    1.7056 C   0  0  0  0  0  0  0  0  0  0  0  0
    5.7458   -1.9321    1.1015 C   0  0  0  0  0  0  0  0  0  0  0  0
    4.9284   -1.0885    0.3424 C   0  0  0  0  0  0  0  0  0  0  0  0
    3.0090    0.9970   -0.5096 C   0  0  0  0  0  0  0  0  0  0  0  0
    2.3927    0.2208    0.2106 O   0  0  0  0  0  0  0  0  0  0  0  0
   -2.5071    0.3430    0.5160 C   0  0  0  0  0  0  0  0  0  0  0  0
   -3.6268   -0.3541    0.9995 C   0  0  0  0  0  0  0  0  0  0  0  0
   -5.4751   -1.4437    2.7882 H   0  0  0  0  0  0  0  0  0  0  0  0
   -6.7084   -2.5289    2.1919 H   0  0  0  0  0  0  0  0  0  0  0  0
   -5.0217   -2.8427    1.7652 H   0  0  0  0  0  0  0  0  0  0  0  0
   -6.5220   -2.3339   -0.9739 H   0  0  0  0  0  0  0  0  0  0  0  0
   -7.4149   -0.8039   -0.7082 H   0  0  0  0  0  0  0  0  0  0  0  0
   -7.7443   -2.1962    0.2957 H   0  0  0  0  0  0  0  0  0  0  0  0
   -5.6366   -0.0141   -1.6993 H   0  0  0  0  0  0  0  0  0  0  0  0
   -3.7133    1.1761   -2.5351 H   0  0  0  0  0  0  0  0  0  0  0  0
   -1.6398    2.4712   -1.9731 H   0  0  0  0  0  0  0  0  0  0  0  0
    0.1628    0.5495   -0.3882 H   0  0  0  0  0  0  0  0  0  0  0  0
    0.6947    2.9636   -2.2641 H   0  0  0  0  0  0  0  0  0  0  0  0
    6.6712    1.8067    0.7550 H   0  0  0  0  0  0  0  0  0  0  0  0
    8.1081    0.3116    2.0419 H   0  0  0  0  0  0  0  0  0  0  0  0
    7.5290   -2.0867    2.2975 H   0  0  0  0  0  0  0  0  0  0  0  0
    5.4806   -2.9799    1.2187 H   0  0  0  0  0  0  0  0  0  0  0  0
    4.0471   -1.5235   -0.1243 H   0  0  0  0  0  0  0  0  0  0  0  0
   -1.6474    0.4582    1.1718 H   0  0  0  0  0  0  0  0  0  0  0  0
   -3.5557   -0.7430    2.0105 H   0  0  0  0  0  0  0  0  0  0  0  0
  1  2  1  0
  2  3  1  0
  2  4  1  0
  4  5  2  0
  5  6  1  0
  6  7  2  0
  7  8  1  0
  8  9  2  3
  9 10  1  0
 10 11  2  3
 11 12  1  0
 12 13  1  0
 13 14  2  0
 13 15  1  0
 15 16  1  0
 16 17  2  0
 17 18  1  0
 18 19  2  0
 19 20  1  0
 20 21  2  0
 15 22  1  0
 22 23  2  0
  7 24  1  0
 24 25  2  0
 25  4  1  0
 22 11  1  0
 21 16  1  0
  1 26  1  0
  1 27  1  0
  1 28  1  0
  3 29  1  0
  3 30  1  0
  3 31  1  0
  5 32  1  0
  6 33  1  0
  8 34  1  0
  9 35  1  0
 10 36  1  0
 17 37  1  0
 18 38  1  0
 19 39  1  0
 20 40  1  0
 21 41  1  0
 24 42  1  0
 25 43  1  0
M  END
$$$$
