
     RDKit          3D

 47 49  0  0  0  0  0  0  0  0999 V2000
   -2.9849    0.8886   -0.7323 O   0  0  0  0  0  0  0  0  0  0  0  0
   -3.1733   -0.2010   -1.2620 C   0  0  0  0  0  0  0  0  0  0  0  0
   -4.5574   -0.6457   -1.7671 C   0  0  0  0  0  0  0  0  0  0  0  0
   -5.6269    0.2613   -1.5657 O   0  0  0  0  0  0  0  0  0  0  0  0
   -6.2535    0.2572   -0.3511 C   0  0  0  0  0  0  0  0  0  0  0  0
   -5.7948   -0.3637    0.8118 C   0  0  0  0  0  0  0  0  0  0  0  0
   -6.5414   -0.2833    1.9931 C   0  0  0  0  0  0  0  0  0  0  0  0
   -7.7430    0.4219    2.0109 C   0  0  0  0  0  0  0  0  0  0  0  0
   -8.7472    0.5272    3.6084 Br  0  0  0  0  0  0  0  0  0  0  0  0
   -8.2041    1.0535    0.8599 C   0  0  0  0  0  0  0  0  0  0  0  0
   -7.4552    0.9718   -0.3162 C   0  0  0  0  0  0  0  0  0  0  0  0
   -2.2084   -1.1784   -1.4821 N   0  0  0  0  0  0  0  0  0  0  0  0
   -0.8453   -1.1332   -1.1224 C   0  0  0  0  0  0  0  0  0  0  0  0
   -0.2573   -0.0835   -0.4134 C   0  0  0  0  0  0  0  0  0  0  0  0
    1.1062   -0.1132   -0.0913 C   0  0  0  0  0  0  0  0  0  0  0  0
    1.9006   -1.1943   -0.4868 C   0  0  0  0  0  0  0  0  0  0  0  0
    3.3564   -1.2710   -0.1675 C   0  0  0  0  0  0  0  0  0  0  0  0
    3.8520   -2.3785    0.0030 O   0  0  0  0  0  0  0  0  0  0  0  0
    4.0123   -0.0567   -0.1362 N   0  0  0  0  0  0  0  0  0  0  0  0
    5.3696    0.2096    0.1687 C   0  0  0  0  0  0  0  0  0  0  0  0
    6.2413   -0.8018    0.5958 C   0  0  0  0  0  0  0  0  0  0  0  0
    7.5790   -0.5266    0.8974 C   0  0  0  0  0  0  0  0  0  0  0  0
    8.0711    0.7669    0.7801 C   0  0  0  0  0  0  0  0  0  0  0  0
    7.2224    1.7891    0.3624 C   0  0  0  0  0  0  0  0  0  0  0  0
    5.8731    1.5268    0.0565 C   0  0  0  0  0  0  0  0  0  0  0  0
    5.0780    2.7114   -0.3769 C   0  0  0  0  0  0  0  0  0  0  0  0
    5.5082    3.8434   -0.5106 O   0  0  0  0  0  0  0  0  0  0  0  0
    3.7769    2.4562   -0.6254 O   0  0  0  0  0  0  0  0  0  0  0  0
    1.3117   -2.2573   -1.1787 C   0  0  0  0  0  0  0  0  0  0  0  0
   -0.0501   -2.2240   -1.4964 C   0  0  0  0  0  0  0  0  0  0  0  0
   -4.8004   -1.6404   -1.3718 H   0  0  0  0  0  0  0  0  0  0  0  0
   -4.4620   -0.7637   -2.8537 H   0  0  0  0  0  0  0  0  0  0  0  0
   -4.8527   -0.8995    0.8463 H   0  0  0  0  0  0  0  0  0  0  0  0
   -6.1704   -0.7660    2.8936 H   0  0  0  0  0  0  0  0  0  0  0  0
   -9.1356    1.6124    0.8651 H   0  0  0  0  0  0  0  0  0  0  0  0
   -7.8112    1.4703   -1.2148 H   0  0  0  0  0  0  0  0  0  0  0  0
   -2.5036   -2.0104   -1.9787 H   0  0  0  0  0  0  0  0  0  0  0  0
   -0.8335    0.7747   -0.0803 H   0  0  0  0  0  0  0  0  0  0  0  0
    1.5174    0.7064    0.4923 H   0  0  0  0  0  0  0  0  0  0  0  0
    3.4882    0.7659   -0.4315 H   0  0  0  0  0  0  0  0  0  0  0  0
    5.9083   -1.8290    0.7117 H   0  0  0  0  0  0  0  0  0  0  0  0
    8.2326   -1.3318    1.2255 H   0  0  0  0  0  0  0  0  0  0  0  0
    9.1111    0.9802    1.0142 H   0  0  0  0  0  0  0  0  0  0  0  0
    7.6197    2.7996    0.2758 H   0  0  0  0  0  0  0  0  0  0  0  0
    3.4347    3.3397   -0.8920 H   0  0  0  0  0  0  0  0  0  0  0  0
    1.9136   -3.1149   -1.4747 H   0  0  0  0  0  0  0  0  0  0  0  0
   -0.4721   -3.0659   -2.0395 H   0  0  0  0  0  0  0  0  0  0  0  0
  1  2  2  0
  2  3  1  0
  3  4  1  0
  4  5  1  0
  5  6  2  0
  6  7  1  0
  7  8  2  0
  8  9  1  0
  8 10  1  0
 10 11  2  0
  2 12  1  0
 12 13  1  0
 13 14  2  0
 14 15  1  0
 15 16  2  0
 16 17  1  0
 17 18  2  0
 17 19  1  0
 19 20  1  0
 20 21  2  0
 21 22  1  0
 22 23  2  0
 23 24  1  0
 24 25  2  0
 25 26  1  0
 26 27  2  0
 26 28  1  0
 16 29  1  0
 29 30  2  0
 11  5  1  0
 30 13  1  0
 25 20  1  0
  3 31  1  0
  3 32  1  0
  6 33  1  0
  7 34  1  0
 10 35  1  0
 11 36  1  0
 12 37  1  0
 14 38  1  0
 15 39  1  0
 19 40  1  0
 21 41  1  0
 22 42  1  0
 23 43  1  0
 24 44  1  0
 28 45  1  0
 29 46  1  0
 30 47  1  0
M  END
$$$$
