
     RDKit          3D

 60 62  0  0  0  0  0  0  0  0999 V2000
   -2.7634    0.9095    3.5679 C   0  0  0  0  0  0  0  0  0  0  0  0
   -2.5661    1.3177    2.1371 C   0  0  0  0  0  0  0  0  0  0  0  0
   -1.8417    2.4687    1.8262 C   0  0  0  0  0  0  0  0  0  0  0  0
   -1.6377    2.8286    0.4948 C   0  0  0  0  0  0  0  0  0  0  0  0
   -2.1345    2.0266   -0.5484 C   0  0  0  0  0  0  0  0  0  0  0  0
   -1.8677    2.6366   -2.2093 S   0  0  0  0  0  6  0  0  0  0  0  0
   -2.7833    1.9894   -3.1201 O   0  0  0  0  0  0  0  0  0  0  0  0
   -1.8308    4.0838   -2.1257 O   0  0  0  0  0  0  0  0  0  0  0  0
   -0.2807    2.1765   -2.5653 N   0  0  0  0  0  0  0  0  0  0  0  0
    0.1148    0.8041   -2.5062 C   0  0  0  0  0  0  0  0  0  0  0  0
    0.7767    0.3835   -1.3448 C   0  0  0  0  0  0  0  0  0  0  0  0
    1.2384   -0.9307   -1.2115 C   0  0  0  0  0  0  0  0  0  0  0  0
    2.0152   -1.4210    0.0160 C   0  0  0  0  0  0  0  0  0  0  0  0
    2.6883   -0.3392    0.8444 C   0  0  0  0  0  0  0  0  0  0  0  0
    3.2197    0.6624    0.3810 O   0  0  0  0  0  0  0  0  0  0  0  0
    2.6654   -0.6440    2.1722 O   0  0  0  0  0  0  0  0  0  0  0  0
    3.2807    0.3046    3.0665 C   0  0  0  0  0  0  0  0  0  0  0  0
    2.6077    0.1396    4.4237 C   0  0  0  0  0  0  0  0  0  0  0  0
    4.7742    0.0167    3.1622 C   0  0  0  0  0  0  0  0  0  0  0  0
    1.1868   -2.3659    0.8683 C   0  0  0  0  0  0  0  0  0  0  0  0
    1.5690   -3.5195    1.0998 O   0  0  0  0  0  0  0  0  0  0  0  0
   -0.1060   -1.7994    1.4155 C   0  0  0  0  0  0  0  0  0  0  0  0
   -0.0348   -0.4547    1.6151 F   0  0  0  0  0  0  0  0  0  0  0  0
   -1.1566   -2.0090    0.5774 F   0  0  0  0  0  0  0  0  0  0  0  0
   -0.4583   -2.3366    2.6157 F   0  0  0  0  0  0  0  0  0  0  0  0
    0.9555   -1.8270   -2.2567 C   0  0  0  0  0  0  0  0  0  0  0  0
    1.4151   -3.1065   -2.0721 O   0  0  0  0  0  0  0  0  0  0  0  0
    0.2547   -1.4490   -3.4318 C   0  0  0  0  0  0  0  0  0  0  0  0
   -0.0683   -2.3533   -4.4748 C   0  0  0  0  0  0  0  0  0  0  0  0
   -0.7133   -1.9348   -5.6393 C   0  0  0  0  0  0  0  0  0  0  0  0
   -1.0511   -0.6016   -5.7948 C   0  0  0  0  0  0  0  0  0  0  0  0
   -0.7667    0.3039   -4.7745 C   0  0  0  0  0  0  0  0  0  0  0  0
   -0.1433   -0.0954   -3.5695 C   0  0  0  0  0  0  0  0  0  0  0  0
   -2.8526    0.8526   -0.2576 C   0  0  0  0  0  0  0  0  0  0  0  0
   -3.4407   -0.0582   -1.2984 C   0  0  0  0  0  0  0  0  0  0  0  0
   -3.0586    0.5191    1.0956 C   0  0  0  0  0  0  0  0  0  0  0  0
   -2.9067    1.7887    4.2053 H   0  0  0  0  0  0  0  0  0  0  0  0
   -3.6524    0.2800    3.6790 H   0  0  0  0  0  0  0  0  0  0  0  0
   -1.8904    0.3512    3.9211 H   0  0  0  0  0  0  0  0  0  0  0  0
   -1.4437    3.0990    2.6183 H   0  0  0  0  0  0  0  0  0  0  0  0
   -1.0980    3.7490    0.2790 H   0  0  0  0  0  0  0  0  0  0  0  0
    0.3942    2.8713   -2.2490 H   0  0  0  0  0  0  0  0  0  0  0  0
    0.9453    1.1116   -0.5538 H   0  0  0  0  0  0  0  0  0  0  0  0
    2.8679   -2.0084   -0.3573 H   0  0  0  0  0  0  0  0  0  0  0  0
    3.1089    1.3292    2.7159 H   0  0  0  0  0  0  0  0  0  0  0  0
    2.7163   -0.8856    4.7945 H   0  0  0  0  0  0  0  0  0  0  0  0
    1.5321    0.3310    4.3403 H   0  0  0  0  0  0  0  0  0  0  0  0
    3.0281    0.8277    5.1634 H   0  0  0  0  0  0  0  0  0  0  0  0
    4.9547   -1.0117    3.4938 H   0  0  0  0  0  0  0  0  0  0  0  0
    5.2545    0.1187    2.1835 H   0  0  0  0  0  0  0  0  0  0  0  0
    5.2651    0.7015    3.8611 H   0  0  0  0  0  0  0  0  0  0  0  0
    1.5086   -3.5479   -2.9314 H   0  0  0  0  0  0  0  0  0  0  0  0
    0.1622   -3.4120   -4.3978 H   0  0  0  0  0  0  0  0  0  0  0  0
   -0.9497   -2.6510   -6.4219 H   0  0  0  0  0  0  0  0  0  0  0  0
   -1.5484   -0.2602   -6.6991 H   0  0  0  0  0  0  0  0  0  0  0  0
   -1.0515    1.3435   -4.9283 H   0  0  0  0  0  0  0  0  0  0  0  0
   -3.7998   -0.9932   -0.8529 H   0  0  0  0  0  0  0  0  0  0  0  0
   -2.6924   -0.3434   -2.0409 H   0  0  0  0  0  0  0  0  0  0  0  0
   -4.2973    0.4194   -1.7829 H   0  0  0  0  0  0  0  0  0  0  0  0
   -3.6132   -0.3860    1.3445 H   0  0  0  0  0  0  0  0  0  0  0  0
  1  2  1  0
  2  3  2  0
  3  4  1  0
  4  5  2  0
  5  6  1  0
  6  7  2  0
  6  8  2  0
  6  9  1  0
  9 10  1  0
 10 11  2  0
 11 12  1  0
 12 13  1  0
 13 14  1  0
 14 15  2  0
 14 16  1  0
 16 17  1  0
 17 18  1  0
 17 19  1  0
 13 20  1  0
 20 21  2  0
 20 22  1  0
 22 23  1  0
 22 24  1  0
 22 25  1  0
 12 26  2  0
 26 27  1  0
 26 28  1  0
 28 29  2  0
 29 30  1  0
 30 31  2  0
 31 32  1  0
 32 33  2  0
  5 34  1  0
 34 35  1  0
 34 36  2  0
 36  2  1  0
 33 10  1  0
 33 28  1  0
  1 37  1  0
  1 38  1  0
  1 39  1  0
  3 40  1  0
  4 41  1  0
  9 42  1  0
 11 43  1  0
 13 44  1  0
 17 45  1  0
 18 46  1  0
 18 47  1  0
 18 48  1  0
 19 49  1  0
 19 50  1  0
 19 51  1  0
 27 52  1  0
 29 53  1  0
 30 54  1  0
 31 55  1  0
 32 56  1  0
 35 57  1  0
 35 58  1  0
 35 59  1  0
 36 60  1  0
M  END
$$$$
