
     RDKit          3D

 29 30  0  0  0  0  0  0  0  0999 V2000
    3.8480    1.2067   -0.3247 C   0  0  0  0  0  0  0  0  0  0  0  0
    3.1496   -0.1188   -0.5683 C   0  0  0  0  0  0  0  0  0  0  0  0
    2.7915   -0.7116    0.7203 N   0  0  0  0  0  0  0  0  0  0  0  0
    1.6421   -1.9388    0.7424 S   0  0  0  0  0  6  0  0  0  0  0  0
    1.7448   -2.6690   -0.5013 O   0  0  0  0  0  0  0  0  0  0  0  0
    1.7780   -2.5928    2.0252 O   0  0  0  0  0  0  0  0  0  0  0  0
    0.1275   -1.0194    0.7622 C   0  0  0  0  0  0  0  0  0  0  0  0
   -0.2548   -0.3629    1.9483 C   0  0  0  0  0  0  0  0  0  0  0  0
   -1.4571    0.3435    1.9996 C   0  0  0  0  0  0  0  0  0  0  0  0
   -2.2361    0.3810    0.8552 C   0  0  0  0  0  0  0  0  0  0  0  0
   -1.8479   -0.2611   -0.3232 C   0  0  0  0  0  0  0  0  0  0  0  0
   -0.6782   -0.9916   -0.3815 C   0  0  0  0  0  0  0  0  0  0  0  0
   -2.8225   -0.1724   -1.3450 N   0  0  0  0  0  0  0  0  0  0  0  0
   -3.6812    0.9329   -0.8845 C   0  0  0  0  0  0  0  0  0  0  0  0
   -3.5738    1.0062    0.6502 C   0  0  0  0  0  0  0  0  0  0  0  0
    4.7560    1.0696    0.2721 H   0  0  0  0  0  0  0  0  0  0  0  0
    3.1948    1.9004    0.2156 H   0  0  0  0  0  0  0  0  0  0  0  0
    4.1297    1.6703   -1.2750 H   0  0  0  0  0  0  0  0  0  0  0  0
    2.2577    0.0526   -1.1787 H   0  0  0  0  0  0  0  0  0  0  0  0
    3.8231   -0.7943   -1.1053 H   0  0  0  0  0  0  0  0  0  0  0  0
    3.5293   -0.8681    1.4059 H   0  0  0  0  0  0  0  0  0  0  0  0
    0.3774   -0.4179    2.8322 H   0  0  0  0  0  0  0  0  0  0  0  0
   -1.7748    0.8344    2.9136 H   0  0  0  0  0  0  0  0  0  0  0  0
   -0.4049   -1.5317   -1.2817 H   0  0  0  0  0  0  0  0  0  0  0  0
   -2.4007   -0.0395   -2.2604 H   0  0  0  0  0  0  0  0  0  0  0  0
   -3.3257    1.8709   -1.3317 H   0  0  0  0  0  0  0  0  0  0  0  0
   -4.7165    0.7827   -1.2070 H   0  0  0  0  0  0  0  0  0  0  0  0
   -4.3504    0.4008    1.1290 H   0  0  0  0  0  0  0  0  0  0  0  0
   -3.6246    2.0380    1.0080 H   0  0  0  0  0  0  0  0  0  0  0  0
  1  2  1  0
  2  3  1  0
  3  4  1  0
  4  5  2  0
  4  6  2  0
  4  7  1  0
  7  8  2  0
  8  9  1  0
  9 10  2  0
 10 11  1  0
 11 12  2  0
 11 13  1  0
 13 14  1  0
 14 15  1  0
 12  7  1  0
 15 10  1  0
  1 16  1  0
  1 17  1  0
  1 18  1  0
  2 19  1  0
  2 20  1  0
  3 21  1  0
  8 22  1  0
  9 23  1  0
 12 24  1  0
 13 25  1  0
 14 26  1  0
 14 27  1  0
 15 28  1  0
 15 29  1  0
M  END
$$$$
