
     RDKit          3D

 39 40  0  0  0  0  0  0  0  0999 V2000
   -1.5278   -1.6963    2.6002 C   0  0  0  0  0  0  0  0  0  0  0  0
   -1.3994   -1.3554    1.1214 C   0  0  0  0  0  0  0  0  0  0  0  0
   -1.8911   -0.0193    0.9351 O   0  0  0  0  0  0  0  0  0  0  0  0
   -2.9109    0.1043    0.0285 C   0  0  0  0  0  0  0  0  0  0  0  0
   -4.0743   -0.6660    0.1240 C   0  0  0  0  0  0  0  0  0  0  0  0
   -5.1147   -0.4804   -0.7908 C   0  0  0  0  0  0  0  0  0  0  0  0
   -4.9932    0.4938   -1.7916 C   0  0  0  0  0  0  0  0  0  0  0  0
   -6.0875    0.6906   -2.7508 N   0  0  0  0  0  4  0  0  0  0  0  0
   -7.0680   -0.0616   -2.6654 O   0  0  0  0  0  0  0  0  0  0  0  0
   -5.9636    1.5963   -3.5862 O   0  0  0  0  0  1  0  0  0  0  0  0
   -3.8445    1.2892   -1.8788 C   0  0  0  0  0  0  0  0  0  0  0  0
   -2.8121    1.0957   -0.9594 C   0  0  0  0  0  0  0  0  0  0  0  0
   -1.4106    2.0988   -1.0745 Cl  0  0  0  0  0  0  0  0  0  0  0  0
    0.0844   -1.4509    0.7165 C   0  0  0  0  0  0  0  0  0  0  0  0
    0.6154   -2.5464    0.5517 O   0  0  0  0  0  0  0  0  0  0  0  0
    0.7008   -0.2166    0.6180 N   0  0  0  0  0  0  0  0  0  0  0  0
    2.0420    0.0635    0.3011 C   0  0  0  0  0  0  0  0  0  0  0  0
    3.0113   -0.9155    0.0749 C   0  0  0  0  0  0  0  0  0  0  0  0
    4.3304   -0.5563   -0.2346 C   0  0  0  0  0  0  0  0  0  0  0  0
    4.6945    0.7917   -0.3121 C   0  0  0  0  0  0  0  0  0  0  0  0
    6.0797    1.2264   -0.6369 C   0  0  0  0  0  0  0  0  0  0  0  0
    7.0914    0.3307   -0.4274 N   0  0  0  0  0  0  0  0  0  0  0  0
    6.3203    2.3559   -1.0442 O   0  0  0  0  0  0  0  0  0  0  0  0
    3.7229    1.7745   -0.0993 C   0  0  0  0  0  0  0  0  0  0  0  0
    2.4079    1.4117    0.2093 C   0  0  0  0  0  0  0  0  0  0  0  0
   -1.1494   -2.7012    2.8125 H   0  0  0  0  0  0  0  0  0  0  0  0
   -0.9670   -0.9843    3.2165 H   0  0  0  0  0  0  0  0  0  0  0  0
   -2.5730   -1.6404    2.9212 H   0  0  0  0  0  0  0  0  0  0  0  0
   -1.9357   -2.0911    0.5085 H   0  0  0  0  0  0  0  0  0  0  0  0
   -4.1941   -1.4020    0.9154 H   0  0  0  0  0  0  0  0  0  0  0  0
   -6.0115   -1.0923   -0.7041 H   0  0  0  0  0  0  0  0  0  0  0  0
   -3.7470    2.0545   -2.6460 H   0  0  0  0  0  0  0  0  0  0  0  0
    0.0823    0.5823    0.7362 H   0  0  0  0  0  0  0  0  0  0  0  0
    2.7737   -1.9738    0.1235 H   0  0  0  0  0  0  0  0  0  0  0  0
    5.0468   -1.3471   -0.4354 H   0  0  0  0  0  0  0  0  0  0  0  0
    8.0298    0.6939   -0.5381 H   0  0  0  0  0  0  0  0  0  0  0  0
    6.9776   -0.4862    0.1545 H   0  0  0  0  0  0  0  0  0  0  0  0
    3.9866    2.8282   -0.1720 H   0  0  0  0  0  0  0  0  0  0  0  0
    1.6774    2.2010    0.3704 H   0  0  0  0  0  0  0  0  0  0  0  0
  1  2  1  0
  2  3  1  0
  3  4  1  0
  4  5  2  0
  5  6  1  0
  6  7  2  0
  7  8  1  0
  8  9  2  0
  8 10  1  0
  7 11  1  0
 11 12  2  0
 12 13  1  0
  2 14  1  0
 14 15  2  0
 14 16  1  0
 16 17  1  0
 17 18  2  0
 18 19  1  0
 19 20  2  0
 20 21  1  0
 21 22  1  0
 21 23  2  0
 20 24  1  0
 24 25  2  0
 12  4  1  0
 25 17  1  0
  1 26  1  0
  1 27  1  0
  1 28  1  0
  2 29  1  0
  5 30  1  0
  6 31  1  0
 11 32  1  0
 16 33  1  0
 18 34  1  0
 19 35  1  0
 22 36  1  0
 22 37  1  0
 24 38  1  0
 25 39  1  0
M  CHG  2   8   1  10  -1
M  END
$$$$
