
     RDKit          3D

 34 34  0  0  0  0  0  0  0  0999 V2000
    5.9425    0.8433    0.2573 C   0  0  0  0  0  0  0  0  0  0  0  0
    5.3965   -0.5600    0.0439 C   0  0  0  0  0  0  0  0  0  0  0  0
    3.8715   -0.6323    0.0998 C   0  0  0  0  0  0  0  0  0  0  0  0
    3.1838    0.1168   -1.0386 C   0  0  0  0  0  0  0  0  0  0  0  0
    1.7657   -0.1145   -0.9884 O   0  0  0  0  0  0  0  0  0  0  0  0
    1.0613    0.7222   -0.1856 C   0  0  0  0  0  0  0  0  0  0  0  0
    1.5239    1.6315    0.4843 O   0  0  0  0  0  0  0  0  0  0  0  0
   -0.3874    0.3814   -0.2209 C   0  0  0  0  0  0  0  0  0  0  0  0
   -1.2689    1.1474    0.5498 C   0  0  0  0  0  0  0  0  0  0  0  0
   -2.6418    0.8679    0.5525 C   0  0  0  0  0  0  0  0  0  0  0  0
   -3.1534   -0.1799   -0.2143 C   0  0  0  0  0  0  0  0  0  0  0  0
   -4.5189   -0.5271   -0.2665 N   0  0  0  0  0  0  0  0  0  0  0  0
   -5.5694    0.0856    0.3932 C   0  0  0  0  0  0  0  0  0  0  0  0
   -6.8943   -0.5675    0.0861 C   0  0  0  0  0  0  0  0  0  0  0  0
   -5.5087    1.0613    1.1322 O   0  0  0  0  0  0  0  0  0  0  0  0
   -2.2692   -0.9465   -0.9848 C   0  0  0  0  0  0  0  0  0  0  0  0
   -0.8965   -0.6704   -0.9903 C   0  0  0  0  0  0  0  0  0  0  0  0
    5.6586    1.5130   -0.5597 H   0  0  0  0  0  0  0  0  0  0  0  0
    5.5766    1.2687    1.1971 H   0  0  0  0  0  0  0  0  0  0  0  0
    7.0361    0.8182    0.3000 H   0  0  0  0  0  0  0  0  0  0  0  0
    5.8047   -1.2148    0.8230 H   0  0  0  0  0  0  0  0  0  0  0  0
    5.7543   -0.9490   -0.9164 H   0  0  0  0  0  0  0  0  0  0  0  0
    3.5628   -1.6848    0.0655 H   0  0  0  0  0  0  0  0  0  0  0  0
    3.5145   -0.2545    1.0655 H   0  0  0  0  0  0  0  0  0  0  0  0
    3.4007    1.1906   -1.0239 H   0  0  0  0  0  0  0  0  0  0  0  0
    3.5313   -0.2673   -2.0038 H   0  0  0  0  0  0  0  0  0  0  0  0
   -0.8956    1.9707    1.1571 H   0  0  0  0  0  0  0  0  0  0  0  0
   -3.2819    1.4923    1.1687 H   0  0  0  0  0  0  0  0  0  0  0  0
   -4.7544   -1.3103   -0.8627 H   0  0  0  0  0  0  0  0  0  0  0  0
   -7.2848   -0.1696   -0.8541 H   0  0  0  0  0  0  0  0  0  0  0  0
   -6.7870   -1.6534    0.0105 H   0  0  0  0  0  0  0  0  0  0  0  0
   -7.6008   -0.3527    0.8932 H   0  0  0  0  0  0  0  0  0  0  0  0
   -2.6323   -1.7708   -1.5937 H   0  0  0  0  0  0  0  0  0  0  0  0
   -0.2394   -1.2857   -1.6000 H   0  0  0  0  0  0  0  0  0  0  0  0
  1  2  1  0
  2  3  1  0
  3  4  1  0
  4  5  1  0
  5  6  1  0
  6  7  2  0
  6  8  1  0
  8  9  2  0
  9 10  1  0
 10 11  2  0
 11 12  1  0
 12 13  1  0
 13 14  1  0
 13 15  2  0
 11 16  1  0
 16 17  2  0
 17  8  1  0
  1 18  1  0
  1 19  1  0
  1 20  1  0
  2 21  1  0
  2 22  1  0
  3 23  1  0
  3 24  1  0
  4 25  1  0
  4 26  1  0
  9 27  1  0
 10 28  1  0
 12 29  1  0
 14 30  1  0
 14 31  1  0
 14 32  1  0
 16 33  1  0
 17 34  1  0
M  END
$$$$
