
     RDKit          3D

 37 38  0  0  0  0  0  0  0  0999 V2000
   -5.2600   -0.2747   -2.2389 C   0  0  0  0  0  0  0  0  0  0  0  0
   -4.7164   -0.3727   -0.9302 O   0  0  0  0  0  0  0  0  0  0  0  0
   -3.4429    0.0998   -0.7317 C   0  0  0  0  0  0  0  0  0  0  0  0
   -2.6480    0.6716   -1.7305 C   0  0  0  0  0  0  0  0  0  0  0  0
   -1.3599    1.1218   -1.4332 C   0  0  0  0  0  0  0  0  0  0  0  0
   -0.8515    0.9929   -0.1383 C   0  0  0  0  0  0  0  0  0  0  0  0
    0.5300    1.4758    0.1280 C   0  0  0  0  0  0  0  0  0  0  0  0
    0.9913    2.4065   -0.5217 O   0  0  0  0  0  0  0  0  0  0  0  0
    1.2370    0.7920    1.0944 N   0  0  0  0  0  0  0  0  0  0  0  0
    2.6324    1.0769    1.3426 C   0  0  0  0  0  0  0  0  0  0  0  0
    3.5173    0.1168    0.5878 C   0  0  0  0  0  0  0  0  0  0  0  0
    4.0400   -1.0221    1.2141 C   0  0  0  0  0  0  0  0  0  0  0  0
    4.8388   -1.9180    0.4987 C   0  0  0  0  0  0  0  0  0  0  0  0
    5.1186   -1.6907   -0.8520 C   0  0  0  0  0  0  0  0  0  0  0  0
    6.1113   -2.8437   -1.6711 Cl  0  0  0  0  0  0  0  0  0  0  0  0
    4.5954   -0.5617   -1.4897 C   0  0  0  0  0  0  0  0  0  0  0  0
    4.8910   -0.2194   -3.1572 Cl  0  0  0  0  0  0  0  0  0  0  0  0
    3.7977    0.3348   -0.7709 C   0  0  0  0  0  0  0  0  0  0  0  0
   -1.6466    0.4398    0.8737 C   0  0  0  0  0  0  0  0  0  0  0  0
   -2.9410   -0.0077    0.5833 C   0  0  0  0  0  0  0  0  0  0  0  0
   -3.7893   -0.5701    1.5057 O   0  0  0  0  0  0  0  0  0  0  0  0
   -3.3992   -0.5417    2.8708 C   0  0  0  0  0  0  0  0  0  0  0  0
   -5.3440    0.7704   -2.5545 H   0  0  0  0  0  0  0  0  0  0  0  0
   -6.2697   -0.6960   -2.2140 H   0  0  0  0  0  0  0  0  0  0  0  0
   -4.6738   -0.8598   -2.9551 H   0  0  0  0  0  0  0  0  0  0  0  0
   -3.0001    0.7840   -2.7506 H   0  0  0  0  0  0  0  0  0  0  0  0
   -0.7513    1.5686   -2.2176 H   0  0  0  0  0  0  0  0  0  0  0  0
    0.8873   -0.1013    1.4111 H   0  0  0  0  0  0  0  0  0  0  0  0
    2.8742    2.1107    1.0713 H   0  0  0  0  0  0  0  0  0  0  0  0
    2.7961    0.9782    2.4214 H   0  0  0  0  0  0  0  0  0  0  0  0
    3.8318   -1.2202    2.2639 H   0  0  0  0  0  0  0  0  0  0  0  0
    5.2404   -2.7953    1.0009 H   0  0  0  0  0  0  0  0  0  0  0  0
    3.3832    1.2107   -1.2703 H   0  0  0  0  0  0  0  0  0  0  0  0
   -1.2540    0.3859    1.8819 H   0  0  0  0  0  0  0  0  0  0  0  0
   -4.2212   -0.9559    3.4626 H   0  0  0  0  0  0  0  0  0  0  0  0
   -2.5187   -1.1699    3.0401 H   0  0  0  0  0  0  0  0  0  0  0  0
   -3.2262    0.4837    3.2137 H   0  0  0  0  0  0  0  0  0  0  0  0
  1  2  1  0
  2  3  1  0
  3  4  2  0
  4  5  1  0
  5  6  2  0
  6  7  1  0
  7  8  2  0
  7  9  1  0
  9 10  1  0
 10 11  1  0
 11 12  2  0
 12 13  1  0
 13 14  2  0
 14 15  1  0
 14 16  1  0
 16 17  1  0
 16 18  2  0
  6 19  1  0
 19 20  2  0
 20 21  1  0
 21 22  1  0
 20  3  1  0
 18 11  1  0
  1 23  1  0
  1 24  1  0
  1 25  1  0
  4 26  1  0
  5 27  1  0
  9 28  1  0
 10 29  1  0
 10 30  1  0
 12 31  1  0
 13 32  1  0
 18 33  1  0
 19 34  1  0
 22 35  1  0
 22 36  1  0
 22 37  1  0
M  END
$$$$
