
     RDKit          3D

 39 41  0  0  0  0  0  0  0  0999 V2000
    5.0074    2.3290    0.2402 C   0  0  0  0  0  0  0  0  0  0  0  0
    4.7187    1.4344    1.4322 C   0  0  0  0  0  0  0  0  0  0  0  0
    4.2182    0.1333    1.0314 N   0  0  0  0  0  0  0  0  0  0  0  0
    4.9381   -1.0192    0.9262 C   0  0  0  0  0  0  0  0  0  0  0  0
    4.0475   -1.9842    0.5219 C   0  0  0  0  0  0  0  0  0  0  0  0
    2.7976   -1.3217    0.4079 C   0  0  0  0  0  0  0  0  0  0  0  0
    1.5076   -1.9143    0.0021 C   0  0  0  0  0  0  0  0  0  0  0  0
    1.4248   -3.1038   -0.2804 O   0  0  0  0  0  0  0  0  0  0  0  0
    0.4994   -0.9694   -0.0025 N   0  0  0  0  0  0  0  0  0  0  0  0
   -0.8359   -1.1363   -0.3250 C   0  0  0  0  0  0  0  0  0  0  0  0
   -1.4423   -2.6732   -0.7910 S   0  0  0  0  0  0  0  0  0  0  0  0
   -2.9736   -2.0493   -0.9827 C   0  0  0  0  0  0  0  0  0  0  0  0
   -3.0674   -0.7136   -0.7137 C   0  0  0  0  0  0  0  0  0  0  0  0
   -1.8220   -0.1448   -0.3156 C   0  0  0  0  0  0  0  0  0  0  0  0
   -1.5611    1.2436    0.0552 C   0  0  0  0  0  0  0  0  0  0  0  0
   -0.4506    1.6600    0.3686 O   0  0  0  0  0  0  0  0  0  0  0  0
   -2.6827    2.0219    0.0184 O   0  0  0  0  0  0  0  0  0  0  0  0
   -2.4585    3.3846    0.3783 C   0  0  0  0  0  0  0  0  0  0  0  0
   -4.4619   -0.2351   -0.9072 C   0  0  0  0  0  0  0  0  0  0  0  0
   -5.1244   -1.4265   -1.6680 C   0  0  0  0  0  0  0  0  0  0  0  0
   -4.2478   -2.6839   -1.3883 C   0  0  0  0  0  0  0  0  0  0  0  0
    2.9151   -0.0156    0.7277 N   0  0  0  0  0  0  0  0  0  0  0  0
    4.1020    2.5068   -0.3497 H   0  0  0  0  0  0  0  0  0  0  0  0
    5.3916    3.2971    0.5757 H   0  0  0  0  0  0  0  0  0  0  0  0
    5.7528    1.8752   -0.4215 H   0  0  0  0  0  0  0  0  0  0  0  0
    5.6287    1.2756    2.0209 H   0  0  0  0  0  0  0  0  0  0  0  0
    3.9688    1.8890    2.0889 H   0  0  0  0  0  0  0  0  0  0  0  0
    5.9971   -1.0584    1.1395 H   0  0  0  0  0  0  0  0  0  0  0  0
    4.2504   -3.0289    0.3295 H   0  0  0  0  0  0  0  0  0  0  0  0
    0.8015   -0.0299    0.2690 H   0  0  0  0  0  0  0  0  0  0  0  0
   -2.0905    3.4548    1.4067 H   0  0  0  0  0  0  0  0  0  0  0  0
   -3.4142    3.9124    0.3169 H   0  0  0  0  0  0  0  0  0  0  0  0
   -1.7583    3.8556   -0.3187 H   0  0  0  0  0  0  0  0  0  0  0  0
   -4.5202    0.6830   -1.4981 H   0  0  0  0  0  0  0  0  0  0  0  0
   -4.9507   -0.0792    0.0601 H   0  0  0  0  0  0  0  0  0  0  0  0
   -6.1694   -1.5745   -1.3786 H   0  0  0  0  0  0  0  0  0  0  0  0
   -5.1087   -1.2133   -2.7452 H   0  0  0  0  0  0  0  0  0  0  0  0
   -4.6697   -3.2711   -0.5662 H   0  0  0  0  0  0  0  0  0  0  0  0
   -4.1572   -3.3103   -2.2798 H   0  0  0  0  0  0  0  0  0  0  0  0
  1  2  1  0
  2  3  1  0
  3  4  1  0
  4  5  2  0
  5  6  1  0
  6  7  1  0
  7  8  2  0
  7  9  1  0
  9 10  1  0
 10 11  1  0
 11 12  1  0
 12 13  2  0
 13 14  1  0
 14 15  1  0
 15 16  2  0
 15 17  1  0
 17 18  1  0
 13 19  1  0
 19 20  1  0
 20 21  1  0
  6 22  2  0
 22  3  1  0
 14 10  2  0
 21 12  1  0
  1 23  1  0
  1 24  1  0
  1 25  1  0
  2 26  1  0
  2 27  1  0
  4 28  1  0
  5 29  1  0
  9 30  1  0
 18 31  1  0
 18 32  1  0
 18 33  1  0
 19 34  1  0
 19 35  1  0
 20 36  1  0
 20 37  1  0
 21 38  1  0
 21 39  1  0
M  END
$$$$
