
     RDKit          3D

 38 40  0  0  0  0  0  0  0  0999 V2000
   -7.9319    0.5316    0.7288 C   0  0  0  0  0  0  0  0  0  0  0  0
   -7.2974   -0.4684   -0.2165 C   0  0  0  0  0  0  0  0  0  0  0  0
   -5.8844   -0.4230   -0.0362 O   0  0  0  0  0  0  0  0  0  0  0  0
   -5.2154   -1.3660   -0.8767 C   0  0  0  0  0  0  0  0  0  0  0  0
   -3.7524   -1.2608   -0.6082 C   0  0  0  0  0  0  0  0  0  0  0  0
   -3.0308   -2.1686    0.0203 N   0  0  0  0  0  0  0  0  0  0  0  0
   -1.7024   -1.8025    0.1050 N   0  0  0  0  0  0  0  0  0  0  0  0
   -1.4694   -0.6415   -0.4660 C   0  0  0  0  0  0  0  0  0  0  0  0
   -0.2195   -0.0831   -0.4965 N   0  0  0  0  0  0  0  0  0  0  0  0
    0.1568    1.1051   -1.0772 C   0  0  0  0  0  0  0  0  0  0  0  0
   -0.5604    1.8879   -1.6935 O   0  0  0  0  0  0  0  0  0  0  0  0
    1.6484    1.4063   -0.8996 C   0  0  0  0  0  0  0  0  0  0  0  0
    2.2912    0.3986   -0.1237 O   0  0  0  0  0  0  0  0  0  0  0  0
    3.6389    0.5340    0.0765 C   0  0  0  0  0  0  0  0  0  0  0  0
    4.4299    1.6124   -0.3644 C   0  0  0  0  0  0  0  0  0  0  0  0
    5.8053    1.6442   -0.0995 C   0  0  0  0  0  0  0  0  0  0  0  0
    6.3512    0.5925    0.6031 C   0  0  0  0  0  0  0  0  0  0  0  0
    5.5818   -0.4590    1.0371 C   0  0  0  0  0  0  0  0  0  0  0  0
    4.2267   -0.5170    0.7903 C   0  0  0  0  0  0  0  0  0  0  0  0
    6.3077   -1.3874    1.7150 O   0  0  0  0  0  0  0  0  0  0  0  0
    7.6231   -0.7965    1.6605 C   0  0  0  0  0  0  0  0  0  0  0  0
    7.6585    0.4585    0.9489 O   0  0  0  0  0  0  0  0  0  0  0  0
   -2.8423    0.0912   -1.1551 S   0  0  0  0  0  0  0  0  0  0  0  0
   -9.0218    0.5054    0.6513 H   0  0  0  0  0  0  0  0  0  0  0  0
   -7.6429    0.3193    1.7624 H   0  0  0  0  0  0  0  0  0  0  0  0
   -7.5864    1.5461    0.5050 H   0  0  0  0  0  0  0  0  0  0  0  0
   -7.5469   -0.2146   -1.2524 H   0  0  0  0  0  0  0  0  0  0  0  0
   -7.6662   -1.4753    0.0073 H   0  0  0  0  0  0  0  0  0  0  0  0
   -5.5638   -2.3786   -0.6418 H   0  0  0  0  0  0  0  0  0  0  0  0
   -5.4333   -1.1527   -1.9297 H   0  0  0  0  0  0  0  0  0  0  0  0
    0.4972   -0.6265   -0.0285 H   0  0  0  0  0  0  0  0  0  0  0  0
    1.7214    2.3755   -0.3936 H   0  0  0  0  0  0  0  0  0  0  0  0
    2.0867    1.4479   -1.9033 H   0  0  0  0  0  0  0  0  0  0  0  0
    4.0046    2.4478   -0.9126 H   0  0  0  0  0  0  0  0  0  0  0  0
    6.4227    2.4712   -0.4326 H   0  0  0  0  0  0  0  0  0  0  0  0
    3.6377   -1.3558    1.1441 H   0  0  0  0  0  0  0  0  0  0  0  0
    7.9741   -0.6282    2.6852 H   0  0  0  0  0  0  0  0  0  0  0  0
    8.3035   -1.4999    1.1667 H   0  0  0  0  0  0  0  0  0  0  0  0
  1  2  1  0
  2  3  1  0
  3  4  1  0
  4  5  1  0
  5  6  2  0
  6  7  1  0
  7  8  2  0
  8  9  1  0
  9 10  1  0
 10 11  2  0
 10 12  1  0
 12 13  1  0
 13 14  1  0
 14 15  2  0
 15 16  1  0
 16 17  2  0
 17 18  1  0
 18 19  2  0
 18 20  1  0
 20 21  1  0
 21 22  1  0
  8 23  1  0
 23  5  1  0
 19 14  1  0
 22 17  1  0
  1 24  1  0
  1 25  1  0
  1 26  1  0
  2 27  1  0
  2 28  1  0
  4 29  1  0
  4 30  1  0
  9 31  1  0
 12 32  1  0
 12 33  1  0
 15 34  1  0
 16 35  1  0
 19 36  1  0
 21 37  1  0
 21 38  1  0
M  END
$$$$
