
     RDKit          3D

 37 39  0  0  0  0  0  0  0  0999 V2000
   -0.0272    0.8339    4.8049 C   0  0  0  0  0  0  0  0  0  0  0  0
    1.5090    0.5784    3.8773 S   0  0  0  0  0  0  0  0  0  0  0  0
    0.8537    0.2511    2.2463 C   0  0  0  0  0  0  0  0  0  0  0  0
    1.7173   -0.1897    1.2659 C   0  0  0  0  0  0  0  0  0  0  0  0
    1.1947   -0.4176    0.0086 C   0  0  0  0  0  0  0  0  0  0  0  0
    1.9946   -0.8753   -1.0313 N   0  0  0  0  0  0  0  0  0  0  0  0
    1.3091   -1.2280   -2.2861 C   0  0  0  0  0  0  0  0  0  0  0  0
    2.3302   -1.8046   -3.2789 C   0  0  0  0  0  0  0  0  0  0  0  0
    3.3897   -0.8958   -3.6193 O   0  0  0  0  0  0  0  0  0  0  0  0
    3.6076    0.1194   -2.6304 C   0  0  0  0  0  0  0  0  0  0  0  0
    3.3651   -0.3566   -1.1875 C   0  0  0  0  0  0  0  0  0  0  0  0
   -0.1173   -0.2404   -0.2198 N   0  0  0  0  0  0  0  0  0  0  0  0
   -0.8931    0.1766    0.7983 C   0  0  0  0  0  0  0  0  0  0  0  0
   -2.3100    0.4156    0.5003 C   0  0  0  0  0  0  0  0  0  0  0  0
   -2.6535    1.1351   -0.6660 C   0  0  0  0  0  0  0  0  0  0  0  0
   -3.9832    1.4102   -0.9959 C   0  0  0  0  0  0  0  0  0  0  0  0
   -5.0072    0.9665   -0.1678 C   0  0  0  0  0  0  0  0  0  0  0  0
   -4.6996    0.2426    0.9825 C   0  0  0  0  0  0  0  0  0  0  0  0
   -3.3651   -0.0352    1.3148 C   0  0  0  0  0  0  0  0  0  0  0  0
   -3.1102   -0.9993    2.7322 Cl  0  0  0  0  0  0  0  0  0  0  0  0
   -0.4504    0.4604    2.0286 N   0  0  0  0  0  0  0  0  0  0  0  0
   -0.6568   -0.0589    4.7635 H   0  0  0  0  0  0  0  0  0  0  0  0
   -0.5785    1.6953    4.4181 H   0  0  0  0  0  0  0  0  0  0  0  0
    0.2205    1.0294    5.8519 H   0  0  0  0  0  0  0  0  0  0  0  0
    2.7603   -0.3706    1.4879 H   0  0  0  0  0  0  0  0  0  0  0  0
    0.8406   -0.3365   -2.7221 H   0  0  0  0  0  0  0  0  0  0  0  0
    0.5337   -1.9810   -2.1014 H   0  0  0  0  0  0  0  0  0  0  0  0
    1.8319   -2.0912   -4.2104 H   0  0  0  0  0  0  0  0  0  0  0  0
    2.7947   -2.7069   -2.8641 H   0  0  0  0  0  0  0  0  0  0  0  0
    4.6395    0.4681   -2.7408 H   0  0  0  0  0  0  0  0  0  0  0  0
    2.9524    0.9658   -2.8685 H   0  0  0  0  0  0  0  0  0  0  0  0
    3.5761    0.4820   -0.5146 H   0  0  0  0  0  0  0  0  0  0  0  0
    4.0610   -1.1691   -0.9489 H   0  0  0  0  0  0  0  0  0  0  0  0
   -1.8649    1.4934   -1.3277 H   0  0  0  0  0  0  0  0  0  0  0  0
   -4.2141    1.9705   -1.8987 H   0  0  0  0  0  0  0  0  0  0  0  0
   -6.0438    1.1762   -0.4192 H   0  0  0  0  0  0  0  0  0  0  0  0
   -5.5070   -0.1137    1.6183 H   0  0  0  0  0  0  0  0  0  0  0  0
  1  2  1  0
  2  3  1  0
  3  4  2  0
  4  5  1  0
  5  6  1  0
  6  7  1  0
  7  8  1  0
  8  9  1  0
  9 10  1  0
 10 11  1  0
  5 12  2  0
 12 13  1  0
 13 14  1  0
 14 15  2  0
 15 16  1  0
 16 17  2  0
 17 18  1  0
 18 19  2  0
 19 20  1  0
 13 21  2  0
 21  3  1  0
 11  6  1  0
 19 14  1  0
  1 22  1  0
  1 23  1  0
  1 24  1  0
  4 25  1  0
  7 26  1  0
  7 27  1  0
  8 28  1  0
  8 29  1  0
 10 30  1  0
 10 31  1  0
 11 32  1  0
 11 33  1  0
 15 34  1  0
 16 35  1  0
 17 36  1  0
 18 37  1  0
M  END
$$$$
