
     RDKit          3D

125128  0  0  0  0  0  0  0  0999 V2000
    1.4807    6.2409    2.1901 C   0  0  0  0  0  0  0  0  0  0  0  0
    1.5301    4.7329    2.4139 C   0  0  0  0  0  0  0  0  0  0  0  0
    0.2371    3.9711    2.2247 C   0  0  0  0  0  0  0  0  0  0  0  0
   -0.9925    4.5169    2.1053 C   0  0  0  0  0  0  0  0  0  0  0  0
   -2.3362    3.8183    1.9611 C   0  0  0  0  0  0  0  0  0  0  0  0
   -3.3575    4.4684    2.8994 C   0  0  0  0  0  0  0  0  0  0  0  0
   -2.7788    3.8899    0.4849 C   0  0  0  0  0  0  0  0  0  0  0  0
   -4.0460    3.0910    0.0901 C   0  0  0  0  0  0  0  0  0  0  0  0
   -4.3769    3.4397   -1.3711 C   0  0  0  0  0  0  0  0  0  0  0  0
   -3.8767    1.5548    0.2705 C   0  0  0  0  0  0  0  0  0  0  0  0
   -5.1628    0.7465   -0.0147 C   0  0  0  0  0  0  0  0  0  0  0  0
   -6.1351    1.1397    0.9778 O   0  0  0  0  0  0  0  0  0  0  0  0
   -7.3040    1.7351    0.4292 C   0  0  0  0  0  0  0  0  0  0  0  0
   -4.9616   -0.7993    0.1042 C   0  0  0  0  0  0  0  0  0  0  0  0
   -3.7915   -1.2503   -0.5931 O   0  0  0  0  0  0  0  0  0  0  0  0
   -3.4876   -2.6567   -0.5261 C   0  0  0  0  0  0  0  0  0  0  0  0
   -3.2373   -2.9803   -1.8955 O   0  0  0  0  0  0  0  0  0  0  0  0
   -2.1740   -2.9173    0.2892 C   0  0  0  0  0  0  0  0  0  0  0  0
   -1.5910   -2.0246    0.9044 O   0  0  0  0  0  0  0  0  0  0  0  0
   -1.6317   -4.3696    0.2755 C   0  0  0  0  0  0  0  0  0  0  0  0
   -2.4020   -5.2681   -0.0611 O   0  0  0  0  0  0  0  0  0  0  0  0
   -0.3078   -4.6608    0.6440 N   0  0  0  0  0  0  0  0  0  0  0  0
    0.1317   -6.0506    0.4997 C   0  0  0  0  0  0  0  0  0  0  0  0
    1.6026   -6.1567    0.1245 C   0  0  0  0  0  0  0  0  0  0  0  0
    2.5124   -5.4701    1.1382 C   0  0  0  0  0  0  0  0  0  0  0  0
    1.7888   -4.4102    1.9689 C   0  0  0  0  0  0  0  0  0  0  0  0
    0.6770   -3.6927    1.1838 C   0  0  0  0  0  0  0  0  0  0  0  0
    1.2723   -2.8283    0.0583 C   0  0  0  0  0  0  0  0  0  0  0  0
    0.9644   -2.9238   -1.1230 O   0  0  0  0  0  0  0  0  0  0  0  0
    2.1372   -1.9169    0.5911 O   0  0  0  0  0  0  0  0  0  0  0  0
    2.6170   -0.8717   -0.2833 C   0  0  0  0  0  0  0  0  0  0  0  0
    4.1529   -0.9838   -0.3429 C   0  0  0  0  0  0  0  0  0  0  0  0
    4.8307   -0.9692    1.0009 C   0  0  0  0  0  0  0  0  0  0  0  0
    4.7450   -1.0967   -1.5536 C   0  0  0  0  0  0  0  0  0  0  0  0
    6.1681   -1.2078   -2.0771 C   0  0  0  0  0  0  0  0  0  0  0  0
    7.3718   -1.1012   -1.1317 C   0  0  0  0  0  0  0  0  0  0  0  0
    7.6054    0.3143   -0.6158 C   0  0  0  0  0  0  0  0  0  0  0  0
    7.7433    1.3360   -1.7475 C   0  0  0  0  0  0  0  0  0  0  0  0
    7.8114    2.6323   -1.1368 O   0  0  0  0  0  0  0  0  0  0  0  0
    6.5797    1.2468   -2.7625 C   0  0  0  0  0  0  0  0  0  0  0  0
    6.8209    2.0004   -3.9648 O   0  0  0  0  0  0  0  0  0  0  0  0
    6.9288    3.4039   -3.7767 C   0  0  0  0  0  0  0  0  0  0  0  0
    6.3744   -0.2018   -3.2290 C   0  0  0  0  0  0  0  0  0  0  0  0
    2.1199    0.5104    0.2453 C   0  0  0  0  0  0  0  0  0  0  0  0
    2.4492    1.6101   -0.7728 C   0  0  0  0  0  0  0  0  0  0  0  0
    0.6178    0.4456    0.6117 C   0  0  0  0  0  0  0  0  0  0  0  0
   -0.1169   -0.1211   -0.4816 O   0  0  0  0  0  0  0  0  0  0  0  0
   -0.0708    1.7626    0.9300 C   0  0  0  0  0  0  0  0  0  0  0  0
    0.4568    2.4845    2.1496 C   0  0  0  0  0  0  0  0  0  0  0  0
    1.0779    1.9124    3.0423 O   0  0  0  0  0  0  0  0  0  0  0  0
   -4.6786   -3.5473   -0.0607 C   0  0  0  0  0  0  0  0  0  0  0  0
   -4.8289   -3.7470    1.4548 C   0  0  0  0  0  0  0  0  0  0  0  0
   -5.9737   -3.0246   -0.6742 C   0  0  0  0  0  0  0  0  0  0  0  0
   -6.2454   -1.5562   -0.3530 C   0  0  0  0  0  0  0  0  0  0  0  0
   -6.8189   -0.9368   -1.5203 O   0  0  0  0  0  0  0  0  0  0  0  0
   -8.1420   -1.3766   -1.8119 C   0  0  0  0  0  0  0  0  0  0  0  0
    2.4829    6.6684    2.2883 H   0  0  0  0  0  0  0  0  0  0  0  0
    1.1109    6.4832    1.1874 H   0  0  0  0  0  0  0  0  0  0  0  0
    0.8370    6.7310    2.9291 H   0  0  0  0  0  0  0  0  0  0  0  0
    1.9055    4.5438    3.4269 H   0  0  0  0  0  0  0  0  0  0  0  0
    2.2759    4.3237    1.7194 H   0  0  0  0  0  0  0  0  0  0  0  0
   -1.0744    5.6033    2.1329 H   0  0  0  0  0  0  0  0  0  0  0  0
   -2.2427    2.7821    2.2912 H   0  0  0  0  0  0  0  0  0  0  0  0
   -3.5784    5.4998    2.6023 H   0  0  0  0  0  0  0  0  0  0  0  0
   -4.2981    3.9088    2.9046 H   0  0  0  0  0  0  0  0  0  0  0  0
   -2.9839    4.4899    3.9301 H   0  0  0  0  0  0  0  0  0  0  0  0
   -1.9579    3.5705   -0.1689 H   0  0  0  0  0  0  0  0  0  0  0  0
   -2.9482    4.9481    0.2359 H   0  0  0  0  0  0  0  0  0  0  0  0
   -4.8745    3.4422    0.7145 H   0  0  0  0  0  0  0  0  0  0  0  0
   -3.6431    3.0009   -2.0558 H   0  0  0  0  0  0  0  0  0  0  0  0
   -4.3759    4.5227   -1.5274 H   0  0  0  0  0  0  0  0  0  0  0  0
   -5.3672    3.0799   -1.6614 H   0  0  0  0  0  0  0  0  0  0  0  0
   -3.0668    1.2080   -0.3800 H   0  0  0  0  0  0  0  0  0  0  0  0
   -3.5804    1.3529    1.3056 H   0  0  0  0  0  0  0  0  0  0  0  0
   -5.4975    0.9865   -1.0295 H   0  0  0  0  0  0  0  0  0  0  0  0
   -7.0588    2.6289   -0.1507 H   0  0  0  0  0  0  0  0  0  0  0  0
   -7.8492    1.0236   -0.1928 H   0  0  0  0  0  0  0  0  0  0  0  0
   -7.9530    2.0302    1.2592 H   0  0  0  0  0  0  0  0  0  0  0  0
   -4.7885   -1.0009    1.1669 H   0  0  0  0  0  0  0  0  0  0  0  0
   -2.5552   -2.3475   -2.1865 H   0  0  0  0  0  0  0  0  0  0  0  0
   -0.0643   -6.5529    1.4540 H   0  0  0  0  0  0  0  0  0  0  0  0
   -0.4666   -6.5616   -0.2598 H   0  0  0  0  0  0  0  0  0  0  0  0
    1.8911   -7.2092    0.0202 H   0  0  0  0  0  0  0  0  0  0  0  0
    1.7526   -5.6952   -0.8604 H   0  0  0  0  0  0  0  0  0  0  0  0
    2.9427   -6.2164    1.8167 H   0  0  0  0  0  0  0  0  0  0  0  0
    3.3588   -5.0177    0.6095 H   0  0  0  0  0  0  0  0  0  0  0  0
    1.3337   -4.9045    2.8382 H   0  0  0  0  0  0  0  0  0  0  0  0
    2.5240   -3.7021    2.3702 H   0  0  0  0  0  0  0  0  0  0  0  0
    0.1579   -3.0294    1.8812 H   0  0  0  0  0  0  0  0  0  0  0  0
    2.2046   -1.0043   -1.2915 H   0  0  0  0  0  0  0  0  0  0  0  0
    5.8280   -1.3983    0.9868 H   0  0  0  0  0  0  0  0  0  0  0  0
    4.2763   -1.5643    1.7330 H   0  0  0  0  0  0  0  0  0  0  0  0
    4.9000    0.0534    1.3836 H   0  0  0  0  0  0  0  0  0  0  0  0
    4.0466   -1.1381   -2.3980 H   0  0  0  0  0  0  0  0  0  0  0  0
    6.2194   -2.2121   -2.5229 H   0  0  0  0  0  0  0  0  0  0  0  0
    8.2712   -1.4075   -1.6850 H   0  0  0  0  0  0  0  0  0  0  0  0
    7.2973   -1.8170   -0.3084 H   0  0  0  0  0  0  0  0  0  0  0  0
    6.7931    0.6224    0.0505 H   0  0  0  0  0  0  0  0  0  0  0  0
    8.5093    0.3348    0.0075 H   0  0  0  0  0  0  0  0  0  0  0  0
    8.6964    1.1878   -2.2693 H   0  0  0  0  0  0  0  0  0  0  0  0
    6.9512    2.8041   -0.7191 H   0  0  0  0  0  0  0  0  0  0  0  0
    5.6553    1.6258   -2.3096 H   0  0  0  0  0  0  0  0  0  0  0  0
    7.9384    3.6643   -3.4474 H   0  0  0  0  0  0  0  0  0  0  0  0
    6.7547    3.8892   -4.7403 H   0  0  0  0  0  0  0  0  0  0  0  0
    6.1844    3.7734   -3.0669 H   0  0  0  0  0  0  0  0  0  0  0  0
    7.2523   -0.5087   -3.8163 H   0  0  0  0  0  0  0  0  0  0  0  0
    5.5387   -0.2386   -3.9410 H   0  0  0  0  0  0  0  0  0  0  0  0
    2.6524    0.7529    1.1744 H   0  0  0  0  0  0  0  0  0  0  0  0
    3.5258    1.6625   -0.9593 H   0  0  0  0  0  0  0  0  0  0  0  0
    1.9486    1.4315   -1.7293 H   0  0  0  0  0  0  0  0  0  0  0  0
    2.1526    2.5978   -0.4097 H   0  0  0  0  0  0  0  0  0  0  0  0
    0.5012   -0.2279    1.4722 H   0  0  0  0  0  0  0  0  0  0  0  0
   -0.8753   -0.5969   -0.0784 H   0  0  0  0  0  0  0  0  0  0  0  0
   -1.1213    1.5266    1.1096 H   0  0  0  0  0  0  0  0  0  0  0  0
   -0.0417    2.4268    0.0577 H   0  0  0  0  0  0  0  0  0  0  0  0
   -4.5538   -4.5520   -0.4848 H   0  0  0  0  0  0  0  0  0  0  0  0
   -5.6614   -4.4313    1.6585 H   0  0  0  0  0  0  0  0  0  0  0  0
   -5.0357   -2.8276    2.0029 H   0  0  0  0  0  0  0  0  0  0  0  0
   -3.9359   -4.1963    1.8958 H   0  0  0  0  0  0  0  0  0  0  0  0
   -5.9259   -3.1703   -1.7613 H   0  0  0  0  0  0  0  0  0  0  0  0
   -6.8252   -3.6330   -0.3428 H   0  0  0  0  0  0  0  0  0  0  0  0
   -6.9754   -1.4734    0.4623 H   0  0  0  0  0  0  0  0  0  0  0  0
   -8.1398   -2.4092   -2.1758 H   0  0  0  0  0  0  0  0  0  0  0  0
   -8.7863   -1.2886   -0.9304 H   0  0  0  0  0  0  0  0  0  0  0  0
   -8.5475   -0.7357   -2.6010 H   0  0  0  0  0  0  0  0  0  0  0  0
  1  2  1  0
  2  3  1  0
  3  4  2  3
  4  5  1  0
  5  6  1  0
  5  7  1  0
  7  8  1  0
  8  9  1  0
  8 10  1  0
 10 11  1  0
 11 12  1  0
 12 13  1  0
 11 14  1  0
 14 15  1  0
 15 16  1  0
 16 17  1  0
 16 18  1  0
 18 19  2  0
 18 20  1  0
 20 21  2  0
 20 22  1  0
 22 23  1  0
 23 24  1  0
 24 25  1  0
 25 26  1  0
 26 27  1  0
 27 28  1  0
 28 29  2  0
 28 30  1  0
 30 31  1  0
 31 32  1  0
 32 33  1  0
 32 34  2  3
 34 35  1  0
 35 36  1  0
 36 37  1  0
 37 38  1  0
 38 39  1  0
 38 40  1  0
 40 41  1  0
 41 42  1  0
 40 43  1  0
 31 44  1  0
 44 45  1  0
 44 46  1  0
 46 47  1  0
 46 48  1  0
 48 49  1  0
 49 50  2  0
 16 51  1  0
 51 52  1  0
 51 53  1  0
 53 54  1  0
 54 55  1  0
 55 56  1  0
 49  3  1  0
 54 14  1  0
 27 22  1  0
 43 35  1  0
  1 57  1  0
  1 58  1  0
  1 59  1  0
  2 60  1  0
  2 61  1  0
  4 62  1  0
  5 63  1  0
  6 64  1  0
  6 65  1  0
  6 66  1  0
  7 67  1  0
  7 68  1  0
  8 69  1  0
  9 70  1  0
  9 71  1  0
  9 72  1  0
 10 73  1  0
 10 74  1  0
 11 75  1  0
 13 76  1  0
 13 77  1  0
 13 78  1  0
 14 79  1  0
 17 80  1  0
 23 81  1  0
 23 82  1  0
 24 83  1  0
 24 84  1  0
 25 85  1  0
 25 86  1  0
 26 87  1  0
 26 88  1  0
 27 89  1  0
 31 90  1  0
 33 91  1  0
 33 92  1  0
 33 93  1  0
 34 94  1  0
 35 95  1  0
 36 96  1  0
 36 97  1  0
 37 98  1  0
 37 99  1  0
 38100  1  0
 39101  1  0
 40102  1  0
 42103  1  0
 42104  1  0
 42105  1  0
 43106  1  0
 43107  1  0
 44108  1  0
 45109  1  0
 45110  1  0
 45111  1  0
 46112  1  0
 47113  1  0
 48114  1  0
 48115  1  0
 51116  1  0
 52117  1  0
 52118  1  0
 52119  1  0
 53120  1  0
 53121  1  0
 54122  1  0
 56123  1  0
 56124  1  0
 56125  1  0
M  END
$$$$
