
     RDKit          3D

 45 44  0  0  0  0  0  0  0  0999 V2000
    5.2446   -4.4076    2.0434 C   0  0  0  0  0  0  0  0  0  0  0  0
    5.4232   -3.3853    0.9317 C   0  0  0  0  0  0  0  0  0  0  0  0
    4.3355   -2.3104    0.9116 C   0  0  0  0  0  0  0  0  0  0  0  0
    2.9475   -2.8611    0.5896 C   0  0  0  0  0  0  0  0  0  0  0  0
    1.9670   -1.8038    0.5030 N   0  0  0  0  0  0  0  0  0  0  0  0
    1.7623   -1.0749   -0.6270 C   0  0  0  0  0  0  0  0  0  0  0  0
    2.3075   -1.2589   -1.7039 O   0  0  0  0  0  0  0  0  0  0  0  0
    0.8579   -0.1025   -0.3647 O   0  0  0  0  0  0  0  0  0  0  0  0
    0.5602    0.7440   -1.4888 C   0  0  0  0  0  0  0  0  0  0  0  0
   -0.5308    1.7490   -1.0804 C   0  0  0  0  0  0  0  0  0  0  0  0
   -0.8623    2.7421   -2.2082 C   0  0  0  0  0  0  0  0  0  0  0  0
    0.2941    3.6615   -2.5727 C   0  0  0  0  0  0  0  0  0  0  0  0
   -1.7450    1.0425   -0.6777 N   0  0  0  0  0  0  0  0  0  0  0  0
   -2.6704    1.5724    0.1664 C   0  0  0  0  0  0  0  0  0  0  0  0
   -2.5800    2.6520    0.7292 O   0  0  0  0  0  0  0  0  0  0  0  0
   -3.7107    0.7109    0.2705 O   0  0  0  0  0  0  0  0  0  0  0  0
   -4.7902    1.1257    1.1276 C   0  0  0  0  0  0  0  0  0  0  0  0
   -5.7405    2.0304    0.3511 C   0  0  0  0  0  0  0  0  0  0  0  0
   -5.5067   -0.1374    1.5901 C   0  0  0  0  0  0  0  0  0  0  0  0
    5.1775   -3.9184    3.0202 H   0  0  0  0  0  0  0  0  0  0  0  0
    4.3433   -5.0093    1.8942 H   0  0  0  0  0  0  0  0  0  0  0  0
    6.0992   -5.0916    2.0651 H   0  0  0  0  0  0  0  0  0  0  0  0
    6.3948   -2.8942    1.0629 H   0  0  0  0  0  0  0  0  0  0  0  0
    5.4566   -3.9002   -0.0355 H   0  0  0  0  0  0  0  0  0  0  0  0
    4.6101   -1.5565    0.1629 H   0  0  0  0  0  0  0  0  0  0  0  0
    4.3112   -1.7882    1.8764 H   0  0  0  0  0  0  0  0  0  0  0  0
    2.9653   -3.4062   -0.3606 H   0  0  0  0  0  0  0  0  0  0  0  0
    2.6038   -3.5436    1.3725 H   0  0  0  0  0  0  0  0  0  0  0  0
    1.4981   -1.4707    1.3339 H   0  0  0  0  0  0  0  0  0  0  0  0
    0.2104    0.1275   -2.3262 H   0  0  0  0  0  0  0  0  0  0  0  0
    1.4779    1.2672   -1.7768 H   0  0  0  0  0  0  0  0  0  0  0  0
   -0.1852    2.3061   -0.2000 H   0  0  0  0  0  0  0  0  0  0  0  0
   -1.7102    3.3691   -1.9048 H   0  0  0  0  0  0  0  0  0  0  0  0
   -1.1904    2.1979   -3.1026 H   0  0  0  0  0  0  0  0  0  0  0  0
    0.6730    4.1857   -1.6898 H   0  0  0  0  0  0  0  0  0  0  0  0
   -0.0392    4.4134   -3.2954 H   0  0  0  0  0  0  0  0  0  0  0  0
    1.1194    3.1096   -3.0312 H   0  0  0  0  0  0  0  0  0  0  0  0
   -1.9997    0.1676   -1.1146 H   0  0  0  0  0  0  0  0  0  0  0  0
   -4.4019    1.6467    2.0113 H   0  0  0  0  0  0  0  0  0  0  0  0
   -5.2300    2.9404    0.0195 H   0  0  0  0  0  0  0  0  0  0  0  0
   -6.5990    2.3219    0.9639 H   0  0  0  0  0  0  0  0  0  0  0  0
   -6.1067    1.5301   -0.5522 H   0  0  0  0  0  0  0  0  0  0  0  0
   -5.8823   -0.7124    0.7364 H   0  0  0  0  0  0  0  0  0  0  0  0
   -4.8132   -0.7921    2.1290 H   0  0  0  0  0  0  0  0  0  0  0  0
   -6.3461    0.1002    2.2507 H   0  0  0  0  0  0  0  0  0  0  0  0
  1  2  1  0
  2  3  1  0
  3  4  1  0
  4  5  1  0
  5  6  1  0
  6  7  2  0
  6  8  1  0
  8  9  1  0
  9 10  1  0
 10 11  1  0
 11 12  1  0
 10 13  1  0
 13 14  1  0
 14 15  2  0
 14 16  1  0
 16 17  1  0
 17 18  1  0
 17 19  1  0
  1 20  1  0
  1 21  1  0
  1 22  1  0
  2 23  1  0
  2 24  1  0
  3 25  1  0
  3 26  1  0
  4 27  1  0
  4 28  1  0
  5 29  1  0
  9 30  1  0
  9 31  1  0
 10 32  1  0
 11 33  1  0
 11 34  1  0
 12 35  1  0
 12 36  1  0
 12 37  1  0
 13 38  1  0
 17 39  1  0
 18 40  1  0
 18 41  1  0
 18 42  1  0
 19 43  1  0
 19 44  1  0
 19 45  1  0
M  END
$$$$
