
     RDKit          3D

 35 37  0  0  0  0  0  0  0  0999 V2000
   -2.9765    4.3262    0.9934 C   0  0  0  0  0  0  0  0  0  0  0  0
   -1.9004    4.0798    1.8898 O   0  0  0  0  0  0  0  0  0  0  0  0
   -1.3614    2.8233    1.8771 C   0  0  0  0  0  0  0  0  0  0  0  0
   -0.3213    2.6248    2.7877 C   0  0  0  0  0  0  0  0  0  0  0  0
    0.3217    1.3871    2.8795 C   0  0  0  0  0  0  0  0  0  0  0  0
   -0.0633    0.3313    2.0489 C   0  0  0  0  0  0  0  0  0  0  0  0
    0.6121   -0.9670    2.1774 C   0  0  0  0  0  0  0  0  0  0  0  0
    1.2150   -1.6709    1.1949 C   0  0  0  0  0  0  0  0  0  0  0  0
    1.7824   -2.9426    1.5370 C   0  0  0  0  0  0  0  0  0  0  0  0
    2.2230   -3.9733    1.8410 N   0  0  0  0  0  0  0  0  0  0  0  0
    1.3549   -1.2498   -0.1700 C   0  0  0  0  0  0  0  0  0  0  0  0
    1.9042   -0.0486   -0.5711 C   0  0  0  0  0  0  0  0  0  0  0  0
    1.8669   -0.0024   -1.9388 N   0  0  0  0  0  0  0  0  0  0  0  0
    1.3081   -1.1557   -2.4403 C   0  0  0  0  0  0  0  0  0  0  0  0
    1.0736   -1.5362   -3.7672 C   0  0  0  0  0  0  0  0  0  0  0  0
    0.4833   -2.7829   -3.9904 C   0  0  0  0  0  0  0  0  0  0  0  0
    0.1407   -3.6139   -2.9275 C   0  0  0  0  0  0  0  0  0  0  0  0
    0.3803   -3.2186   -1.6061 C   0  0  0  0  0  0  0  0  0  0  0  0
    0.9791   -1.9659   -1.3506 C   0  0  0  0  0  0  0  0  0  0  0  0
   -1.1157    0.5266    1.1471 C   0  0  0  0  0  0  0  0  0  0  0  0
   -1.7581    1.7675    1.0572 C   0  0  0  0  0  0  0  0  0  0  0  0
   -3.2953    5.3639    1.1312 H   0  0  0  0  0  0  0  0  0  0  0  0
   -3.8332    3.6822    1.2180 H   0  0  0  0  0  0  0  0  0  0  0  0
   -2.6569    4.2117   -0.0476 H   0  0  0  0  0  0  0  0  0  0  0  0
   -0.0095    3.4420    3.4339 H   0  0  0  0  0  0  0  0  0  0  0  0
    1.1275    1.2629    3.5990 H   0  0  0  0  0  0  0  0  0  0  0  0
    0.5943   -1.3683    3.1909 H   0  0  0  0  0  0  0  0  0  0  0  0
    2.3130    0.7788   -0.0054 H   0  0  0  0  0  0  0  0  0  0  0  0
    2.2006    0.7655   -2.5051 H   0  0  0  0  0  0  0  0  0  0  0  0
    1.3400   -0.8919   -4.5988 H   0  0  0  0  0  0  0  0  0  0  0  0
    0.2907   -3.1089   -5.0101 H   0  0  0  0  0  0  0  0  0  0  0  0
   -0.3157   -4.5814   -3.1227 H   0  0  0  0  0  0  0  0  0  0  0  0
    0.1060   -3.8824   -0.7908 H   0  0  0  0  0  0  0  0  0  0  0  0
   -1.4471   -0.2840    0.5011 H   0  0  0  0  0  0  0  0  0  0  0  0
   -2.5631    1.8711    0.3375 H   0  0  0  0  0  0  0  0  0  0  0  0
  1  2  1  0
  2  3  1  0
  3  4  2  0
  4  5  1  0
  5  6  2  0
  6  7  1  0
  7  8  2  3
  8  9  1  0
  9 10  3  0
  8 11  1  0
 11 12  2  0
 12 13  1  0
 13 14  1  0
 14 15  2  0
 15 16  1  0
 16 17  2  0
 17 18  1  0
 18 19  2  0
  6 20  1  0
 20 21  2  0
 21  3  1  0
 19 11  1  0
 19 14  1  0
  1 22  1  0
  1 23  1  0
  1 24  1  0
  4 25  1  0
  5 26  1  0
  7 27  1  0
 12 28  1  0
 13 29  1  0
 15 30  1  0
 16 31  1  0
 17 32  1  0
 18 33  1  0
 20 34  1  0
 21 35  1  0
M  END
$$$$
