
     RDKit          3D

 53 54  0  0  0  0  0  0  0  0999 V2000
   -5.8934   -2.0133    2.1222 C   0  0  0  0  0  0  0  0  0  0  0  0
   -4.7309   -1.3032    1.4499 C   0  0  0  0  0  0  0  0  0  0  0  0
   -5.2044   -0.6471    0.2073 N   0  0  0  0  0  0  0  0  0  0  0  0
   -5.1226    0.8329    0.2077 C   0  0  0  0  0  0  0  0  0  0  0  0
   -6.2073    1.4243    1.0937 C   0  0  0  0  0  0  0  0  0  0  0  0
   -4.8843   -1.4451   -1.2628 S   0  0  0  0  0  6  0  0  0  0  0  0
   -5.5716   -0.7447   -2.3267 O   0  0  0  0  0  0  0  0  0  0  0  0
   -5.0720   -2.8662   -1.0592 O   0  0  0  0  0  0  0  0  0  0  0  0
   -3.1350   -1.1717   -1.5005 C   0  0  0  0  0  0  0  0  0  0  0  0
   -2.2178   -2.1517   -1.1071 C   0  0  0  0  0  0  0  0  0  0  0  0
   -0.8518   -1.9545   -1.3321 C   0  0  0  0  0  0  0  0  0  0  0  0
   -0.4021   -0.7846   -1.9628 C   0  0  0  0  0  0  0  0  0  0  0  0
    1.0391   -0.5226   -2.2269 C   0  0  0  0  0  0  0  0  0  0  0  0
    1.4518    0.4826   -2.7797 O   0  0  0  0  0  0  0  0  0  0  0  0
    1.8093   -1.5305   -1.7456 O   0  0  0  0  0  0  0  0  0  0  0  0
    3.2071   -1.3867   -2.0162 C   0  0  0  0  0  0  0  0  0  0  0  0
    3.9249   -0.3995   -1.0934 C   0  0  0  0  0  0  0  0  0  0  0  0
    4.9792    0.1582   -1.3956 O   0  0  0  0  0  0  0  0  0  0  0  0
    3.3441   -0.2442    0.1510 N   0  0  0  0  0  0  0  0  0  0  0  0
    3.8212    0.7878    1.0532 C   0  0  0  0  0  0  0  0  0  0  0  0
    5.2297    0.5096    1.6005 C   0  0  0  0  0  0  0  0  0  0  0  0
    6.0164    1.7209    1.7002 N   0  0  0  0  0  0  0  0  0  0  0  0
    6.8889    2.1810    0.7426 C   0  0  0  0  0  0  0  0  0  0  0  0
    7.0904    1.5207   -0.4325 O   0  0  0  0  0  0  0  0  0  0  0  0
    7.5136    3.3175    1.0644 C   0  0  0  0  0  0  0  0  0  0  0  0
    7.0038    3.9094    2.6148 S   0  0  0  0  0  0  0  0  0  0  0  0
    5.8945    2.5433    2.8120 C   0  0  0  0  0  0  0  0  0  0  0  0
    5.1541    2.3953    3.7711 O   0  0  0  0  0  0  0  0  0  0  0  0
   -1.3340    0.1801   -2.3753 C   0  0  0  0  0  0  0  0  0  0  0  0
   -2.6998   -0.0153   -2.1543 C   0  0  0  0  0  0  0  0  0  0  0  0
   -6.6947   -1.3118    2.3750 H   0  0  0  0  0  0  0  0  0  0  0  0
   -5.5599   -2.4965    3.0458 H   0  0  0  0  0  0  0  0  0  0  0  0
   -6.3191   -2.7828    1.4703 H   0  0  0  0  0  0  0  0  0  0  0  0
   -3.9334   -2.0222    1.2421 H   0  0  0  0  0  0  0  0  0  0  0  0
   -4.3002   -0.5680    2.1387 H   0  0  0  0  0  0  0  0  0  0  0  0
   -4.1325    1.1563    0.5474 H   0  0  0  0  0  0  0  0  0  0  0  0
   -5.2671    1.2308   -0.8014 H   0  0  0  0  0  0  0  0  0  0  0  0
   -6.0686    1.1440    2.1423 H   0  0  0  0  0  0  0  0  0  0  0  0
   -6.1894    2.5171    1.0350 H   0  0  0  0  0  0  0  0  0  0  0  0
   -7.1990    1.0804    0.7814 H   0  0  0  0  0  0  0  0  0  0  0  0
   -2.5578   -3.0737   -0.6385 H   0  0  0  0  0  0  0  0  0  0  0  0
   -0.1547   -2.7303   -1.0233 H   0  0  0  0  0  0  0  0  0  0  0  0
    3.3694   -1.0946   -3.0604 H   0  0  0  0  0  0  0  0  0  0  0  0
    3.6698   -2.3682   -1.8699 H   0  0  0  0  0  0  0  0  0  0  0  0
    2.3955   -0.5831    0.2628 H   0  0  0  0  0  0  0  0  0  0  0  0
    3.7875    1.7364    0.5038 H   0  0  0  0  0  0  0  0  0  0  0  0
    3.1048    0.8584    1.8787 H   0  0  0  0  0  0  0  0  0  0  0  0
    5.1317    0.0758    2.6039 H   0  0  0  0  0  0  0  0  0  0  0  0
    5.7816   -0.2316    1.0126 H   0  0  0  0  0  0  0  0  0  0  0  0
    6.2726    1.0422   -0.6896 H   0  0  0  0  0  0  0  0  0  0  0  0
    8.2356    3.8267    0.4421 H   0  0  0  0  0  0  0  0  0  0  0  0
   -1.0004    1.0838   -2.8846 H   0  0  0  0  0  0  0  0  0  0  0  0
   -3.4128    0.7283   -2.5054 H   0  0  0  0  0  0  0  0  0  0  0  0
  1  2  1  0
  2  3  1  0
  3  4  1  0
  4  5  1  0
  3  6  1  0
  6  7  2  0
  6  8  2  0
  6  9  1  0
  9 10  2  0
 10 11  1  0
 11 12  2  0
 12 13  1  0
 13 14  2  0
 13 15  1  0
 15 16  1  0
 16 17  1  0
 17 18  2  0
 17 19  1  0
 19 20  1  0
 20 21  1  0
 21 22  1  0
 22 23  1  0
 23 24  1  0
 23 25  2  0
 25 26  1  0
 26 27  1  0
 27 28  2  0
 12 29  1  0
 29 30  2  0
 30  9  1  0
 27 22  1  0
  1 31  1  0
  1 32  1  0
  1 33  1  0
  2 34  1  0
  2 35  1  0
  4 36  1  0
  4 37  1  0
  5 38  1  0
  5 39  1  0
  5 40  1  0
 10 41  1  0
 11 42  1  0
 16 43  1  0
 16 44  1  0
 19 45  1  0
 20 46  1  0
 20 47  1  0
 21 48  1  0
 21 49  1  0
 24 50  1  0
 25 51  1  0
 29 52  1  0
 30 53  1  0
M  END
$$$$
