
     RDKit          3D

 45 47  0  0  0  0  0  0  0  0999 V2000
   -4.3146    0.3436    2.1173 O   0  0  0  0  0  0  0  0  0  0  0  0
   -3.4748    0.2703    1.2216 C   0  0  0  0  0  0  0  0  0  0  0  0
   -3.8392    0.3807   -0.2540 C   0  0  0  0  0  0  0  0  0  0  0  0
   -5.3126    0.5792   -0.5261 C   0  0  0  0  0  0  0  0  0  0  0  0
   -6.1592   -0.5263   -0.6962 C   0  0  0  0  0  0  0  0  0  0  0  0
   -7.5225   -0.3425   -0.9380 C   0  0  0  0  0  0  0  0  0  0  0  0
   -8.0467    0.9463   -1.0044 C   0  0  0  0  0  0  0  0  0  0  0  0
   -9.7259    1.1721   -1.3045 Cl  0  0  0  0  0  0  0  0  0  0  0  0
   -7.2202    2.0534   -0.8273 C   0  0  0  0  0  0  0  0  0  0  0  0
   -5.8566    1.8708   -0.5856 C   0  0  0  0  0  0  0  0  0  0  0  0
   -2.0551    0.0703    1.5437 C   0  0  0  0  0  0  0  0  0  0  0  0
   -1.5554   -0.0575    2.8261 C   0  0  0  0  0  0  0  0  0  0  0  0
   -0.2025   -0.2311    2.7543 N   0  0  0  0  0  0  0  0  0  0  0  0
    0.2135   -0.2192    1.4396 C   0  0  0  0  0  0  0  0  0  0  0  0
    1.6124   -0.3835    1.1045 C   0  0  0  0  0  0  0  0  0  0  0  0
    2.4742   -0.5244    1.9663 O   0  0  0  0  0  0  0  0  0  0  0  0
    1.9077   -0.3636   -0.2395 N   0  0  0  0  0  0  0  0  0  0  0  0
    3.2578   -0.5516   -0.7307 C   0  0  0  0  0  0  0  0  0  0  0  0
    4.1096    0.7038   -0.5470 C   0  0  0  0  0  0  0  0  0  0  0  0
    5.4582    0.6146   -1.2582 C   0  0  0  0  0  0  0  0  0  0  0  0
    6.3075   -0.4568   -0.7858 N   0  0  0  0  0  0  0  0  0  0  0  0
    6.6164   -1.6024   -1.4639 C   0  0  0  0  0  0  0  0  0  0  0  0
    7.4722   -2.2851   -0.6309 C   0  0  0  0  0  0  0  0  0  0  0  0
    7.6921   -1.5801    0.5235 N   0  0  0  0  0  0  0  0  0  0  0  0
    6.9784   -0.4834    0.4027 C   0  0  0  0  0  0  0  0  0  0  0  0
   -0.9270   -0.0335    0.6721 C   0  0  0  0  0  0  0  0  0  0  0  0
   -3.5035   -0.5300   -0.7655 H   0  0  0  0  0  0  0  0  0  0  0  0
   -3.2818    1.2194   -0.6892 H   0  0  0  0  0  0  0  0  0  0  0  0
   -5.7662   -1.5389   -0.6330 H   0  0  0  0  0  0  0  0  0  0  0  0
   -8.1690   -1.2065   -1.0657 H   0  0  0  0  0  0  0  0  0  0  0  0
   -7.6309    3.0586   -0.8687 H   0  0  0  0  0  0  0  0  0  0  0  0
   -5.2257    2.7442   -0.4350 H   0  0  0  0  0  0  0  0  0  0  0  0
   -2.0617   -0.0393    3.7838 H   0  0  0  0  0  0  0  0  0  0  0  0
    0.4269   -0.3542    3.5400 H   0  0  0  0  0  0  0  0  0  0  0  0
    1.1606   -0.2567   -0.9079 H   0  0  0  0  0  0  0  0  0  0  0  0
    3.7006   -1.4038   -0.2039 H   0  0  0  0  0  0  0  0  0  0  0  0
    3.1753   -0.8091   -1.7920 H   0  0  0  0  0  0  0  0  0  0  0  0
    3.5667    1.5719   -0.9419 H   0  0  0  0  0  0  0  0  0  0  0  0
    4.2626    0.8969    0.5217 H   0  0  0  0  0  0  0  0  0  0  0  0
    6.0167    1.5479   -1.1198 H   0  0  0  0  0  0  0  0  0  0  0  0
    5.3138    0.4804   -2.3367 H   0  0  0  0  0  0  0  0  0  0  0  0
    6.2246   -1.8339   -2.4440 H   0  0  0  0  0  0  0  0  0  0  0  0
    7.9445   -3.2438   -0.8018 H   0  0  0  0  0  0  0  0  0  0  0  0
    6.9131    0.3091    1.1374 H   0  0  0  0  0  0  0  0  0  0  0  0
   -0.9543    0.0234   -0.4078 H   0  0  0  0  0  0  0  0  0  0  0  0
  1  2  2  0
  2  3  1  0
  3  4  1  0
  4  5  2  0
  5  6  1  0
  6  7  2  0
  7  8  1  0
  7  9  1  0
  9 10  2  0
  2 11  1  0
 11 12  2  0
 12 13  1  0
 13 14  1  0
 14 15  1  0
 15 16  2  0
 15 17  1  0
 17 18  1  0
 18 19  1  0
 19 20  1  0
 20 21  1  0
 21 22  1  0
 22 23  2  0
 23 24  1  0
 24 25  2  0
 14 26  2  0
 10  4  1  0
 26 11  1  0
 25 21  1  0
  3 27  1  0
  3 28  1  0
  5 29  1  0
  6 30  1  0
  9 31  1  0
 10 32  1  0
 12 33  1  0
 13 34  1  0
 17 35  1  0
 18 36  1  0
 18 37  1  0
 19 38  1  0
 19 39  1  0
 20 40  1  0
 20 41  1  0
 22 42  1  0
 23 43  1  0
 25 44  1  0
 26 45  1  0
M  END
$$$$
