
     RDKit          3D

 31 32  0  0  0  0  0  0  0  0999 V2000
    4.8558    1.4117   -0.3689 O   0  0  0  0  0  0  0  0  0  0  0  0
    4.7914    0.3820    0.3019 C   0  0  0  0  0  0  0  0  0  0  0  0
    3.6321   -0.3374    0.5705 N   0  0  0  0  0  0  0  0  0  0  0  0
    2.3185   -0.0531    0.1495 C   0  0  0  0  0  0  0  0  0  0  0  0
    1.3143   -0.9398    0.5501 C   0  0  0  0  0  0  0  0  0  0  0  0
   -0.0189   -0.7299    0.1753 C   0  0  0  0  0  0  0  0  0  0  0  0
   -0.3817    0.3629   -0.6145 C   0  0  0  0  0  0  0  0  0  0  0  0
   -1.7083    0.6349   -0.9859 N   0  0  0  0  0  0  0  0  0  0  0  0
   -2.9402    0.2903   -0.4028 C   0  0  0  0  0  0  0  0  0  0  0  0
   -3.0858    0.0019    0.9587 C   0  0  0  0  0  0  0  0  0  0  0  0
   -4.3243   -0.3740    1.4882 C   0  0  0  0  0  0  0  0  0  0  0  0
   -5.4367   -0.4760    0.6575 C   0  0  0  0  0  0  0  0  0  0  0  0
   -5.3107   -0.2004   -0.7009 C   0  0  0  0  0  0  0  0  0  0  0  0
   -4.0710    0.1772   -1.2250 C   0  0  0  0  0  0  0  0  0  0  0  0
    0.6296    1.2485   -1.0060 C   0  0  0  0  0  0  0  0  0  0  0  0
    1.9653    1.0443   -0.6318 C   0  0  0  0  0  0  0  0  0  0  0  0
    6.0560   -0.2140    0.9220 C   0  0  0  0  0  0  0  0  0  0  0  0
    5.8817   -0.2672    2.6907 Cl  0  0  0  0  0  0  0  0  0  0  0  0
    6.3162   -1.8514    0.2798 Cl  0  0  0  0  0  0  0  0  0  0  0  0
    3.7461   -1.1709    1.1389 H   0  0  0  0  0  0  0  0  0  0  0  0
    1.5464   -1.8121    1.1556 H   0  0  0  0  0  0  0  0  0  0  0  0
   -0.7664   -1.4561    0.4832 H   0  0  0  0  0  0  0  0  0  0  0  0
   -1.7955    1.1906   -1.8291 H   0  0  0  0  0  0  0  0  0  0  0  0
   -2.2409    0.1013    1.6344 H   0  0  0  0  0  0  0  0  0  0  0  0
   -4.4173   -0.5813    2.5509 H   0  0  0  0  0  0  0  0  0  0  0  0
   -6.3993   -0.7687    1.0683 H   0  0  0  0  0  0  0  0  0  0  0  0
   -6.1741   -0.2830   -1.3556 H   0  0  0  0  0  0  0  0  0  0  0  0
   -3.9921    0.3720   -2.2915 H   0  0  0  0  0  0  0  0  0  0  0  0
    0.3880    2.1245   -1.6033 H   0  0  0  0  0  0  0  0  0  0  0  0
    2.6981    1.7702   -0.9684 H   0  0  0  0  0  0  0  0  0  0  0  0
    6.9235    0.4033    0.6729 H   0  0  0  0  0  0  0  0  0  0  0  0
  1  2  2  0
  2  3  1  0
  3  4  1  0
  4  5  2  0
  5  6  1  0
  6  7  2  0
  7  8  1  0
  8  9  1  0
  9 10  2  0
 10 11  1  0
 11 12  2  0
 12 13  1  0
 13 14  2  0
  7 15  1  0
 15 16  2  0
  2 17  1  0
 17 18  1  0
 17 19  1  0
 16  4  1  0
 14  9  1  0
  3 20  1  0
  5 21  1  0
  6 22  1  0
  8 23  1  0
 10 24  1  0
 11 25  1  0
 12 26  1  0
 13 27  1  0
 14 28  1  0
 15 29  1  0
 16 30  1  0
 17 31  1  0
M  END
$$$$
