
     RDKit          3D

 52 54  0  0  0  0  0  0  0  0999 V2000
    7.3792   -3.2041   -0.3914 C   0  0  0  0  0  0  0  0  0  0  0  0
    6.3895   -2.1513   -0.7929 C   0  0  0  0  0  0  0  0  0  0  0  0
    5.5339   -2.3597   -1.8799 C   0  0  0  0  0  0  0  0  0  0  0  0
    4.6320   -1.3676   -2.2710 C   0  0  0  0  0  0  0  0  0  0  0  0
    4.5820   -0.1420   -1.5935 C   0  0  0  0  0  0  0  0  0  0  0  0
    3.5890    0.9130   -2.0038 C   0  0  0  0  0  0  0  0  0  0  0  0
    2.3266    0.7147   -1.3403 N   0  0  0  0  0  0  0  0  0  0  0  0
    1.2982    0.0099   -1.9184 C   0  0  0  0  0  0  0  0  0  0  0  0
    1.2490   -0.3909   -3.0726 O   0  0  0  0  0  0  0  0  0  0  0  0
    0.1269   -0.2740   -0.9497 C   0  0  0  0  0  0  0  0  0  0  0  0
    0.1445    0.1668    0.1917 O   0  0  0  0  0  0  0  0  0  0  0  0
   -0.8849   -1.0202   -1.5051 N   0  0  0  0  0  0  0  0  0  0  0  0
   -2.0981   -1.3469   -0.7740 C   0  0  0  0  0  0  0  0  0  0  0  0
   -2.9606   -0.1162   -0.4347 C   0  0  0  0  0  0  0  0  0  0  0  0
   -3.4261    0.4882   -1.6617 O   0  0  0  0  0  0  0  0  0  0  0  0
   -4.6446    1.1501   -1.3136 C   0  0  0  0  0  0  0  0  0  0  0  0
   -5.3121    0.1964   -0.3469 C   0  0  0  0  0  0  0  0  0  0  0  0
   -4.1811   -0.4774    0.3009 N   0  0  0  0  0  0  0  0  0  0  0  0
   -4.1144   -0.5820    1.9719 S   0  0  0  0  0  6  0  0  0  0  0  0
   -2.9628   -1.3799    2.3290 O   0  0  0  0  0  0  0  0  0  0  0  0
   -5.4379   -0.9344    2.4415 O   0  0  0  0  0  0  0  0  0  0  0  0
   -3.7932    1.0893    2.5028 C   0  0  0  0  0  0  0  0  0  0  0  0
   -2.4730    1.5131    2.6948 C   0  0  0  0  0  0  0  0  0  0  0  0
   -2.2231    2.8139    3.1356 C   0  0  0  0  0  0  0  0  0  0  0  0
   -3.2905    3.6722    3.4011 C   0  0  0  0  0  0  0  0  0  0  0  0
   -2.9493    5.4322    3.9997 Br  0  0  0  0  0  0  0  0  0  0  0  0
   -4.6082    3.2413    3.2387 C   0  0  0  0  0  0  0  0  0  0  0  0
   -4.8633    1.9418    2.7958 C   0  0  0  0  0  0  0  0  0  0  0  0
    5.4428    0.0668   -0.5080 C   0  0  0  0  0  0  0  0  0  0  0  0
    6.3446   -0.9264   -0.1175 C   0  0  0  0  0  0  0  0  0  0  0  0
    7.5672   -3.1715    0.6870 H   0  0  0  0  0  0  0  0  0  0  0  0
    8.3245   -3.0504   -0.9209 H   0  0  0  0  0  0  0  0  0  0  0  0
    7.0017   -4.2054   -0.6246 H   0  0  0  0  0  0  0  0  0  0  0  0
    5.5591   -3.2991   -2.4277 H   0  0  0  0  0  0  0  0  0  0  0  0
    3.9633   -1.5564   -3.1096 H   0  0  0  0  0  0  0  0  0  0  0  0
    3.9540    1.9082   -1.7278 H   0  0  0  0  0  0  0  0  0  0  0  0
    3.4537    0.9060   -3.0911 H   0  0  0  0  0  0  0  0  0  0  0  0
    2.2657    0.8541   -0.3365 H   0  0  0  0  0  0  0  0  0  0  0  0
   -0.8141   -1.2274   -2.4981 H   0  0  0  0  0  0  0  0  0  0  0  0
   -2.6605   -2.0444   -1.4047 H   0  0  0  0  0  0  0  0  0  0  0  0
   -1.7962   -1.8754    0.1346 H   0  0  0  0  0  0  0  0  0  0  0  0
   -2.3831    0.6499    0.0869 H   0  0  0  0  0  0  0  0  0  0  0  0
   -4.3989    2.1052   -0.8365 H   0  0  0  0  0  0  0  0  0  0  0  0
   -5.2431    1.3388   -2.2085 H   0  0  0  0  0  0  0  0  0  0  0  0
   -5.8877   -0.5622   -0.8884 H   0  0  0  0  0  0  0  0  0  0  0  0
   -5.9879    0.7180    0.3333 H   0  0  0  0  0  0  0  0  0  0  0  0
   -1.6357    0.8425    2.5044 H   0  0  0  0  0  0  0  0  0  0  0  0
   -1.1962    3.1434    3.2757 H   0  0  0  0  0  0  0  0  0  0  0  0
   -5.4396    3.9049    3.4651 H   0  0  0  0  0  0  0  0  0  0  0  0
   -5.8917    1.6013    2.6958 H   0  0  0  0  0  0  0  0  0  0  0  0
    5.4199    1.0053    0.0412 H   0  0  0  0  0  0  0  0  0  0  0  0
    7.0107   -0.7398    0.7221 H   0  0  0  0  0  0  0  0  0  0  0  0
  1  2  1  0
  2  3  2  0
  3  4  1  0
  4  5  2  0
  5  6  1  0
  6  7  1  0
  7  8  1  0
  8  9  2  0
  8 10  1  0
 10 11  2  0
 10 12  1  0
 12 13  1  0
 13 14  1  0
 14 15  1  0
 15 16  1  0
 16 17  1  0
 17 18  1  0
 18 19  1  0
 19 20  2  0
 19 21  2  0
 19 22  1  0
 22 23  2  0
 23 24  1  0
 24 25  2  0
 25 26  1  0
 25 27  1  0
 27 28  2  0
  5 29  1  0
 29 30  2  0
 30  2  1  0
 18 14  1  0
 28 22  1  0
  1 31  1  0
  1 32  1  0
  1 33  1  0
  3 34  1  0
  4 35  1  0
  6 36  1  0
  6 37  1  0
  7 38  1  0
 12 39  1  0
 13 40  1  0
 13 41  1  0
 14 42  1  0
 16 43  1  0
 16 44  1  0
 17 45  1  0
 17 46  1  0
 23 47  1  0
 24 48  1  0
 27 49  1  0
 28 50  1  0
 29 51  1  0
 30 52  1  0
M  END
$$$$
