
     RDKit          3D

 41 42  0  0  0  0  0  0  0  0999 V2000
   -4.5690   -1.9380   -1.5483 C   0  0  0  0  0  0  0  0  0  0  0  0
   -4.2524   -0.4494   -1.5751 C   0  0  0  0  0  0  0  0  0  0  0  0
   -3.8399    0.0262   -0.2481 N   0  0  0  0  0  0  0  0  0  0  0  0
   -4.9166    0.5442    0.6066 C   0  0  0  0  0  0  0  0  0  0  0  0
   -5.0818    2.0467    0.4283 C   0  0  0  0  0  0  0  0  0  0  0  0
   -2.5144   -0.0082    0.1717 C   0  0  0  0  0  0  0  0  0  0  0  0
   -2.0931    0.5632    1.3843 C   0  0  0  0  0  0  0  0  0  0  0  0
   -0.7555    0.5332    1.8124 C   0  0  0  0  0  0  0  0  0  0  0  0
    0.2299   -0.0662    1.0316 C   0  0  0  0  0  0  0  0  0  0  0  0
    1.6119   -0.0995    1.5244 C   0  0  0  0  0  0  0  0  0  0  0  0
    2.6899    0.0292    0.7357 C   0  0  0  0  0  0  0  0  0  0  0  0
    4.0480    0.0146    1.3454 C   0  0  0  0  0  0  0  0  0  0  0  0
    4.2149    0.0845    2.5590 O   0  0  0  0  0  0  0  0  0  0  0  0
    5.2228   -0.0477    0.4460 C   0  0  0  0  0  0  0  0  0  0  0  0
    6.4447    0.4726    0.8813 C   0  0  0  0  0  0  0  0  0  0  0  0
    7.5574    0.4110    0.0454 C   0  0  0  0  0  0  0  0  0  0  0  0
    7.4113   -0.1786   -1.1997 C   0  0  0  0  0  0  0  0  0  0  0  0
    6.2504   -0.7055   -1.6480 N   0  0  0  0  0  0  0  0  0  0  0  0
    5.1852   -0.6369   -0.8111 C   0  0  0  0  0  0  0  0  0  0  0  0
   -0.1590   -0.6582   -0.1681 C   0  0  0  0  0  0  0  0  0  0  0  0
   -1.5008   -0.6214   -0.5844 C   0  0  0  0  0  0  0  0  0  0  0  0
   -5.3718   -2.1564   -0.8363 H   0  0  0  0  0  0  0  0  0  0  0  0
   -3.6982   -2.5334   -1.2580 H   0  0  0  0  0  0  0  0  0  0  0  0
   -4.8939   -2.2727   -2.5384 H   0  0  0  0  0  0  0  0  0  0  0  0
   -3.5034   -0.2212   -2.3417 H   0  0  0  0  0  0  0  0  0  0  0  0
   -5.1530    0.0894   -1.8965 H   0  0  0  0  0  0  0  0  0  0  0  0
   -5.8644    0.0588    0.3402 H   0  0  0  0  0  0  0  0  0  0  0  0
   -4.7601    0.2884    1.6605 H   0  0  0  0  0  0  0  0  0  0  0  0
   -5.3134    2.2960   -0.6125 H   0  0  0  0  0  0  0  0  0  0  0  0
   -4.1737    2.5909    0.7047 H   0  0  0  0  0  0  0  0  0  0  0  0
   -5.9008    2.4135    1.0548 H   0  0  0  0  0  0  0  0  0  0  0  0
   -2.7966    1.0656    2.0407 H   0  0  0  0  0  0  0  0  0  0  0  0
   -0.5008    0.9977    2.7627 H   0  0  0  0  0  0  0  0  0  0  0  0
    1.7287   -0.2109    2.6017 H   0  0  0  0  0  0  0  0  0  0  0  0
    2.5970    0.1840   -0.3313 H   0  0  0  0  0  0  0  0  0  0  0  0
    6.5304    0.9248    1.8672 H   0  0  0  0  0  0  0  0  0  0  0  0
    8.5149    0.8113    0.3604 H   0  0  0  0  0  0  0  0  0  0  0  0
    8.2495   -0.2496   -1.8877 H   0  0  0  0  0  0  0  0  0  0  0  0
    4.2899   -1.1069   -1.2059 H   0  0  0  0  0  0  0  0  0  0  0  0
    0.5622   -1.1729   -0.7970 H   0  0  0  0  0  0  0  0  0  0  0  0
   -1.7264   -1.1123   -1.5257 H   0  0  0  0  0  0  0  0  0  0  0  0
  1  2  1  0
  2  3  1  0
  3  4  1  0
  4  5  1  0
  3  6  1  0
  6  7  2  0
  7  8  1  0
  8  9  2  0
  9 10  1  0
 10 11  2  3
 11 12  1  0
 12 13  2  0
 12 14  1  0
 14 15  2  0
 15 16  1  0
 16 17  2  0
 17 18  1  0
 18 19  2  0
  9 20  1  0
 20 21  2  0
 21  6  1  0
 19 14  1  0
  1 22  1  0
  1 23  1  0
  1 24  1  0
  2 25  1  0
  2 26  1  0
  4 27  1  0
  4 28  1  0
  5 29  1  0
  5 30  1  0
  5 31  1  0
  7 32  1  0
  8 33  1  0
 10 34  1  0
 11 35  1  0
 15 36  1  0
 16 37  1  0
 17 38  1  0
 19 39  1  0
 20 40  1  0
 21 41  1  0
M  END
$$$$
