
     RDKit          3D

 50 53  0  0  0  0  0  0  0  0999 V2000
   -5.3302   -2.6944   -1.8041 C   0  0  0  0  0  0  0  0  0  0  0  0
   -3.9430   -3.1741   -1.4138 C   0  0  0  0  0  0  0  0  0  0  0  0
   -3.5275   -2.5808   -0.1848 O   0  0  0  0  0  0  0  0  0  0  0  0
   -2.8768   -1.3806   -0.2136 C   0  0  0  0  0  0  0  0  0  0  0  0
   -2.4275   -0.9384    1.0336 C   0  0  0  0  0  0  0  0  0  0  0  0
   -1.7478    0.2751    1.1624 C   0  0  0  0  0  0  0  0  0  0  0  0
   -1.5138    1.0670    0.0357 C   0  0  0  0  0  0  0  0  0  0  0  0
   -0.7666    2.3123    0.1557 C   0  0  0  0  0  0  0  0  0  0  0  0
    0.5952    2.5404    0.3453 C   0  0  0  0  0  0  0  0  0  0  0  0
    1.7269    1.6121    0.4723 C   0  0  0  0  0  0  0  0  0  0  0  0
    2.8062    2.0006    0.9149 O   0  0  0  0  0  0  0  0  0  0  0  0
    1.4884    0.3078    0.0368 N   0  0  0  0  0  0  0  0  0  0  0  0
    2.4299   -0.6886   -0.0717 N   0  0  0  0  0  0  0  0  0  0  0  0
    3.3688   -0.7481    0.8195 C   0  0  0  0  0  0  0  0  0  0  0  0
    4.4437   -1.7600    0.7463 C   0  0  0  0  0  0  0  0  0  0  0  0
    5.4421   -1.7517    1.7270 C   0  0  0  0  0  0  0  0  0  0  0  0
    6.4693   -2.6978    1.6823 C   0  0  0  0  0  0  0  0  0  0  0  0
    6.4867   -3.6414    0.6583 C   0  0  0  0  0  0  0  0  0  0  0  0
    7.4701   -4.5820    0.5771 O   0  0  0  0  0  0  0  0  0  0  0  0
    5.4977   -3.6548   -0.3200 C   0  0  0  0  0  0  0  0  0  0  0  0
    4.4709   -2.7105   -0.2790 C   0  0  0  0  0  0  0  0  0  0  0  0
    0.8072    3.8932    0.4335 N   0  0  0  0  0  0  0  0  0  0  0  0
   -0.3472    4.5154    0.2944 N   0  0  0  0  0  0  0  0  0  0  0  0
   -1.3376    3.5929    0.1542 N   0  0  0  0  0  0  0  0  0  0  0  0
   -2.6972    3.9869    0.0565 C   0  0  0  0  0  0  0  0  0  0  0  0
   -3.6788    3.0869   -0.0091 N   0  0  0  0  0  0  0  0  0  0  0  0
   -4.8408    3.8533   -0.0706 O   0  0  0  0  0  0  0  0  0  0  0  0
   -4.5506    5.2130   -0.0411 N   0  0  0  0  0  0  0  0  0  0  0  0
   -3.2227    5.2930    0.0318 C   0  0  0  0  0  0  0  0  0  0  0  0
   -2.5327    6.4487    0.0692 N   0  0  0  0  0  0  0  0  0  0  0  0
   -1.9613    0.6265   -1.2154 C   0  0  0  0  0  0  0  0  0  0  0  0
   -2.6434   -0.5901   -1.3377 C   0  0  0  0  0  0  0  0  0  0  0  0
   -6.0433   -2.8868   -0.9955 H   0  0  0  0  0  0  0  0  0  0  0  0
   -5.6761   -3.2063   -2.7066 H   0  0  0  0  0  0  0  0  0  0  0  0
   -5.3445   -1.6162   -1.9885 H   0  0  0  0  0  0  0  0  0  0  0  0
   -3.2103   -3.0357   -2.2163 H   0  0  0  0  0  0  0  0  0  0  0  0
   -3.9897   -4.2544   -1.2346 H   0  0  0  0  0  0  0  0  0  0  0  0
   -2.6096   -1.5486    1.9157 H   0  0  0  0  0  0  0  0  0  0  0  0
   -1.4094    0.5871    2.1480 H   0  0  0  0  0  0  0  0  0  0  0  0
    0.6828    0.1418   -0.5556 H   0  0  0  0  0  0  0  0  0  0  0  0
    3.4061   -0.0766    1.6939 H   0  0  0  0  0  0  0  0  0  0  0  0
    5.4315   -1.0121    2.5238 H   0  0  0  0  0  0  0  0  0  0  0  0
    7.2403   -2.6821    2.4464 H   0  0  0  0  0  0  0  0  0  0  0  0
    8.0940   -4.4467    1.3090 H   0  0  0  0  0  0  0  0  0  0  0  0
    5.5266   -4.3969   -1.1130 H   0  0  0  0  0  0  0  0  0  0  0  0
    3.7000   -2.7216   -1.0452 H   0  0  0  0  0  0  0  0  0  0  0  0
   -3.0292    7.3134    0.2569 H   0  0  0  0  0  0  0  0  0  0  0  0
   -1.5457    6.4661    0.3240 H   0  0  0  0  0  0  0  0  0  0  0  0
   -1.7943    1.2256   -2.1086 H   0  0  0  0  0  0  0  0  0  0  0  0
   -2.9866   -0.8812   -2.3247 H   0  0  0  0  0  0  0  0  0  0  0  0
  1  2  1  0
  2  3  1  0
  3  4  1  0
  4  5  2  0
  5  6  1  0
  6  7  2  0
  7  8  1  0
  8  9  2  0
  9 10  1  0
 10 11  2  0
 10 12  1  0
 12 13  1  0
 13 14  2  3
 14 15  1  0
 15 16  2  0
 16 17  1  0
 17 18  2  0
 18 19  1  0
 18 20  1  0
 20 21  2  0
  9 22  1  0
 22 23  2  0
 23 24  1  0
 24 25  1  0
 25 26  2  0
 26 27  1  0
 27 28  1  0
 28 29  2  0
 29 30  1  0
  7 31  1  0
 31 32  2  0
 32  4  1  0
 24  8  1  0
 29 25  1  0
 21 15  1  0
  1 33  1  0
  1 34  1  0
  1 35  1  0
  2 36  1  0
  2 37  1  0
  5 38  1  0
  6 39  1  0
 12 40  1  0
 14 41  1  0
 16 42  1  0
 17 43  1  0
 19 44  1  0
 20 45  1  0
 21 46  1  0
 30 47  1  0
 30 48  1  0
 31 49  1  0
 32 50  1  0
M  END
$$$$
