
     RDKit          3D

 38 39  0  0  0  0  0  0  0  0999 V2000
   -4.5751    1.0108    0.4393 C   0  0  0  0  0  0  0  0  0  0  0  0
   -3.9819    2.0463    1.0498 C   0  0  0  0  0  0  0  0  0  0  0  0
   -2.6811    2.0521    1.8100 C   0  0  0  0  0  0  0  0  0  0  0  0
   -1.9436    0.7366    1.8940 C   0  0  0  0  0  0  0  0  0  0  0  0
   -2.1773   -0.1433    2.9551 C   0  0  0  0  0  0  0  0  0  0  0  0
   -1.5108   -1.3646    3.0094 C   0  0  0  0  0  0  0  0  0  0  0  0
   -0.6124   -1.7183    2.0018 C   0  0  0  0  0  0  0  0  0  0  0  0
   -0.0379   -2.9549    2.1338 O   0  0  0  0  0  0  0  0  0  0  0  0
   -0.3286   -0.8587    0.9252 C   0  0  0  0  0  0  0  0  0  0  0  0
    0.6735   -1.1492   -0.1313 C   0  0  0  0  0  0  0  0  0  0  0  0
    1.6701   -0.1953   -0.4234 C   0  0  0  0  0  0  0  0  0  0  0  0
    2.6242   -0.3952   -1.4368 C   0  0  0  0  0  0  0  0  0  0  0  0
    3.6623    0.6640   -1.7231 C   0  0  0  0  0  0  0  0  0  0  0  0
    3.1166    1.7813   -2.5669 C   0  0  0  0  0  0  0  0  0  0  0  0
    3.0747    3.0651   -2.1862 C   0  0  0  0  0  0  0  0  0  0  0  0
    2.5795   -1.5748   -2.1857 C   0  0  0  0  0  0  0  0  0  0  0  0
    1.6148   -2.5430   -1.9133 C   0  0  0  0  0  0  0  0  0  0  0  0
    0.6808   -2.3278   -0.8966 C   0  0  0  0  0  0  0  0  0  0  0  0
   -0.2343   -3.3123   -0.6228 O   0  0  0  0  0  0  0  0  0  0  0  0
   -1.0277    0.3675    0.8919 C   0  0  0  0  0  0  0  0  0  0  0  0
   -5.5205    1.1408   -0.0784 H   0  0  0  0  0  0  0  0  0  0  0  0
   -4.1446    0.0139    0.4361 H   0  0  0  0  0  0  0  0  0  0  0  0
   -4.4830    3.0122    1.0049 H   0  0  0  0  0  0  0  0  0  0  0  0
   -2.8769    2.4149    2.8274 H   0  0  0  0  0  0  0  0  0  0  0  0
   -2.0181    2.8002    1.3564 H   0  0  0  0  0  0  0  0  0  0  0  0
   -2.8869    0.1122    3.7383 H   0  0  0  0  0  0  0  0  0  0  0  0
   -1.6987   -2.0524    3.8291 H   0  0  0  0  0  0  0  0  0  0  0  0
    0.1379   -3.2641    1.2239 H   0  0  0  0  0  0  0  0  0  0  0  0
    1.7097    0.7279    0.1549 H   0  0  0  0  0  0  0  0  0  0  0  0
    4.0597    1.0405   -0.7717 H   0  0  0  0  0  0  0  0  0  0  0  0
    4.5165    0.2146   -2.2448 H   0  0  0  0  0  0  0  0  0  0  0  0
    2.7393    1.5117   -3.5513 H   0  0  0  0  0  0  0  0  0  0  0  0
    2.6675    3.8258   -2.8453 H   0  0  0  0  0  0  0  0  0  0  0  0
    3.4392    3.3859   -1.2152 H   0  0  0  0  0  0  0  0  0  0  0  0
    3.3021   -1.7500   -2.9797 H   0  0  0  0  0  0  0  0  0  0  0  0
    1.6130   -3.4614   -2.4925 H   0  0  0  0  0  0  0  0  0  0  0  0
   -0.2796   -3.9112   -1.3884 H   0  0  0  0  0  0  0  0  0  0  0  0
   -0.8624    1.0522    0.0603 H   0  0  0  0  0  0  0  0  0  0  0  0
  1  2  2  0
  2  3  1  0
  3  4  1  0
  4  5  2  0
  5  6  1  0
  6  7  2  0
  7  8  1  0
  7  9  1  0
  9 10  1  0
 10 11  2  0
 11 12  1  0
 12 13  1  0
 13 14  1  0
 14 15  2  0
 12 16  2  0
 16 17  1  0
 17 18  2  0
 18 19  1  0
  9 20  2  0
 20  4  1  0
 18 10  1  0
  1 21  1  0
  1 22  1  0
  2 23  1  0
  3 24  1  0
  3 25  1  0
  5 26  1  0
  6 27  1  0
  8 28  1  0
 11 29  1  0
 13 30  1  0
 13 31  1  0
 14 32  1  0
 15 33  1  0
 15 34  1  0
 16 35  1  0
 17 36  1  0
 19 37  1  0
 20 38  1  0
M  END
$$$$
