
     RDKit          3D

 45 47  0  0  0  0  0  0  0  0999 V2000
   -5.5174    0.5184    3.4686 C   0  0  0  0  0  0  0  0  0  0  0  0
   -4.2915   -0.1220    2.8422 C   0  0  0  0  0  0  0  0  0  0  0  0
   -4.4827   -0.1479    1.4309 O   0  0  0  0  0  0  0  0  0  0  0  0
   -3.4662   -0.6490    0.6559 C   0  0  0  0  0  0  0  0  0  0  0  0
   -2.2879   -1.2067    1.1612 C   0  0  0  0  0  0  0  0  0  0  0  0
   -1.3077   -1.6958    0.2935 C   0  0  0  0  0  0  0  0  0  0  0  0
   -1.4894   -1.6246   -1.0890 C   0  0  0  0  0  0  0  0  0  0  0  0
   -0.4878   -2.1615   -2.0150 C   0  0  0  0  0  0  0  0  0  0  0  0
    0.7654   -1.7149   -2.1824 C   0  0  0  0  0  0  0  0  0  0  0  0
    1.8611   -2.4503   -3.3114 S   0  0  0  0  0  0  0  0  0  0  0  0
    3.1838   -1.3604   -2.9079 C   0  0  0  0  0  0  0  0  0  0  0  0
    4.6751   -1.4107   -3.6533 S   0  0  0  0  0  0  0  0  0  0  0  0
    2.7448   -0.4842   -1.9393 N   0  0  0  0  0  0  0  0  0  0  0  0
    3.5914    0.4746   -1.3458 N   0  0  0  0  0  0  0  0  0  0  0  0
    4.2410    0.0693   -0.1905 C   0  0  0  0  0  0  0  0  0  0  0  0
    4.2618   -1.0925    0.2043 O   0  0  0  0  0  0  0  0  0  0  0  0
    4.8995    1.1416    0.5993 C   0  0  0  0  0  0  0  0  0  0  0  0
    5.0819    0.9379    1.9673 C   0  0  0  0  0  0  0  0  0  0  0  0
    5.6969    1.9379    2.6960 C   0  0  0  0  0  0  0  0  0  0  0  0
    6.1353    3.0944    2.1543 N   0  0  0  0  0  0  0  0  0  0  0  0
    5.9655    3.2566    0.8254 C   0  0  0  0  0  0  0  0  0  0  0  0
    5.3593    2.3192    0.0079 C   0  0  0  0  0  0  0  0  0  0  0  0
    1.4329   -0.5655   -1.5020 C   0  0  0  0  0  0  0  0  0  0  0  0
    0.9052    0.2146   -0.7214 O   0  0  0  0  0  0  0  0  0  0  0  0
   -2.6736   -1.0787   -1.6004 C   0  0  0  0  0  0  0  0  0  0  0  0
   -3.6624   -0.5865   -0.7386 C   0  0  0  0  0  0  0  0  0  0  0  0
   -4.8491   -0.0337   -1.1549 O   0  0  0  0  0  0  0  0  0  0  0  0
   -5.0663    0.0927   -2.5522 C   0  0  0  0  0  0  0  0  0  0  0  0
   -5.4215    0.5619    4.5571 H   0  0  0  0  0  0  0  0  0  0  0  0
   -5.6601    1.5341    3.0851 H   0  0  0  0  0  0  0  0  0  0  0  0
   -6.4200   -0.0476    3.2153 H   0  0  0  0  0  0  0  0  0  0  0  0
   -3.4078    0.4740    3.0978 H   0  0  0  0  0  0  0  0  0  0  0  0
   -4.1847   -1.1416    3.2297 H   0  0  0  0  0  0  0  0  0  0  0  0
   -2.0985   -1.2772    2.2268 H   0  0  0  0  0  0  0  0  0  0  0  0
   -0.4004   -2.1252    0.7128 H   0  0  0  0  0  0  0  0  0  0  0  0
   -0.8463   -3.0021   -2.6073 H   0  0  0  0  0  0  0  0  0  0  0  0
    3.2309    1.4236   -1.3809 H   0  0  0  0  0  0  0  0  0  0  0  0
    4.7518    0.0254    2.4535 H   0  0  0  0  0  0  0  0  0  0  0  0
    5.8603    1.8341    3.7652 H   0  0  0  0  0  0  0  0  0  0  0  0
    6.3495    4.1901    0.4224 H   0  0  0  0  0  0  0  0  0  0  0  0
    5.2846    2.5064   -1.0566 H   0  0  0  0  0  0  0  0  0  0  0  0
   -2.8048   -1.0445   -2.6767 H   0  0  0  0  0  0  0  0  0  0  0  0
   -6.0398    0.5708   -2.6976 H   0  0  0  0  0  0  0  0  0  0  0  0
   -5.1032   -0.8888   -3.0359 H   0  0  0  0  0  0  0  0  0  0  0  0
   -4.3090    0.7346   -3.0143 H   0  0  0  0  0  0  0  0  0  0  0  0
  1  2  1  0
  2  3  1  0
  3  4  1  0
  4  5  2  0
  5  6  1  0
  6  7  2  0
  7  8  1  0
  8  9  2  3
  9 10  1  0
 10 11  1  0
 11 12  2  0
 11 13  1  0
 13 14  1  0
 14 15  1  0
 15 16  2  0
 15 17  1  0
 17 18  2  0
 18 19  1  0
 19 20  2  0
 20 21  1  0
 21 22  2  0
 13 23  1  0
 23 24  2  0
  7 25  1  0
 25 26  2  0
 26 27  1  0
 27 28  1  0
 26  4  1  0
 23  9  1  0
 22 17  1  0
  1 29  1  0
  1 30  1  0
  1 31  1  0
  2 32  1  0
  2 33  1  0
  5 34  1  0
  6 35  1  0
  8 36  1  0
 14 37  1  0
 18 38  1  0
 19 39  1  0
 21 40  1  0
 22 41  1  0
 25 42  1  0
 28 43  1  0
 28 44  1  0
 28 45  1  0
M  END
$$$$
