
     RDKit          3D

 60 64  0  0  0  0  0  0  0  0999 V2000
   -0.5551    0.5459   -2.7006 C   0  0  0  0  0  0  0  0  0  0  0  0
   -1.5066    0.2334   -1.6394 N   0  0  0  0  0  0  0  0  0  0  0  0
   -2.8261   -0.0045   -2.0307 C   0  0  0  0  0  0  0  0  0  0  0  0
   -3.1729    0.0273   -3.2161 O   0  0  0  0  0  0  0  0  0  0  0  0
   -3.8641   -0.2545   -0.9780 C   0  0  0  0  0  0  0  0  0  0  0  0
   -5.1320    0.0895   -1.2758 C   0  0  0  0  0  0  0  0  0  0  0  0
   -6.2982   -0.1005   -0.4084 C   0  0  0  0  0  0  0  0  0  0  0  0
   -7.1171   -1.2206   -0.5749 C   0  0  0  0  0  0  0  0  0  0  0  0
   -8.2230   -1.4136    0.2570 C   0  0  0  0  0  0  0  0  0  0  0  0
   -8.5233   -0.4905    1.2702 C   0  0  0  0  0  0  0  0  0  0  0  0
   -9.7240   -0.6860    2.1632 C   0  0  0  0  0  0  0  0  0  0  0  0
   -9.4963   -0.3007    3.4506 F   0  0  0  0  0  0  0  0  0  0  0  0
  -10.1401   -1.9819    2.2331 F   0  0  0  0  0  0  0  0  0  0  0  0
  -10.8033    0.0315    1.7447 F   0  0  0  0  0  0  0  0  0  0  0  0
   -7.7038    0.6384    1.4216 C   0  0  0  0  0  0  0  0  0  0  0  0
   -6.5973    0.8305    0.5900 C   0  0  0  0  0  0  0  0  0  0  0  0
   -3.4057   -1.0503    0.4735 S   0  0  0  0  0  0  0  0  0  0  0  0
   -1.8583   -0.2375    0.7625 C   0  0  0  0  0  0  0  0  0  0  0  0
   -1.4147   -0.1798    2.0952 C   0  0  0  0  0  0  0  0  0  0  0  0
   -0.1804    0.3807    2.4110 C   0  0  0  0  0  0  0  0  0  0  0  0
    0.6263    0.8676    1.3869 C   0  0  0  0  0  0  0  0  0  0  0  0
    1.9305    1.4711    1.7399 C   0  0  0  0  0  0  0  0  0  0  0  0
    1.9333    2.3567    2.5918 O   0  0  0  0  0  0  0  0  0  0  0  0
    3.0799    1.0174    1.1055 N   0  0  0  0  0  0  0  0  0  0  0  0
    3.1795   -0.1933    0.2791 C   0  0  0  0  0  0  0  0  0  0  0  0
    4.5327   -0.9228    0.4084 C   0  0  0  0  0  0  0  0  0  0  0  0
    5.6759   -0.0214    0.2181 N   0  0  0  0  0  0  0  0  0  0  0  0
    6.7393   -0.3831   -0.5969 C   0  0  0  0  0  0  0  0  0  0  0  0
    7.1490   -1.7119   -0.7163 C   0  0  0  0  0  0  0  0  0  0  0  0
    8.2344   -2.0447   -1.5298 C   0  0  0  0  0  0  0  0  0  0  0  0
    8.9084   -1.0405   -2.2054 C   0  0  0  0  0  0  0  0  0  0  0  0
    8.4639    0.2538   -2.0313 C   0  0  0  0  0  0  0  0  0  0  0  0
    7.4117    0.5918   -1.2509 N   0  0  0  0  0  0  0  0  0  0  0  0
    5.4346    1.4227    0.3674 C   0  0  0  0  0  0  0  0  0  0  0  0
    4.3450    1.6897    1.4162 C   0  0  0  0  0  0  0  0  0  0  0  0
    0.1801    0.8400    0.0584 C   0  0  0  0  0  0  0  0  0  0  0  0
   -1.0674    0.2809   -0.2763 C   0  0  0  0  0  0  0  0  0  0  0  0
   -0.3740    1.6248   -2.7154 H   0  0  0  0  0  0  0  0  0  0  0  0
    0.3796    0.0013   -2.5381 H   0  0  0  0  0  0  0  0  0  0  0  0
   -0.9283    0.2515   -3.6840 H   0  0  0  0  0  0  0  0  0  0  0  0
   -5.3665    0.5529   -2.2331 H   0  0  0  0  0  0  0  0  0  0  0  0
   -6.8976   -1.9518   -1.3495 H   0  0  0  0  0  0  0  0  0  0  0  0
   -8.8488   -2.2932    0.1129 H   0  0  0  0  0  0  0  0  0  0  0  0
   -7.9234    1.3742    2.1936 H   0  0  0  0  0  0  0  0  0  0  0  0
   -5.9713    1.7088    0.7286 H   0  0  0  0  0  0  0  0  0  0  0  0
   -2.0318   -0.5763    2.8997 H   0  0  0  0  0  0  0  0  0  0  0  0
    0.1499    0.4352    3.4463 H   0  0  0  0  0  0  0  0  0  0  0  0
    2.3737   -0.8899    0.5286 H   0  0  0  0  0  0  0  0  0  0  0  0
    3.0403    0.1280   -0.7602 H   0  0  0  0  0  0  0  0  0  0  0  0
    4.5262   -1.7459   -0.3156 H   0  0  0  0  0  0  0  0  0  0  0  0
    4.6107   -1.3635    1.4096 H   0  0  0  0  0  0  0  0  0  0  0  0
    6.6528   -2.5008   -0.1610 H   0  0  0  0  0  0  0  0  0  0  0  0
    8.5529   -3.0786   -1.6198 H   0  0  0  0  0  0  0  0  0  0  0  0
    9.7597   -1.2576   -2.8401 H   0  0  0  0  0  0  0  0  0  0  0  0
    8.9566    1.0865   -2.5253 H   0  0  0  0  0  0  0  0  0  0  0  0
    5.1200    1.8491   -0.5938 H   0  0  0  0  0  0  0  0  0  0  0  0
    6.3498    1.9337    0.6905 H   0  0  0  0  0  0  0  0  0  0  0  0
    4.1696    2.7667    1.5100 H   0  0  0  0  0  0  0  0  0  0  0  0
    4.6684    1.3199    2.3966 H   0  0  0  0  0  0  0  0  0  0  0  0
    0.8167    1.2948   -0.6947 H   0  0  0  0  0  0  0  0  0  0  0  0
  1  2  1  0
  2  3  1  0
  3  4  2  0
  3  5  1  0
  5  6  2  3
  6  7  1  0
  7  8  2  0
  8  9  1  0
  9 10  2  0
 10 11  1  0
 11 12  1  0
 11 13  1  0
 11 14  1  0
 10 15  1  0
 15 16  2  0
  5 17  1  0
 17 18  1  0
 18 19  2  0
 19 20  1  0
 20 21  2  0
 21 22  1  0
 22 23  2  0
 22 24  1  0
 24 25  1  0
 25 26  1  0
 26 27  1  0
 27 28  1  0
 28 29  2  0
 29 30  1  0
 30 31  2  0
 31 32  1  0
 32 33  2  0
 27 34  1  0
 34 35  1  0
 21 36  1  0
 36 37  2  0
 37  2  1  0
 16  7  1  0
 37 18  1  0
 35 24  1  0
 33 28  1  0
  1 38  1  0
  1 39  1  0
  1 40  1  0
  6 41  1  0
  8 42  1  0
  9 43  1  0
 15 44  1  0
 16 45  1  0
 19 46  1  0
 20 47  1  0
 25 48  1  0
 25 49  1  0
 26 50  1  0
 26 51  1  0
 29 52  1  0
 30 53  1  0
 31 54  1  0
 32 55  1  0
 34 56  1  0
 34 57  1  0
 35 58  1  0
 35 59  1  0
 36 60  1  0
M  END
$$$$
