
     RDKit          3D

 37 38  0  0  0  0  0  0  0  0999 V2000
    4.8784   -0.0506   -2.0510 C   0  0  0  0  0  0  0  0  0  0  0  0
    5.0287    0.2310   -0.5669 C   0  0  0  0  0  0  0  0  0  0  0  0
    3.8188   -0.0718    0.1724 N   0  0  0  0  0  0  0  0  0  0  0  0
    2.8437    0.8075    0.5399 C   0  0  0  0  0  0  0  0  0  0  0  0
    1.9039    0.0768    1.2396 C   0  0  0  0  0  0  0  0  0  0  0  0
    0.6438    0.5598    1.8552 C   0  0  0  0  0  0  0  0  0  0  0  0
   -0.4298    0.3178    0.9207 N   0  0  0  0  0  0  0  0  0  0  0  0
   -1.7375    0.4915    1.3105 C   0  0  0  0  0  0  0  0  0  0  0  0
   -2.0693    0.7870    2.4519 O   0  0  0  0  0  0  0  0  0  0  0  0
   -2.7707    0.3350    0.2508 C   0  0  0  0  0  0  0  0  0  0  0  0
   -2.5706   -0.5017   -0.8574 C   0  0  0  0  0  0  0  0  0  0  0  0
   -3.5670   -0.6349   -1.8282 C   0  0  0  0  0  0  0  0  0  0  0  0
   -4.7701    0.0597   -1.6959 C   0  0  0  0  0  0  0  0  0  0  0  0
   -4.9742    0.8848   -0.5808 C   0  0  0  0  0  0  0  0  0  0  0  0
   -6.2415    1.6122   -0.4403 N   0  0  0  0  0  4  0  0  0  0  0  0
   -7.1370    1.3703   -1.2622 O   0  0  0  0  0  0  0  0  0  0  0  0
   -6.3387    2.4292    0.4854 O   0  0  0  0  0  1  0  0  0  0  0  0
   -3.9819    1.0234    0.3973 C   0  0  0  0  0  0  0  0  0  0  0  0
    2.4157   -1.2509    1.2297 C   0  0  0  0  0  0  0  0  0  0  0  0
    1.8131   -2.4643    1.8366 C   0  0  0  0  0  0  0  0  0  0  0  0
    3.5762   -1.3321    0.5681 N   0  0  0  0  0  0  0  0  0  0  0  0
    4.6506   -1.1064   -2.2324 H   0  0  0  0  0  0  0  0  0  0  0  0
    4.0679    0.5446   -2.4849 H   0  0  0  0  0  0  0  0  0  0  0  0
    5.8043    0.1946   -2.5802 H   0  0  0  0  0  0  0  0  0  0  0  0
    5.2660    1.2873   -0.3998 H   0  0  0  0  0  0  0  0  0  0  0  0
    5.8393   -0.3672   -0.1364 H   0  0  0  0  0  0  0  0  0  0  0  0
    2.8978    1.8572    0.2869 H   0  0  0  0  0  0  0  0  0  0  0  0
    0.6852    1.6358    2.0572 H   0  0  0  0  0  0  0  0  0  0  0  0
    0.4314    0.0456    2.7987 H   0  0  0  0  0  0  0  0  0  0  0  0
   -0.1969    0.3370   -0.0625 H   0  0  0  0  0  0  0  0  0  0  0  0
   -1.6558   -1.0801   -0.9651 H   0  0  0  0  0  0  0  0  0  0  0  0
   -3.4090   -1.2893   -2.6835 H   0  0  0  0  0  0  0  0  0  0  0  0
   -5.5365   -0.0568   -2.4604 H   0  0  0  0  0  0  0  0  0  0  0  0
   -4.1366    1.6570    1.2699 H   0  0  0  0  0  0  0  0  0  0  0  0
    2.4186   -3.3555    1.6419 H   0  0  0  0  0  0  0  0  0  0  0  0
    1.7268   -2.3443    2.9212 H   0  0  0  0  0  0  0  0  0  0  0  0
    0.8133   -2.6394    1.4268 H   0  0  0  0  0  0  0  0  0  0  0  0
  1  2  1  0
  2  3  1  0
  3  4  1  0
  4  5  2  0
  5  6  1  0
  6  7  1  0
  7  8  1  0
  8  9  2  0
  8 10  1  0
 10 11  2  0
 11 12  1  0
 12 13  2  0
 13 14  1  0
 14 15  1  0
 15 16  2  0
 15 17  1  0
 14 18  2  0
  5 19  1  0
 19 20  1  0
 19 21  2  0
 21  3  1  0
 18 10  1  0
  1 22  1  0
  1 23  1  0
  1 24  1  0
  2 25  1  0
  2 26  1  0
  4 27  1  0
  6 28  1  0
  6 29  1  0
  7 30  1  0
 11 31  1  0
 12 32  1  0
 13 33  1  0
 18 34  1  0
 20 35  1  0
 20 36  1  0
 20 37  1  0
M  CHG  2  15   1  17  -1
M  END
$$$$
