
     RDKit          3D

 42 44  0  0  0  0  0  0  0  0999 V2000
   -8.4890   -0.6679   -0.0355 C   0  0  0  0  0  0  0  0  0  0  0  0
   -7.6006    0.5079    0.2762 C   0  0  0  0  0  0  0  0  0  0  0  0
   -8.0747    1.5967    0.5950 O   0  0  0  0  0  0  0  0  0  0  0  0
   -6.1196    0.3379    0.1937 C   0  0  0  0  0  0  0  0  0  0  0  0
   -5.3026    1.4356    0.4867 C   0  0  0  0  0  0  0  0  0  0  0  0
   -3.9099    1.3200    0.4221 C   0  0  0  0  0  0  0  0  0  0  0  0
   -3.3099    0.1065    0.0669 C   0  0  0  0  0  0  0  0  0  0  0  0
   -1.9008    0.0730    0.0205 N   0  0  0  0  0  0  0  0  0  0  0  0
   -1.0960   -1.0246   -0.2274 C   0  0  0  0  0  0  0  0  0  0  0  0
   -1.4625   -2.1833   -0.3837 O   0  0  0  0  0  0  0  0  0  0  0  0
    0.3673   -0.7397   -0.2573 C   0  0  0  0  0  0  0  0  0  0  0  0
    1.2491   -1.7218    0.2030 C   0  0  0  0  0  0  0  0  0  0  0  0
    2.6286   -1.4910    0.1905 C   0  0  0  0  0  0  0  0  0  0  0  0
    3.1487   -0.2808   -0.2879 C   0  0  0  0  0  0  0  0  0  0  0  0
    4.5516   -0.1327   -0.2625 N   0  0  0  0  0  0  0  0  0  0  0  0
    5.2997    0.9782   -0.6350 C   0  0  0  0  0  0  0  0  0  0  0  0
    4.8107    2.0334   -1.0281 O   0  0  0  0  0  0  0  0  0  0  0  0
    6.7413    0.7922   -0.5092 C   0  0  0  0  0  0  0  0  0  0  0  0
    7.5464   -0.2819   -0.1599 C   0  0  0  0  0  0  0  0  0  0  0  0
    8.8898    0.1671   -0.2234 C   0  0  0  0  0  0  0  0  0  0  0  0
    8.8333    1.4835   -0.6074 C   0  0  0  0  0  0  0  0  0  0  0  0
    7.5465    1.8699   -0.7832 O   0  0  0  0  0  0  0  0  0  0  0  0
    2.2633    0.6878   -0.7668 C   0  0  0  0  0  0  0  0  0  0  0  0
    0.8803    0.4610   -0.7578 C   0  0  0  0  0  0  0  0  0  0  0  0
   -4.1276   -0.9855   -0.2291 C   0  0  0  0  0  0  0  0  0  0  0  0
   -5.5238   -0.8741   -0.1658 C   0  0  0  0  0  0  0  0  0  0  0  0
   -8.3392   -0.9927   -1.0683 H   0  0  0  0  0  0  0  0  0  0  0  0
   -8.2953   -1.4853    0.6638 H   0  0  0  0  0  0  0  0  0  0  0  0
   -9.5354   -0.3670    0.0768 H   0  0  0  0  0  0  0  0  0  0  0  0
   -5.7460    2.3896    0.7676 H   0  0  0  0  0  0  0  0  0  0  0  0
   -3.3081    2.1945    0.6568 H   0  0  0  0  0  0  0  0  0  0  0  0
   -1.4357    0.9387    0.2615 H   0  0  0  0  0  0  0  0  0  0  0  0
    0.8640   -2.6698    0.5745 H   0  0  0  0  0  0  0  0  0  0  0  0
    3.2845   -2.2752    0.5606 H   0  0  0  0  0  0  0  0  0  0  0  0
    5.0653   -0.9267    0.0893 H   0  0  0  0  0  0  0  0  0  0  0  0
    7.2228   -1.2776    0.1057 H   0  0  0  0  0  0  0  0  0  0  0  0
    9.7879   -0.3987   -0.0178 H   0  0  0  0  0  0  0  0  0  0  0  0
    9.5784    2.2451   -0.7924 H   0  0  0  0  0  0  0  0  0  0  0  0
    2.6133    1.6326   -1.1723 H   0  0  0  0  0  0  0  0  0  0  0  0
    0.2287    1.2237   -1.1761 H   0  0  0  0  0  0  0  0  0  0  0  0
   -3.7101   -1.9452   -0.5194 H   0  0  0  0  0  0  0  0  0  0  0  0
   -6.1148   -1.7534   -0.4048 H   0  0  0  0  0  0  0  0  0  0  0  0
  1  2  1  0
  2  3  2  0
  2  4  1  0
  4  5  2  0
  5  6  1  0
  6  7  2  0
  7  8  1  0
  8  9  1  0
  9 10  2  0
  9 11  1  0
 11 12  2  0
 12 13  1  0
 13 14  2  0
 14 15  1  0
 15 16  1  0
 16 17  2  0
 16 18  1  0
 18 19  2  0
 19 20  1  0
 20 21  2  0
 21 22  1  0
 14 23  1  0
 23 24  2  0
  7 25  1  0
 25 26  2  0
 26  4  1  0
 24 11  1  0
 22 18  1  0
  1 27  1  0
  1 28  1  0
  1 29  1  0
  5 30  1  0
  6 31  1  0
  8 32  1  0
 12 33  1  0
 13 34  1  0
 15 35  1  0
 19 36  1  0
 20 37  1  0
 21 38  1  0
 23 39  1  0
 24 40  1  0
 25 41  1  0
 26 42  1  0
M  END
$$$$
