
     RDKit          3D

 58 60  0  0  0  0  0  0  0  0999 V2000
    6.2687   -0.6392   -4.0745 C   0  0  0  0  0  0  0  0  0  0  0  0
    5.5179   -1.1262   -2.8706 C   0  0  0  0  0  0  0  0  0  0  0  0
    6.1367   -1.9659   -1.9381 C   0  0  0  0  0  0  0  0  0  0  0  0
    5.4266   -2.4462   -0.8353 C   0  0  0  0  0  0  0  0  0  0  0  0
    4.0814   -2.1032   -0.6526 C   0  0  0  0  0  0  0  0  0  0  0  0
    3.3181   -2.5983    0.5541 C   0  0  0  0  0  0  0  0  0  0  0  0
    3.6755   -1.8322    1.8332 C   0  0  0  0  0  0  0  0  0  0  0  0
    3.3624   -0.4161    1.7502 N   0  0  0  0  0  0  0  0  0  0  0  0
    2.0769    0.0508    1.9068 C   0  0  0  0  0  0  0  0  0  0  0  0
    1.1331   -0.6606    2.2389 O   0  0  0  0  0  0  0  0  0  0  0  0
    1.9470    1.5391    1.6576 C   0  0  0  0  0  0  0  0  0  0  0  0
    0.4887    1.9843    1.6543 C   0  0  0  0  0  0  0  0  0  0  0  0
   -0.0686    1.8988    3.0155 N   0  0  0  0  0  0  0  0  0  0  0  0
   -1.5642    2.6076    3.3175 S   0  0  0  0  0  6  0  0  0  0  0  0
   -1.9081    2.3002    4.6877 O   0  0  0  0  0  0  0  0  0  0  0  0
   -1.5343    3.9652    2.8228 O   0  0  0  0  0  0  0  0  0  0  0  0
   -2.6513    1.6644    2.2745 C   0  0  0  0  0  0  0  0  0  0  0  0
   -3.1709    0.4563    2.7384 C   0  0  0  0  0  0  0  0  0  0  0  0
   -4.0396   -0.2818    1.9269 C   0  0  0  0  0  0  0  0  0  0  0  0
   -4.4022    0.1778    0.6493 C   0  0  0  0  0  0  0  0  0  0  0  0
   -3.8756    1.3934    0.2112 C   0  0  0  0  0  0  0  0  0  0  0  0
   -3.0103    2.1483    1.0180 C   0  0  0  0  0  0  0  0  0  0  0  0
   -4.2256    1.8861   -1.1292 C   0  0  0  0  0  0  0  0  0  0  0  0
   -3.6677    2.8936   -1.5578 O   0  0  0  0  0  0  0  0  0  0  0  0
   -5.1620    1.1522   -1.8386 N   0  0  0  0  0  0  0  0  0  0  0  0
   -5.5437    1.6376   -3.1522 C   0  0  0  0  0  0  0  0  0  0  0  0
   -5.6544   -0.0898   -1.4559 C   0  0  0  0  0  0  0  0  0  0  0  0
   -6.3858   -0.7472   -2.2003 O   0  0  0  0  0  0  0  0  0  0  0  0
   -5.2724   -0.5555   -0.2003 N   0  0  0  0  0  0  0  0  0  0  0  0
   -5.7927   -1.8441    0.2408 C   0  0  0  0  0  0  0  0  0  0  0  0
    3.4584   -1.2759   -1.5954 C   0  0  0  0  0  0  0  0  0  0  0  0
    4.1695   -0.7958   -2.6972 C   0  0  0  0  0  0  0  0  0  0  0  0
    6.1012   -1.3150   -4.9187 H   0  0  0  0  0  0  0  0  0  0  0  0
    5.9421    0.3680   -4.3543 H   0  0  0  0  0  0  0  0  0  0  0  0
    7.3437   -0.5873   -3.8725 H   0  0  0  0  0  0  0  0  0  0  0  0
    7.1779   -2.2541   -2.0657 H   0  0  0  0  0  0  0  0  0  0  0  0
    5.9315   -3.0952   -0.1233 H   0  0  0  0  0  0  0  0  0  0  0  0
    3.5343   -3.6647    0.6953 H   0  0  0  0  0  0  0  0  0  0  0  0
    2.2400   -2.5309    0.3623 H   0  0  0  0  0  0  0  0  0  0  0  0
    4.7460   -1.9096    2.0522 H   0  0  0  0  0  0  0  0  0  0  0  0
    3.1264   -2.2610    2.6790 H   0  0  0  0  0  0  0  0  0  0  0  0
    4.0447    0.1786    1.2942 H   0  0  0  0  0  0  0  0  0  0  0  0
    2.5148    2.0722    2.4287 H   0  0  0  0  0  0  0  0  0  0  0  0
    2.3911    1.7625    0.6805 H   0  0  0  0  0  0  0  0  0  0  0  0
   -0.0921    1.3520    0.9749 H   0  0  0  0  0  0  0  0  0  0  0  0
    0.4395    3.0195    1.3015 H   0  0  0  0  0  0  0  0  0  0  0  0
    0.0081    0.9720    3.4482 H   0  0  0  0  0  0  0  0  0  0  0  0
   -2.9095    0.0824    3.7273 H   0  0  0  0  0  0  0  0  0  0  0  0
   -4.4197   -1.2180    2.3269 H   0  0  0  0  0  0  0  0  0  0  0  0
   -2.6213    3.1011    0.6613 H   0  0  0  0  0  0  0  0  0  0  0  0
   -4.9441    1.1116   -3.9020 H   0  0  0  0  0  0  0  0  0  0  0  0
   -5.3739    2.7136   -3.2503 H   0  0  0  0  0  0  0  0  0  0  0  0
   -6.6021    1.4323   -3.3412 H   0  0  0  0  0  0  0  0  0  0  0  0
   -4.9584   -2.5256    0.4356 H   0  0  0  0  0  0  0  0  0  0  0  0
   -6.3901   -1.7026    1.1471 H   0  0  0  0  0  0  0  0  0  0  0  0
   -6.4352   -2.3120   -0.5101 H   0  0  0  0  0  0  0  0  0  0  0  0
    2.4114   -1.0034   -1.4809 H   0  0  0  0  0  0  0  0  0  0  0  0
    3.6626   -0.1640   -3.4234 H   0  0  0  0  0  0  0  0  0  0  0  0
  1  2  1  0
  2  3  2  0
  3  4  1  0
  4  5  2  0
  5  6  1  0
  6  7  1  0
  7  8  1  0
  8  9  1  0
  9 10  2  0
  9 11  1  0
 11 12  1  0
 12 13  1  0
 13 14  1  0
 14 15  2  0
 14 16  2  0
 14 17  1  0
 17 18  2  0
 18 19  1  0
 19 20  2  0
 20 21  1  0
 21 22  2  0
 21 23  1  0
 23 24  2  0
 23 25  1  0
 25 26  1  0
 25 27  1  0
 27 28  2  0
 27 29  1  0
 29 30  1  0
  5 31  1  0
 31 32  2  0
 32  2  1  0
 22 17  1  0
 29 20  1  0
  1 33  1  0
  1 34  1  0
  1 35  1  0
  3 36  1  0
  4 37  1  0
  6 38  1  0
  6 39  1  0
  7 40  1  0
  7 41  1  0
  8 42  1  0
 11 43  1  0
 11 44  1  0
 12 45  1  0
 12 46  1  0
 13 47  1  0
 18 48  1  0
 19 49  1  0
 22 50  1  0
 26 51  1  0
 26 52  1  0
 26 53  1  0
 30 54  1  0
 30 55  1  0
 30 56  1  0
 31 57  1  0
 32 58  1  0
M  END
$$$$
