
     RDKit          3D

 54 56  0  0  0  0  0  0  0  0999 V2000
    8.1129   -3.0890    1.5323 C   0  0  0  0  0  0  0  0  0  0  0  0
    7.9884   -1.8278    2.1770 O   0  0  0  0  0  0  0  0  0  0  0  0
    7.4580   -0.8063    1.4379 C   0  0  0  0  0  0  0  0  0  0  0  0
    7.0552   -0.8796    0.1053 C   0  0  0  0  0  0  0  0  0  0  0  0
    6.5248    0.2477   -0.5329 C   0  0  0  0  0  0  0  0  0  0  0  0
    6.3870    1.4617    0.1528 C   0  0  0  0  0  0  0  0  0  0  0  0
    5.8023    2.6708   -0.5342 C   0  0  0  0  0  0  0  0  0  0  0  0
    4.3114    2.5323   -0.8575 C   0  0  0  0  0  0  0  0  0  0  0  0
    3.4354    2.4578    0.3952 C   0  0  0  0  0  0  0  0  0  0  0  0
    2.0006    2.3950    0.0324 C   0  0  0  0  0  0  0  0  0  0  0  0
    1.1803    3.3626   -0.3149 N   0  0  0  0  0  0  0  0  0  0  0  0
   -0.0359    2.7615   -0.5641 N   0  0  0  0  0  0  0  0  0  0  0  0
    0.1264    1.4709   -0.3530 C   0  0  0  0  0  0  0  0  0  0  0  0
   -1.1163    0.2723   -0.5146 S   0  0  0  0  0  0  0  0  0  0  0  0
   -2.3941    1.2579   -1.3429 C   0  0  0  0  0  0  0  0  0  0  0  0
   -3.6204    0.3925   -1.5772 C   0  0  0  0  0  0  0  0  0  0  0  0
   -3.8419   -0.1017   -2.6790 O   0  0  0  0  0  0  0  0  0  0  0  0
   -4.3998    0.2511   -0.4411 N   0  0  0  0  0  0  0  0  0  0  0  0
   -5.6180   -0.4528   -0.2930 C   0  0  0  0  0  0  0  0  0  0  0  0
   -6.2703   -1.0871   -1.3534 C   0  0  0  0  0  0  0  0  0  0  0  0
   -7.4846   -1.7771   -1.1631 C   0  0  0  0  0  0  0  0  0  0  0  0
   -8.1430   -2.4332   -2.3486 C   0  0  0  0  0  0  0  0  0  0  0  0
   -8.0713   -1.8145    0.1160 C   0  0  0  0  0  0  0  0  0  0  0  0
   -9.3690   -2.5327    0.3666 C   0  0  0  0  0  0  0  0  0  0  0  0
   -7.4171   -1.1844    1.1834 C   0  0  0  0  0  0  0  0  0  0  0  0
   -6.2082   -0.5124    0.9798 C   0  0  0  0  0  0  0  0  0  0  0  0
   -5.3942    0.3175    2.4887 Br  0  0  0  0  0  0  0  0  0  0  0  0
    1.4041    1.1648    0.0338 O   0  0  0  0  0  0  0  0  0  0  0  0
    6.7988    1.5310    1.4880 C   0  0  0  0  0  0  0  0  0  0  0  0
    7.3288    0.4043    2.1220 C   0  0  0  0  0  0  0  0  0  0  0  0
    7.1347   -3.4749    1.2270 H   0  0  0  0  0  0  0  0  0  0  0  0
    8.5378   -3.7930    2.2546 H   0  0  0  0  0  0  0  0  0  0  0  0
    8.7992   -3.0311    0.6807 H   0  0  0  0  0  0  0  0  0  0  0  0
    7.1412   -1.7962   -0.4689 H   0  0  0  0  0  0  0  0  0  0  0  0
    6.2214    0.1690   -1.5749 H   0  0  0  0  0  0  0  0  0  0  0  0
    6.3590    2.8376   -1.4652 H   0  0  0  0  0  0  0  0  0  0  0  0
    5.9638    3.5687    0.0757 H   0  0  0  0  0  0  0  0  0  0  0  0
    4.0100    3.4007   -1.4580 H   0  0  0  0  0  0  0  0  0  0  0  0
    4.1366    1.6501   -1.4865 H   0  0  0  0  0  0  0  0  0  0  0  0
    3.6055    3.3403    1.0231 H   0  0  0  0  0  0  0  0  0  0  0  0
    3.6959    1.5801    0.9974 H   0  0  0  0  0  0  0  0  0  0  0  0
   -2.6746    2.1249   -0.7346 H   0  0  0  0  0  0  0  0  0  0  0  0
   -2.0314    1.6212   -2.3104 H   0  0  0  0  0  0  0  0  0  0  0  0
   -4.0395    0.6554    0.4179 H   0  0  0  0  0  0  0  0  0  0  0  0
   -5.8522   -1.0611   -2.3561 H   0  0  0  0  0  0  0  0  0  0  0  0
   -8.4093   -3.4695   -2.1174 H   0  0  0  0  0  0  0  0  0  0  0  0
   -7.4750   -2.4601   -3.2161 H   0  0  0  0  0  0  0  0  0  0  0  0
   -9.0434   -1.8792   -2.6320 H   0  0  0  0  0  0  0  0  0  0  0  0
   -9.7371   -2.3548    1.3832 H   0  0  0  0  0  0  0  0  0  0  0  0
   -9.2327   -3.6120    0.2444 H   0  0  0  0  0  0  0  0  0  0  0  0
  -10.1426   -2.1812   -0.3237 H   0  0  0  0  0  0  0  0  0  0  0  0
   -7.8545   -1.2175    2.1792 H   0  0  0  0  0  0  0  0  0  0  0  0
    6.7124    2.4591    2.0487 H   0  0  0  0  0  0  0  0  0  0  0  0
    7.6449    0.4704    3.1604 H   0  0  0  0  0  0  0  0  0  0  0  0
  1  2  1  0
  2  3  1  0
  3  4  2  0
  4  5  1  0
  5  6  2  0
  6  7  1  0
  7  8  1  0
  8  9  1  0
  9 10  1  0
 10 11  2  0
 11 12  1  0
 12 13  2  0
 13 14  1  0
 14 15  1  0
 15 16  1  0
 16 17  2  0
 16 18  1  0
 18 19  1  0
 19 20  2  0
 20 21  1  0
 21 22  1  0
 21 23  2  0
 23 24  1  0
 23 25  1  0
 25 26  2  0
 26 27  1  0
 13 28  1  0
  6 29  1  0
 29 30  2  0
 30  3  1  0
 28 10  1  0
 26 19  1  0
  1 31  1  0
  1 32  1  0
  1 33  1  0
  4 34  1  0
  5 35  1  0
  7 36  1  0
  7 37  1  0
  8 38  1  0
  8 39  1  0
  9 40  1  0
  9 41  1  0
 15 42  1  0
 15 43  1  0
 18 44  1  0
 20 45  1  0
 22 46  1  0
 22 47  1  0
 22 48  1  0
 24 49  1  0
 24 50  1  0
 24 51  1  0
 25 52  1  0
 29 53  1  0
 30 54  1  0
M  END
$$$$
