
     RDKit          3D

 40 42  0  0  0  0  0  0  0  0999 V2000
   -5.9400   -2.0512    0.9529 C   0  0  0  0  0  0  0  0  0  0  0  0
   -5.7138   -0.5518    0.6826 C   0  0  0  0  0  0  0  0  0  0  0  0
   -6.7017   -0.1130   -0.4206 C   0  0  0  0  0  0  0  0  0  0  0  0
   -6.0290    0.2582    1.9540 C   0  0  0  0  0  0  0  0  0  0  0  0
   -4.2842   -0.2965    0.2273 C   0  0  0  0  0  0  0  0  0  0  0  0
   -3.9508    0.2460   -0.9282 N   0  0  0  0  0  0  0  0  0  0  0  0
   -2.5836    0.3661   -1.0877 N   0  0  0  0  0  0  0  0  0  0  0  0
   -1.9317   -0.0868   -0.0490 C   0  0  0  0  0  0  0  0  0  0  0  0
   -0.5889   -0.1585    0.2034 N   0  0  0  0  0  0  0  0  0  0  0  0
    0.3521    0.3086   -0.6968 C   0  0  0  0  0  0  0  0  0  0  0  0
    0.1143    0.8266   -1.7819 O   0  0  0  0  0  0  0  0  0  0  0  0
    1.7797    0.1012   -0.1720 C   0  0  0  0  0  0  0  0  0  0  0  0
    2.7498    0.6304   -1.0600 O   0  0  0  0  0  0  0  0  0  0  0  0
    4.0644    0.5263   -0.6969 C   0  0  0  0  0  0  0  0  0  0  0  0
    4.5504   -0.1029    0.4653 C   0  0  0  0  0  0  0  0  0  0  0  0
    5.9253   -0.1469    0.7306 C   0  0  0  0  0  0  0  0  0  0  0  0
    6.7765    0.4413   -0.1790 C   0  0  0  0  0  0  0  0  0  0  0  0
    6.3063    1.0550   -1.3142 C   0  0  0  0  0  0  0  0  0  0  0  0
    4.9593    1.1124   -1.6001 C   0  0  0  0  0  0  0  0  0  0  0  0
    7.3067    1.5711   -2.0774 O   0  0  0  0  0  0  0  0  0  0  0  0
    8.4610    1.2102   -1.2917 C   0  0  0  0  0  0  0  0  0  0  0  0
    8.1314    0.4921   -0.0835 O   0  0  0  0  0  0  0  0  0  0  0  0
   -2.9137   -0.6967    1.2050 S   0  0  0  0  0  0  0  0  0  0  0  0
   -5.3233   -2.4157    1.7823 H   0  0  0  0  0  0  0  0  0  0  0  0
   -6.9854   -2.2512    1.2156 H   0  0  0  0  0  0  0  0  0  0  0  0
   -5.6961   -2.6545    0.0702 H   0  0  0  0  0  0  0  0  0  0  0  0
   -6.5994    0.9548   -0.6483 H   0  0  0  0  0  0  0  0  0  0  0  0
   -7.7399   -0.2875   -0.1155 H   0  0  0  0  0  0  0  0  0  0  0  0
   -6.5329   -0.6673   -1.3518 H   0  0  0  0  0  0  0  0  0  0  0  0
   -5.8497    1.3288    1.7982 H   0  0  0  0  0  0  0  0  0  0  0  0
   -7.0770    0.1344    2.2511 H   0  0  0  0  0  0  0  0  0  0  0  0
   -5.4128   -0.0586    2.8029 H   0  0  0  0  0  0  0  0  0  0  0  0
   -0.3164   -0.5607    1.0868 H   0  0  0  0  0  0  0  0  0  0  0  0
    1.8475    0.6065    0.7994 H   0  0  0  0  0  0  0  0  0  0  0  0
    1.9274   -0.9790   -0.0545 H   0  0  0  0  0  0  0  0  0  0  0  0
    3.8849   -0.5697    1.1834 H   0  0  0  0  0  0  0  0  0  0  0  0
    6.3119   -0.6284    1.6222 H   0  0  0  0  0  0  0  0  0  0  0  0
    4.6024    1.6000   -2.5013 H   0  0  0  0  0  0  0  0  0  0  0  0
    9.1199    0.5834   -1.9033 H   0  0  0  0  0  0  0  0  0  0  0  0
    8.9992    2.1253   -1.0195 H   0  0  0  0  0  0  0  0  0  0  0  0
  1  2  1  0
  2  3  1  0
  2  4  1  0
  2  5  1  0
  5  6  2  0
  6  7  1  0
  7  8  2  0
  8  9  1  0
  9 10  1  0
 10 11  2  0
 10 12  1  0
 12 13  1  0
 13 14  1  0
 14 15  2  0
 15 16  1  0
 16 17  2  0
 17 18  1  0
 18 19  2  0
 18 20  1  0
 20 21  1  0
 21 22  1  0
  8 23  1  0
 23  5  1  0
 19 14  1  0
 22 17  1  0
  1 24  1  0
  1 25  1  0
  1 26  1  0
  3 27  1  0
  3 28  1  0
  3 29  1  0
  4 30  1  0
  4 31  1  0
  4 32  1  0
  9 33  1  0
 12 34  1  0
 12 35  1  0
 15 36  1  0
 16 37  1  0
 19 38  1  0
 21 39  1  0
 21 40  1  0
M  END
$$$$
