
     RDKit          3D

 47 49  0  0  0  0  0  0  0  0999 V2000
   -3.7563    1.9004    2.5246 C   0  0  0  0  0  0  0  0  0  0  0  0
   -2.6974    1.1727    1.7131 C   0  0  0  0  0  0  0  0  0  0  0  0
   -3.2656    0.5639    0.5023 N   0  0  0  0  0  4  0  0  0  0  0  0
   -3.3020    1.1802   -0.6729 C   0  0  0  0  0  0  0  0  0  0  0  0
   -2.8077    2.4663   -0.9979 C   0  0  0  0  0  0  0  0  0  0  0  0
   -1.5025    2.7558   -1.1283 C   0  0  0  0  0  0  0  0  0  0  0  0
   -0.3845    1.8478   -0.9762 C   0  0  0  0  0  0  0  0  0  0  0  0
    0.8899    2.2673   -1.0023 C   0  0  0  0  0  0  0  0  0  0  0  0
    2.0351    1.3655   -0.8254 C   0  0  0  0  0  0  0  0  0  0  0  0
    3.1022    1.7700   -0.0258 C   0  0  0  0  0  0  0  0  0  0  0  0
    4.2156    0.9351    0.1587 C   0  0  0  0  0  0  0  0  0  0  0  0
    4.3260   -0.3217   -0.4608 C   0  0  0  0  0  0  0  0  0  0  0  0
    5.4280   -1.1595   -0.2544 N   0  0  0  0  0  0  0  0  0  0  0  0
    5.6298   -2.3000   -1.1496 C   0  0  0  0  0  0  0  0  0  0  0  0
    6.6536   -0.5901    0.3103 C   0  0  0  0  0  0  0  0  0  0  0  0
    3.2387   -0.6996   -1.2680 C   0  0  0  0  0  0  0  0  0  0  0  0
    2.1192    0.1266   -1.4589 C   0  0  0  0  0  0  0  0  0  0  0  0
   -4.1094    0.2251   -1.8465 S   0  0  0  0  0  0  0  0  0  0  0  0
   -4.3635   -1.0570   -0.7301 C   0  0  0  0  0  0  0  0  0  0  0  0
   -4.9957   -2.2921   -0.9435 C   0  0  0  0  0  0  0  0  0  0  0  0
   -5.0961   -3.1758    0.1331 C   0  0  0  0  0  0  0  0  0  0  0  0
   -4.5872   -2.8391    1.3829 C   0  0  0  0  0  0  0  0  0  0  0  0
   -3.9584   -1.6049    1.5911 C   0  0  0  0  0  0  0  0  0  0  0  0
   -3.8420   -0.7031    0.5122 C   0  0  0  0  0  0  0  0  0  0  0  0
   -4.1946    2.7202    1.9457 H   0  0  0  0  0  0  0  0  0  0  0  0
   -4.5666    1.2255    2.8170 H   0  0  0  0  0  0  0  0  0  0  0  0
   -3.3147    2.3211    3.4331 H   0  0  0  0  0  0  0  0  0  0  0  0
   -2.2219    0.3951    2.3213 H   0  0  0  0  0  0  0  0  0  0  0  0
   -1.8939    1.8689    1.4586 H   0  0  0  0  0  0  0  0  0  0  0  0
   -3.5371    3.2473   -1.2055 H   0  0  0  0  0  0  0  0  0  0  0  0
   -1.2433    3.7820   -1.3997 H   0  0  0  0  0  0  0  0  0  0  0  0
   -0.5865    0.7891   -0.8346 H   0  0  0  0  0  0  0  0  0  0  0  0
    1.1399    3.3194   -1.1263 H   0  0  0  0  0  0  0  0  0  0  0  0
    3.0873    2.7345    0.4770 H   0  0  0  0  0  0  0  0  0  0  0  0
    5.0024    1.3084    0.8085 H   0  0  0  0  0  0  0  0  0  0  0  0
    6.5382   -2.8551   -0.8886 H   0  0  0  0  0  0  0  0  0  0  0  0
    4.8058   -3.0171   -1.0652 H   0  0  0  0  0  0  0  0  0  0  0  0
    5.7286   -1.9723   -2.1911 H   0  0  0  0  0  0  0  0  0  0  0  0
    6.4826   -0.2007    1.3201 H   0  0  0  0  0  0  0  0  0  0  0  0
    7.4348   -1.3514    0.4135 H   0  0  0  0  0  0  0  0  0  0  0  0
    7.0487    0.2061   -0.3307 H   0  0  0  0  0  0  0  0  0  0  0  0
    3.2343   -1.6556   -1.7835 H   0  0  0  0  0  0  0  0  0  0  0  0
    1.3301   -0.2173   -2.1224 H   0  0  0  0  0  0  0  0  0  0  0  0
   -5.4021   -2.5594   -1.9168 H   0  0  0  0  0  0  0  0  0  0  0  0
   -5.5837   -4.1410   -0.0087 H   0  0  0  0  0  0  0  0  0  0  0  0
   -4.6806   -3.5461    2.2071 H   0  0  0  0  0  0  0  0  0  0  0  0
   -3.5772   -1.3832    2.5836 H   0  0  0  0  0  0  0  0  0  0  0  0
  1  2  1  0
  2  3  1  0
  3  4  2  0
  4  5  1  0
  5  6  2  3
  6  7  1  0
  7  8  2  3
  8  9  1  0
  9 10  2  0
 10 11  1  0
 11 12  2  0
 12 13  1  0
 13 14  1  0
 13 15  1  0
 12 16  1  0
 16 17  2  0
  4 18  1  0
 18 19  1  0
 19 20  2  0
 20 21  1  0
 21 22  2  0
 22 23  1  0
 23 24  2  0
 24  3  1  0
 17  9  1  0
 24 19  1  0
  1 25  1  0
  1 26  1  0
  1 27  1  0
  2 28  1  0
  2 29  1  0
  5 30  1  0
  6 31  1  0
  7 32  1  0
  8 33  1  0
 10 34  1  0
 11 35  1  0
 14 36  1  0
 14 37  1  0
 14 38  1  0
 15 39  1  0
 15 40  1  0
 15 41  1  0
 16 42  1  0
 17 43  1  0
 20 44  1  0
 21 45  1  0
 22 46  1  0
 23 47  1  0
M  CHG  1   3   1
M  END
$$$$
