
     RDKit          3D

 68 71  0  0  0  0  0  0  0  0999 V2000
    8.7830    1.0261    3.5637 C   0  0  0  0  0  0  0  0  0  0  0  0
    7.7165    0.4332    2.7386 C   0  0  0  0  0  0  0  0  0  0  0  0
    6.3683    0.6551    2.6148 C   0  0  0  0  0  0  0  0  0  0  0  0
    5.9468   -0.2635    1.6281 C   0  0  0  0  0  0  0  0  0  0  0  0
    4.6902   -0.4706    1.1036 N   0  0  0  0  0  0  0  0  0  0  0  0
    3.5631    0.2457    1.4370 C   0  0  0  0  0  0  0  0  0  0  0  0
    3.5101    1.1585    2.2525 O   0  0  0  0  0  0  0  0  0  0  0  0
    2.3520   -0.2143    0.6500 C   0  0  0  0  0  0  0  0  0  0  0  0
    1.1023    0.5799    1.0182 C   0  0  0  0  0  0  0  0  0  0  0  0
   -0.0849    0.1680    0.1665 C   0  0  0  0  0  0  0  0  0  0  0  0
    0.0847   -0.4906   -0.8620 O   0  0  0  0  0  0  0  0  0  0  0  0
   -1.3477    0.5760    0.5854 N   0  0  0  0  0  0  0  0  0  0  0  0
   -1.5325    1.7819    1.4077 C   0  0  0  0  0  0  0  0  0  0  0  0
   -2.1422    1.4520    2.7198 C   0  0  0  0  0  0  0  0  0  0  0  0
   -3.4130    1.6044    3.2409 C   0  0  0  0  0  0  0  0  0  0  0  0
   -3.3609    1.1156    4.5686 C   0  0  0  0  0  0  0  0  0  0  0  0
   -2.0663    0.7001    4.7746 C   0  0  0  0  0  0  0  0  0  0  0  0
   -1.3179    0.9029    3.6592 O   0  0  0  0  0  0  0  0  0  0  0  0
   -2.5436    0.1162   -0.1689 C   0  0  0  0  0  0  0  0  0  0  0  0
   -2.6544    1.0356   -1.4204 C   0  0  0  0  0  0  0  0  0  0  0  0
   -3.4352    1.9898   -1.4558 O   0  0  0  0  0  0  0  0  0  0  0  0
   -1.7494    0.7824   -2.4345 N   0  0  0  0  0  0  0  0  0  0  0  0
   -1.6090    1.6335   -3.6016 C   0  0  0  0  0  0  0  0  0  0  0  0
   -2.7775    1.4772   -4.5760 C   0  0  0  0  0  0  0  0  0  0  0  0
   -2.4499    0.2276   -5.3937 C   0  0  0  0  0  0  0  0  0  0  0  0
   -0.9422    0.0121   -5.2601 C   0  0  0  0  0  0  0  0  0  0  0  0
   -0.4201    1.2034   -4.4592 C   0  0  0  0  0  0  0  0  0  0  0  0
   -2.6736   -1.4024   -0.4097 C   0  0  0  0  0  0  0  0  0  0  0  0
   -3.0796   -1.8883   -1.6736 C   0  0  0  0  0  0  0  0  0  0  0  0
   -3.2228   -3.2539   -1.9361 C   0  0  0  0  0  0  0  0  0  0  0  0
   -2.9803   -4.1792   -0.9333 C   0  0  0  0  0  0  0  0  0  0  0  0
   -2.6270   -3.7355    0.3380 C   0  0  0  0  0  0  0  0  0  0  0  0
   -2.4923   -2.3605    0.6222 C   0  0  0  0  0  0  0  0  0  0  0  0
   -2.1871   -1.9859    2.0468 C   0  0  0  0  0  0  0  0  0  0  0  0
    6.9748   -0.9989    1.1889 N   0  0  0  0  0  0  0  0  0  0  0  0
    8.0866   -0.5543    1.8801 O   0  0  0  0  0  0  0  0  0  0  0  0
    8.3705    1.4624    4.4800 H   0  0  0  0  0  0  0  0  0  0  0  0
    9.5225    0.2715    3.8510 H   0  0  0  0  0  0  0  0  0  0  0  0
    9.2954    1.8202    3.0091 H   0  0  0  0  0  0  0  0  0  0  0  0
    5.7774    1.3778    3.1595 H   0  0  0  0  0  0  0  0  0  0  0  0
    4.6511   -1.2001    0.4049 H   0  0  0  0  0  0  0  0  0  0  0  0
    2.5758   -0.0948   -0.4178 H   0  0  0  0  0  0  0  0  0  0  0  0
    2.1888   -1.2812    0.8454 H   0  0  0  0  0  0  0  0  0  0  0  0
    0.8660    0.4194    2.0765 H   0  0  0  0  0  0  0  0  0  0  0  0
    1.2948    1.6468    0.8530 H   0  0  0  0  0  0  0  0  0  0  0  0
   -0.5876    2.3043    1.5747 H   0  0  0  0  0  0  0  0  0  0  0  0
   -2.1659    2.4874    0.8603 H   0  0  0  0  0  0  0  0  0  0  0  0
   -4.2694    2.0196    2.7246 H   0  0  0  0  0  0  0  0  0  0  0  0
   -4.1663    1.0744    5.2880 H   0  0  0  0  0  0  0  0  0  0  0  0
   -1.5431    0.2645    5.6151 H   0  0  0  0  0  0  0  0  0  0  0  0
   -3.4257    0.3577    0.4413 H   0  0  0  0  0  0  0  0  0  0  0  0
   -0.9984    0.1225   -2.2067 H   0  0  0  0  0  0  0  0  0  0  0  0
   -1.5081    2.6684   -3.2559 H   0  0  0  0  0  0  0  0  0  0  0  0
   -3.7570    1.3996   -4.0909 H   0  0  0  0  0  0  0  0  0  0  0  0
   -2.8107    2.3460   -5.2472 H   0  0  0  0  0  0  0  0  0  0  0  0
   -2.7485    0.3543   -6.4389 H   0  0  0  0  0  0  0  0  0  0  0  0
   -2.9897   -0.6428   -5.0035 H   0  0  0  0  0  0  0  0  0  0  0  0
   -0.4512   -0.0644   -6.2354 H   0  0  0  0  0  0  0  0  0  0  0  0
   -0.7476   -0.9227   -4.7196 H   0  0  0  0  0  0  0  0  0  0  0  0
   -0.1453    2.0131   -5.1485 H   0  0  0  0  0  0  0  0  0  0  0  0
    0.4688    0.9439   -3.8736 H   0  0  0  0  0  0  0  0  0  0  0  0
   -3.3099   -1.2140   -2.4947 H   0  0  0  0  0  0  0  0  0  0  0  0
   -3.5317   -3.5871   -2.9259 H   0  0  0  0  0  0  0  0  0  0  0  0
   -3.0940   -5.2423   -1.1302 H   0  0  0  0  0  0  0  0  0  0  0  0
   -2.4756   -4.4743    1.1230 H   0  0  0  0  0  0  0  0  0  0  0  0
   -2.9168   -1.2555    2.4030 H   0  0  0  0  0  0  0  0  0  0  0  0
   -2.2689   -2.8513    2.7150 H   0  0  0  0  0  0  0  0  0  0  0  0
   -1.1689   -1.6027    2.1442 H   0  0  0  0  0  0  0  0  0  0  0  0
  1  2  1  0
  2  3  2  0
  3  4  1  0
  4  5  1  0
  5  6  1  0
  6  7  2  0
  6  8  1  0
  8  9  1  0
  9 10  1  0
 10 11  2  0
 10 12  1  0
 12 13  1  0
 13 14  1  0
 14 15  2  0
 15 16  1  0
 16 17  2  0
 17 18  1  0
 12 19  1  0
 19 20  1  0
 20 21  2  0
 20 22  1  0
 22 23  1  0
 23 24  1  0
 24 25  1  0
 25 26  1  0
 26 27  1  0
 19 28  1  0
 28 29  2  0
 29 30  1  0
 30 31  2  0
 31 32  1  0
 32 33  2  0
 33 34  1  0
  4 35  2  0
 35 36  1  0
 36  2  1  0
 18 14  1  0
 27 23  1  0
 33 28  1  0
  1 37  1  0
  1 38  1  0
  1 39  1  0
  3 40  1  0
  5 41  1  0
  8 42  1  0
  8 43  1  0
  9 44  1  0
  9 45  1  0
 13 46  1  0
 13 47  1  0
 15 48  1  0
 16 49  1  0
 17 50  1  0
 19 51  1  0
 22 52  1  0
 23 53  1  0
 24 54  1  0
 24 55  1  0
 25 56  1  0
 25 57  1  0
 26 58  1  0
 26 59  1  0
 27 60  1  0
 27 61  1  0
 29 62  1  0
 30 63  1  0
 31 64  1  0
 32 65  1  0
 34 66  1  0
 34 67  1  0
 34 68  1  0
M  END
$$$$
