
     RDKit          3D

 53 56  0  0  0  0  0  0  0  0999 V2000
    8.8297   -3.5752   -1.6594 C   0  0  0  0  0  0  0  0  0  0  0  0
    7.3672   -3.2692   -1.3910 C   0  0  0  0  0  0  0  0  0  0  0  0
    7.1917   -1.8558   -1.4704 O   0  0  0  0  0  0  0  0  0  0  0  0
    5.9332   -1.3703   -1.2459 C   0  0  0  0  0  0  0  0  0  0  0  0
    4.7973   -2.1311   -0.9646 C   0  0  0  0  0  0  0  0  0  0  0  0
    3.5645   -1.5027   -0.7547 C   0  0  0  0  0  0  0  0  0  0  0  0
    3.4665   -0.1110   -0.8268 C   0  0  0  0  0  0  0  0  0  0  0  0
    2.1757    0.5755   -0.6116 C   0  0  0  0  0  0  0  0  0  0  0  0
    1.0921   -0.0840   -0.3450 N   0  0  0  0  0  0  0  0  0  0  0  0
   -0.0616    0.6292   -0.1166 N   0  0  0  0  0  0  0  0  0  0  0  0
   -0.1466    1.8389    0.5696 C   0  0  0  0  0  0  0  0  0  0  0  0
    0.8313    2.4697    0.9666 O   0  0  0  0  0  0  0  0  0  0  0  0
   -1.5088    2.3417    0.8118 C   0  0  0  0  0  0  0  0  0  0  0  0
   -1.6979    3.3587    1.7116 N   0  0  0  0  0  0  0  0  0  0  0  0
   -2.9792    3.6609    1.7487 N   0  0  0  0  0  0  0  0  0  0  0  0
   -3.6403    2.9169    0.8242 N   0  0  0  0  0  0  0  0  0  0  0  0
   -5.0091    3.1712    0.5475 C   0  0  0  0  0  0  0  0  0  0  0  0
   -5.6384    2.5688   -0.4615 N   0  0  0  0  0  0  0  0  0  0  0  0
   -6.9259    3.1023   -0.4283 O   0  0  0  0  0  0  0  0  0  0  0  0
   -7.0609    4.0286    0.5980 N   0  0  0  0  0  0  0  0  0  0  0  0
   -5.8747    4.0697    1.2026 C   0  0  0  0  0  0  0  0  0  0  0  0
   -5.5893    4.8462    2.2645 N   0  0  0  0  0  0  0  0  0  0  0  0
   -2.7461    2.0004    0.2617 C   0  0  0  0  0  0  0  0  0  0  0  0
   -3.1209    0.9573   -0.7288 C   0  0  0  0  0  0  0  0  0  0  0  0
   -2.6198   -0.2981   -0.2528 O   0  0  0  0  0  0  0  0  0  0  0  0
   -3.3521   -1.0224    0.6468 C   0  0  0  0  0  0  0  0  0  0  0  0
   -4.6750   -0.7853    1.0234 C   0  0  0  0  0  0  0  0  0  0  0  0
   -5.2929   -1.6131    1.9668 C   0  0  0  0  0  0  0  0  0  0  0  0
   -4.5894   -2.6740    2.5235 C   0  0  0  0  0  0  0  0  0  0  0  0
   -5.1873   -3.4630    3.4250 F   0  0  0  0  0  0  0  0  0  0  0  0
   -3.2770   -2.9282    2.1522 C   0  0  0  0  0  0  0  0  0  0  0  0
   -2.6605   -2.1026    1.2110 C   0  0  0  0  0  0  0  0  0  0  0  0
    4.5982    0.6557   -1.1071 C   0  0  0  0  0  0  0  0  0  0  0  0
    5.8258    0.0222   -1.3156 C   0  0  0  0  0  0  0  0  0  0  0  0
    9.0180   -4.6513   -1.6106 H   0  0  0  0  0  0  0  0  0  0  0  0
    9.1254   -3.2087   -2.6480 H   0  0  0  0  0  0  0  0  0  0  0  0
    9.4693   -3.0705   -0.9279 H   0  0  0  0  0  0  0  0  0  0  0  0
    6.7524   -3.7718   -2.1466 H   0  0  0  0  0  0  0  0  0  0  0  0
    7.1041   -3.6301   -0.3899 H   0  0  0  0  0  0  0  0  0  0  0  0
    4.8335   -3.2133   -0.9007 H   0  0  0  0  0  0  0  0  0  0  0  0
    2.6867   -2.1055   -0.5346 H   0  0  0  0  0  0  0  0  0  0  0  0
    2.1941    1.6729   -0.7244 H   0  0  0  0  0  0  0  0  0  0  0  0
   -0.8892    0.0376   -0.1091 H   0  0  0  0  0  0  0  0  0  0  0  0
   -6.2208    5.6034    2.5048 H   0  0  0  0  0  0  0  0  0  0  0  0
   -4.6240    5.0009    2.5564 H   0  0  0  0  0  0  0  0  0  0  0  0
   -2.5894    1.1698   -1.6646 H   0  0  0  0  0  0  0  0  0  0  0  0
   -4.1670    0.8686   -1.0094 H   0  0  0  0  0  0  0  0  0  0  0  0
   -5.2677    0.0174    0.6024 H   0  0  0  0  0  0  0  0  0  0  0  0
   -6.3216   -1.4385    2.2672 H   0  0  0  0  0  0  0  0  0  0  0  0
   -2.7426   -3.7631    2.5940 H   0  0  0  0  0  0  0  0  0  0  0  0
   -1.6312   -2.3034    0.9204 H   0  0  0  0  0  0  0  0  0  0  0  0
    4.5413    1.7396   -1.1618 H   0  0  0  0  0  0  0  0  0  0  0  0
    6.7094    0.6183   -1.5325 H   0  0  0  0  0  0  0  0  0  0  0  0
  1  2  1  0
  2  3  1  0
  3  4  1  0
  4  5  2  0
  5  6  1  0
  6  7  2  0
  7  8  1  0
  8  9  2  3
  9 10  1  0
 10 11  1  0
 11 12  2  0
 11 13  1  0
 13 14  1  0
 14 15  2  0
 15 16  1  0
 16 17  1  0
 17 18  2  0
 18 19  1  0
 19 20  1  0
 20 21  2  0
 21 22  1  0
 16 23  1  0
 23 24  1  0
 24 25  1  0
 25 26  1  0
 26 27  2  0
 27 28  1  0
 28 29  2  0
 29 30  1  0
 29 31  1  0
 31 32  2  0
  7 33  1  0
 33 34  2  0
 34  4  1  0
 23 13  2  0
 32 26  1  0
 21 17  1  0
  1 35  1  0
  1 36  1  0
  1 37  1  0
  2 38  1  0
  2 39  1  0
  5 40  1  0
  6 41  1  0
  8 42  1  0
 10 43  1  0
 22 44  1  0
 22 45  1  0
 24 46  1  0
 24 47  1  0
 27 48  1  0
 28 49  1  0
 31 50  1  0
 32 51  1  0
 33 52  1  0
 34 53  1  0
M  END
$$$$
