
     RDKit          3D

 36 37  0  0  0  0  0  0  0  0999 V2000
   -2.3861    0.5221    2.2086 O   0  0  0  0  0  0  0  0  0  0  0  0
   -1.2742    0.8088    1.7741 C   0  0  0  0  0  0  0  0  0  0  0  0
    0.0071    0.3344    2.4623 C   0  0  0  0  0  0  0  0  0  0  0  0
    1.1701    0.3679    1.6313 O   0  0  0  0  0  0  0  0  0  0  0  0
    1.3953   -0.7541    0.9084 C   0  0  0  0  0  0  0  0  0  0  0  0
    0.6733   -1.7331    0.8084 O   0  0  0  0  0  0  0  0  0  0  0  0
    2.6292   -0.5658    0.1295 C   0  0  0  0  0  0  0  0  0  0  0  0
    2.5081   -0.5449   -1.2672 C   0  0  0  0  0  0  0  0  0  0  0  0
    3.6405   -0.3644   -2.0615 C   0  0  0  0  0  0  0  0  0  0  0  0
    4.8917   -0.2128   -1.4653 C   0  0  0  0  0  0  0  0  0  0  0  0
    5.0162   -0.2492   -0.0742 C   0  0  0  0  0  0  0  0  0  0  0  0
    3.8859   -0.4303    0.7292 C   0  0  0  0  0  0  0  0  0  0  0  0
    4.1474   -0.5301    2.6064 Br  0  0  0  0  0  0  0  0  0  0  0  0
   -1.0702    1.6230    0.6799 N   0  0  0  0  0  0  0  0  0  0  0  0
   -2.1686    2.1342   -0.1264 C   0  0  0  0  0  0  0  0  0  0  0  0
   -2.5301    1.2395   -1.3250 C   0  0  0  0  0  0  0  0  0  0  0  0
   -3.1169   -0.0294   -0.9406 N   0  0  0  0  0  0  0  0  0  0  0  0
   -2.3927   -1.1775   -0.7442 C   0  0  0  0  0  0  0  0  0  0  0  0
   -1.0633   -1.1768   -1.0387 O   0  0  0  0  0  0  0  0  0  0  0  0
   -3.0922   -2.2013   -0.2429 C   0  0  0  0  0  0  0  0  0  0  0  0
   -4.7571   -1.7654    0.0014 S   0  0  0  0  0  0  0  0  0  0  0  0
   -4.4477   -0.1108   -0.5602 C   0  0  0  0  0  0  0  0  0  0  0  0
   -5.2946    0.7675   -0.5989 O   0  0  0  0  0  0  0  0  0  0  0  0
    0.1928    1.0079    3.3056 H   0  0  0  0  0  0  0  0  0  0  0  0
   -0.1557   -0.6697    2.8712 H   0  0  0  0  0  0  0  0  0  0  0  0
    1.5356   -0.6655   -1.7405 H   0  0  0  0  0  0  0  0  0  0  0  0
    3.5484   -0.3452   -3.1454 H   0  0  0  0  0  0  0  0  0  0  0  0
    5.7753   -0.0748   -2.0851 H   0  0  0  0  0  0  0  0  0  0  0  0
    6.0029   -0.1436    0.3719 H   0  0  0  0  0  0  0  0  0  0  0  0
   -0.1219    1.7273    0.3402 H   0  0  0  0  0  0  0  0  0  0  0  0
   -3.0426    2.2879    0.5159 H   0  0  0  0  0  0  0  0  0  0  0  0
   -1.8464    3.1136   -0.4957 H   0  0  0  0  0  0  0  0  0  0  0  0
   -1.6517    1.0658   -1.9574 H   0  0  0  0  0  0  0  0  0  0  0  0
   -3.2662    1.7729   -1.9389 H   0  0  0  0  0  0  0  0  0  0  0  0
   -0.6362   -1.8468   -0.4607 H   0  0  0  0  0  0  0  0  0  0  0  0
   -2.7053   -3.1814   -0.0073 H   0  0  0  0  0  0  0  0  0  0  0  0
  1  2  2  0
  2  3  1  0
  3  4  1  0
  4  5  1  0
  5  6  2  0
  5  7  1  0
  7  8  2  0
  8  9  1  0
  9 10  2  0
 10 11  1  0
 11 12  2  0
 12 13  1  0
  2 14  1  0
 14 15  1  0
 15 16  1  0
 16 17  1  0
 17 18  1  0
 18 19  1  0
 18 20  2  0
 20 21  1  0
 21 22  1  0
 22 23  2  0
 12  7  1  0
 22 17  1  0
  3 24  1  0
  3 25  1  0
  8 26  1  0
  9 27  1  0
 10 28  1  0
 11 29  1  0
 14 30  1  0
 15 31  1  0
 15 32  1  0
 16 33  1  0
 16 34  1  0
 19 35  1  0
 20 36  1  0
M  END
$$$$
