
     RDKit          3D

 33 33  0  0  0  0  0  0  0  0999 V2000
   -4.4643   -0.8443    0.9419 C   0  0  0  0  0  0  0  0  0  0  0  0
   -3.8124   -0.3676   -0.3567 C   0  0  0  0  0  0  0  0  0  0  0  0
   -3.5974   -1.5321   -1.3252 C   0  0  0  0  0  0  0  0  0  0  0  0
   -2.5898    0.4168   -0.1373 N   0  0  0  0  0  0  0  0  0  0  0  0
   -1.5265   -0.2620    0.6001 C   0  0  0  0  0  0  0  0  0  0  0  0
   -0.3060    0.6540    0.6973 C   0  0  0  0  0  0  0  0  0  0  0  0
    0.8177   -0.0117    1.4885 C   0  0  0  0  0  0  0  0  0  0  0  0
    1.9446    0.8584    1.5878 O   0  0  0  0  0  0  0  0  0  0  0  0
    2.9486    0.7737    0.6624 C   0  0  0  0  0  0  0  0  0  0  0  0
    2.8677    0.0587   -0.5370 C   0  0  0  0  0  0  0  0  0  0  0  0
    3.9471    0.0412   -1.4275 C   0  0  0  0  0  0  0  0  0  0  0  0
    5.1115    0.7427   -1.1263 C   0  0  0  0  0  0  0  0  0  0  0  0
    6.4329    0.7157   -2.2271 Cl  0  0  0  0  0  0  0  0  0  0  0  0
    5.2098    1.4670    0.0563 C   0  0  0  0  0  0  0  0  0  0  0  0
    4.1299    1.4828    0.9439 C   0  0  0  0  0  0  0  0  0  0  0  0
    4.3231    2.4917    2.5450 Br  0  0  0  0  0  0  0  0  0  0  0  0
   -4.6007   -0.0122    1.6412 H   0  0  0  0  0  0  0  0  0  0  0  0
   -3.8726   -1.6196    1.4395 H   0  0  0  0  0  0  0  0  0  0  0  0
   -5.4540   -1.2678    0.7374 H   0  0  0  0  0  0  0  0  0  0  0  0
   -4.5245    0.3177   -0.8338 H   0  0  0  0  0  0  0  0  0  0  0  0
   -2.9606   -2.3123   -0.8958 H   0  0  0  0  0  0  0  0  0  0  0  0
   -4.5564   -1.9947   -1.5835 H   0  0  0  0  0  0  0  0  0  0  0  0
   -3.1366   -1.1884   -2.2577 H   0  0  0  0  0  0  0  0  0  0  0  0
   -2.2346    0.7414   -1.0369 H   0  0  0  0  0  0  0  0  0  0  0  0
   -1.8603   -0.5098    1.6132 H   0  0  0  0  0  0  0  0  0  0  0  0
   -1.2335   -1.1902    0.0982 H   0  0  0  0  0  0  0  0  0  0  0  0
   -0.5737    1.6009    1.1842 H   0  0  0  0  0  0  0  0  0  0  0  0
    0.0482    0.9245   -0.3046 H   0  0  0  0  0  0  0  0  0  0  0  0
    0.4725   -0.1830    2.5152 H   0  0  0  0  0  0  0  0  0  0  0  0
    1.0871   -0.9998    1.0978 H   0  0  0  0  0  0  0  0  0  0  0  0
    1.9748   -0.4883   -0.8205 H   0  0  0  0  0  0  0  0  0  0  0  0
    3.8689   -0.5190   -2.3562 H   0  0  0  0  0  0  0  0  0  0  0  0
    6.1195    2.0154    0.2846 H   0  0  0  0  0  0  0  0  0  0  0  0
  1  2  1  0
  2  3  1  0
  2  4  1  0
  4  5  1  0
  5  6  1  0
  6  7  1  0
  7  8  1  0
  8  9  1  0
  9 10  2  0
 10 11  1  0
 11 12  2  0
 12 13  1  0
 12 14  1  0
 14 15  2  0
 15 16  1  0
 15  9  1  0
  1 17  1  0
  1 18  1  0
  1 19  1  0
  2 20  1  0
  3 21  1  0
  3 22  1  0
  3 23  1  0
  4 24  1  0
  5 25  1  0
  5 26  1  0
  6 27  1  0
  6 28  1  0
  7 29  1  0
  7 30  1  0
 10 31  1  0
 11 32  1  0
 14 33  1  0
M  END
$$$$
