
     RDKit          3D

 36 37  0  0  0  0  0  0  0  0999 V2000
   -0.1478   -2.0826   -1.3137 O   0  0  0  0  0  0  0  0  0  0  0  0
   -0.9347   -1.8441   -0.3977 C   0  0  0  0  0  0  0  0  0  0  0  0
   -0.5783   -2.0837    1.0724 C   0  0  0  0  0  0  0  0  0  0  0  0
    0.8087   -1.8495    1.3416 O   0  0  0  0  0  0  0  0  0  0  0  0
    1.2266   -0.5918    1.0690 C   0  0  0  0  0  0  0  0  0  0  0  0
    0.5536    0.3443    0.6673 O   0  0  0  0  0  0  0  0  0  0  0  0
    2.6828   -0.5404    1.2411 C   0  0  0  0  0  0  0  0  0  0  0  0
    3.4505   -0.3472    0.0835 C   0  0  0  0  0  0  0  0  0  0  0  0
    4.8383   -0.2746    0.1769 C   0  0  0  0  0  0  0  0  0  0  0  0
    5.4540   -0.3929    1.4239 C   0  0  0  0  0  0  0  0  0  0  0  0
    4.6842   -0.5747    2.5808 C   0  0  0  0  0  0  0  0  0  0  0  0
    5.5345   -0.7028    4.0826 Cl  0  0  0  0  0  0  0  0  0  0  0  0
    3.2863   -0.6433    2.5013 C   0  0  0  0  0  0  0  0  0  0  0  0
    2.3179   -0.8119    3.9310 Cl  0  0  0  0  0  0  0  0  0  0  0  0
   -2.1786   -1.2822   -0.6052 N   0  0  0  0  0  0  0  0  0  0  0  0
   -2.4943   -0.6967   -1.8982 C   0  0  0  0  0  0  0  0  0  0  0  0
   -1.9251    0.7232   -2.0274 C   0  0  0  0  0  0  0  0  0  0  0  0
   -2.7518    1.7055   -1.3385 N   0  0  0  0  0  0  0  0  0  0  0  0
   -2.7226    2.0007    0.0039 C   0  0  0  0  0  0  0  0  0  0  0  0
   -1.8317    1.4301    0.8608 O   0  0  0  0  0  0  0  0  0  0  0  0
   -3.6740    2.8446    0.4106 C   0  0  0  0  0  0  0  0  0  0  0  0
   -4.7032    3.3298   -0.8967 S   0  0  0  0  0  0  0  0  0  0  0  0
   -3.8053    2.3046   -2.0270 C   0  0  0  0  0  0  0  0  0  0  0  0
   -4.1191    2.1514   -3.1963 O   0  0  0  0  0  0  0  0  0  0  0  0
   -0.7810   -3.1358    1.2949 H   0  0  0  0  0  0  0  0  0  0  0  0
   -1.1874   -1.4664    1.7390 H   0  0  0  0  0  0  0  0  0  0  0  0
    2.9678   -0.2596   -0.8866 H   0  0  0  0  0  0  0  0  0  0  0  0
    5.4406   -0.1300   -0.7181 H   0  0  0  0  0  0  0  0  0  0  0  0
    6.5384   -0.3365    1.4888 H   0  0  0  0  0  0  0  0  0  0  0  0
   -2.6757   -0.9041    0.1951 H   0  0  0  0  0  0  0  0  0  0  0  0
   -2.0763   -1.3320   -2.6843 H   0  0  0  0  0  0  0  0  0  0  0  0
   -3.5826   -0.6955   -1.9998 H   0  0  0  0  0  0  0  0  0  0  0  0
   -0.8959    0.7932   -1.6691 H   0  0  0  0  0  0  0  0  0  0  0  0
   -1.9033    0.9833   -3.0902 H   0  0  0  0  0  0  0  0  0  0  0  0
   -0.9990    1.1922    0.4022 H   0  0  0  0  0  0  0  0  0  0  0  0
   -3.8162    3.1756    1.4289 H   0  0  0  0  0  0  0  0  0  0  0  0
  1  2  2  0
  2  3  1  0
  3  4  1  0
  4  5  1  0
  5  6  2  0
  5  7  1  0
  7  8  2  0
  8  9  1  0
  9 10  2  0
 10 11  1  0
 11 12  1  0
 11 13  2  0
 13 14  1  0
  2 15  1  0
 15 16  1  0
 16 17  1  0
 17 18  1  0
 18 19  1  0
 19 20  1  0
 19 21  2  0
 21 22  1  0
 22 23  1  0
 23 24  2  0
 13  7  1  0
 23 18  1  0
  3 25  1  0
  3 26  1  0
  8 27  1  0
  9 28  1  0
 10 29  1  0
 15 30  1  0
 16 31  1  0
 16 32  1  0
 17 33  1  0
 17 34  1  0
 20 35  1  0
 21 36  1  0
M  END
$$$$
