
     RDKit          3D

 46 48  0  0  0  0  0  0  0  0999 V2000
   -8.0487   -1.0248   -0.8289 C   0  0  0  0  0  0  0  0  0  0  0  0
   -7.5628    0.2724   -0.5095 O   0  0  0  0  0  0  0  0  0  0  0  0
   -6.3022    0.3482    0.0175 C   0  0  0  0  0  0  0  0  0  0  0  0
   -5.8311    1.6485    0.2119 C   0  0  0  0  0  0  0  0  0  0  0  0
   -4.5663    1.8745    0.7592 C   0  0  0  0  0  0  0  0  0  0  0  0
   -3.7509    0.7950    1.1132 C   0  0  0  0  0  0  0  0  0  0  0  0
   -2.4368    1.0703    1.7040 C   0  0  0  0  0  0  0  0  0  0  0  0
   -1.2565    0.9300    1.0836 C   0  0  0  0  0  0  0  0  0  0  0  0
    0.2542    1.2519    1.8989 S   0  0  0  0  0  0  0  0  0  0  0  0
    1.1570    0.8096    0.4883 C   0  0  0  0  0  0  0  0  0  0  0  0
    2.4939    0.8176    0.4476 C   0  0  0  0  0  0  0  0  0  0  0  0
    3.2477    0.4308   -0.7756 C   0  0  0  0  0  0  0  0  0  0  0  0
    2.6841    0.2545   -1.8525 O   0  0  0  0  0  0  0  0  0  0  0  0
    4.7249    0.2901   -0.6755 C   0  0  0  0  0  0  0  0  0  0  0  0
    5.3664   -0.1079    0.5033 C   0  0  0  0  0  0  0  0  0  0  0  0
    6.7590   -0.2321    0.5358 C   0  0  0  0  0  0  0  0  0  0  0  0
    7.5235    0.0191   -0.6098 C   0  0  0  0  0  0  0  0  0  0  0  0
    9.0196   -0.0866   -0.5623 C   0  0  0  0  0  0  0  0  0  0  0  0
    6.8782    0.4146   -1.7868 C   0  0  0  0  0  0  0  0  0  0  0  0
    5.4874    0.5392   -1.8230 C   0  0  0  0  0  0  0  0  0  0  0  0
    0.3393    0.4607   -0.5411 N   0  0  0  0  0  0  0  0  0  0  0  0
   -1.0154    0.5001   -0.3286 C   0  0  0  0  0  0  0  0  0  0  0  0
   -1.8533    0.2304   -1.1721 O   0  0  0  0  0  0  0  0  0  0  0  0
   -4.2167   -0.5137    0.9056 C   0  0  0  0  0  0  0  0  0  0  0  0
   -3.4082   -1.5508    1.3069 O   0  0  0  0  0  0  0  0  0  0  0  0
   -3.3031   -2.5924    0.3376 C   0  0  0  0  0  0  0  0  0  0  0  0
   -5.4954   -0.7336    0.3743 C   0  0  0  0  0  0  0  0  0  0  0  0
   -8.1698   -1.6321    0.0735 H   0  0  0  0  0  0  0  0  0  0  0  0
   -9.0356   -0.9091   -1.2866 H   0  0  0  0  0  0  0  0  0  0  0  0
   -7.4008   -1.5232   -1.5573 H   0  0  0  0  0  0  0  0  0  0  0  0
   -6.4567    2.4939   -0.0637 H   0  0  0  0  0  0  0  0  0  0  0  0
   -4.2253    2.8968    0.9012 H   0  0  0  0  0  0  0  0  0  0  0  0
   -2.4785    1.3972    2.7398 H   0  0  0  0  0  0  0  0  0  0  0  0
    3.0630    1.1277    1.3153 H   0  0  0  0  0  0  0  0  0  0  0  0
    4.8074   -0.3496    1.4023 H   0  0  0  0  0  0  0  0  0  0  0  0
    7.2452   -0.5382    1.4604 H   0  0  0  0  0  0  0  0  0  0  0  0
    9.4520    0.8692   -0.2503 H   0  0  0  0  0  0  0  0  0  0  0  0
    9.3334   -0.8647    0.1415 H   0  0  0  0  0  0  0  0  0  0  0  0
    9.4244   -0.3549   -1.5439 H   0  0  0  0  0  0  0  0  0  0  0  0
    7.4530    0.6228   -2.6869 H   0  0  0  0  0  0  0  0  0  0  0  0
    5.0013    0.8351   -2.7513 H   0  0  0  0  0  0  0  0  0  0  0  0
    0.7156    0.2028   -1.4505 H   0  0  0  0  0  0  0  0  0  0  0  0
   -3.2406   -2.2039   -0.6853 H   0  0  0  0  0  0  0  0  0  0  0  0
   -2.3819   -3.1457    0.5427 H   0  0  0  0  0  0  0  0  0  0  0  0
   -4.1414   -3.2899    0.4355 H   0  0  0  0  0  0  0  0  0  0  0  0
   -5.8522   -1.7499    0.2677 H   0  0  0  0  0  0  0  0  0  0  0  0
  1  2  1  0
  2  3  1  0
  3  4  2  0
  4  5  1  0
  5  6  2  0
  6  7  1  0
  7  8  2  3
  8  9  1  0
  9 10  1  0
 10 11  2  3
 11 12  1  0
 12 13  2  0
 12 14  1  0
 14 15  2  0
 15 16  1  0
 16 17  2  0
 17 18  1  0
 17 19  1  0
 19 20  2  0
 10 21  1  0
 21 22  1  0
 22 23  2  0
  6 24  1  0
 24 25  1  0
 25 26  1  0
 24 27  2  0
 27  3  1  0
 22  8  1  0
 20 14  1  0
  1 28  1  0
  1 29  1  0
  1 30  1  0
  4 31  1  0
  5 32  1  0
  7 33  1  0
 11 34  1  0
 15 35  1  0
 16 36  1  0
 18 37  1  0
 18 38  1  0
 18 39  1  0
 19 40  1  0
 20 41  1  0
 21 42  1  0
 26 43  1  0
 26 44  1  0
 26 45  1  0
 27 46  1  0
M  END
$$$$
