
     RDKit          3D

 51 53  0  0  0  0  0  0  0  0999 V2000
    8.5216    0.1830   -2.8099 C   0  0  0  0  0  0  0  0  0  0  0  0
    8.9641   -0.2616   -1.5344 O   0  0  0  0  0  0  0  0  0  0  0  0
    8.0107   -0.4346   -0.5689 C   0  0  0  0  0  0  0  0  0  0  0  0
    8.5058   -0.8480    0.6682 C   0  0  0  0  0  0  0  0  0  0  0  0
    7.6405   -1.0626    1.7391 C   0  0  0  0  0  0  0  0  0  0  0  0
    6.2679   -0.8649    1.5799 C   0  0  0  0  0  0  0  0  0  0  0  0
    5.7560   -0.4520    0.3492 C   0  0  0  0  0  0  0  0  0  0  0  0
    4.3872   -0.2338    0.1115 N   0  0  0  0  0  0  0  0  0  0  0  0
    3.3387   -0.3756    0.9965 C   0  0  0  0  0  0  0  0  0  0  0  0
    3.3544   -0.7166    2.1706 O   0  0  0  0  0  0  0  0  0  0  0  0
    1.9832   -0.0395    0.3438 C   0  0  0  0  0  0  0  0  0  0  0  0
    1.9616    0.2778   -0.8386 O   0  0  0  0  0  0  0  0  0  0  0  0
    0.9341   -0.1608    1.2360 N   0  0  0  0  0  0  0  0  0  0  0  0
   -0.4081   -0.0388    0.9899 N   0  0  0  0  0  0  0  0  0  0  0  0
   -0.8239    0.5259   -0.0957 C   0  0  0  0  0  0  0  0  0  0  0  0
   -2.2524    0.6165   -0.3671 C   0  0  0  0  0  0  0  0  0  0  0  0
   -2.8170    1.0880   -1.5772 C   0  0  0  0  0  0  0  0  0  0  0  0
   -4.1913    0.9973   -1.4906 C   0  0  0  0  0  0  0  0  0  0  0  0
   -5.1746    1.2825   -2.5751 C   0  0  0  0  0  0  0  0  0  0  0  0
   -4.5075    0.4809   -0.2375 N   0  0  0  0  0  0  0  0  0  0  0  0
   -5.8178    0.1648    0.2292 C   0  0  0  0  0  0  0  0  0  0  0  0
   -6.8734    1.0629    0.0384 C   0  0  0  0  0  0  0  0  0  0  0  0
   -8.1542    0.7423    0.4970 C   0  0  0  0  0  0  0  0  0  0  0  0
   -8.3884   -0.4745    1.1440 C   0  0  0  0  0  0  0  0  0  0  0  0
   -9.9966   -0.8009    1.6835 Cl  0  0  0  0  0  0  0  0  0  0  0  0
   -7.3345   -1.3750    1.3337 C   0  0  0  0  0  0  0  0  0  0  0  0
   -7.5508   -2.9001    2.1172 Cl  0  0  0  0  0  0  0  0  0  0  0  0
   -6.0508   -1.0558    0.8775 C   0  0  0  0  0  0  0  0  0  0  0  0
   -3.3179    0.3006    0.4713 C   0  0  0  0  0  0  0  0  0  0  0  0
   -3.2685   -0.0897    1.9163 C   0  0  0  0  0  0  0  0  0  0  0  0
    6.6357   -0.2381   -0.7241 C   0  0  0  0  0  0  0  0  0  0  0  0
    8.0496    1.1685   -2.7424 H   0  0  0  0  0  0  0  0  0  0  0  0
    7.8489   -0.5475   -3.2706 H   0  0  0  0  0  0  0  0  0  0  0  0
    9.4010    0.2783   -3.4543 H   0  0  0  0  0  0  0  0  0  0  0  0
    9.5740   -1.0045    0.7977 H   0  0  0  0  0  0  0  0  0  0  0  0
    8.0340   -1.3866    2.6990 H   0  0  0  0  0  0  0  0  0  0  0  0
    5.6271   -1.0442    2.4373 H   0  0  0  0  0  0  0  0  0  0  0  0
    4.1094    0.0618   -0.8223 H   0  0  0  0  0  0  0  0  0  0  0  0
    1.1691   -0.5293    2.1593 H   0  0  0  0  0  0  0  0  0  0  0  0
   -0.1710    0.9636   -0.8654 H   0  0  0  0  0  0  0  0  0  0  0  0
   -2.2712    1.4274   -2.4499 H   0  0  0  0  0  0  0  0  0  0  0  0
   -4.6734    1.3017   -3.5493 H   0  0  0  0  0  0  0  0  0  0  0  0
   -5.6400    2.2615   -2.4299 H   0  0  0  0  0  0  0  0  0  0  0  0
   -5.9512    0.5141   -2.6319 H   0  0  0  0  0  0  0  0  0  0  0  0
   -6.7135    2.0342   -0.4225 H   0  0  0  0  0  0  0  0  0  0  0  0
   -8.9658    1.4524    0.3544 H   0  0  0  0  0  0  0  0  0  0  0  0
   -5.2485   -1.7799    1.0005 H   0  0  0  0  0  0  0  0  0  0  0  0
   -2.4710    0.4489    2.4378 H   0  0  0  0  0  0  0  0  0  0  0  0
   -4.1890    0.1634    2.4498 H   0  0  0  0  0  0  0  0  0  0  0  0
   -3.0829   -1.1633    2.0162 H   0  0  0  0  0  0  0  0  0  0  0  0
    6.2305    0.0798   -1.6786 H   0  0  0  0  0  0  0  0  0  0  0  0
  1  2  1  0
  2  3  1  0
  3  4  2  0
  4  5  1  0
  5  6  2  0
  6  7  1  0
  7  8  1  0
  8  9  1  0
  9 10  2  0
  9 11  1  0
 11 12  2  0
 11 13  1  0
 13 14  1  0
 14 15  2  3
 15 16  1  0
 16 17  1  0
 17 18  2  0
 18 19  1  0
 18 20  1  0
 20 21  1  0
 21 22  2  0
 22 23  1  0
 23 24  2  0
 24 25  1  0
 24 26  1  0
 26 27  1  0
 26 28  2  0
 20 29  1  0
 29 30  1  0
  7 31  2  0
 31  3  1  0
 29 16  2  0
 28 21  1  0
  1 32  1  0
  1 33  1  0
  1 34  1  0
  4 35  1  0
  5 36  1  0
  6 37  1  0
  8 38  1  0
 13 39  1  0
 15 40  1  0
 17 41  1  0
 19 42  1  0
 19 43  1  0
 19 44  1  0
 22 45  1  0
 23 46  1  0
 28 47  1  0
 30 48  1  0
 30 49  1  0
 30 50  1  0
 31 51  1  0
M  END
$$$$
