
     RDKit          3D

 23 24  0  0  0  0  0  0  0  0999 V2000
    2.6558    2.7276   -0.9068 O   0  0  0  0  0  0  0  0  0  0  0  0
    2.6280    1.5359   -0.6653 C   0  0  0  0  0  0  0  0  0  0  0  0
    3.7128    0.7190   -0.5588 O   0  0  0  0  0  0  0  0  0  0  0  0
    3.3023   -0.5586   -0.0657 C   0  0  0  0  0  0  0  0  0  0  0  0
    1.8460   -0.7117   -0.4298 C   0  0  0  0  0  0  0  0  0  0  0  0
    1.4213    0.7069   -0.4516 C   0  0  0  0  0  0  0  0  0  0  0  0
    0.2138    1.2592   -0.2707 C   0  0  0  0  0  0  0  0  0  0  0  0
   -1.0102    0.4929   -0.0276 C   0  0  0  0  0  0  0  0  0  0  0  0
   -1.4833   -0.4412   -0.9570 C   0  0  0  0  0  0  0  0  0  0  0  0
   -2.6597   -1.1511   -0.7070 C   0  0  0  0  0  0  0  0  0  0  0  0
   -3.3737   -0.9266    0.4689 C   0  0  0  0  0  0  0  0  0  0  0  0
   -2.9159    0.0110    1.3931 C   0  0  0  0  0  0  0  0  0  0  0  0
   -1.7400    0.7220    1.1441 C   0  0  0  0  0  0  0  0  0  0  0  0
    3.4644   -0.5812    1.0183 H   0  0  0  0  0  0  0  0  0  0  0  0
    3.9167   -1.3401   -0.5233 H   0  0  0  0  0  0  0  0  0  0  0  0
    1.7449   -1.1441   -1.4313 H   0  0  0  0  0  0  0  0  0  0  0  0
    1.3134   -1.3396    0.2890 H   0  0  0  0  0  0  0  0  0  0  0  0
    0.0975    2.3421   -0.2797 H   0  0  0  0  0  0  0  0  0  0  0  0
   -0.9479   -0.6155   -1.8872 H   0  0  0  0  0  0  0  0  0  0  0  0
   -3.0225   -1.8739   -1.4333 H   0  0  0  0  0  0  0  0  0  0  0  0
   -4.2910   -1.4771    0.6618 H   0  0  0  0  0  0  0  0  0  0  0  0
   -3.4759    0.1918    2.3071 H   0  0  0  0  0  0  0  0  0  0  0  0
   -1.3970    1.4525    1.8735 H   0  0  0  0  0  0  0  0  0  0  0  0
  1  2  2  0
  2  3  1  0
  3  4  1  0
  4  5  1  0
  5  6  1  0
  6  7  2  3
  7  8  1  0
  8  9  2  0
  9 10  1  0
 10 11  2  0
 11 12  1  0
 12 13  2  0
  6  2  1  0
 13  8  1  0
  4 14  1  0
  4 15  1  0
  5 16  1  0
  5 17  1  0
  7 18  1  0
  9 19  1  0
 10 20  1  0
 11 21  1  0
 12 22  1  0
 13 23  1  0
M  END
$$$$
