
     RDKit          3D

 60 62  0  0  0  0  0  0  0  0999 V2000
   -2.5133    3.5652   -3.1232 C   0  0  0  0  0  0  0  0  0  0  0  0
   -3.2225    2.2213   -3.1700 C   0  0  0  0  0  0  0  0  0  0  0  0
   -2.6413    1.2476   -2.1781 C   0  0  0  0  0  0  0  0  0  0  0  0
   -3.2006    1.1128   -0.9032 C   0  0  0  0  0  0  0  0  0  0  0  0
   -2.6559    0.2192    0.0264 C   0  0  0  0  0  0  0  0  0  0  0  0
   -1.5413   -0.5505   -0.3026 C   0  0  0  0  0  0  0  0  0  0  0  0
   -0.9078   -1.4376    0.5860 N   0  0  0  0  0  0  0  0  0  0  0  0
   -1.2225   -1.6996    1.9062 C   0  0  0  0  0  0  0  0  0  0  0  0
   -2.2133   -1.2920    2.5062 O   0  0  0  0  0  0  0  0  0  0  0  0
   -0.1568   -2.5509    2.6240 C   0  0  0  0  0  0  0  0  0  0  0  0
    0.9333   -2.9877    1.7113 N   0  0  0  0  0  0  0  0  0  0  0  0
    2.4868   -2.3722    1.9322 S   0  0  0  0  0  6  0  0  0  0  0  0
    3.3648   -3.3137    1.2756 O   0  0  0  0  0  0  0  0  0  0  0  0
    2.6586   -2.0014    3.3160 O   0  0  0  0  0  0  0  0  0  0  0  0
    2.4227   -0.9014    0.9427 C   0  0  0  0  0  0  0  0  0  0  0  0
    2.8705   -0.9456   -0.3889 C   0  0  0  0  0  0  0  0  0  0  0  0
    2.7579    0.1847   -1.2046 C   0  0  0  0  0  0  0  0  0  0  0  0
    2.1932    1.3338   -0.6737 C   0  0  0  0  0  0  0  0  0  0  0  0
    1.7834    1.3781    0.6612 C   0  0  0  0  0  0  0  0  0  0  0  0
    1.9040    0.2747    1.4933 C   0  0  0  0  0  0  0  0  0  0  0  0
    1.2386    2.7230    1.0180 C   0  0  0  0  0  0  0  0  0  0  0  0
    1.2462    3.4410   -0.3368 C   0  0  0  0  0  0  0  0  0  0  0  0
    1.9277    2.5635   -1.3036 N   0  0  0  0  0  0  0  0  0  0  0  0
    2.1600    2.8567   -2.6347 C   0  0  0  0  0  0  0  0  0  0  0  0
    1.7973    4.2593   -3.0594 C   0  0  0  0  0  0  0  0  0  0  0  0
    2.6385    2.0780   -3.4581 O   0  0  0  0  0  0  0  0  0  0  0  0
   -0.8019   -3.7546    3.3474 C   0  0  0  0  0  0  0  0  0  0  0  0
    0.1980   -4.4529    4.2739 C   0  0  0  0  0  0  0  0  0  0  0  0
   -1.4387   -4.7722    2.3955 C   0  0  0  0  0  0  0  0  0  0  0  0
   -0.9838   -0.4184   -1.5789 C   0  0  0  0  0  0  0  0  0  0  0  0
   -1.5213    0.4782   -2.5061 C   0  0  0  0  0  0  0  0  0  0  0  0
   -1.4546    3.4632   -3.3832 H   0  0  0  0  0  0  0  0  0  0  0  0
   -2.9689    4.2597   -3.8343 H   0  0  0  0  0  0  0  0  0  0  0  0
   -2.5728    4.0107   -2.1260 H   0  0  0  0  0  0  0  0  0  0  0  0
   -4.2916    2.3604   -2.9689 H   0  0  0  0  0  0  0  0  0  0  0  0
   -3.1564    1.7999   -4.1799 H   0  0  0  0  0  0  0  0  0  0  0  0
   -4.0703    1.7014   -0.6186 H   0  0  0  0  0  0  0  0  0  0  0  0
   -3.1274    0.1544    1.0016 H   0  0  0  0  0  0  0  0  0  0  0  0
   -0.0798   -1.9154    0.2452 H   0  0  0  0  0  0  0  0  0  0  0  0
    0.2483   -1.8743    3.3859 H   0  0  0  0  0  0  0  0  0  0  0  0
    0.9461   -3.9577    1.3952 H   0  0  0  0  0  0  0  0  0  0  0  0
    3.2978   -1.8575   -0.8032 H   0  0  0  0  0  0  0  0  0  0  0  0
    3.0977    0.1373   -2.2340 H   0  0  0  0  0  0  0  0  0  0  0  0
    1.5791    0.3216    2.5288 H   0  0  0  0  0  0  0  0  0  0  0  0
    1.8975    3.2269    1.7326 H   0  0  0  0  0  0  0  0  0  0  0  0
    0.2265    2.6599    1.4287 H   0  0  0  0  0  0  0  0  0  0  0  0
    0.2245    3.6193   -0.6930 H   0  0  0  0  0  0  0  0  0  0  0  0
    1.7632    4.4058   -0.2808 H   0  0  0  0  0  0  0  0  0  0  0  0
    2.4373    4.9808   -2.5457 H   0  0  0  0  0  0  0  0  0  0  0  0
    1.9550    4.3635   -4.1373 H   0  0  0  0  0  0  0  0  0  0  0  0
    0.7459    4.4688   -2.8500 H   0  0  0  0  0  0  0  0  0  0  0  0
   -1.6098   -3.3691    3.9839 H   0  0  0  0  0  0  0  0  0  0  0  0
   -0.2970   -5.2402    4.8512 H   0  0  0  0  0  0  0  0  0  0  0  0
    1.0163   -4.9153    3.7139 H   0  0  0  0  0  0  0  0  0  0  0  0
    0.6301   -3.7424    4.9854 H   0  0  0  0  0  0  0  0  0  0  0  0
   -0.6917   -5.2879    1.7838 H   0  0  0  0  0  0  0  0  0  0  0  0
   -1.9784   -5.5371    2.9652 H   0  0  0  0  0  0  0  0  0  0  0  0
   -2.1597   -4.2952    1.7241 H   0  0  0  0  0  0  0  0  0  0  0  0
   -0.1112   -0.9973   -1.8700 H   0  0  0  0  0  0  0  0  0  0  0  0
   -1.0561    0.5696   -3.4851 H   0  0  0  0  0  0  0  0  0  0  0  0
  1  2  1  0
  2  3  1  0
  3  4  2  0
  4  5  1  0
  5  6  2  0
  6  7  1  0
  7  8  1  0
  8  9  2  0
  8 10  1  0
 10 11  1  0
 11 12  1  0
 12 13  2  0
 12 14  2  0
 12 15  1  0
 15 16  2  0
 16 17  1  0
 17 18  2  0
 18 19  1  0
 19 20  2  0
 19 21  1  0
 21 22  1  0
 22 23  1  0
 23 24  1  0
 24 25  1  0
 24 26  2  0
 10 27  1  0
 27 28  1  0
 27 29  1  0
  6 30  1  0
 30 31  2  0
 31  3  1  0
 20 15  1  0
 23 18  1  0
  1 32  1  0
  1 33  1  0
  1 34  1  0
  2 35  1  0
  2 36  1  0
  4 37  1  0
  5 38  1  0
  7 39  1  0
 10 40  1  0
 11 41  1  0
 16 42  1  0
 17 43  1  0
 20 44  1  0
 21 45  1  0
 21 46  1  0
 22 47  1  0
 22 48  1  0
 25 49  1  0
 25 50  1  0
 25 51  1  0
 27 52  1  0
 28 53  1  0
 28 54  1  0
 28 55  1  0
 29 56  1  0
 29 57  1  0
 29 58  1  0
 30 59  1  0
 31 60  1  0
M  END
$$$$
