
     RDKit          3D

 42 46  0  0  0  0  0  0  0  0999 V2000
    5.1700    1.6970    0.6797 C   0  0  0  0  0  0  0  0  0  0  0  0
    5.2656    0.7543   -0.3420 C   0  0  0  0  0  0  0  0  0  0  0  0
    4.1104    0.2137   -0.9261 C   0  0  0  0  0  0  0  0  0  0  0  0
    4.1966   -0.7333   -1.9521 C   0  0  0  0  0  0  0  0  0  0  0  0
    3.0418   -1.2645   -2.5269 C   0  0  0  0  0  0  0  0  0  0  0  0
    1.7725   -0.8627   -2.0903 C   0  0  0  0  0  0  0  0  0  0  0  0
    0.6199   -1.3965   -2.6720 C   0  0  0  0  0  0  0  0  0  0  0  0
   -0.6412   -0.9954   -2.2393 C   0  0  0  0  0  0  0  0  0  0  0  0
   -0.7873   -0.0515   -1.2074 C   0  0  0  0  0  0  0  0  0  0  0  0
   -2.2005    0.3440   -0.8040 C   0  0  0  0  0  0  0  0  0  0  0  0
   -2.5685   -0.0546    0.5626 N   0  0  0  0  0  0  0  0  0  0  0  0
   -2.6822   -1.5168    0.7455 C   0  0  0  0  0  0  0  0  0  0  0  0
   -4.1317   -2.0272    0.7144 C   0  0  0  0  0  0  0  0  0  0  0  0
   -4.9680   -1.4298    1.7150 O   0  0  0  0  0  0  0  0  0  0  0  0
   -4.5229   -0.1263    2.1149 C   0  0  0  0  0  0  0  0  0  0  0  0
   -3.8152    0.6236    0.9778 C   0  0  0  0  0  0  0  0  0  0  0  0
    0.3730    0.5071   -0.6012 C   0  0  0  0  0  0  0  0  0  0  0  0
    0.3256    1.4635    0.4343 C   0  0  0  0  0  0  0  0  0  0  0  0
    1.4857    1.9930    1.0060 C   0  0  0  0  0  0  0  0  0  0  0  0
    2.7461    1.5870    0.5634 C   0  0  0  0  0  0  0  0  0  0  0  0
    3.9180    2.1108    1.1298 C   0  0  0  0  0  0  0  0  0  0  0  0
    2.8357    0.6308   -0.4723 C   0  0  0  0  0  0  0  0  0  0  0  0
    1.6545    0.0929   -1.0527 C   0  0  0  0  0  0  0  0  0  0  0  0
    6.0714    2.1089    1.1257 H   0  0  0  0  0  0  0  0  0  0  0  0
    6.2516    0.4433   -0.6799 H   0  0  0  0  0  0  0  0  0  0  0  0
    5.1658   -1.0675   -2.3151 H   0  0  0  0  0  0  0  0  0  0  0  0
    3.1445   -1.9985   -3.3232 H   0  0  0  0  0  0  0  0  0  0  0  0
    0.6929   -2.1309   -3.4710 H   0  0  0  0  0  0  0  0  0  0  0  0
   -1.5179   -1.4301   -2.7149 H   0  0  0  0  0  0  0  0  0  0  0  0
   -2.2648    1.4359   -0.9087 H   0  0  0  0  0  0  0  0  0  0  0  0
   -2.9268   -0.0605   -1.5221 H   0  0  0  0  0  0  0  0  0  0  0  0
   -2.2621   -1.7437    1.7338 H   0  0  0  0  0  0  0  0  0  0  0  0
   -2.0788   -2.0793    0.0262 H   0  0  0  0  0  0  0  0  0  0  0  0
   -4.1519   -3.1096    0.8772 H   0  0  0  0  0  0  0  0  0  0  0  0
   -4.5863   -1.8380   -0.2651 H   0  0  0  0  0  0  0  0  0  0  0  0
   -5.4046    0.4332    2.4435 H   0  0  0  0  0  0  0  0  0  0  0  0
   -3.8646   -0.2364    2.9847 H   0  0  0  0  0  0  0  0  0  0  0  0
   -3.5758    1.6426    1.3008 H   0  0  0  0  0  0  0  0  0  0  0  0
   -4.5126    0.6921    0.1322 H   0  0  0  0  0  0  0  0  0  0  0  0
   -0.6286    1.8085    0.8252 H   0  0  0  0  0  0  0  0  0  0  0  0
    1.3884    2.7242    1.8051 H   0  0  0  0  0  0  0  0  0  0  0  0
    3.8624    2.8469    1.9286 H   0  0  0  0  0  0  0  0  0  0  0  0
  1  2  2  0
  2  3  1  0
  3  4  2  0
  4  5  1  0
  5  6  2  0
  6  7  1  0
  7  8  2  0
  8  9  1  0
  9 10  1  0
 10 11  1  0
 11 12  1  0
 12 13  1  0
 13 14  1  0
 14 15  1  0
 15 16  1  0
  9 17  2  0
 17 18  1  0
 18 19  2  0
 19 20  1  0
 20 21  2  0
 20 22  1  0
 22 23  2  0
 21  1  1  0
 22  3  1  0
 23  6  1  0
 16 11  1  0
 23 17  1  0
  1 24  1  0
  2 25  1  0
  4 26  1  0
  5 27  1  0
  7 28  1  0
  8 29  1  0
 10 30  1  0
 10 31  1  0
 12 32  1  0
 12 33  1  0
 13 34  1  0
 13 35  1  0
 15 36  1  0
 15 37  1  0
 16 38  1  0
 16 39  1  0
 18 40  1  0
 19 41  1  0
 21 42  1  0
M  END
$$$$
