
     RDKit          3D

 64 69  0  0  0  0  0  0  0  0999 V2000
    8.2526   -1.3817    2.2708 F   0  0  0  0  0  0  0  0  0  0  0  0
    7.0202   -0.8268    2.0850 C   0  0  0  0  0  0  0  0  0  0  0  0
    6.7884   -0.0791    3.2013 F   0  0  0  0  0  0  0  0  0  0  0  0
    6.1404   -1.8665    2.1407 F   0  0  0  0  0  0  0  0  0  0  0  0
    6.9003   -0.0260    0.8040 C   0  0  0  0  0  0  0  0  0  0  0  0
    7.9818   -0.0294   -0.0998 C   0  0  0  0  0  0  0  0  0  0  0  0
    7.9249    0.6917   -1.2895 C   0  0  0  0  0  0  0  0  0  0  0  0
    6.7867    1.4262   -1.5943 C   0  0  0  0  0  0  0  0  0  0  0  0
    5.7040    1.4409   -0.7132 C   0  0  0  0  0  0  0  0  0  0  0  0
    5.7313    0.7165    0.4907 C   0  0  0  0  0  0  0  0  0  0  0  0
    4.5645    0.7487    1.4680 C   0  0  0  0  0  0  0  0  0  0  0  0
    3.2275    1.3905    1.0280 C   0  0  0  0  0  0  0  0  0  0  0  0
    2.5719    0.7547   -0.1261 N   0  0  0  0  0  0  0  0  0  0  0  0
    1.3706    1.4968   -0.5626 C   0  0  0  0  0  0  0  0  0  0  0  0
    0.0244    0.9443   -0.0442 C   0  0  0  0  0  0  0  0  0  0  0  0
   -0.1631   -0.4723   -0.3929 N   0  0  0  0  0  0  0  0  0  0  0  0
   -1.3761   -0.9466   -0.8852 C   0  0  0  0  0  0  0  0  0  0  0  0
   -1.3442   -1.8413   -1.8430 N   0  0  0  0  0  0  0  0  0  0  0  0
   -2.5320   -2.3306   -2.4174 C   0  0  0  0  0  0  0  0  0  0  0  0
   -2.4330   -3.2699   -3.4457 C   0  0  0  0  0  0  0  0  0  0  0  0
   -3.5799   -3.7783   -4.0610 C   0  0  0  0  0  0  0  0  0  0  0  0
   -4.8424   -3.3485   -3.6513 C   0  0  0  0  0  0  0  0  0  0  0  0
   -4.9647   -2.4112   -2.6249 C   0  0  0  0  0  0  0  0  0  0  0  0
   -3.8077   -1.9113   -2.0193 C   0  0  0  0  0  0  0  0  0  0  0  0
   -3.8381   -0.9780   -0.9702 N   0  0  0  0  0  0  0  0  0  0  0  0
   -4.9219   -0.4042   -0.3480 C   0  0  0  0  0  0  0  0  0  0  0  0
   -4.4654    0.3946    0.6827 C   0  0  0  0  0  0  0  0  0  0  0  0
   -5.3340    1.1312    1.5893 C   0  0  0  0  0  0  0  0  0  0  0  0
   -6.5194    1.7242    1.1335 C   0  0  0  0  0  0  0  0  0  0  0  0
   -7.3402    2.4380    2.0107 C   0  0  0  0  0  0  0  0  0  0  0  0
   -6.9842    2.5661    3.3517 C   0  0  0  0  0  0  0  0  0  0  0  0
   -5.8075    1.9823    3.8167 C   0  0  0  0  0  0  0  0  0  0  0  0
   -4.9853    1.2697    2.9396 C   0  0  0  0  0  0  0  0  0  0  0  0
   -3.0473    0.2956    0.6689 C   0  0  0  0  0  0  0  0  0  0  0  0
   -2.6771   -0.5154   -0.3901 C   0  0  0  0  0  0  0  0  0  0  0  0
    1.0774   -1.1990   -0.7241 C   0  0  0  0  0  0  0  0  0  0  0  0
    2.2577   -0.6716    0.1169 C   0  0  0  0  0  0  0  0  0  0  0  0
    8.8829   -0.5992    0.1243 H   0  0  0  0  0  0  0  0  0  0  0  0
    8.7666    0.6804   -1.9769 H   0  0  0  0  0  0  0  0  0  0  0  0
    6.7346    1.9898   -2.5226 H   0  0  0  0  0  0  0  0  0  0  0  0
    4.8326    2.0262   -0.9971 H   0  0  0  0  0  0  0  0  0  0  0  0
    4.3567   -0.2740    1.8024 H   0  0  0  0  0  0  0  0  0  0  0  0
    4.9051    1.3063    2.3504 H   0  0  0  0  0  0  0  0  0  0  0  0
    2.5455    1.3865    1.8887 H   0  0  0  0  0  0  0  0  0  0  0  0
    3.4224    2.4457    0.7981 H   0  0  0  0  0  0  0  0  0  0  0  0
    1.3531    1.4568   -1.6600 H   0  0  0  0  0  0  0  0  0  0  0  0
    1.4490    2.5623   -0.3135 H   0  0  0  0  0  0  0  0  0  0  0  0
   -0.7721    1.5603   -0.4766 H   0  0  0  0  0  0  0  0  0  0  0  0
   -0.0189    1.0508    1.0456 H   0  0  0  0  0  0  0  0  0  0  0  0
   -1.4504   -3.6037   -3.7681 H   0  0  0  0  0  0  0  0  0  0  0  0
   -3.4850   -4.5089   -4.8600 H   0  0  0  0  0  0  0  0  0  0  0  0
   -5.7327   -3.7471   -4.1319 H   0  0  0  0  0  0  0  0  0  0  0  0
   -5.9573   -2.0963   -2.3215 H   0  0  0  0  0  0  0  0  0  0  0  0
   -5.9313   -0.6276   -0.6610 H   0  0  0  0  0  0  0  0  0  0  0  0
   -6.8094    1.6492    0.0884 H   0  0  0  0  0  0  0  0  0  0  0  0
   -8.2554    2.8960    1.6447 H   0  0  0  0  0  0  0  0  0  0  0  0
   -7.6232    3.1213    4.0333 H   0  0  0  0  0  0  0  0  0  0  0  0
   -5.5292    2.0781    4.8629 H   0  0  0  0  0  0  0  0  0  0  0  0
   -4.0777    0.8123    3.3257 H   0  0  0  0  0  0  0  0  0  0  0  0
   -2.3716    0.7787    1.3601 H   0  0  0  0  0  0  0  0  0  0  0  0
    1.3018   -1.0982   -1.7936 H   0  0  0  0  0  0  0  0  0  0  0  0
    0.9480   -2.2661   -0.5057 H   0  0  0  0  0  0  0  0  0  0  0  0
    2.0079   -0.8312    1.1748 H   0  0  0  0  0  0  0  0  0  0  0  0
    3.1465   -1.2727   -0.1062 H   0  0  0  0  0  0  0  0  0  0  0  0
  1  2  1  0
  2  3  1  0
  2  4  1  0
  2  5  1  0
  5  6  2  0
  6  7  1  0
  7  8  2  0
  8  9  1  0
  9 10  2  0
 10 11  1  0
 11 12  1  0
 12 13  1  0
 13 14  1  0
 14 15  1  0
 15 16  1  0
 16 17  1  0
 17 18  2  0
 18 19  1  0
 19 20  2  0
 20 21  1  0
 21 22  2  0
 22 23  1  0
 23 24  2  0
 24 25  1  0
 25 26  1  0
 26 27  2  0
 27 28  1  0
 28 29  2  0
 29 30  1  0
 30 31  2  0
 31 32  1  0
 32 33  2  0
 27 34  1  0
 34 35  2  0
 16 36  1  0
 36 37  1  0
 10  5  1  0
 37 13  1  0
 35 17  1  0
 24 19  1  0
 35 25  1  0
 33 28  1  0
  6 38  1  0
  7 39  1  0
  8 40  1  0
  9 41  1  0
 11 42  1  0
 11 43  1  0
 12 44  1  0
 12 45  1  0
 14 46  1  0
 14 47  1  0
 15 48  1  0
 15 49  1  0
 20 50  1  0
 21 51  1  0
 22 52  1  0
 23 53  1  0
 26 54  1  0
 29 55  1  0
 30 56  1  0
 31 57  1  0
 32 58  1  0
 33 59  1  0
 34 60  1  0
 36 61  1  0
 36 62  1  0
 37 63  1  0
 37 64  1  0
M  END
$$$$
