
     RDKit          3D

 69 74  0  0  0  0  0  0  0  0999 V2000
    7.1119   -1.8204   -0.8337 C   0  0  0  0  0  0  0  0  0  0  0  0
    6.2405   -2.2106    0.2177 O   0  0  0  0  0  0  0  0  0  0  0  0
    4.9344   -1.7914    0.1495 C   0  0  0  0  0  0  0  0  0  0  0  0
    4.3659   -1.1572   -0.9606 C   0  0  0  0  0  0  0  0  0  0  0  0
    3.0178   -0.7682   -0.9519 C   0  0  0  0  0  0  0  0  0  0  0  0
    2.2343   -0.9884    0.1945 C   0  0  0  0  0  0  0  0  0  0  0  0
    2.8030   -1.6419    1.3003 C   0  0  0  0  0  0  0  0  0  0  0  0
    4.1422   -2.0487    1.2848 C   0  0  0  0  0  0  0  0  0  0  0  0
    4.7703   -2.6840    2.3276 O   0  0  0  0  0  0  0  0  0  0  0  0
    3.9666   -3.1127    3.4177 C   0  0  0  0  0  0  0  0  0  0  0  0
    0.7691   -0.5914    0.2400 C   0  0  0  0  0  0  0  0  0  0  0  0
    0.4543    0.3989   -0.8045 N   0  0  0  0  0  0  0  0  0  0  0  0
   -0.9293    0.6601   -0.7743 C   0  0  0  0  0  0  0  0  0  0  0  0
   -1.7848   -0.1942   -1.3829 N   0  0  0  0  0  0  0  0  0  0  0  0
   -3.1156    0.0278   -1.3165 C   0  0  0  0  0  0  0  0  0  0  0  0
   -4.0208   -1.0021   -1.9851 C   0  0  0  0  0  0  0  0  0  0  0  0
   -4.5782   -2.0271   -1.0730 N   0  0  0  0  0  0  0  0  0  0  0  0
   -3.5653   -2.9882   -0.5898 C   0  0  0  0  0  0  0  0  0  0  0  0
   -3.5915   -4.3354   -1.3311 C   0  0  0  0  0  0  0  0  0  0  0  0
   -4.8586   -5.0023   -1.2575 O   0  0  0  0  0  0  0  0  0  0  0  0
   -5.9604   -4.1017   -1.0777 C   0  0  0  0  0  0  0  0  0  0  0  0
   -5.7038   -2.7317   -1.7211 C   0  0  0  0  0  0  0  0  0  0  0  0
   -3.7093    1.0595   -0.7029 N   0  0  0  0  0  0  0  0  0  0  0  0
   -2.8392    1.8975   -0.1210 C   0  0  0  0  0  0  0  0  0  0  0  0
   -3.4045    3.2759    0.7065 S   0  0  0  0  0  0  0  0  0  0  0  0
   -1.8232    3.7653    1.0892 C   0  0  0  0  0  0  0  0  0  0  0  0
   -0.8636    2.8891    0.6150 C   0  0  0  0  0  0  0  0  0  0  0  0
   -1.4582    1.7823   -0.1023 C   0  0  0  0  0  0  0  0  0  0  0  0
    0.6030    3.1503    0.8124 C   0  0  0  0  0  0  0  0  0  0  0  0
    0.8632    4.2226    1.8827 C   0  0  0  0  0  0  0  0  0  0  0  0
   -0.0762    5.4359    1.7217 C   0  0  0  0  0  0  0  0  0  0  0  0
    0.2728    6.5314    2.7268 C   0  0  0  0  0  0  0  0  0  0  0  0
   -1.5516    5.0093    1.8780 C   0  0  0  0  0  0  0  0  0  0  0  0
    0.9009   -0.0489   -2.1303 C   0  0  0  0  0  0  0  0  0  0  0  0
    2.4338   -0.0532   -2.1489 C   0  0  0  0  0  0  0  0  0  0  0  0
    6.8289   -2.2992   -1.7770 H   0  0  0  0  0  0  0  0  0  0  0  0
    7.1480   -0.7306   -0.9370 H   0  0  0  0  0  0  0  0  0  0  0  0
    8.1194   -2.1627   -0.5779 H   0  0  0  0  0  0  0  0  0  0  0  0
    4.9521   -0.9550   -1.8516 H   0  0  0  0  0  0  0  0  0  0  0  0
    2.1772   -1.8156    2.1699 H   0  0  0  0  0  0  0  0  0  0  0  0
    4.6056   -3.6776    4.1040 H   0  0  0  0  0  0  0  0  0  0  0  0
    3.1658   -3.7820    3.0837 H   0  0  0  0  0  0  0  0  0  0  0  0
    3.5630   -2.2561    3.9680 H   0  0  0  0  0  0  0  0  0  0  0  0
    0.1708   -1.5054    0.1171 H   0  0  0  0  0  0  0  0  0  0  0  0
    0.5519   -0.1653    1.2281 H   0  0  0  0  0  0  0  0  0  0  0  0
   -3.4781   -1.4757   -2.8140 H   0  0  0  0  0  0  0  0  0  0  0  0
   -4.8459   -0.4351   -2.4368 H   0  0  0  0  0  0  0  0  0  0  0  0
   -2.5503   -2.5795   -0.6129 H   0  0  0  0  0  0  0  0  0  0  0  0
   -3.7910   -3.1769    0.4676 H   0  0  0  0  0  0  0  0  0  0  0  0
   -3.3401   -4.1989   -2.3893 H   0  0  0  0  0  0  0  0  0  0  0  0
   -2.8427   -5.0115   -0.9050 H   0  0  0  0  0  0  0  0  0  0  0  0
   -6.8423   -4.5698   -1.5261 H   0  0  0  0  0  0  0  0  0  0  0  0
   -6.1538   -4.0033   -0.0034 H   0  0  0  0  0  0  0  0  0  0  0  0
   -5.4917   -2.8910   -2.7870 H   0  0  0  0  0  0  0  0  0  0  0  0
   -6.6048   -2.1129   -1.6453 H   0  0  0  0  0  0  0  0  0  0  0  0
    1.0272    3.4832   -0.1427 H   0  0  0  0  0  0  0  0  0  0  0  0
    1.1258    2.2352    1.1039 H   0  0  0  0  0  0  0  0  0  0  0  0
    0.7209    3.7822    2.8782 H   0  0  0  0  0  0  0  0  0  0  0  0
    1.9111    4.5398    1.8223 H   0  0  0  0  0  0  0  0  0  0  0  0
    0.0651    5.8458    0.7118 H   0  0  0  0  0  0  0  0  0  0  0  0
    0.1716    6.1744    3.7574 H   0  0  0  0  0  0  0  0  0  0  0  0
   -0.3859    7.3970    2.6005 H   0  0  0  0  0  0  0  0  0  0  0  0
    1.3044    6.8725    2.5858 H   0  0  0  0  0  0  0  0  0  0  0  0
   -1.7758    4.8091    2.9342 H   0  0  0  0  0  0  0  0  0  0  0  0
   -2.2052    5.8282    1.5520 H   0  0  0  0  0  0  0  0  0  0  0  0
    0.5231   -1.0554   -2.3588 H   0  0  0  0  0  0  0  0  0  0  0  0
    0.5442    0.6309   -2.9146 H   0  0  0  0  0  0  0  0  0  0  0  0
    2.7791   -0.5247   -3.0762 H   0  0  0  0  0  0  0  0  0  0  0  0
    2.8024    0.9801   -2.1370 H   0  0  0  0  0  0  0  0  0  0  0  0
  1  2  1  0
  2  3  1  0
  3  4  2  0
  4  5  1  0
  5  6  2  0
  6  7  1  0
  7  8  2  0
  8  9  1  0
  9 10  1  0
  6 11  1  0
 11 12  1  0
 12 13  1  0
 13 14  2  0
 14 15  1  0
 15 16  1  0
 16 17  1  0
 17 18  1  0
 18 19  1  0
 19 20  1  0
 20 21  1  0
 21 22  1  0
 15 23  2  0
 23 24  1  0
 24 25  1  0
 25 26  1  0
 26 27  2  0
 27 28  1  0
 27 29  1  0
 29 30  1  0
 30 31  1  0
 31 32  1  0
 31 33  1  0
 12 34  1  0
 34 35  1  0
  8  3  1  0
 28 13  1  0
 35  5  1  0
 22 17  1  0
 28 24  2  0
 33 26  1  0
  1 36  1  0
  1 37  1  0
  1 38  1  0
  4 39  1  0
  7 40  1  0
 10 41  1  0
 10 42  1  0
 10 43  1  0
 11 44  1  0
 11 45  1  0
 16 46  1  0
 16 47  1  0
 18 48  1  0
 18 49  1  0
 19 50  1  0
 19 51  1  0
 21 52  1  0
 21 53  1  0
 22 54  1  0
 22 55  1  0
 29 56  1  0
 29 57  1  0
 30 58  1  0
 30 59  1  0
 31 60  1  0
 32 61  1  0
 32 62  1  0
 32 63  1  0
 33 64  1  0
 33 65  1  0
 34 66  1  0
 34 67  1  0
 35 68  1  0
 35 69  1  0
M  END
$$$$
