
     RDKit          3D

 54 57  0  0  0  0  0  0  0  0999 V2000
    5.4222    0.9537    4.3669 C   0  0  0  0  0  0  0  0  0  0  0  0
    4.4138    0.1602    3.5509 C   0  0  0  0  0  0  0  0  0  0  0  0
    3.7590    0.9970    2.4633 C   0  0  0  0  0  0  0  0  0  0  0  0
    3.9507    2.2095    2.3790 O   0  0  0  0  0  0  0  0  0  0  0  0
    2.9304    0.3251    1.5763 N   0  0  0  0  0  0  0  0  0  0  0  0
    2.6289   -1.1125    1.6246 C   0  0  0  0  0  0  0  0  0  0  0  0
    1.2803   -1.4679    0.9711 C   0  0  0  0  0  0  0  0  0  0  0  0
    1.1307   -0.9209   -0.4007 N   0  0  0  0  0  0  0  0  0  0  0  0
    1.0692   -1.9222   -1.4028 C   0  0  0  0  0  0  0  0  0  0  0  0
    2.1600   -2.7470   -1.7103 C   0  0  0  0  0  0  0  0  0  0  0  0
    2.0494   -3.7188   -2.7062 C   0  0  0  0  0  0  0  0  0  0  0  0
    0.8484   -3.8716   -3.3976 C   0  0  0  0  0  0  0  0  0  0  0  0
    0.7291   -5.0721   -4.6269 Cl  0  0  0  0  0  0  0  0  0  0  0  0
   -0.2520   -3.0665   -3.1060 C   0  0  0  0  0  0  0  0  0  0  0  0
   -0.1476   -2.0961   -2.1101 C   0  0  0  0  0  0  0  0  0  0  0  0
   -1.1955   -1.2303   -1.7318 N   0  0  0  0  0  0  0  0  0  0  0  0
   -2.4920   -1.2000   -2.1943 C   0  0  0  0  0  0  0  0  0  0  0  0
   -2.9919   -1.9694   -3.0065 O   0  0  0  0  0  0  0  0  0  0  0  0
   -3.3517   -0.1360   -1.5976 C   0  0  0  0  0  0  0  0  0  0  0  0
   -4.7291   -0.3763   -1.4880 C   0  0  0  0  0  0  0  0  0  0  0  0
   -5.5711    0.5862   -0.9259 C   0  0  0  0  0  0  0  0  0  0  0  0
   -5.0400    1.7924   -0.4759 C   0  0  0  0  0  0  0  0  0  0  0  0
   -3.6733    2.0534   -0.6208 C   0  0  0  0  0  0  0  0  0  0  0  0
   -2.8269    1.0919   -1.1727 C   0  0  0  0  0  0  0  0  0  0  0  0
   -3.0891    3.2339   -0.2365 O   0  0  0  0  0  0  0  0  0  0  0  0
   -4.0700    4.2520   -0.0022 C   0  0  0  0  0  0  0  0  0  0  0  0
   -5.2297    3.7056    0.8139 C   0  0  0  0  0  0  0  0  0  0  0  0
   -5.9182    2.6809    0.0888 O   0  0  0  0  0  0  0  0  0  0  0  0
    2.0550    0.1849   -0.7539 C   0  0  0  0  0  0  0  0  0  0  0  0
    2.3316    1.0775    0.4663 C   0  0  0  0  0  0  0  0  0  0  0  0
    6.2388    1.3181    3.7339 H   0  0  0  0  0  0  0  0  0  0  0  0
    4.9520    1.8204    4.8433 H   0  0  0  0  0  0  0  0  0  0  0  0
    5.8524    0.3248    5.1535 H   0  0  0  0  0  0  0  0  0  0  0  0
    4.9240   -0.6917    3.0890 H   0  0  0  0  0  0  0  0  0  0  0  0
    3.6329   -0.2112    4.2223 H   0  0  0  0  0  0  0  0  0  0  0  0
    3.4468   -1.6195    1.1001 H   0  0  0  0  0  0  0  0  0  0  0  0
    2.6331   -1.4646    2.6593 H   0  0  0  0  0  0  0  0  0  0  0  0
    0.4763   -1.0272    1.5743 H   0  0  0  0  0  0  0  0  0  0  0  0
    1.1281   -2.5542    1.0034 H   0  0  0  0  0  0  0  0  0  0  0  0
    3.1035   -2.6392   -1.1838 H   0  0  0  0  0  0  0  0  0  0  0  0
    2.9020   -4.3513   -2.9410 H   0  0  0  0  0  0  0  0  0  0  0  0
   -1.1718   -3.2089   -3.6627 H   0  0  0  0  0  0  0  0  0  0  0  0
   -0.9155   -0.6135   -0.9744 H   0  0  0  0  0  0  0  0  0  0  0  0
   -5.1481   -1.3204   -1.8338 H   0  0  0  0  0  0  0  0  0  0  0  0
   -6.6364    0.3894   -0.8313 H   0  0  0  0  0  0  0  0  0  0  0  0
   -1.7750    1.3313   -1.2943 H   0  0  0  0  0  0  0  0  0  0  0  0
   -3.5783    5.0662    0.5386 H   0  0  0  0  0  0  0  0  0  0  0  0
   -4.4077    4.6397   -0.9712 H   0  0  0  0  0  0  0  0  0  0  0  0
   -5.9503    4.5012    1.0284 H   0  0  0  0  0  0  0  0  0  0  0  0
   -4.8879    3.2871    1.7683 H   0  0  0  0  0  0  0  0  0  0  0  0
    3.0134   -0.2016   -1.1255 H   0  0  0  0  0  0  0  0  0  0  0  0
    1.6043    0.7888   -1.5509 H   0  0  0  0  0  0  0  0  0  0  0  0
    2.9875    1.9057    0.1771 H   0  0  0  0  0  0  0  0  0  0  0  0
    1.3953    1.5079    0.8427 H   0  0  0  0  0  0  0  0  0  0  0  0
  1  2  1  0
  2  3  1  0
  3  4  2  0
  3  5  1  0
  5  6  1  0
  6  7  1  0
  7  8  1  0
  8  9  1  0
  9 10  2  0
 10 11  1  0
 11 12  2  0
 12 13  1  0
 12 14  1  0
 14 15  2  0
 15 16  1  0
 16 17  1  0
 17 18  2  0
 17 19  1  0
 19 20  2  0
 20 21  1  0
 21 22  2  0
 22 23  1  0
 23 24  2  0
 23 25  1  0
 25 26  1  0
 26 27  1  0
 27 28  1  0
  8 29  1  0
 29 30  1  0
 30  5  1  0
 15  9  1  0
 24 19  1  0
 28 22  1  0
  1 31  1  0
  1 32  1  0
  1 33  1  0
  2 34  1  0
  2 35  1  0
  6 36  1  0
  6 37  1  0
  7 38  1  0
  7 39  1  0
 10 40  1  0
 11 41  1  0
 14 42  1  0
 16 43  1  0
 20 44  1  0
 21 45  1  0
 24 46  1  0
 26 47  1  0
 26 48  1  0
 27 49  1  0
 27 50  1  0
 29 51  1  0
 29 52  1  0
 30 53  1  0
 30 54  1  0
M  END
$$$$
