
     RDKit          3D

 50 52  0  0  0  0  0  0  0  0999 V2000
    2.0872   -1.8413   -1.6396 C   0  0  0  0  0  0  0  0  0  0  0  0
    1.9332   -0.3755   -2.0107 C   0  0  0  0  0  0  0  0  0  0  0  0
    2.3917    0.5251   -0.9431 N   0  0  0  0  0  4  0  0  0  0  0  0
    1.5644    1.1532   -0.1163 C   0  0  0  0  0  0  0  0  0  0  0  0
    0.1514    1.0714   -0.0633 C   0  0  0  0  0  0  0  0  0  0  0  0
   -0.4660   -0.0401    0.3655 C   0  0  0  0  0  0  0  0  0  0  0  0
   -1.9074   -0.1434    0.4738 C   0  0  0  0  0  0  0  0  0  0  0  0
   -2.5153   -1.2621    0.9018 C   0  0  0  0  0  0  0  0  0  0  0  0
   -3.8902   -1.4576    1.0866 N   0  0  0  0  0  0  0  0  0  0  0  0
   -4.2859   -2.6429    1.7480 C   0  0  0  0  0  0  0  0  0  0  0  0
   -5.7533   -3.0156    1.7363 C   0  0  0  0  0  0  0  0  0  0  0  0
   -3.4805   -3.4035    2.2976 O   0  0  0  0  0  0  0  0  0  0  0  0
   -4.8612   -0.4988    0.6588 C   0  0  0  0  0  0  0  0  0  0  0  0
   -4.9147   -0.0980   -0.6838 C   0  0  0  0  0  0  0  0  0  0  0  0
   -5.8604    0.8395   -1.1035 C   0  0  0  0  0  0  0  0  0  0  0  0
   -6.7524    1.3890   -0.1842 C   0  0  0  0  0  0  0  0  0  0  0  0
   -6.7009    1.0034    1.1542 C   0  0  0  0  0  0  0  0  0  0  0  0
   -5.7588    0.0629    1.5759 C   0  0  0  0  0  0  0  0  0  0  0  0
    2.4229    2.1980    0.9391 S   0  0  0  0  0  0  0  0  0  0  0  0
    3.9383    1.7485    0.2650 C   0  0  0  0  0  0  0  0  0  0  0  0
    5.2220    2.1911    0.6179 C   0  0  0  0  0  0  0  0  0  0  0  0
    6.3254    1.6948   -0.0850 C   0  0  0  0  0  0  0  0  0  0  0  0
    7.5244    2.1920    0.3405 O   0  0  0  0  0  0  0  0  0  0  0  0
    8.7013    1.7293   -0.3134 C   0  0  0  0  0  0  0  0  0  0  0  0
    6.1410    0.7798   -1.1174 C   0  0  0  0  0  0  0  0  0  0  0  0
    4.8540    0.3391   -1.4683 C   0  0  0  0  0  0  0  0  0  0  0  0
    3.7379    0.8299   -0.7604 C   0  0  0  0  0  0  0  0  0  0  0  0
    3.1336   -2.0977   -1.4499 H   0  0  0  0  0  0  0  0  0  0  0  0
    1.5223   -2.0853   -0.7365 H   0  0  0  0  0  0  0  0  0  0  0  0
    1.7244   -2.4779   -2.4524 H   0  0  0  0  0  0  0  0  0  0  0  0
    0.8884   -0.1648   -2.2635 H   0  0  0  0  0  0  0  0  0  0  0  0
    2.5014   -0.1570   -2.9227 H   0  0  0  0  0  0  0  0  0  0  0  0
   -0.4207    1.9622   -0.3174 H   0  0  0  0  0  0  0  0  0  0  0  0
    0.1024   -0.9118    0.6880 H   0  0  0  0  0  0  0  0  0  0  0  0
   -2.4886    0.7424    0.2287 H   0  0  0  0  0  0  0  0  0  0  0  0
   -1.9044   -2.1179    1.1906 H   0  0  0  0  0  0  0  0  0  0  0  0
   -5.8384   -4.1023    1.8418 H   0  0  0  0  0  0  0  0  0  0  0  0
   -6.2338   -2.7504    0.7917 H   0  0  0  0  0  0  0  0  0  0  0  0
   -6.2668   -2.5486    2.5795 H   0  0  0  0  0  0  0  0  0  0  0  0
   -4.2438   -0.5369   -1.4174 H   0  0  0  0  0  0  0  0  0  0  0  0
   -5.9109    1.1346   -2.1488 H   0  0  0  0  0  0  0  0  0  0  0  0
   -7.4920    2.1169   -0.5109 H   0  0  0  0  0  0  0  0  0  0  0  0
   -7.3942    1.4377    1.8712 H   0  0  0  0  0  0  0  0  0  0  0  0
   -5.7174   -0.2024    2.6297 H   0  0  0  0  0  0  0  0  0  0  0  0
    5.3667    2.9099    1.4224 H   0  0  0  0  0  0  0  0  0  0  0  0
    9.5595    2.2212    0.1545 H   0  0  0  0  0  0  0  0  0  0  0  0
    8.6951    2.0033   -1.3734 H   0  0  0  0  0  0  0  0  0  0  0  0
    8.8234    0.6488   -0.1848 H   0  0  0  0  0  0  0  0  0  0  0  0
    6.9855    0.3840   -1.6772 H   0  0  0  0  0  0  0  0  0  0  0  0
    4.7602   -0.3762   -2.2806 H   0  0  0  0  0  0  0  0  0  0  0  0
  1  2  1  0
  2  3  1  0
  3  4  2  0
  4  5  1  0
  5  6  2  3
  6  7  1  0
  7  8  2  3
  8  9  1  0
  9 10  1  0
 10 11  1  0
 10 12  2  0
  9 13  1  0
 13 14  2  0
 14 15  1  0
 15 16  2  0
 16 17  1  0
 17 18  2  0
  4 19  1  0
 19 20  1  0
 20 21  2  0
 21 22  1  0
 22 23  1  0
 23 24  1  0
 22 25  2  0
 25 26  1  0
 26 27  2  0
 27  3  1  0
 18 13  1  0
 27 20  1  0
  1 28  1  0
  1 29  1  0
  1 30  1  0
  2 31  1  0
  2 32  1  0
  5 33  1  0
  6 34  1  0
  7 35  1  0
  8 36  1  0
 11 37  1  0
 11 38  1  0
 11 39  1  0
 14 40  1  0
 15 41  1  0
 16 42  1  0
 17 43  1  0
 18 44  1  0
 21 45  1  0
 24 46  1  0
 24 47  1  0
 24 48  1  0
 25 49  1  0
 26 50  1  0
M  CHG  1   3   1
M  END
$$$$
