
     RDKit          3D

 59 63  0  0  0  0  0  0  0  0999 V2000
   -5.8625   -2.2576   -2.2348 C   0  0  0  0  0  0  0  0  0  0  0  0
   -5.7717   -1.8386   -0.7705 C   0  0  0  0  0  0  0  0  0  0  0  0
   -4.3380   -1.7444   -0.2268 C   0  0  0  0  0  0  0  0  0  0  0  0
   -3.6666   -3.0289   -0.3704 N   0  0  0  0  0  0  0  0  0  0  0  0
   -2.3361   -2.9974    0.0520 C   0  0  0  0  0  0  0  0  0  0  0  0
   -1.9079   -4.1474    0.5930 N   0  0  0  0  0  0  0  0  0  0  0  0
   -0.6197   -4.1864    0.9255 C   0  0  0  0  0  0  0  0  0  0  0  0
    0.2574   -3.1918    0.7743 N   0  0  0  0  0  0  0  0  0  0  0  0
   -0.1923   -2.0319    0.2406 C   0  0  0  0  0  0  0  0  0  0  0  0
    0.7531   -0.9854    0.1340 N   0  0  0  0  0  0  0  0  0  0  0  0
    1.2402   -0.6020    1.4910 C   0  0  0  0  0  0  0  0  0  0  0  0
    2.2812    0.5372    1.3956 C   0  0  0  0  0  0  0  0  0  0  0  0
    3.4085    0.1453    0.5114 N   0  0  0  0  0  0  0  0  0  0  0  0
    4.4041    1.1420    0.4340 C   0  0  0  0  0  0  0  0  0  0  0  0
    5.6507    0.8170   -0.1052 C   0  0  0  0  0  0  0  0  0  0  0  0
    6.6555    1.7811   -0.1705 C   0  0  0  0  0  0  0  0  0  0  0  0
    6.3975    3.0578    0.3037 C   0  0  0  0  0  0  0  0  0  0  0  0
    5.1449    3.3070    0.8294 C   0  0  0  0  0  0  0  0  0  0  0  0
    4.1606    2.3833    0.9084 N   0  0  0  0  0  0  0  0  0  0  0  0
    2.9384   -0.2732   -0.8311 C   0  0  0  0  0  0  0  0  0  0  0  0
    1.8999   -1.4142   -0.7109 C   0  0  0  0  0  0  0  0  0  0  0  0
   -1.5306   -1.8664   -0.1535 C   0  0  0  0  0  0  0  0  0  0  0  0
   -2.1357   -0.6869   -0.7302 N   0  0  0  0  0  0  0  0  0  0  0  0
   -1.3481    0.4268   -1.2422 C   0  0  0  0  0  0  0  0  0  0  0  0
   -1.1031    1.5733   -0.2768 C   0  0  0  0  0  0  0  0  0  0  0  0
   -1.7102    1.6659    0.9857 C   0  0  0  0  0  0  0  0  0  0  0  0
   -1.4531    2.7541    1.8253 C   0  0  0  0  0  0  0  0  0  0  0  0
   -0.5921    3.7652    1.4060 C   0  0  0  0  0  0  0  0  0  0  0  0
   -0.2396    5.2313    2.5460 Br  0  0  0  0  0  0  0  0  0  0  0  0
    0.0079    3.7033    0.1519 C   0  0  0  0  0  0  0  0  0  0  0  0
   -0.2505    2.6149   -0.6853 C   0  0  0  0  0  0  0  0  0  0  0  0
   -3.5291   -0.6068   -0.8844 C   0  0  0  0  0  0  0  0  0  0  0  0
   -4.0885    0.3536   -1.4187 O   0  0  0  0  0  0  0  0  0  0  0  0
   -5.4625   -3.2653   -2.3868 H   0  0  0  0  0  0  0  0  0  0  0  0
   -6.9093   -2.2642   -2.5560 H   0  0  0  0  0  0  0  0  0  0  0  0
   -5.3179   -1.5694   -2.8877 H   0  0  0  0  0  0  0  0  0  0  0  0
   -6.3358   -2.5635   -0.1703 H   0  0  0  0  0  0  0  0  0  0  0  0
   -6.2767   -0.8720   -0.6500 H   0  0  0  0  0  0  0  0  0  0  0  0
   -4.4085   -1.4912    0.8411 H   0  0  0  0  0  0  0  0  0  0  0  0
   -4.1177   -3.8365    0.0486 H   0  0  0  0  0  0  0  0  0  0  0  0
   -0.2478   -5.1089    1.3575 H   0  0  0  0  0  0  0  0  0  0  0  0
    0.4002   -0.2643    2.1097 H   0  0  0  0  0  0  0  0  0  0  0  0
    1.7082   -1.4580    1.9958 H   0  0  0  0  0  0  0  0  0  0  0  0
    1.7888    1.4367    1.0122 H   0  0  0  0  0  0  0  0  0  0  0  0
    2.6510    0.7489    2.4070 H   0  0  0  0  0  0  0  0  0  0  0  0
    5.8508   -0.1923   -0.4503 H   0  0  0  0  0  0  0  0  0  0  0  0
    7.6299    1.5294   -0.5783 H   0  0  0  0  0  0  0  0  0  0  0  0
    7.1530    3.8340    0.2721 H   0  0  0  0  0  0  0  0  0  0  0  0
    4.8863    4.2871    1.2198 H   0  0  0  0  0  0  0  0  0  0  0  0
    3.7690   -0.6399   -1.4451 H   0  0  0  0  0  0  0  0  0  0  0  0
    2.4823    0.5798   -1.3515 H   0  0  0  0  0  0  0  0  0  0  0  0
    2.3990   -2.2969   -0.2888 H   0  0  0  0  0  0  0  0  0  0  0  0
    1.5438   -1.6725   -1.7161 H   0  0  0  0  0  0  0  0  0  0  0  0
   -0.4127    0.0597   -1.6739 H   0  0  0  0  0  0  0  0  0  0  0  0
   -1.8867    0.8567   -2.0979 H   0  0  0  0  0  0  0  0  0  0  0  0
   -2.3886    0.8930    1.3366 H   0  0  0  0  0  0  0  0  0  0  0  0
   -1.9309    2.8021    2.8002 H   0  0  0  0  0  0  0  0  0  0  0  0
    0.6810    4.4880   -0.1820 H   0  0  0  0  0  0  0  0  0  0  0  0
    0.2272    2.5793   -1.6624 H   0  0  0  0  0  0  0  0  0  0  0  0
  1  2  1  0
  2  3  1  0
  3  4  1  0
  4  5  1  0
  5  6  2  0
  6  7  1  0
  7  8  2  0
  8  9  1  0
  9 10  1  0
 10 11  1  0
 11 12  1  0
 12 13  1  0
 13 14  1  0
 14 15  2  0
 15 16  1  0
 16 17  2  0
 17 18  1  0
 18 19  2  0
 13 20  1  0
 20 21  1  0
  9 22  2  0
 22 23  1  0
 23 24  1  0
 24 25  1  0
 25 26  2  0
 26 27  1  0
 27 28  2  0
 28 29  1  0
 28 30  1  0
 30 31  2  0
 23 32  1  0
 32 33  2  0
 32  3  1  0
 22  5  1  0
 31 25  1  0
 21 10  1  0
 19 14  1  0
  1 34  1  0
  1 35  1  0
  1 36  1  0
  2 37  1  0
  2 38  1  0
  3 39  1  0
  4 40  1  0
  7 41  1  0
 11 42  1  0
 11 43  1  0
 12 44  1  0
 12 45  1  0
 15 46  1  0
 16 47  1  0
 17 48  1  0
 18 49  1  0
 20 50  1  0
 20 51  1  0
 21 52  1  0
 21 53  1  0
 24 54  1  0
 24 55  1  0
 26 56  1  0
 27 57  1  0
 30 58  1  0
 31 59  1  0
M  END
$$$$
