
     RDKit          3D

 39 40  0  0  0  0  0  0  0  0999 V2000
   -1.3453   -2.5459    1.7988 C   0  0  0  0  0  0  0  0  0  0  0  0
   -1.4423   -1.1442    1.2090 C   0  0  0  0  0  0  0  0  0  0  0  0
   -1.7236   -1.2791   -0.1933 O   0  0  0  0  0  0  0  0  0  0  0  0
   -2.8306   -0.5889   -0.6128 C   0  0  0  0  0  0  0  0  0  0  0  0
   -4.0909   -0.8575   -0.0717 C   0  0  0  0  0  0  0  0  0  0  0  0
   -5.2154   -0.1787   -0.5480 C   0  0  0  0  0  0  0  0  0  0  0  0
   -5.0742    0.7557   -1.5841 C   0  0  0  0  0  0  0  0  0  0  0  0
   -6.2565    1.4695   -2.0849 N   0  0  0  0  0  4  0  0  0  0  0  0
   -7.3490    1.2058   -1.5644 O   0  0  0  0  0  0  0  0  0  0  0  0
   -6.0905    2.2940   -2.9941 O   0  0  0  0  0  1  0  0  0  0  0  0
   -3.8199    1.0115   -2.1497 C   0  0  0  0  0  0  0  0  0  0  0  0
   -2.7028    0.3278   -1.6663 C   0  0  0  0  0  0  0  0  0  0  0  0
   -1.1681    0.6402   -2.3908 Cl  0  0  0  0  0  0  0  0  0  0  0  0
   -0.0968   -0.4224    1.4126 C   0  0  0  0  0  0  0  0  0  0  0  0
    0.1447    0.1641    2.4641 O   0  0  0  0  0  0  0  0  0  0  0  0
    0.7643   -0.5771    0.3403 N   0  0  0  0  0  0  0  0  0  0  0  0
    2.0800   -0.0996    0.2037 C   0  0  0  0  0  0  0  0  0  0  0  0
    2.7622    0.6013    1.1999 C   0  0  0  0  0  0  0  0  0  0  0  0
    4.0767    1.0410    0.9887 C   0  0  0  0  0  0  0  0  0  0  0  0
    4.7264    0.7705   -0.2210 C   0  0  0  0  0  0  0  0  0  0  0  0
    6.1216    1.2086   -0.4941 C   0  0  0  0  0  0  0  0  0  0  0  0
    6.9134    1.5151    0.5788 N   0  0  0  0  0  0  0  0  0  0  0  0
    6.5681    1.2568   -1.6333 O   0  0  0  0  0  0  0  0  0  0  0  0
    4.0403    0.0803   -1.2257 C   0  0  0  0  0  0  0  0  0  0  0  0
    2.7278   -0.3524   -1.0131 C   0  0  0  0  0  0  0  0  0  0  0  0
   -2.2917   -3.0862    1.6734 H   0  0  0  0  0  0  0  0  0  0  0  0
   -1.0995   -2.5102    2.8640 H   0  0  0  0  0  0  0  0  0  0  0  0
   -0.5720   -3.1351    1.2894 H   0  0  0  0  0  0  0  0  0  0  0  0
   -2.2050   -0.5578    1.7384 H   0  0  0  0  0  0  0  0  0  0  0  0
   -4.2118   -1.6025    0.7105 H   0  0  0  0  0  0  0  0  0  0  0  0
   -6.1872   -0.3884   -0.1077 H   0  0  0  0  0  0  0  0  0  0  0  0
   -3.7044    1.7289   -2.9592 H   0  0  0  0  0  0  0  0  0  0  0  0
    0.3582   -1.0339   -0.4726 H   0  0  0  0  0  0  0  0  0  0  0  0
    2.2961    0.8336    2.1549 H   0  0  0  0  0  0  0  0  0  0  0  0
    4.5608    1.6127    1.7746 H   0  0  0  0  0  0  0  0  0  0  0  0
    7.8900    1.6715    0.3642 H   0  0  0  0  0  0  0  0  0  0  0  0
    6.6980    1.1814    1.5078 H   0  0  0  0  0  0  0  0  0  0  0  0
    4.5260   -0.1240   -2.1794 H   0  0  0  0  0  0  0  0  0  0  0  0
    2.2229   -0.8863   -1.8150 H   0  0  0  0  0  0  0  0  0  0  0  0
  1  2  1  0
  2  3  1  0
  3  4  1  0
  4  5  2  0
  5  6  1  0
  6  7  2  0
  7  8  1  0
  8  9  2  0
  8 10  1  0
  7 11  1  0
 11 12  2  0
 12 13  1  0
  2 14  1  0
 14 15  2  0
 14 16  1  0
 16 17  1  0
 17 18  2  0
 18 19  1  0
 19 20  2  0
 20 21  1  0
 21 22  1  0
 21 23  2  0
 20 24  1  0
 24 25  2  0
 12  4  1  0
 25 17  1  0
  1 26  1  0
  1 27  1  0
  1 28  1  0
  2 29  1  0
  5 30  1  0
  6 31  1  0
 11 32  1  0
 16 33  1  0
 18 34  1  0
 19 35  1  0
 22 36  1  0
 22 37  1  0
 24 38  1  0
 25 39  1  0
M  CHG  2   8   1  10  -1
M  END
$$$$
