
     RDKit          3D

 85 88  0  0  0  0  0  0  0  0999 V2000
    5.4299   -7.0409   -0.4905 C   0  0  0  0  0  0  0  0  0  0  0  0
    5.3694   -5.8552   -1.2855 O   0  0  0  0  0  0  0  0  0  0  0  0
    4.5598   -4.8879   -0.7530 C   0  0  0  0  0  0  0  0  0  0  0  0
    3.2545   -5.1275   -0.3324 C   0  0  0  0  0  0  0  0  0  0  0  0
    2.4870   -4.0731    0.1712 C   0  0  0  0  0  0  0  0  0  0  0  0
    3.0142   -2.7811    0.2517 C   0  0  0  0  0  0  0  0  0  0  0  0
    2.1735   -1.7463    0.6993 N   0  0  0  0  0  0  0  0  0  0  0  0
    2.5884   -0.5161    1.1538 C   0  0  0  0  0  0  0  0  0  0  0  0
    3.7167   -0.2737    1.5703 O   0  0  0  0  0  0  0  0  0  0  0  0
    1.5655    0.4162    1.0381 N   0  0  0  0  0  0  0  0  0  0  0  0
    1.7239    1.7817    1.3743 C   0  0  0  0  0  0  0  0  0  0  0  0
    2.4585    2.1557    2.5043 C   0  0  0  0  0  0  0  0  0  0  0  0
    2.6723    3.5053    2.7951 C   0  0  0  0  0  0  0  0  0  0  0  0
    2.1756    4.4824    1.9402 C   0  0  0  0  0  0  0  0  0  0  0  0
    1.4229    4.1155    0.8167 C   0  0  0  0  0  0  0  0  0  0  0  0
    1.1563    2.7673    0.5498 C   0  0  0  0  0  0  0  0  0  0  0  0
    0.5120    2.4274   -0.6143 O   0  0  0  0  0  0  0  0  0  0  0  0
   -0.8690    2.0515   -0.4062 C   0  0  0  0  0  0  0  0  0  0  0  0
   -1.1466    0.9530   -1.4750 C   0  0  0  0  0  0  0  0  0  0  0  0
   -0.7113   -0.4066   -1.1053 N   0  0  0  0  0  0  0  0  0  0  0  0
    0.2033   -1.0781   -2.0288 C   0  0  0  0  0  0  0  0  0  0  0  0
   -1.5093   -1.0588   -0.1691 C   0  0  0  0  0  0  0  0  0  0  0  0
   -2.3047   -0.4535    0.5420 O   0  0  0  0  0  0  0  0  0  0  0  0
   -1.3539   -2.4210   -0.1126 N   0  0  0  0  0  0  0  0  0  0  0  0
   -2.2459   -3.2145    0.7326 C   0  0  0  0  0  0  0  0  0  0  0  0
   -3.6314   -3.3562    0.0700 C   0  0  0  0  0  0  0  0  0  0  0  0
   -4.5642   -4.2504    0.8909 C   0  0  0  0  0  0  0  0  0  0  0  0
   -3.9316   -5.6145    1.1753 C   0  0  0  0  0  0  0  0  0  0  0  0
   -2.5603   -5.4694    1.8331 C   0  0  0  0  0  0  0  0  0  0  0  0
   -1.6259   -4.5834    1.0102 C   0  0  0  0  0  0  0  0  0  0  0  0
   -1.8163    3.2715   -0.6298 C   0  0  0  0  0  0  0  0  0  0  0  0
   -3.2590    2.9167   -0.2209 C   0  0  0  0  0  0  0  0  0  0  0  0
   -1.4070    4.5369    0.1432 C   0  0  0  0  0  0  0  0  0  0  0  0
   -0.3266    5.2863   -0.5108 N   0  0  0  0  0  0  0  0  0  0  0  0
   -0.6536    6.4258   -1.4000 C   0  0  0  0  0  0  0  0  0  0  0  0
   -1.8257    6.1653   -2.3516 C   0  0  0  0  0  0  0  0  0  0  0  0
   -0.8728    7.7169   -0.5939 C   0  0  0  0  0  0  0  0  0  0  0  0
   -0.9043    8.8593   -1.4485 O   0  0  0  0  0  0  0  0  0  0  0  0
    1.0082    5.1952   -0.0978 C   0  0  0  0  0  0  0  0  0  0  0  0
    1.8654    6.0076   -0.4442 O   0  0  0  0  0  0  0  0  0  0  0  0
    4.3189   -2.5496   -0.1796 C   0  0  0  0  0  0  0  0  0  0  0  0
    5.0875   -3.5960   -0.6943 C   0  0  0  0  0  0  0  0  0  0  0  0
    5.5547   -6.8093    0.5799 H   0  0  0  0  0  0  0  0  0  0  0  0
    6.3051   -7.6163   -0.7988 H   0  0  0  0  0  0  0  0  0  0  0  0
    4.5513   -7.6752   -0.6441 H   0  0  0  0  0  0  0  0  0  0  0  0
    2.8215   -6.1218   -0.4078 H   0  0  0  0  0  0  0  0  0  0  0  0
    1.4705   -4.2772    0.4968 H   0  0  0  0  0  0  0  0  0  0  0  0
    1.2180   -1.9773    0.9320 H   0  0  0  0  0  0  0  0  0  0  0  0
    0.9490    0.2232    0.2646 H   0  0  0  0  0  0  0  0  0  0  0  0
    2.8960    1.4025    3.1617 H   0  0  0  0  0  0  0  0  0  0  0  0
    3.2469    3.7835    3.6721 H   0  0  0  0  0  0  0  0  0  0  0  0
    2.3913    5.5278    2.1401 H   0  0  0  0  0  0  0  0  0  0  0  0
   -1.0173    1.6614    0.6129 H   0  0  0  0  0  0  0  0  0  0  0  0
   -2.2120    0.8821   -1.6992 H   0  0  0  0  0  0  0  0  0  0  0  0
   -0.6462    1.2277   -2.4150 H   0  0  0  0  0  0  0  0  0  0  0  0
   -0.3537   -1.3565   -2.9339 H   0  0  0  0  0  0  0  0  0  0  0  0
    0.6219   -1.9808   -1.5803 H   0  0  0  0  0  0  0  0  0  0  0  0
    1.0205   -0.3925   -2.2748 H   0  0  0  0  0  0  0  0  0  0  0  0
   -1.1697   -2.8268   -1.0142 H   0  0  0  0  0  0  0  0  0  0  0  0
   -2.3618   -2.6834    1.6830 H   0  0  0  0  0  0  0  0  0  0  0  0
   -4.1113   -2.3779   -0.0611 H   0  0  0  0  0  0  0  0  0  0  0  0
   -3.5138   -3.7742   -0.9368 H   0  0  0  0  0  0  0  0  0  0  0  0
   -5.5071   -4.3853    0.3503 H   0  0  0  0  0  0  0  0  0  0  0  0
   -4.8058   -3.7558    1.8378 H   0  0  0  0  0  0  0  0  0  0  0  0
   -3.8356   -6.1717    0.2305 H   0  0  0  0  0  0  0  0  0  0  0  0
   -4.5973   -6.1867    1.8339 H   0  0  0  0  0  0  0  0  0  0  0  0
   -2.6772   -5.0354    2.8306 H   0  0  0  0  0  0  0  0  0  0  0  0
   -2.1194   -6.4625    1.9710 H   0  0  0  0  0  0  0  0  0  0  0  0
   -0.6719   -4.4644    1.5366 H   0  0  0  0  0  0  0  0  0  0  0  0
   -1.3844   -5.0803    0.0668 H   0  0  0  0  0  0  0  0  0  0  0  0
   -1.8226    3.5050   -1.7005 H   0  0  0  0  0  0  0  0  0  0  0  0
   -3.3026    2.5976    0.8261 H   0  0  0  0  0  0  0  0  0  0  0  0
   -3.6821    2.1184   -0.8384 H   0  0  0  0  0  0  0  0  0  0  0  0
   -3.9185    3.7878   -0.3406 H   0  0  0  0  0  0  0  0  0  0  0  0
   -2.2530    5.2255    0.2564 H   0  0  0  0  0  0  0  0  0  0  0  0
   -1.1271    4.2796    1.1734 H   0  0  0  0  0  0  0  0  0  0  0  0
    0.2114    6.5950   -2.0452 H   0  0  0  0  0  0  0  0  0  0  0  0
   -1.9867    7.0319   -3.0056 H   0  0  0  0  0  0  0  0  0  0  0  0
   -1.6314    5.3078   -3.0029 H   0  0  0  0  0  0  0  0  0  0  0  0
   -2.7566    5.9921   -1.8108 H   0  0  0  0  0  0  0  0  0  0  0  0
   -1.8204    7.6814   -0.0533 H   0  0  0  0  0  0  0  0  0  0  0  0
   -0.0768    7.8685    0.1486 H   0  0  0  0  0  0  0  0  0  0  0  0
    0.0082    8.9874   -1.7616 H   0  0  0  0  0  0  0  0  0  0  0  0
    4.7522   -1.5552   -0.1564 H   0  0  0  0  0  0  0  0  0  0  0  0
    6.0991   -3.4035   -1.0424 H   0  0  0  0  0  0  0  0  0  0  0  0
  1  2  1  0
  2  3  1  0
  3  4  2  0
  4  5  1  0
  5  6  2  0
  6  7  1  0
  7  8  1  0
  8  9  2  0
  8 10  1  0
 10 11  1  0
 11 12  2  0
 12 13  1  0
 13 14  2  0
 14 15  1  0
 15 16  2  0
 16 17  1  0
 17 18  1  0
 18 19  1  0
 19 20  1  0
 20 21  1  0
 20 22  1  0
 22 23  2  0
 22 24  1  0
 24 25  1  0
 25 26  1  0
 26 27  1  0
 27 28  1  0
 28 29  1  0
 29 30  1  0
 18 31  1  0
 31 32  1  0
 31 33  1  0
 33 34  1  0
 34 35  1  0
 35 36  1  0
 35 37  1  0
 37 38  1  0
 34 39  1  0
 39 40  2  0
  6 41  1  0
 41 42  2  0
 42  3  1  0
 16 11  1  0
 30 25  1  0
 39 15  1  0
  1 43  1  0
  1 44  1  0
  1 45  1  0
  4 46  1  0
  5 47  1  0
  7 48  1  0
 10 49  1  0
 12 50  1  0
 13 51  1  0
 14 52  1  0
 18 53  1  0
 19 54  1  0
 19 55  1  0
 21 56  1  0
 21 57  1  0
 21 58  1  0
 24 59  1  0
 25 60  1  0
 26 61  1  0
 26 62  1  0
 27 63  1  0
 27 64  1  0
 28 65  1  0
 28 66  1  0
 29 67  1  0
 29 68  1  0
 30 69  1  0
 30 70  1  0
 31 71  1  0
 32 72  1  0
 32 73  1  0
 32 74  1  0
 33 75  1  0
 33 76  1  0
 35 77  1  0
 36 78  1  0
 36 79  1  0
 36 80  1  0
 37 81  1  0
 37 82  1  0
 38 83  1  0
 41 84  1  0
 42 85  1  0
M  END
$$$$
