
     RDKit          3D

 88 93  0  0  0  0  0  0  0  0999 V2000
    1.3247   -0.4627   -3.8994 C   0  0  0  0  0  0  0  0  0  0  0  0
    1.7098   -1.3074   -2.7244 C   0  0  0  0  0  0  0  0  0  0  0  0
    2.5689   -2.1755   -2.7451 O   0  0  0  0  0  0  0  0  0  0  0  0
    0.9911   -0.9396   -1.6307 O   0  0  0  0  0  0  0  0  0  0  0  0
    1.2402   -1.6624   -0.4143 C   0  0  1  0  0  0  0  0  0  0  0  0
    2.1964   -0.9091    0.5486 C   0  0  1  0  0  0  0  0  0  0  0  0
    3.1763    0.0437   -0.1311 C   0  0  0  0  0  0  0  0  0  0  0  0
    4.0394    0.6080    0.8710 O   0  0  0  0  0  0  0  0  0  0  0  0
    4.3707    1.9131    0.7060 C   0  0  0  0  0  0  0  0  0  0  0  0
    3.9992    2.6397   -0.2023 O   0  0  0  0  0  0  0  0  0  0  0  0
    5.2553    2.3660    1.8139 C   0  0  0  0  0  0  0  0  0  0  0  0
    5.5662    3.7305    1.8977 C   0  0  0  0  0  0  0  0  0  0  0  0
    6.3920    4.2031    2.9195 C   0  0  0  0  0  0  0  0  0  0  0  0
    6.9158    3.3161    3.8597 C   0  0  0  0  0  0  0  0  0  0  0  0
    6.6159    1.9565    3.7810 C   0  0  0  0  0  0  0  0  0  0  0  0
    5.7871    1.4802    2.7618 C   0  0  0  0  0  0  0  0  0  0  0  0
    1.2876   -0.1983    1.5993 C   0  0  0  0  0  0  0  0  0  0  0  0
   -0.1537   -0.3257    1.0547 C   0  0  2  0  0  0  0  0  0  0  0  0
   -0.1885    0.7544    0.0841 O   0  0  0  0  0  0  0  0  0  0  0  0
   -1.3316    1.1949   -0.4730 C   0  0  0  0  0  0  0  0  0  0  0  0
   -2.4595    0.7845   -0.2570 O   0  0  0  0  0  0  0  0  0  0  0  0
   -1.0723    2.2431   -1.4846 C   0  0  0  0  0  0  0  0  0  0  0  0
    0.1467    2.7145   -1.7922 C   0  0  0  0  0  0  0  0  0  0  0  0
    0.4417    3.7199   -2.8270 C   0  0  0  0  0  0  0  0  0  0  0  0
   -0.4169    3.9917   -3.9008 C   0  0  0  0  0  0  0  0  0  0  0  0
   -0.0667    4.9327   -4.8744 C   0  0  0  0  0  0  0  0  0  0  0  0
    1.1503    5.6052   -4.7921 C   0  0  0  0  0  0  0  0  0  0  0  0
    2.0197    5.3351   -3.7390 C   0  0  0  0  0  0  0  0  0  0  0  0
    1.6699    4.3953   -2.7658 C   0  0  0  0  0  0  0  0  0  0  0  0
   -1.1825   -0.1647    2.2167 C   0  0  0  0  0  0  0  0  0  0  0  0
   -1.5176    0.9515    2.6240 O   0  0  0  0  0  0  0  0  0  0  0  0
   -1.6875   -1.3660    2.9645 C   0  0  0  0  0  0  0  0  0  0  0  0
   -0.8124   -1.8016    4.1014 C   0  0  0  0  0  0  0  0  0  0  0  0
   -2.8800   -1.9469    2.7071 C   0  0  0  0  0  0  0  0  0  0  0  0
   -3.8631   -1.6447    1.6472 C   0  0  0  0  0  0  0  0  0  0  0  0
   -4.2430   -2.7888    0.7028 C   0  0  2  0  0  0  0  0  0  0  0  0
   -4.2373   -2.5785   -0.7963 C   0  0  0  0  0  0  0  0  0  0  0  0
   -3.2132   -3.4456   -1.5722 C   0  0  0  0  0  0  0  0  0  0  0  0
   -1.7372   -3.2981   -1.2085 C   0  0  2  0  0  0  0  0  0  0  0  0
   -0.7626   -3.9797   -2.1110 C   0  0  0  0  0  0  0  0  0  0  0  0
   -1.5288   -3.5501    0.1643 O   0  0  0  0  0  0  0  0  0  0  0  0
   -1.2921   -2.1788   -0.2651 C   0  0  1  0  0  0  0  0  0  0  0  0
   -0.0420   -1.7348    0.4095 C   0  0  1  0  0  0  0  0  0  0  0  0
   -5.2861   -2.1783    1.6280 C   0  0  0  0  0  0  0  0  0  0  0  0
   -5.8049   -3.0401    2.7539 C   0  0  0  0  0  0  0  0  0  0  0  0
   -6.3456   -1.2651    1.0563 C   0  0  0  0  0  0  0  0  0  0  0  0
    1.7074   -0.9215   -4.8151 H   0  0  0  0  0  0  0  0  0  0  0  0
    1.7522    0.5364   -3.7896 H   0  0  0  0  0  0  0  0  0  0  0  0
    0.2356   -0.4056   -3.9793 H   0  0  0  0  0  0  0  0  0  0  0  0
    1.6179   -2.6684   -0.6244 H   0  0  0  0  0  0  0  0  0  0  0  0
    2.7802   -1.6509    1.1121 H   0  0  0  0  0  0  0  0  0  0  0  0
    3.8120   -0.5065   -0.8323 H   0  0  0  0  0  0  0  0  0  0  0  0
    2.6353    0.8172   -0.6845 H   0  0  0  0  0  0  0  0  0  0  0  0
    5.1636    4.4310    1.1686 H   0  0  0  0  0  0  0  0  0  0  0  0
    6.6250    5.2634    2.9820 H   0  0  0  0  0  0  0  0  0  0  0  0
    7.5598    3.6856    4.6541 H   0  0  0  0  0  0  0  0  0  0  0  0
    7.0285    1.2664    4.5136 H   0  0  0  0  0  0  0  0  0  0  0  0
    5.5708    0.4155    2.7157 H   0  0  0  0  0  0  0  0  0  0  0  0
    1.3950   -0.7069    2.5638 H   0  0  0  0  0  0  0  0  0  0  0  0
    1.5731    0.8479    1.7543 H   0  0  0  0  0  0  0  0  0  0  0  0
   -1.9710    2.5966   -1.9743 H   0  0  0  0  0  0  0  0  0  0  0  0
    1.0180    2.3558   -1.2506 H   0  0  0  0  0  0  0  0  0  0  0  0
   -1.3665    3.4748   -4.0066 H   0  0  0  0  0  0  0  0  0  0  0  0
   -0.7447    5.1372   -5.6992 H   0  0  0  0  0  0  0  0  0  0  0  0
    1.4212    6.3364   -5.5484 H   0  0  0  0  0  0  0  0  0  0  0  0
    2.9738    5.8517   -3.6728 H   0  0  0  0  0  0  0  0  0  0  0  0
    2.3707    4.1980   -1.9549 H   0  0  0  0  0  0  0  0  0  0  0  0
   -1.3298   -2.4936    4.7747 H   0  0  0  0  0  0  0  0  0  0  0  0
   -0.4984   -0.9390    4.6990 H   0  0  0  0  0  0  0  0  0  0  0  0
    0.0815   -2.3099    3.7264 H   0  0  0  0  0  0  0  0  0  0  0  0
   -3.1481   -2.7803    3.3541 H   0  0  0  0  0  0  0  0  0  0  0  0
   -3.7647   -0.6405    1.2424 H   0  0  0  0  0  0  0  0  0  0  0  0
   -3.9439   -3.8037    0.9514 H   0  0  0  0  0  0  0  0  0  0  0  0
   -4.0795   -1.5213   -1.0384 H   0  0  0  0  0  0  0  0  0  0  0  0
   -5.2333   -2.8342   -1.1767 H   0  0  0  0  0  0  0  0  0  0  0  0
   -3.3244   -3.2159   -2.6396 H   0  0  0  0  0  0  0  0  0  0  0  0
   -3.4870   -4.5015   -1.4474 H   0  0  0  0  0  0  0  0  0  0  0  0
   -1.1339   -4.9684   -2.4017 H   0  0  0  0  0  0  0  0  0  0  0  0
    0.2121   -4.1264   -1.6376 H   0  0  0  0  0  0  0  0  0  0  0  0
   -0.6187   -3.3909   -3.0216 H   0  0  0  0  0  0  0  0  0  0  0  0
   -2.0572   -1.4400   -0.1218 H   0  0  0  0  0  0  0  0  0  0  0  0
    0.1566   -2.4465    1.2268 H   0  0  0  0  0  0  0  0  0  0  0  0
   -6.7488   -3.5156    2.4652 H   0  0  0  0  0  0  0  0  0  0  0  0
   -5.9886   -2.4302    3.6444 H   0  0  0  0  0  0  0  0  0  0  0  0
   -5.1127   -3.8422    3.0262 H   0  0  0  0  0  0  0  0  0  0  0  0
   -5.9457   -0.5746    0.3073 H   0  0  0  0  0  0  0  0  0  0  0  0
   -7.1388   -1.8533    0.5839 H   0  0  0  0  0  0  0  0  0  0  0  0
   -6.7945   -0.6635    1.8528 H   0  0  0  0  0  0  0  0  0  0  0  0
  1  2  1  0
  2  3  2  0
  2  4  1  0
  4  5  1  0
  5  6  1  0
  6  7  1  0
  7  8  1  0
  8  9  1  0
  9 10  2  0
  9 11  1  0
 11 12  2  0
 12 13  1  0
 13 14  2  0
 14 15  1  0
 15 16  2  0
  6 17  1  0
 17 18  1  0
 18 19  1  6
 19 20  1  0
 20 21  2  0
 20 22  1  0
 22 23  2  0
 23 24  1  0
 24 25  2  0
 25 26  1  0
 26 27  2  0
 27 28  1  0
 28 29  2  0
 18 30  1  0
 30 31  2  0
 30 32  1  0
 32 33  1  0
 32 34  2  3
 34 35  1  0
 35 36  1  0
 36 37  1  0
 37 38  1  0
 38 39  1  0
 39 40  1  6
 39 41  1  0
 41 42  1  0
 42 43  1  0
 36 44  1  0
 44 45  1  0
 44 46  1  0
 43  5  1  0
 16 11  1  0
 43 18  1  0
 29 24  1  0
 44 35  1  0
 42 39  1  0
  1 47  1  0
  1 48  1  0
  1 49  1  0
  5 50  1  6
  6 51  1  1
  7 52  1  0
  7 53  1  0
 12 54  1  0
 13 55  1  0
 14 56  1  0
 15 57  1  0
 16 58  1  0
 17 59  1  0
 17 60  1  0
 22 61  1  0
 23 62  1  0
 25 63  1  0
 26 64  1  0
 27 65  1  0
 28 66  1  0
 29 67  1  0
 33 68  1  0
 33 69  1  0
 33 70  1  0
 34 71  1  0
 35 72  1  0
 36 73  1  6
 37 74  1  0
 37 75  1  0
 38 76  1  0
 38 77  1  0
 40 78  1  0
 40 79  1  0
 40 80  1  0
 42 81  1  1
 43 82  1  1
 45 83  1  0
 45 84  1  0
 45 85  1  0
 46 86  1  0
 46 87  1  0
 46 88  1  0
M  END
$$$$
