
     RDKit          3D

 34 37  0  0  0  0  0  0  0  0999 V2000
   -3.4283   -2.2040    1.9167 C   0  0  0  0  0  0  0  0  0  0  0  0
   -2.9127   -0.9699    1.4337 O   0  0  0  0  0  0  0  0  0  0  0  0
   -3.5742   -0.3730    0.3904 C   0  0  0  0  0  0  0  0  0  0  0  0
   -4.7371   -0.8723   -0.2055 C   0  0  0  0  0  0  0  0  0  0  0  0
   -5.3409   -0.1852   -1.2634 C   0  0  0  0  0  0  0  0  0  0  0  0
   -4.7853    1.0039   -1.7276 C   0  0  0  0  0  0  0  0  0  0  0  0
   -5.6067    1.9274   -3.1577 Br  0  0  0  0  0  0  0  0  0  0  0  0
   -3.6288    1.5172   -1.1465 C   0  0  0  0  0  0  0  0  0  0  0  0
   -3.0177    0.8312   -0.0880 C   0  0  0  0  0  0  0  0  0  0  0  0
   -1.7927    1.3966    0.4944 C   0  0  0  0  0  0  0  0  0  0  0  0
   -0.5495    0.9882    0.2063 C   0  0  0  0  0  0  0  0  0  0  0  0
   -0.0870   -0.2653   -0.9317 S   0  0  0  0  0  0  0  0  0  0  0  0
    1.5599   -0.0067   -0.5313 C   0  0  0  0  0  0  0  0  0  0  0  0
    2.6960   -0.5187   -0.9072 N   0  0  0  0  0  0  0  0  0  0  0  0
    3.5932    0.2163   -0.1428 C   0  0  0  0  0  0  0  0  0  0  0  0
    5.1368   -0.0197   -0.2243 C   0  0  0  0  0  0  0  0  0  0  0  0
    5.7614   -0.9498   -1.0334 C   0  0  0  0  0  0  0  0  0  0  0  0
    7.1522   -0.8283   -0.7964 C   0  0  0  0  0  0  0  0  0  0  0  0
    7.2921    0.1668    0.1414 C   0  0  0  0  0  0  0  0  0  0  0  0
    6.0790    0.6627    0.4943 O   0  0  0  0  0  0  0  0  0  0  0  0
    3.0372    1.1412    0.6662 N   0  0  0  0  0  0  0  0  0  0  0  0
    1.7357    0.9633    0.3878 N   0  0  0  0  0  0  0  0  0  0  0  0
    0.6263    1.6128    0.8849 C   0  0  0  0  0  0  0  0  0  0  0  0
    0.6653    2.5111    1.7057 O   0  0  0  0  0  0  0  0  0  0  0  0
   -2.7762   -2.5436    2.7271 H   0  0  0  0  0  0  0  0  0  0  0  0
   -3.4145   -2.9708    1.1352 H   0  0  0  0  0  0  0  0  0  0  0  0
   -4.4339   -2.0760    2.3303 H   0  0  0  0  0  0  0  0  0  0  0  0
   -5.2024   -1.7939    0.1288 H   0  0  0  0  0  0  0  0  0  0  0  0
   -6.2442   -0.5874   -1.7158 H   0  0  0  0  0  0  0  0  0  0  0  0
   -3.2013    2.4463   -1.5160 H   0  0  0  0  0  0  0  0  0  0  0  0
   -1.9590    2.1864    1.2252 H   0  0  0  0  0  0  0  0  0  0  0  0
    5.2633   -1.6301   -1.7106 H   0  0  0  0  0  0  0  0  0  0  0  0
    7.9526   -1.3944   -1.2516 H   0  0  0  0  0  0  0  0  0  0  0  0
    8.1412    0.6177    0.6363 H   0  0  0  0  0  0  0  0  0  0  0  0
  1  2  1  0
  2  3  1  0
  3  4  2  0
  4  5  1  0
  5  6  2  0
  6  7  1  0
  6  8  1  0
  8  9  2  0
  9 10  1  0
 10 11  2  3
 11 12  1  0
 12 13  1  0
 13 14  2  0
 14 15  1  0
 15 16  1  0
 16 17  2  0
 17 18  1  0
 18 19  2  0
 19 20  1  0
 15 21  2  0
 21 22  1  0
 22 23  1  0
 23 24  2  0
  9  3  1  0
 23 11  1  0
 22 13  1  0
 20 16  1  0
  1 25  1  0
  1 26  1  0
  1 27  1  0
  4 28  1  0
  5 29  1  0
  8 30  1  0
 10 31  1  0
 17 32  1  0
 18 33  1  0
 19 34  1  0
M  END
$$$$
