
     RDKit          3D

 74 79  0  0  0  0  0  0  0  0999 V2000
    8.9839    2.8963   -3.0475 C   0  0  0  0  0  0  0  0  0  0  0  0
    7.8423    3.5594   -2.5184 O   0  0  0  0  0  0  0  0  0  0  0  0
    6.9476    2.7835   -1.8330 C   0  0  0  0  0  0  0  0  0  0  0  0
    7.1039    1.4382   -1.5091 C   0  0  0  0  0  0  0  0  0  0  0  0
    6.0978    0.7629   -0.8051 C   0  0  0  0  0  0  0  0  0  0  0  0
    4.9111    1.4064   -0.4112 C   0  0  0  0  0  0  0  0  0  0  0  0
    3.8564    0.6671    0.3099 C   0  0  0  0  0  0  0  0  0  0  0  0
    2.5088    0.9076    0.1150 C   0  0  0  0  0  0  0  0  0  0  0  0
    1.5858    0.1412    0.8285 C   0  0  0  0  0  0  0  0  0  0  0  0
    0.1634    0.4265    0.5517 C   0  0  0  0  0  0  0  0  0  0  0  0
   -0.2466    1.5618    0.7636 O   0  0  0  0  0  0  0  0  0  0  0  0
   -0.5424   -0.6441    0.0580 N   0  0  0  0  0  0  0  0  0  0  0  0
   -1.8776   -0.6681   -0.3930 C   0  0  0  0  0  0  0  0  0  0  0  0
   -2.6629    0.4732   -0.5422 C   0  0  0  0  0  0  0  0  0  0  0  0
   -3.9720    0.3471   -1.0168 C   0  0  0  0  0  0  0  0  0  0  0  0
   -4.9444    1.8177   -1.2164 S   0  0  0  0  0  6  0  0  0  0  0  0
   -4.2732    2.6401   -2.1984 O   0  0  0  0  0  0  0  0  0  0  0  0
   -6.3322    1.4330   -1.3714 O   0  0  0  0  0  0  0  0  0  0  0  0
   -4.7992    2.5595    0.3042 N   0  0  0  0  0  0  0  0  0  0  0  0
   -5.0083    4.0399    0.2823 C   0  0  0  0  0  0  0  0  0  0  0  0
   -5.2492    4.5645    1.6982 C   0  0  0  0  0  0  0  0  0  0  0  0
   -6.4359    4.0227    2.3012 O   0  0  0  0  0  0  0  0  0  0  0  0
   -6.7503    2.6998    1.8437 C   0  0  0  0  0  0  0  0  0  0  0  0
   -5.5104    1.8949    1.4410 C   0  0  0  0  0  0  0  0  0  0  0  0
   -4.5034   -0.9013   -1.3421 C   0  0  0  0  0  0  0  0  0  0  0  0
   -3.7129   -2.0441   -1.1958 C   0  0  0  0  0  0  0  0  0  0  0  0
   -2.3941   -1.9458   -0.7266 C   0  0  0  0  0  0  0  0  0  0  0  0
   -1.5539   -3.0773   -0.5319 N   0  0  0  0  0  0  0  0  0  0  0  0
   -2.0055   -3.8929    0.6239 C   0  0  0  0  0  0  0  0  0  0  0  0
   -1.0115   -5.0458    0.8503 C   0  0  0  0  0  0  0  0  0  0  0  0
   -0.8740   -5.8601   -0.3246 O   0  0  0  0  0  0  0  0  0  0  0  0
   -0.4184   -5.0657   -1.4342 C   0  0  0  0  0  0  0  0  0  0  0  0
   -1.4023   -3.9224   -1.7425 C   0  0  0  0  0  0  0  0  0  0  0  0
    2.0035   -0.8245    1.7677 C   0  0  0  0  0  0  0  0  0  0  0  0
    1.1397   -1.5926    2.5920 C   0  0  0  0  0  0  0  0  0  0  0  0
    1.6472   -2.5162    3.5026 C   0  0  0  0  0  0  0  0  0  0  0  0
    3.0191   -2.6890    3.6068 C   0  0  0  0  0  0  0  0  0  0  0  0
    3.8708   -1.9298    2.8017 C   0  0  0  0  0  0  0  0  0  0  0  0
    3.3927   -0.9973    1.8896 C   0  0  0  0  0  0  0  0  0  0  0  0
    4.2845   -0.2904    1.1711 N   0  0  0  0  0  0  0  0  0  0  0  0
    4.7813    2.7679   -0.7321 C   0  0  0  0  0  0  0  0  0  0  0  0
    5.7871    3.4452   -1.4325 C   0  0  0  0  0  0  0  0  0  0  0  0
    9.6314    2.5288   -2.2441 H   0  0  0  0  0  0  0  0  0  0  0  0
    9.5518    3.6228   -3.6321 H   0  0  0  0  0  0  0  0  0  0  0  0
    8.6924    2.0862   -3.7258 H   0  0  0  0  0  0  0  0  0  0  0  0
    7.9920    0.8792   -1.7827 H   0  0  0  0  0  0  0  0  0  0  0  0
    6.2447   -0.2897   -0.5639 H   0  0  0  0  0  0  0  0  0  0  0  0
    2.1629    1.6574   -0.5903 H   0  0  0  0  0  0  0  0  0  0  0  0
   -0.0966   -1.5577   -0.0052 H   0  0  0  0  0  0  0  0  0  0  0  0
   -2.2760    1.4618   -0.3150 H   0  0  0  0  0  0  0  0  0  0  0  0
   -5.8726    4.2828   -0.3472 H   0  0  0  0  0  0  0  0  0  0  0  0
   -4.1138    4.5130   -0.1350 H   0  0  0  0  0  0  0  0  0  0  0  0
   -5.3538    5.6556    1.6857 H   0  0  0  0  0  0  0  0  0  0  0  0
   -4.4034    4.3227    2.3518 H   0  0  0  0  0  0  0  0  0  0  0  0
   -7.2888    2.1924    2.6515 H   0  0  0  0  0  0  0  0  0  0  0  0
   -7.4445    2.7942    0.9999 H   0  0  0  0  0  0  0  0  0  0  0  0
   -4.8029    1.8403    2.2777 H   0  0  0  0  0  0  0  0  0  0  0  0
   -5.7976    0.8681    1.1917 H   0  0  0  0  0  0  0  0  0  0  0  0
   -5.5223   -0.9953   -1.7153 H   0  0  0  0  0  0  0  0  0  0  0  0
   -4.1410   -3.0096   -1.4484 H   0  0  0  0  0  0  0  0  0  0  0  0
   -3.0011   -4.3107    0.4273 H   0  0  0  0  0  0  0  0  0  0  0  0
   -2.0604   -3.2781    1.5291 H   0  0  0  0  0  0  0  0  0  0  0  0
   -0.0246   -4.6642    1.1340 H   0  0  0  0  0  0  0  0  0  0  0  0
   -1.3670   -5.6905    1.6586 H   0  0  0  0  0  0  0  0  0  0  0  0
   -0.3292   -5.7287   -2.3008 H   0  0  0  0  0  0  0  0  0  0  0  0
    0.5801   -4.6725   -1.2036 H   0  0  0  0  0  0  0  0  0  0  0  0
   -2.3639   -4.3594   -2.0335 H   0  0  0  0  0  0  0  0  0  0  0  0
   -1.0165   -3.3264   -2.5784 H   0  0  0  0  0  0  0  0  0  0  0  0
    0.0614   -1.4579    2.5473 H   0  0  0  0  0  0  0  0  0  0  0  0
    0.9724   -3.0901    4.1327 H   0  0  0  0  0  0  0  0  0  0  0  0
    3.4327   -3.3974    4.3202 H   0  0  0  0  0  0  0  0  0  0  0  0
    4.9472   -2.0549    2.9000 H   0  0  0  0  0  0  0  0  0  0  0  0
    3.9007    3.3287   -0.4264 H   0  0  0  0  0  0  0  0  0  0  0  0
    5.6601    4.4995   -1.6708 H   0  0  0  0  0  0  0  0  0  0  0  0
  1  2  1  0
  2  3  1  0
  3  4  2  0
  4  5  1  0
  5  6  2  0
  6  7  1  0
  7  8  2  0
  8  9  1  0
  9 10  1  0
 10 11  2  0
 10 12  1  0
 12 13  1  0
 13 14  2  0
 14 15  1  0
 15 16  1  0
 16 17  2  0
 16 18  2  0
 16 19  1  0
 19 20  1  0
 20 21  1  0
 21 22  1  0
 22 23  1  0
 23 24  1  0
 15 25  2  0
 25 26  1  0
 26 27  2  0
 27 28  1  0
 28 29  1  0
 29 30  1  0
 30 31  1  0
 31 32  1  0
 32 33  1  0
  9 34  2  0
 34 35  1  0
 35 36  2  0
 36 37  1  0
 37 38  2  0
 38 39  1  0
 39 40  2  0
  6 41  1  0
 41 42  2  0
 42  3  1  0
 40  7  1  0
 27 13  1  0
 33 28  1  0
 39 34  1  0
 24 19  1  0
  1 43  1  0
  1 44  1  0
  1 45  1  0
  4 46  1  0
  5 47  1  0
  8 48  1  0
 12 49  1  0
 14 50  1  0
 20 51  1  0
 20 52  1  0
 21 53  1  0
 21 54  1  0
 23 55  1  0
 23 56  1  0
 24 57  1  0
 24 58  1  0
 25 59  1  0
 26 60  1  0
 29 61  1  0
 29 62  1  0
 30 63  1  0
 30 64  1  0
 32 65  1  0
 32 66  1  0
 33 67  1  0
 33 68  1  0
 35 69  1  0
 36 70  1  0
 37 71  1  0
 38 72  1  0
 41 73  1  0
 42 74  1  0
M  END
$$$$
