
     RDKit          3D

 63 67  0  0  0  0  0  0  0  0999 V2000
    7.7456   -0.2773   -4.0044 C   0  0  0  0  0  0  0  0  0  0  0  0
    7.2318    1.0098   -3.3873 C   0  0  0  0  0  0  0  0  0  0  0  0
    6.4123    0.7176   -2.2476 O   0  0  0  0  0  0  0  0  0  0  0  0
    5.0902    0.4997   -2.5058 C   0  0  0  0  0  0  0  0  0  0  0  0
    4.5819    0.5412   -3.6197 O   0  0  0  0  0  0  0  0  0  0  0  0
    4.3274    0.2032   -1.2990 C   0  0  0  0  0  0  0  0  0  0  0  0
    2.9343   -0.0828   -1.2133 C   0  0  0  0  0  0  0  0  0  0  0  0
    2.6140   -0.2922    0.1158 C   0  0  0  0  0  0  0  0  0  0  0  0
    1.3552   -0.6178    0.7668 C   0  0  0  0  0  0  0  0  0  0  0  0
    0.1535   -0.6871    0.0631 N   0  0  0  0  0  0  0  0  0  0  0  0
   -0.3437    0.5428   -0.5872 C   0  0  0  0  0  0  0  0  0  0  0  0
   -1.2336    1.3609    0.3800 C   0  0  0  0  0  0  0  0  0  0  0  0
   -2.3724    0.6126    0.9691 N   0  0  0  0  0  0  0  0  0  0  0  0
   -3.4340    0.3869   -0.0273 C   0  0  0  0  0  0  0  0  0  0  0  0
   -4.7463   -0.1295    0.5930 C   0  0  0  0  0  0  0  0  0  0  0  0
   -5.8705   -0.1719   -0.4257 C   0  0  0  0  0  0  0  0  0  0  0  0
   -5.9212   -1.2636   -1.3153 C   0  0  0  0  0  0  0  0  0  0  0  0
   -6.9144   -1.3491   -2.2899 C   0  0  0  0  0  0  0  0  0  0  0  0
   -7.8735   -0.3476   -2.3933 C   0  0  0  0  0  0  0  0  0  0  0  0
   -7.8403    0.7409   -1.5202 C   0  0  0  0  0  0  0  0  0  0  0  0
   -6.8432    0.8509   -0.5303 C   0  0  0  0  0  0  0  0  0  0  0  0
   -6.8541    2.0564    0.3902 C   0  0  0  0  0  0  0  0  0  0  0  0
   -7.8081    2.9790    0.0684 F   0  0  0  0  0  0  0  0  0  0  0  0
   -5.6740    2.7382    0.3795 F   0  0  0  0  0  0  0  0  0  0  0  0
   -7.0936    1.7237    1.6896 F   0  0  0  0  0  0  0  0  0  0  0  0
   -1.8415   -0.6350    1.5720 C   0  0  0  0  0  0  0  0  0  0  0  0
   -0.9504   -1.4838    0.6361 C   0  0  0  0  0  0  0  0  0  0  0  0
    1.3644   -0.8683    2.0512 N   0  0  0  0  0  0  0  0  0  0  0  0
    2.5577   -0.7715    2.7935 C   0  0  0  0  0  0  0  0  0  0  0  0
    2.5068   -1.0196    4.1661 C   0  0  0  0  0  0  0  0  0  0  0  0
    3.6601   -0.9298    4.9501 C   0  0  0  0  0  0  0  0  0  0  0  0
    4.8806   -0.5884    4.3652 C   0  0  0  0  0  0  0  0  0  0  0  0
    4.9551   -0.3349    2.9955 C   0  0  0  0  0  0  0  0  0  0  0  0
    3.7924   -0.4272    2.2247 C   0  0  0  0  0  0  0  0  0  0  0  0
    3.7779   -0.1939    0.8405 N   0  0  0  0  0  0  0  0  0  0  0  0
    4.8128    0.1343   -0.0017 C   0  0  0  0  0  0  0  0  0  0  0  0
    8.2863   -0.8715   -3.2613 H   0  0  0  0  0  0  0  0  0  0  0  0
    6.9180   -0.8955   -4.3652 H   0  0  0  0  0  0  0  0  0  0  0  0
    8.4165   -0.0660   -4.8429 H   0  0  0  0  0  0  0  0  0  0  0  0
    6.6954    1.6206   -4.1217 H   0  0  0  0  0  0  0  0  0  0  0  0
    8.0749    1.6086   -3.0296 H   0  0  0  0  0  0  0  0  0  0  0  0
    2.2434   -0.1308   -2.0460 H   0  0  0  0  0  0  0  0  0  0  0  0
    0.4784    1.1793   -0.9293 H   0  0  0  0  0  0  0  0  0  0  0  0
   -0.9118    0.2630   -1.4820 H   0  0  0  0  0  0  0  0  0  0  0  0
   -1.5981    2.2610   -0.1303 H   0  0  0  0  0  0  0  0  0  0  0  0
   -0.6102    1.7259    1.2070 H   0  0  0  0  0  0  0  0  0  0  0  0
   -3.6569    1.3442   -0.5165 H   0  0  0  0  0  0  0  0  0  0  0  0
   -3.1059   -0.2911   -0.8238 H   0  0  0  0  0  0  0  0  0  0  0  0
   -5.0272    0.4876    1.4530 H   0  0  0  0  0  0  0  0  0  0  0  0
   -4.6144   -1.1427    0.9926 H   0  0  0  0  0  0  0  0  0  0  0  0
   -5.1805   -2.0596   -1.2516 H   0  0  0  0  0  0  0  0  0  0  0  0
   -6.9395   -2.1987   -2.9694 H   0  0  0  0  0  0  0  0  0  0  0  0
   -8.6490   -0.4132   -3.1526 H   0  0  0  0  0  0  0  0  0  0  0  0
   -8.6028    1.5142   -1.6179 H   0  0  0  0  0  0  0  0  0  0  0  0
   -2.6537   -1.2557    1.9632 H   0  0  0  0  0  0  0  0  0  0  0  0
   -1.2583   -0.3466    2.4559 H   0  0  0  0  0  0  0  0  0  0  0  0
   -1.5517   -1.8853   -0.1882 H   0  0  0  0  0  0  0  0  0  0  0  0
   -0.5618   -2.3557    1.1759 H   0  0  0  0  0  0  0  0  0  0  0  0
    1.5581   -1.2822    4.6262 H   0  0  0  0  0  0  0  0  0  0  0  0
    3.6034   -1.1258    6.0180 H   0  0  0  0  0  0  0  0  0  0  0  0
    5.7744   -0.5193    4.9809 H   0  0  0  0  0  0  0  0  0  0  0  0
    5.9150   -0.0727    2.5635 H   0  0  0  0  0  0  0  0  0  0  0  0
    5.8191    0.2815    0.3659 H   0  0  0  0  0  0  0  0  0  0  0  0
  1  2  1  0
  2  3  1  0
  3  4  1  0
  4  5  2  0
  4  6  1  0
  6  7  1  0
  7  8  2  0
  8  9  1  0
  9 10  1  0
 10 11  1  0
 11 12  1  0
 12 13  1  0
 13 14  1  0
 14 15  1  0
 15 16  1  0
 16 17  2  0
 17 18  1  0
 18 19  2  0
 19 20  1  0
 20 21  2  0
 21 22  1  0
 22 23  1  0
 22 24  1  0
 22 25  1  0
 13 26  1  0
 26 27  1  0
  9 28  2  0
 28 29  1  0
 29 30  2  0
 30 31  1  0
 31 32  2  0
 32 33  1  0
 33 34  2  0
 34 35  1  0
 35 36  1  0
 36  6  2  0
 35  8  1  0
 27 10  1  0
 34 29  1  0
 21 16  1  0
  1 37  1  0
  1 38  1  0
  1 39  1  0
  2 40  1  0
  2 41  1  0
  7 42  1  0
 11 43  1  0
 11 44  1  0
 12 45  1  0
 12 46  1  0
 14 47  1  0
 14 48  1  0
 15 49  1  0
 15 50  1  0
 17 51  1  0
 18 52  1  0
 19 53  1  0
 20 54  1  0
 26 55  1  0
 26 56  1  0
 27 57  1  0
 27 58  1  0
 30 59  1  0
 31 60  1  0
 32 61  1  0
 33 62  1  0
 36 63  1  0
M  END
$$$$
