
     RDKit          3D

 46 49  0  0  0  0  0  0  0  0999 V2000
   -6.7776   -0.1283   -0.8787 C   0  0  0  0  0  0  0  0  0  0  0  0
   -6.0215    0.8606   -0.0087 C   0  0  0  0  0  0  0  0  0  0  0  0
   -4.8295    0.2703    0.5112 O   0  0  0  0  0  0  0  0  0  0  0  0
   -3.6717    0.3662   -0.2196 C   0  0  0  0  0  0  0  0  0  0  0  0
   -3.5499    0.8911   -1.5024 C   0  0  0  0  0  0  0  0  0  0  0  0
   -2.2996    0.9296   -2.1182 C   0  0  0  0  0  0  0  0  0  0  0  0
   -1.1714    0.4361   -1.4563 C   0  0  0  0  0  0  0  0  0  0  0  0
   -1.2543   -0.1183   -0.1630 C   0  0  0  0  0  0  0  0  0  0  0  0
   -0.0419   -0.6382    0.4916 C   0  0  0  0  0  0  0  0  0  0  0  0
   -0.1568   -1.7239    1.2852 N   0  0  0  0  0  0  0  0  0  0  0  0
    0.9809   -2.1906    1.8518 C   0  0  0  0  0  0  0  0  0  0  0  0
    0.8455   -3.3738    2.7443 C   0  0  0  0  0  0  0  0  0  0  0  0
   -0.4335   -3.8268    2.9243 N   0  0  0  0  0  0  0  0  0  0  0  0
    1.8079   -3.9021    3.2870 O   0  0  0  0  0  0  0  0  0  0  0  0
    2.1904   -1.6108    1.6200 C   0  0  0  0  0  0  0  0  0  0  0  0
    3.4741   -1.9074    2.0484 N   0  0  0  0  0  0  0  0  0  0  0  0
    4.3598   -0.9837    1.4786 C   0  0  0  0  0  0  0  0  0  0  0  0
    5.5625   -0.9965    1.6814 O   0  0  0  0  0  0  0  0  0  0  0  0
    3.5680   -0.0954    0.6870 N   0  0  0  0  0  0  0  0  0  0  0  0
    4.0299    1.0054   -0.0847 C   0  0  0  0  0  0  0  0  0  0  0  0
    3.1628    1.9669   -0.6318 C   0  0  0  0  0  0  0  0  0  0  0  0
    3.6390    3.0455   -1.3893 C   0  0  0  0  0  0  0  0  0  0  0  0
    5.0015    3.1899   -1.6176 C   0  0  0  0  0  0  0  0  0  0  0  0
    5.8789    2.2559   -1.0822 C   0  0  0  0  0  0  0  0  0  0  0  0
    7.5698    2.4252   -1.3622 Cl  0  0  0  0  0  0  0  0  0  0  0  0
    5.4036    1.1803   -0.3241 C   0  0  0  0  0  0  0  0  0  0  0  0
    2.2166   -0.5147    0.7923 C   0  0  0  0  0  0  0  0  0  0  0  0
    1.1251   -0.0155    0.2025 N   0  0  0  0  0  0  0  0  0  0  0  0
   -2.5269   -0.1338    0.4336 C   0  0  0  0  0  0  0  0  0  0  0  0
   -2.6936   -0.6198    1.7115 O   0  0  0  0  0  0  0  0  0  0  0  0
   -6.1940   -0.4167   -1.7580 H   0  0  0  0  0  0  0  0  0  0  0  0
   -7.7258    0.3002   -1.2158 H   0  0  0  0  0  0  0  0  0  0  0  0
   -6.9855   -1.0478   -0.3213 H   0  0  0  0  0  0  0  0  0  0  0  0
   -6.6465    1.1055    0.8577 H   0  0  0  0  0  0  0  0  0  0  0  0
   -5.8328    1.8111   -0.5193 H   0  0  0  0  0  0  0  0  0  0  0  0
   -4.4002    1.2744   -2.0553 H   0  0  0  0  0  0  0  0  0  0  0  0
   -2.1997    1.3419   -3.1199 H   0  0  0  0  0  0  0  0  0  0  0  0
   -0.2099    0.4774   -1.9682 H   0  0  0  0  0  0  0  0  0  0  0  0
   -0.6107   -4.5937    3.5565 H   0  0  0  0  0  0  0  0  0  0  0  0
   -1.2093   -3.3211    2.5056 H   0  0  0  0  0  0  0  0  0  0  0  0
    3.7337   -2.6698    2.6636 H   0  0  0  0  0  0  0  0  0  0  0  0
    2.0912    1.9330   -0.4672 H   0  0  0  0  0  0  0  0  0  0  0  0
    2.9392    3.7737   -1.7921 H   0  0  0  0  0  0  0  0  0  0  0  0
    5.3707    4.0262   -2.2042 H   0  0  0  0  0  0  0  0  0  0  0  0
    6.1377    0.4764    0.0563 H   0  0  0  0  0  0  0  0  0  0  0  0
   -3.6465   -0.5140    1.9024 H   0  0  0  0  0  0  0  0  0  0  0  0
  1  2  1  0
  2  3  1  0
  3  4  1  0
  4  5  2  0
  5  6  1  0
  6  7  2  0
  7  8  1  0
  8  9  1  0
  9 10  2  0
 10 11  1  0
 11 12  1  0
 12 13  1  0
 12 14  2  0
 11 15  2  0
 15 16  1  0
 16 17  1  0
 17 18  2  0
 17 19  1  0
 19 20  1  0
 20 21  2  0
 21 22  1  0
 22 23  2  0
 23 24  1  0
 24 25  1  0
 24 26  2  0
 19 27  1  0
 27 28  2  0
  8 29  2  0
 29 30  1  0
 29  4  1  0
 28  9  1  0
 27 15  1  0
 26 20  1  0
  1 31  1  0
  1 32  1  0
  1 33  1  0
  2 34  1  0
  2 35  1  0
  5 36  1  0
  6 37  1  0
  7 38  1  0
 13 39  1  0
 13 40  1  0
 16 41  1  0
 21 42  1  0
 22 43  1  0
 23 44  1  0
 26 45  1  0
 30 46  1  0
M  END
$$$$
