
     RDKit          3D

 33 34  0  0  0  0  0  0  0  0999 V2000
   -2.8040   -0.7074   -1.7779 N   0  0  0  0  0  0  0  0  0  0  0  0
   -2.5207   -0.0364   -0.6988 C   0  0  0  0  0  0  0  0  0  0  0  0
   -1.3276    0.6401   -0.5856 N   0  0  0  0  0  0  0  0  0  0  0  0
   -0.2995    0.0874   -1.3733 O   0  0  0  0  0  0  0  0  0  0  0  0
    0.9388    0.2671   -0.7996 C   0  0  0  0  0  0  0  0  0  0  0  0
    1.1102    0.8244    0.2772 O   0  0  0  0  0  0  0  0  0  0  0  0
    1.9923   -0.3311   -1.7027 C   0  0  0  0  0  0  0  0  0  0  0  0
    3.4003   -0.2067   -1.1738 C   0  0  0  0  0  0  0  0  0  0  0  0
    4.1821    0.9140   -1.4877 C   0  0  0  0  0  0  0  0  0  0  0  0
    5.4804    1.0322   -0.9890 C   0  0  0  0  0  0  0  0  0  0  0  0
    6.0072    0.0365   -0.1690 C   0  0  0  0  0  0  0  0  0  0  0  0
    5.2356   -1.0772    0.1566 C   0  0  0  0  0  0  0  0  0  0  0  0
    3.9370   -1.1984   -0.3405 C   0  0  0  0  0  0  0  0  0  0  0  0
   -3.5523    0.0194    0.3893 C   0  0  0  0  0  0  0  0  0  0  0  0
   -4.8968   -0.1179   -0.0025 C   0  0  0  0  0  0  0  0  0  0  0  0
   -5.9304   -0.0595    0.9348 C   0  0  0  0  0  0  0  0  0  0  0  0
   -5.6352    0.1326    2.2801 C   0  0  0  0  0  0  0  0  0  0  0  0
   -4.3069    0.2585    2.6865 C   0  0  0  0  0  0  0  0  0  0  0  0
   -3.2647    0.1997    1.7498 C   0  0  0  0  0  0  0  0  0  0  0  0
   -1.6603    0.3110    2.3815 Cl  0  0  0  0  0  0  0  0  0  0  0  0
   -1.9996   -0.6020   -2.4063 H   0  0  0  0  0  0  0  0  0  0  0  0
   -1.0135    0.8847    0.3603 H   0  0  0  0  0  0  0  0  0  0  0  0
    1.9294    0.1615   -2.6806 H   0  0  0  0  0  0  0  0  0  0  0  0
    1.7572   -1.3917   -1.8533 H   0  0  0  0  0  0  0  0  0  0  0  0
    3.7860    1.7063   -2.1191 H   0  0  0  0  0  0  0  0  0  0  0  0
    6.0795    1.9048   -1.2360 H   0  0  0  0  0  0  0  0  0  0  0  0
    7.0167    0.1316    0.2220 H   0  0  0  0  0  0  0  0  0  0  0  0
    5.6437   -1.8497    0.8032 H   0  0  0  0  0  0  0  0  0  0  0  0
    3.3477   -2.0710   -0.0676 H   0  0  0  0  0  0  0  0  0  0  0  0
   -5.1452   -0.2681   -1.0524 H   0  0  0  0  0  0  0  0  0  0  0  0
   -6.9627   -0.1659    0.6098 H   0  0  0  0  0  0  0  0  0  0  0  0
   -6.4367    0.1765    3.0135 H   0  0  0  0  0  0  0  0  0  0  0  0
   -4.0878    0.3945    3.7435 H   0  0  0  0  0  0  0  0  0  0  0  0
  1  2  2  3
  2  3  1  0
  3  4  1  0
  4  5  1  0
  5  6  2  0
  5  7  1  0
  7  8  1  0
  8  9  2  0
  9 10  1  0
 10 11  2  0
 11 12  1  0
 12 13  2  0
  2 14  1  0
 14 15  2  0
 15 16  1  0
 16 17  2  0
 17 18  1  0
 18 19  2  0
 19 20  1  0
 13  8  1  0
 19 14  1  0
  1 21  1  0
  3 22  1  0
  7 23  1  0
  7 24  1  0
  9 25  1  0
 10 26  1  0
 11 27  1  0
 12 28  1  0
 13 29  1  0
 15 30  1  0
 16 31  1  0
 17 32  1  0
 18 33  1  0
M  END
$$$$
