
     RDKit          3D

 50 53  0  0  0  0  0  0  0  0999 V2000
    8.0011   -1.6256    0.5448 C   0  0  0  0  0  0  0  0  0  0  0  0
    7.6576   -0.3750    1.3295 C   0  0  0  0  0  0  0  0  0  0  0  0
    6.8916    0.5313    0.5390 O   0  0  0  0  0  0  0  0  0  0  0  0
    5.5350    0.4046    0.4722 C   0  0  0  0  0  0  0  0  0  0  0  0
    4.7839   -0.5747    1.1282 C   0  0  0  0  0  0  0  0  0  0  0  0
    3.3839   -0.5887    1.0276 C   0  0  0  0  0  0  0  0  0  0  0  0
    2.7063    0.3846    0.2806 C   0  0  0  0  0  0  0  0  0  0  0  0
    1.2179    0.3312    0.2171 C   0  0  0  0  0  0  0  0  0  0  0  0
    0.6790   -0.7672    0.2724 O   0  0  0  0  0  0  0  0  0  0  0  0
    0.5931    1.5624    0.1469 N   0  0  0  0  0  0  0  0  0  0  0  0
   -0.7877    1.8115   -0.0100 C   0  0  0  0  0  0  0  0  0  0  0  0
   -1.2054    3.1476    0.0652 C   0  0  0  0  0  0  0  0  0  0  0  0
   -2.5509    3.4856   -0.0918 C   0  0  0  0  0  0  0  0  0  0  0  0
   -3.4933    2.4890   -0.3332 C   0  0  0  0  0  0  0  0  0  0  0  0
   -3.0912    1.1506   -0.4233 C   0  0  0  0  0  0  0  0  0  0  0  0
   -4.0882    0.0992   -0.6794 C   0  0  0  0  0  0  0  0  0  0  0  0
   -4.7520   -0.4191    0.3656 C   0  0  0  0  0  0  0  0  0  0  0  0
   -5.7543   -1.4517    0.1604 C   0  0  0  0  0  0  0  0  0  0  0  0
   -6.4681   -2.0161    1.2193 C   0  0  0  0  0  0  0  0  0  0  0  0
   -7.4254   -3.0050    0.9702 C   0  0  0  0  0  0  0  0  0  0  0  0
   -7.6720   -3.4336   -0.3353 C   0  0  0  0  0  0  0  0  0  0  0  0
   -6.9608   -2.8766   -1.3958 C   0  0  0  0  0  0  0  0  0  0  0  0
   -6.0113   -1.8923   -1.1325 C   0  0  0  0  0  0  0  0  0  0  0  0
   -5.3145   -1.3541   -2.2298 O   0  0  0  0  0  0  0  0  0  0  0  0
   -4.3505   -0.3624   -2.0706 C   0  0  0  0  0  0  0  0  0  0  0  0
   -3.7561    0.1025   -3.0385 O   0  0  0  0  0  0  0  0  0  0  0  0
   -1.7375    0.8173   -0.2573 C   0  0  0  0  0  0  0  0  0  0  0  0
    3.4386    1.3514   -0.4090 C   0  0  0  0  0  0  0  0  0  0  0  0
    4.8380    1.3410   -0.3042 C   0  0  0  0  0  0  0  0  0  0  0  0
    5.5640    2.3624   -1.0329 N   0  0  0  0  0  4  0  0  0  0  0  0
    6.3422    1.9921   -1.9215 O   0  0  0  0  0  0  0  0  0  0  0  0
    5.2941    3.5397   -0.7488 O   0  0  0  0  0  1  0  0  0  0  0  0
    7.1047   -2.1906    0.2750 H   0  0  0  0  0  0  0  0  0  0  0  0
    8.6577   -2.2774    1.1246 H   0  0  0  0  0  0  0  0  0  0  0  0
    8.5061   -1.3601   -0.3885 H   0  0  0  0  0  0  0  0  0  0  0  0
    7.1805   -0.5979    2.2881 H   0  0  0  0  0  0  0  0  0  0  0  0
    8.5903    0.1443    1.5747 H   0  0  0  0  0  0  0  0  0  0  0  0
    5.2475   -1.3522    1.7272 H   0  0  0  0  0  0  0  0  0  0  0  0
    2.8191   -1.3662    1.5424 H   0  0  0  0  0  0  0  0  0  0  0  0
    1.1660    2.3845    0.2850 H   0  0  0  0  0  0  0  0  0  0  0  0
   -0.4909    3.9467    0.2475 H   0  0  0  0  0  0  0  0  0  0  0  0
   -2.8631    4.5260   -0.0329 H   0  0  0  0  0  0  0  0  0  0  0  0
   -4.5383    2.7627   -0.4625 H   0  0  0  0  0  0  0  0  0  0  0  0
   -4.5602   -0.0883    1.3810 H   0  0  0  0  0  0  0  0  0  0  0  0
   -6.2880   -1.6991    2.2425 H   0  0  0  0  0  0  0  0  0  0  0  0
   -7.9808   -3.4429    1.7967 H   0  0  0  0  0  0  0  0  0  0  0  0
   -8.4162   -4.2034   -0.5231 H   0  0  0  0  0  0  0  0  0  0  0  0
   -7.1430   -3.2062   -2.4140 H   0  0  0  0  0  0  0  0  0  0  0  0
   -1.4462   -0.2255   -0.3450 H   0  0  0  0  0  0  0  0  0  0  0  0
    2.9476    2.0843   -1.0438 H   0  0  0  0  0  0  0  0  0  0  0  0
  1  2  1  0
  2  3  1  0
  3  4  1  0
  4  5  2  0
  5  6  1  0
  6  7  2  0
  7  8  1  0
  8  9  2  0
  8 10  1  0
 10 11  1  0
 11 12  2  0
 12 13  1  0
 13 14  2  0
 14 15  1  0
 15 16  1  0
 16 17  2  0
 17 18  1  0
 18 19  2  0
 19 20  1  0
 20 21  2  0
 21 22  1  0
 22 23  2  0
 23 24  1  0
 24 25  1  0
 25 26  2  0
 15 27  2  0
  7 28  1  0
 28 29  2  0
 29 30  1  0
 30 31  2  0
 30 32  1  0
 29  4  1  0
 27 11  1  0
 25 16  1  0
 23 18  1  0
  1 33  1  0
  1 34  1  0
  1 35  1  0
  2 36  1  0
  2 37  1  0
  5 38  1  0
  6 39  1  0
 10 40  1  0
 12 41  1  0
 13 42  1  0
 14 43  1  0
 17 44  1  0
 19 45  1  0
 20 46  1  0
 21 47  1  0
 22 48  1  0
 27 49  1  0
 28 50  1  0
M  CHG  2  30   1  32  -1
M  END
$$$$
