
     RDKit          3D

 40 42  0  0  0  0  0  0  0  0999 V2000
    4.6373    0.1325   -0.8936 N   0  0  0  0  0  0  0  0  0  0  0  0
    4.1813   -0.9344   -0.0115 C   0  0  0  0  0  0  0  0  0  0  0  0
    3.0317   -0.4802    0.8891 C   0  0  0  0  0  0  0  0  0  0  0  0
    1.7499   -0.1473    0.1203 C   0  0  0  0  0  0  0  0  0  0  0  0
    0.6231    0.2576    1.0830 C   0  0  0  0  0  0  0  0  0  0  0  0
   -0.6257    0.5815    0.3553 N   0  0  0  0  0  0  0  0  0  0  0  0
   -0.8323    1.9484    0.0014 C   0  0  0  0  0  0  0  0  0  0  0  0
    0.2171    2.8968    0.0062 C   0  0  0  0  0  0  0  0  0  0  0  0
    0.0267    4.2374   -0.3518 C   0  0  0  0  0  0  0  0  0  0  0  0
   -1.2276    4.6804   -0.7333 C   0  0  0  0  0  0  0  0  0  0  0  0
   -2.2837    3.7777   -0.7572 C   0  0  0  0  0  0  0  0  0  0  0  0
   -2.0962    2.4269   -0.4002 C   0  0  0  0  0  0  0  0  0  0  0  0
   -3.5561    1.4164   -0.4601 S   0  0  0  0  0  0  0  0  0  0  0  0
   -2.8967   -0.2155   -0.2236 C   0  0  0  0  0  0  0  0  0  0  0  0
   -3.8127   -1.2680   -0.4182 C   0  0  0  0  0  0  0  0  0  0  0  0
   -3.4331   -2.5949   -0.2464 C   0  0  0  0  0  0  0  0  0  0  0  0
   -2.1230   -2.8929    0.1179 C   0  0  0  0  0  0  0  0  0  0  0  0
   -1.6812   -4.3203    0.3248 C   0  0  0  0  0  0  0  0  0  0  0  0
   -1.7365   -4.6937    1.6327 F   0  0  0  0  0  0  0  0  0  0  0  0
   -2.4378   -5.2248   -0.3567 F   0  0  0  0  0  0  0  0  0  0  0  0
   -0.3955   -4.5390   -0.0708 F   0  0  0  0  0  0  0  0  0  0  0  0
   -1.2162   -1.8329    0.3229 C   0  0  0  0  0  0  0  0  0  0  0  0
   -1.5664   -0.4715    0.1632 C   0  0  0  0  0  0  0  0  0  0  0  0
    3.9187    0.3424   -1.5859 H   0  0  0  0  0  0  0  0  0  0  0  0
    5.4431   -0.1948   -1.4267 H   0  0  0  0  0  0  0  0  0  0  0  0
    3.8793   -1.8027   -0.6073 H   0  0  0  0  0  0  0  0  0  0  0  0
    5.0209   -1.2471    0.6188 H   0  0  0  0  0  0  0  0  0  0  0  0
    3.3468    0.3914    1.4769 H   0  0  0  0  0  0  0  0  0  0  0  0
    2.8201   -1.2829    1.6065 H   0  0  0  0  0  0  0  0  0  0  0  0
    1.9389    0.6599   -0.5944 H   0  0  0  0  0  0  0  0  0  0  0  0
    1.4518   -1.0142   -0.4797 H   0  0  0  0  0  0  0  0  0  0  0  0
    0.4527   -0.5336    1.8248 H   0  0  0  0  0  0  0  0  0  0  0  0
    0.9432    1.0974    1.7134 H   0  0  0  0  0  0  0  0  0  0  0  0
    1.2324    2.6229    0.2742 H   0  0  0  0  0  0  0  0  0  0  0  0
    0.8670    4.9271   -0.3336 H   0  0  0  0  0  0  0  0  0  0  0  0
   -1.3859    5.7181   -1.0124 H   0  0  0  0  0  0  0  0  0  0  0  0
   -3.2675    4.1337   -1.0574 H   0  0  0  0  0  0  0  0  0  0  0  0
   -4.8406   -1.0520   -0.7063 H   0  0  0  0  0  0  0  0  0  0  0  0
   -4.1630   -3.3873   -0.4022 H   0  0  0  0  0  0  0  0  0  0  0  0
   -0.2044   -2.1185    0.5982 H   0  0  0  0  0  0  0  0  0  0  0  0
  1  2  1  0
  2  3  1  0
  3  4  1  0
  4  5  1  0
  5  6  1  0
  6  7  1  0
  7  8  2  0
  8  9  1  0
  9 10  2  0
 10 11  1  0
 11 12  2  0
 12 13  1  0
 13 14  1  0
 14 15  2  0
 15 16  1  0
 16 17  2  0
 17 18  1  0
 18 19  1  0
 18 20  1  0
 18 21  1  0
 17 22  1  0
 22 23  2  0
 23  6  1  0
 12  7  1  0
 23 14  1  0
  1 24  1  0
  1 25  1  0
  2 26  1  0
  2 27  1  0
  3 28  1  0
  3 29  1  0
  4 30  1  0
  4 31  1  0
  5 32  1  0
  5 33  1  0
  8 34  1  0
  9 35  1  0
 10 36  1  0
 11 37  1  0
 15 38  1  0
 16 39  1  0
 22 40  1  0
M  END
$$$$
