
     RDKit          3D

 61 63  0  0  0  0  0  0  0  0999 V2000
   -9.6321    0.2431    3.7569 C   0  0  0  0  0  0  0  0  0  0  0  0
   -9.1452    0.7498    2.5210 O   0  0  0  0  0  0  0  0  0  0  0  0
   -8.2991   -0.0577    1.8122 C   0  0  0  0  0  0  0  0  0  0  0  0
   -7.8779   -1.3343    2.1842 C   0  0  0  0  0  0  0  0  0  0  0  0
   -7.0052   -2.0563    1.3613 C   0  0  0  0  0  0  0  0  0  0  0  0
   -6.5486   -1.5143    0.1525 C   0  0  0  0  0  0  0  0  0  0  0  0
   -5.5897   -2.2781   -0.7221 C   0  0  0  0  0  0  0  0  0  0  0  0
   -4.2267   -1.9512   -0.3958 N   0  0  0  0  0  0  0  0  0  0  0  0
   -3.5155   -0.9941   -1.0786 C   0  0  0  0  0  0  0  0  0  0  0  0
   -3.8655   -0.4144   -2.0970 O   0  0  0  0  0  0  0  0  0  0  0  0
   -2.1495   -0.6677   -0.4323 C   0  0  0  0  0  0  0  0  0  0  0  0
   -1.7677   -1.2861    0.5509 O   0  0  0  0  0  0  0  0  0  0  0  0
   -1.4552    0.3289   -1.0767 N   0  0  0  0  0  0  0  0  0  0  0  0
   -0.0802    0.6495   -0.7298 C   0  0  0  0  0  0  0  0  0  0  0  0
    0.9299   -0.4519   -1.1506 C   0  0  0  0  0  0  0  0  0  0  0  0
    0.7441   -0.7426   -2.5557 O   0  0  0  0  0  0  0  0  0  0  0  0
    1.6380    0.1237   -3.2571 C   0  0  0  0  0  0  0  0  0  0  0  0
    2.8670    0.1898   -2.3788 C   0  0  0  0  0  0  0  0  0  0  0  0
    2.3586   -0.0960   -1.0282 N   0  0  0  0  0  0  0  0  0  0  0  0
    2.8342    0.8783    0.2456 S   0  0  0  0  0  6  0  0  0  0  0  0
    2.5645    2.2471   -0.1413 O   0  0  0  0  0  0  0  0  0  0  0  0
    2.3008    0.3233    1.4684 O   0  0  0  0  0  0  0  0  0  0  0  0
    4.5914    0.6358    0.2754 C   0  0  0  0  0  0  0  0  0  0  0  0
    5.0923   -0.6163    0.6331 C   0  0  0  0  0  0  0  0  0  0  0  0
    6.4717   -0.8261    0.6481 C   0  0  0  0  0  0  0  0  0  0  0  0
    7.3483    0.2139    0.3137 C   0  0  0  0  0  0  0  0  0  0  0  0
    8.7162    0.0968    0.2949 O   0  0  0  0  0  0  0  0  0  0  0  0
    9.2790   -1.1410    0.7056 C   0  0  0  0  0  0  0  0  0  0  0  0
    6.8321    1.4826   -0.0328 C   0  0  0  0  0  0  0  0  0  0  0  0
    7.7595    2.4446   -0.3496 O   0  0  0  0  0  0  0  0  0  0  0  0
    7.2972    3.7780   -0.5142 C   0  0  0  0  0  0  0  0  0  0  0  0
    5.4497    1.6893   -0.0506 C   0  0  0  0  0  0  0  0  0  0  0  0
   -6.9666   -0.2282   -0.2097 C   0  0  0  0  0  0  0  0  0  0  0  0
   -7.8375    0.4894    0.6134 C   0  0  0  0  0  0  0  0  0  0  0  0
   -8.8126    0.0628    4.4604 H   0  0  0  0  0  0  0  0  0  0  0  0
  -10.2298   -0.6617    3.6047 H   0  0  0  0  0  0  0  0  0  0  0  0
  -10.2857    1.0032    4.1955 H   0  0  0  0  0  0  0  0  0  0  0  0
   -8.2062   -1.7974    3.1086 H   0  0  0  0  0  0  0  0  0  0  0  0
   -6.6841   -3.0476    1.6741 H   0  0  0  0  0  0  0  0  0  0  0  0
   -5.7899   -2.0700   -1.7794 H   0  0  0  0  0  0  0  0  0  0  0  0
   -5.7148   -3.3563   -0.5738 H   0  0  0  0  0  0  0  0  0  0  0  0
   -3.8380   -2.2488    0.4941 H   0  0  0  0  0  0  0  0  0  0  0  0
   -1.8320    0.6223   -1.9746 H   0  0  0  0  0  0  0  0  0  0  0  0
    0.1402    1.5966   -1.2325 H   0  0  0  0  0  0  0  0  0  0  0  0
   -0.0427    0.8164    0.3511 H   0  0  0  0  0  0  0  0  0  0  0  0
    0.7363   -1.3796   -0.6028 H   0  0  0  0  0  0  0  0  0  0  0  0
    1.8496   -0.2779   -4.2518 H   0  0  0  0  0  0  0  0  0  0  0  0
    1.1659    1.1059   -3.3689 H   0  0  0  0  0  0  0  0  0  0  0  0
    3.5762   -0.6006   -2.6473 H   0  0  0  0  0  0  0  0  0  0  0  0
    3.3720    1.1539   -2.4772 H   0  0  0  0  0  0  0  0  0  0  0  0
    4.4163   -1.4273    0.8976 H   0  0  0  0  0  0  0  0  0  0  0  0
    6.8318   -1.8116    0.9249 H   0  0  0  0  0  0  0  0  0  0  0  0
    9.0096   -1.3747    1.7410 H   0  0  0  0  0  0  0  0  0  0  0  0
   10.3682   -1.0448    0.6597 H   0  0  0  0  0  0  0  0  0  0  0  0
    8.9883   -1.9502    0.0276 H   0  0  0  0  0  0  0  0  0  0  0  0
    6.7764    4.1324    0.3816 H   0  0  0  0  0  0  0  0  0  0  0  0
    8.1713    4.4187   -0.6659 H   0  0  0  0  0  0  0  0  0  0  0  0
    6.6631    3.8658   -1.4023 H   0  0  0  0  0  0  0  0  0  0  0  0
    5.0257    2.6515   -0.3177 H   0  0  0  0  0  0  0  0  0  0  0  0
   -6.6120    0.2250   -1.1340 H   0  0  0  0  0  0  0  0  0  0  0  0
   -8.1555    1.4865    0.3188 H   0  0  0  0  0  0  0  0  0  0  0  0
  1  2  1  0
  2  3  1  0
  3  4  2  0
  4  5  1  0
  5  6  2  0
  6  7  1  0
  7  8  1  0
  8  9  1  0
  9 10  2  0
  9 11  1  0
 11 12  2  0
 11 13  1  0
 13 14  1  0
 14 15  1  0
 15 16  1  0
 16 17  1  0
 17 18  1  0
 18 19  1  0
 19 20  1  0
 20 21  2  0
 20 22  2  0
 20 23  1  0
 23 24  2  0
 24 25  1  0
 25 26  2  0
 26 27  1  0
 27 28  1  0
 26 29  1  0
 29 30  1  0
 30 31  1  0
 29 32  2  0
  6 33  1  0
 33 34  2  0
 34  3  1  0
 19 15  1  0
 32 23  1  0
  1 35  1  0
  1 36  1  0
  1 37  1  0
  4 38  1  0
  5 39  1  0
  7 40  1  0
  7 41  1  0
  8 42  1  0
 13 43  1  0
 14 44  1  0
 14 45  1  0
 15 46  1  0
 17 47  1  0
 17 48  1  0
 18 49  1  0
 18 50  1  0
 24 51  1  0
 25 52  1  0
 28 53  1  0
 28 54  1  0
 28 55  1  0
 31 56  1  0
 31 57  1  0
 31 58  1  0
 32 59  1  0
 33 60  1  0
 34 61  1  0
M  END
$$$$
