
     RDKit          3D

 37 39  0  0  0  0  0  0  0  0999 V2000
    5.9913    1.0352   -0.6306 C   0  0  0  0  0  0  0  0  0  0  0  0
    4.6115    1.0286   -0.9805 O   0  0  0  0  0  0  0  0  0  0  0  0
    3.7613    0.3519   -0.1480 C   0  0  0  0  0  0  0  0  0  0  0  0
    4.1239   -0.3019    1.0373 C   0  0  0  0  0  0  0  0  0  0  0  0
    3.1590   -0.9539    1.8106 C   0  0  0  0  0  0  0  0  0  0  0  0
    1.8410   -0.9407    1.3805 C   0  0  0  0  0  0  0  0  0  0  0  0
    1.4547   -0.2984    0.1878 C   0  0  0  0  0  0  0  0  0  0  0  0
    2.4234    0.3540   -0.5695 C   0  0  0  0  0  0  0  0  0  0  0  0
    0.0549   -0.3722   -0.1011 N   0  0  0  0  0  0  0  0  0  0  0  0
   -0.2122   -0.5737   -1.5292 C   0  0  0  0  0  0  0  0  0  0  0  0
   -0.6032   -1.0780    0.9188 C   0  0  0  0  0  0  0  0  0  0  0  0
   -1.9252   -1.2272    1.1200 C   0  0  0  0  0  0  0  0  0  0  0  0
   -2.9858   -0.6131    0.3232 C   0  0  0  0  0  0  0  0  0  0  0  0
   -3.8601   -1.4449   -0.3887 C   0  0  0  0  0  0  0  0  0  0  0  0
   -4.8654   -0.8933   -1.1717 C   0  0  0  0  0  0  0  0  0  0  0  0
   -4.9912    0.4847   -1.2343 C   0  0  0  0  0  0  0  0  0  0  0  0
   -4.1207    1.2828   -0.5036 C   0  0  0  0  0  0  0  0  0  0  0  0
   -3.1494    0.7395    0.2699 N   0  0  0  0  0  4  0  0  0  0  0  0
   -2.2933    1.6586    1.0526 C   0  0  0  0  0  0  0  0  0  0  0  0
    0.4635   -1.7227    2.1951 S   0  0  0  0  0  0  0  0  0  0  0  0
    6.3991    0.0192   -0.6142 H   0  0  0  0  0  0  0  0  0  0  0  0
    6.1520    1.5427    0.3262 H   0  0  0  0  0  0  0  0  0  0  0  0
    6.5282    1.5977   -1.4005 H   0  0  0  0  0  0  0  0  0  0  0  0
    5.1521   -0.3203    1.3866 H   0  0  0  0  0  0  0  0  0  0  0  0
    3.4432   -1.4624    2.7272 H   0  0  0  0  0  0  0  0  0  0  0  0
    2.1708    0.8840   -1.4817 H   0  0  0  0  0  0  0  0  0  0  0  0
    0.1004    0.2955   -2.1174 H   0  0  0  0  0  0  0  0  0  0  0  0
    0.2991   -1.4674   -1.9064 H   0  0  0  0  0  0  0  0  0  0  0  0
   -1.2790   -0.7016   -1.7280 H   0  0  0  0  0  0  0  0  0  0  0  0
   -2.2875   -1.8126    1.9642 H   0  0  0  0  0  0  0  0  0  0  0  0
   -3.7509   -2.5280   -0.3451 H   0  0  0  0  0  0  0  0  0  0  0  0
   -5.5428   -1.5362   -1.7324 H   0  0  0  0  0  0  0  0  0  0  0  0
   -5.7694    0.9373   -1.8459 H   0  0  0  0  0  0  0  0  0  0  0  0
   -4.1984    2.3668   -0.5284 H   0  0  0  0  0  0  0  0  0  0  0  0
   -1.3935    1.8611    0.4689 H   0  0  0  0  0  0  0  0  0  0  0  0
   -2.0643    1.2174    2.0248 H   0  0  0  0  0  0  0  0  0  0  0  0
   -2.8375    2.5916    1.2267 H   0  0  0  0  0  0  0  0  0  0  0  0
  1  2  1  0
  2  3  1  0
  3  4  2  0
  4  5  1  0
  5  6  2  0
  6  7  1  0
  7  8  2  0
  7  9  1  0
  9 10  1  0
  9 11  1  0
 11 12  2  3
 12 13  1  0
 13 14  2  0
 14 15  1  0
 15 16  2  0
 16 17  1  0
 17 18  2  0
 18 19  1  0
 11 20  1  0
  8  3  1  0
 18 13  1  0
 20  6  1  0
  1 21  1  0
  1 22  1  0
  1 23  1  0
  4 24  1  0
  5 25  1  0
  8 26  1  0
 10 27  1  0
 10 28  1  0
 10 29  1  0
 12 30  1  0
 14 31  1  0
 15 32  1  0
 16 33  1  0
 17 34  1  0
 19 35  1  0
 19 36  1  0
 19 37  1  0
M  CHG  1  18   1
M  END
$$$$
