
     RDKit          3D

 51 55  0  0  0  0  0  0  0  0999 V2000
   -2.5306   -2.3714    0.5860 C   0  0  0  0  0  0  0  0  0  0  0  0
   -2.2564   -1.3639   -0.5047 C   0  0  0  0  0  0  0  0  0  0  0  0
   -0.9538   -1.3675   -0.9914 N   0  0  0  0  0  0  0  0  0  0  0  0
   -0.5577   -0.5374   -1.9846 C   0  0  0  0  0  0  0  0  0  0  0  0
    0.6298   -0.3201   -2.6512 C   0  0  0  0  0  0  0  0  0  0  0  0
    1.9324   -0.9146   -2.4372 C   0  0  0  0  0  0  0  0  0  0  0  0
    2.7791   -0.9573   -3.3218 O   0  0  0  0  0  0  0  0  0  0  0  0
    2.1454   -1.3798   -1.1568 N   0  0  0  0  0  0  0  0  0  0  0  0
    3.4546   -1.8172   -0.7305 C   0  0  0  0  0  0  0  0  0  0  0  0
    4.1780   -0.7092   -0.0081 C   0  0  0  0  0  0  0  0  0  0  0  0
    4.1137   -0.6117    1.4017 C   0  0  0  0  0  0  0  0  0  0  0  0
    4.7573    0.4280    2.0807 C   0  0  0  0  0  0  0  0  0  0  0  0
    5.4476    1.3539    1.3299 C   0  0  0  0  0  0  0  0  0  0  0  0
    5.5104    1.2728   -0.0406 C   0  0  0  0  0  0  0  0  0  0  0  0
    4.8870    0.2600   -0.7381 C   0  0  0  0  0  0  0  0  0  0  0  0
    6.2361    2.2843   -0.5874 O   0  0  0  0  0  0  0  0  0  0  0  0
    6.6224    3.0121    0.5963 C   0  0  0  0  0  0  0  0  0  0  0  0
    6.1263    2.4261    1.8185 O   0  0  0  0  0  0  0  0  0  0  0  0
    0.2855    0.6284   -3.6429 C   0  0  0  0  0  0  0  0  0  0  0  0
   -0.9884    1.0245   -3.5797 N   0  0  0  0  0  0  0  0  0  0  0  0
   -1.4971    0.3099   -2.5404 N   0  0  0  0  0  0  0  0  0  0  0  0
   -2.8359    0.4024   -2.1255 C   0  0  0  0  0  0  0  0  0  0  0  0
   -3.6249    1.1530   -2.6863 O   0  0  0  0  0  0  0  0  0  0  0  0
   -3.1987   -0.5131   -0.9840 C   0  0  0  0  0  0  0  0  0  0  0  0
   -4.6232   -0.3875   -0.4994 C   0  0  0  0  0  0  0  0  0  0  0  0
   -4.7700    0.1436    0.9104 C   0  0  0  0  0  0  0  0  0  0  0  0
   -5.5983   -0.5162    1.8322 C   0  0  0  0  0  0  0  0  0  0  0  0
   -5.7598   -0.0181    3.1282 C   0  0  0  0  0  0  0  0  0  0  0  0
   -5.1066    1.1504    3.5174 C   0  0  0  0  0  0  0  0  0  0  0  0
   -4.2948    1.8241    2.6081 C   0  0  0  0  0  0  0  0  0  0  0  0
   -4.1372    1.3234    1.3184 C   0  0  0  0  0  0  0  0  0  0  0  0
   -3.3524    1.9974    0.4663 F   0  0  0  0  0  0  0  0  0  0  0  0
   -2.0510   -2.0551    1.5181 H   0  0  0  0  0  0  0  0  0  0  0  0
   -2.1249   -3.3505    0.3069 H   0  0  0  0  0  0  0  0  0  0  0  0
   -3.5947   -2.5219    0.7805 H   0  0  0  0  0  0  0  0  0  0  0  0
   -0.3582   -2.1280   -0.6645 H   0  0  0  0  0  0  0  0  0  0  0  0
    1.5225   -1.0306   -0.4407 H   0  0  0  0  0  0  0  0  0  0  0  0
    4.0471   -2.1709   -1.5817 H   0  0  0  0  0  0  0  0  0  0  0  0
    3.3079   -2.6720   -0.0612 H   0  0  0  0  0  0  0  0  0  0  0  0
    3.5605   -1.3514    1.9771 H   0  0  0  0  0  0  0  0  0  0  0  0
    4.7155    0.5072    3.1611 H   0  0  0  0  0  0  0  0  0  0  0  0
    4.9440    0.2230   -1.8223 H   0  0  0  0  0  0  0  0  0  0  0  0
    7.7169    3.0477    0.6444 H   0  0  0  0  0  0  0  0  0  0  0  0
    6.2405    4.0366    0.5185 H   0  0  0  0  0  0  0  0  0  0  0  0
    0.9299    1.0553   -4.4028 H   0  0  0  0  0  0  0  0  0  0  0  0
   -5.2235    0.2580   -1.1514 H   0  0  0  0  0  0  0  0  0  0  0  0
   -5.0970   -1.3751   -0.5792 H   0  0  0  0  0  0  0  0  0  0  0  0
   -6.1283   -1.4229    1.5476 H   0  0  0  0  0  0  0  0  0  0  0  0
   -6.4033   -0.5395    3.8334 H   0  0  0  0  0  0  0  0  0  0  0  0
   -5.2370    1.5397    4.5239 H   0  0  0  0  0  0  0  0  0  0  0  0
   -3.7869    2.7409    2.8912 H   0  0  0  0  0  0  0  0  0  0  0  0
  1  2  1  0
  2  3  1  0
  3  4  1  0
  4  5  2  0
  5  6  1  0
  6  7  2  0
  6  8  1  0
  8  9  1  0
  9 10  1  0
 10 11  2  0
 11 12  1  0
 12 13  2  0
 13 14  1  0
 14 15  2  0
 14 16  1  0
 16 17  1  0
 17 18  1  0
  5 19  1  0
 19 20  2  0
 20 21  1  0
 21 22  1  0
 22 23  2  0
 22 24  1  0
 24 25  1  0
 25 26  1  0
 26 27  2  0
 27 28  1  0
 28 29  2  0
 29 30  1  0
 30 31  2  0
 31 32  1  0
 24  2  2  0
 31 26  1  0
 21  4  1  0
 15 10  1  0
 18 13  1  0
  1 33  1  0
  1 34  1  0
  1 35  1  0
  3 36  1  0
  8 37  1  0
  9 38  1  0
  9 39  1  0
 11 40  1  0
 12 41  1  0
 15 42  1  0
 17 43  1  0
 17 44  1  0
 19 45  1  0
 25 46  1  0
 25 47  1  0
 27 48  1  0
 28 49  1  0
 29 50  1  0
 30 51  1  0
M  END
$$$$
