
     RDKit          3D

 34 36  0  0  0  0  0  0  0  0999 V2000
    0.0823    0.8085    2.1755 O   0  0  0  0  0  0  0  0  0  0  0  0
    0.4055    0.2724    1.1249 C   0  0  0  0  0  0  0  0  0  0  0  0
    1.8279   -0.0336    0.8915 C   0  0  0  0  0  0  0  0  0  0  0  0
    2.2674   -1.3614    0.8615 C   0  0  0  0  0  0  0  0  0  0  0  0
    3.6217   -1.6310    0.6546 C   0  0  0  0  0  0  0  0  0  0  0  0
    4.5225   -0.5762    0.4926 C   0  0  0  0  0  0  0  0  0  0  0  0
    6.1898   -0.9131    0.2348 Cl  0  0  0  0  0  0  0  0  0  0  0  0
    4.0843    0.7484    0.5431 C   0  0  0  0  0  0  0  0  0  0  0  0
    2.7313    1.0236    0.7503 C   0  0  0  0  0  0  0  0  0  0  0  0
   -0.4968   -0.0439    0.1429 N   0  0  0  0  0  0  0  0  0  0  0  0
   -0.2278   -0.5299   -1.2178 C   0  0  0  0  0  0  0  0  0  0  0  0
   -0.4316    0.6594   -2.1230 C   0  0  0  0  0  0  0  0  0  0  0  0
   -1.7503    0.9164   -2.1710 C   0  0  0  0  0  0  0  0  0  0  0  0
   -2.4152   -0.0616   -1.2136 C   0  0  0  0  0  0  0  0  0  0  0  0
   -1.5220   -1.2739   -1.5447 C   0  0  0  0  0  0  0  0  0  0  0  0
   -1.9816    0.2749    0.2653 C   0  0  0  0  0  0  0  0  0  0  0  0
   -2.3580    1.7134    0.6344 C   0  0  0  0  0  0  0  0  0  0  0  0
   -2.2609    2.0021    1.9459 F   0  0  0  0  0  0  0  0  0  0  0  0
   -3.6461    1.9673    0.2809 F   0  0  0  0  0  0  0  0  0  0  0  0
   -1.6033    2.6303   -0.0209 F   0  0  0  0  0  0  0  0  0  0  0  0
   -2.7502   -0.5854    1.2646 C   0  0  0  0  0  0  0  0  0  0  0  0
   -4.0881   -0.4312    1.1152 F   0  0  0  0  0  0  0  0  0  0  0  0
   -2.4597   -0.3320    2.5543 F   0  0  0  0  0  0  0  0  0  0  0  0
   -2.5057   -1.9075    1.0777 F   0  0  0  0  0  0  0  0  0  0  0  0
    1.5665   -2.1789    1.0100 H   0  0  0  0  0  0  0  0  0  0  0  0
    3.9710   -2.6603    0.6304 H   0  0  0  0  0  0  0  0  0  0  0  0
    4.7904    1.5673    0.4309 H   0  0  0  0  0  0  0  0  0  0  0  0
    2.3845    2.0530    0.8075 H   0  0  0  0  0  0  0  0  0  0  0  0
    0.6968   -1.0837   -1.3697 H   0  0  0  0  0  0  0  0  0  0  0  0
    0.3507    1.2042   -2.6300 H   0  0  0  0  0  0  0  0  0  0  0  0
   -2.2348    1.7216   -2.7048 H   0  0  0  0  0  0  0  0  0  0  0  0
   -3.4811   -0.2147   -1.3908 H   0  0  0  0  0  0  0  0  0  0  0  0
   -1.6887   -2.1466   -0.9101 H   0  0  0  0  0  0  0  0  0  0  0  0
   -1.5909   -1.5975   -2.5922 H   0  0  0  0  0  0  0  0  0  0  0  0
  1  2  2  0
  2  3  1  0
  3  4  2  0
  4  5  1  0
  5  6  2  0
  6  7  1  0
  6  8  1  0
  8  9  2  0
  2 10  1  0
 10 11  1  0
 11 12  1  0
 12 13  2  0
 13 14  1  0
 14 15  1  0
 14 16  1  0
 16 17  1  0
 17 18  1  0
 17 19  1  0
 17 20  1  0
 16 21  1  0
 21 22  1  0
 21 23  1  0
 21 24  1  0
  9  3  1  0
 16 10  1  0
 15 11  1  0
  4 25  1  0
  5 26  1  0
  8 27  1  0
  9 28  1  0
 11 29  1  0
 12 30  1  0
 13 31  1  0
 14 32  1  0
 15 33  1  0
 15 34  1  0
M  END
$$$$
