
     RDKit          3D

 73 75  0  0  0  0  0  0  0  0999 V2000
   -2.6752   -1.0328    3.2113 C   0  0  0  0  0  0  0  0  0  0  0  0
   -1.7441   -0.6495    2.0645 C   0  0  0  0  0  0  0  0  0  0  0  0
   -2.2870   -1.0933    0.6998 C   0  0  0  0  0  0  0  0  0  0  0  0
   -0.9465   -1.2014   -0.5578 S   0  0  0  0  0  0  0  0  0  0  0  0
   -0.3169    0.4361   -0.5485 C   0  0  0  0  0  0  0  0  0  0  0  0
   -1.1700    1.3980   -0.4673 N   0  0  0  0  0  0  0  0  0  0  0  0
   -0.7104    2.7141   -0.4350 C   0  0  0  0  0  0  0  0  0  0  0  0
   -1.6446    3.7468   -0.3377 C   0  0  0  0  0  0  0  0  0  0  0  0
   -1.2286    5.0829   -0.2959 C   0  0  0  0  0  0  0  0  0  0  0  0
   -2.0801    6.1554   -0.1985 O   0  0  0  0  0  0  0  0  0  0  0  0
   -3.4766    5.8876   -0.2146 C   0  0  0  0  0  0  0  0  0  0  0  0
    0.1485    5.3878   -0.3445 C   0  0  0  0  0  0  0  0  0  0  0  0
    0.4723    6.7204   -0.3029 O   0  0  0  0  0  0  0  0  0  0  0  0
    1.8501    7.0681   -0.3178 C   0  0  0  0  0  0  0  0  0  0  0  0
    1.0819    4.3516   -0.4335 C   0  0  0  0  0  0  0  0  0  0  0  0
    0.6412    3.0248   -0.4784 C   0  0  0  0  0  0  0  0  0  0  0  0
    1.5938    1.9044   -0.5597 C   0  0  0  0  0  0  0  0  0  0  0  0
    2.8001    2.1425   -0.5332 O   0  0  0  0  0  0  0  0  0  0  0  0
    1.0534    0.6202   -0.6408 N   0  0  0  0  0  0  0  0  0  0  0  0
    2.0254   -0.4785   -0.7266 C   0  0  0  0  0  0  0  0  0  0  0  0
    2.4673   -0.9549    0.6624 C   0  0  0  0  0  0  0  0  0  0  0  0
    3.3603   -2.1683    0.5821 C   0  0  0  0  0  0  0  0  0  0  0  0
    2.8028   -3.4462    0.4714 C   0  0  0  0  0  0  0  0  0  0  0  0
    3.6242   -4.5718    0.3799 C   0  0  0  0  0  0  0  0  0  0  0  0
    5.0159   -4.4370    0.3977 C   0  0  0  0  0  0  0  0  0  0  0  0
    5.8976   -5.4873    0.3251 O   0  0  0  0  0  0  0  0  0  0  0  0
    5.3630   -6.7766    0.0589 C   0  0  0  0  0  0  0  0  0  0  0  0
    5.5874   -3.1546    0.5137 C   0  0  0  0  0  0  0  0  0  0  0  0
    6.9601   -3.1051    0.5201 O   0  0  0  0  0  0  0  0  0  0  0  0
    7.5706   -1.8568    0.8193 C   0  0  0  0  0  0  0  0  0  0  0  0
    4.7560   -2.0297    0.5936 C   0  0  0  0  0  0  0  0  0  0  0  0
   -3.4708   -0.2524    0.1892 C   0  0  0  0  0  0  0  0  0  0  0  0
   -3.9785    0.6661    0.8282 O   0  0  0  0  0  0  0  0  0  0  0  0
   -3.9803   -0.6800   -1.0246 N   0  0  0  0  0  0  0  0  0  0  0  0
   -5.2242   -0.1532   -1.5509 C   0  0  0  0  0  0  0  0  0  0  0  0
   -6.4423   -0.8473   -0.9308 C   0  0  0  0  0  0  0  0  0  0  0  0
   -6.4478   -2.2546   -1.2081 O   0  0  0  0  0  0  0  0  0  0  0  0
   -6.9705   -2.5639   -2.4918 C   0  0  0  0  0  0  0  0  0  0  0  0
   -2.8421   -2.1152    3.2316 H   0  0  0  0  0  0  0  0  0  0  0  0
   -2.2257   -0.7493    4.1675 H   0  0  0  0  0  0  0  0  0  0  0  0
   -3.6462   -0.5362    3.1300 H   0  0  0  0  0  0  0  0  0  0  0  0
   -1.5770    0.4325    2.0967 H   0  0  0  0  0  0  0  0  0  0  0  0
   -0.7788   -1.1323    2.2603 H   0  0  0  0  0  0  0  0  0  0  0  0
   -2.6627   -2.1196    0.7992 H   0  0  0  0  0  0  0  0  0  0  0  0
   -2.6932    3.4655   -0.2842 H   0  0  0  0  0  0  0  0  0  0  0  0
   -3.7769    5.2971    0.6579 H   0  0  0  0  0  0  0  0  0  0  0  0
   -4.0016    6.8459   -0.1614 H   0  0  0  0  0  0  0  0  0  0  0  0
   -3.7737    5.3976   -1.1490 H   0  0  0  0  0  0  0  0  0  0  0  0
    2.3698    6.6676    0.5588 H   0  0  0  0  0  0  0  0  0  0  0  0
    1.9167    8.1595   -0.2750 H   0  0  0  0  0  0  0  0  0  0  0  0
    2.3306    6.7418   -1.2463 H   0  0  0  0  0  0  0  0  0  0  0  0
    2.1485    4.5464   -0.4719 H   0  0  0  0  0  0  0  0  0  0  0  0
    2.9036   -0.1381   -1.2909 H   0  0  0  0  0  0  0  0  0  0  0  0
    1.6092   -1.3026   -1.3151 H   0  0  0  0  0  0  0  0  0  0  0  0
    2.9887   -0.1468    1.1896 H   0  0  0  0  0  0  0  0  0  0  0  0
    1.5987   -1.1929    1.2879 H   0  0  0  0  0  0  0  0  0  0  0  0
    1.7215   -3.5775    0.4560 H   0  0  0  0  0  0  0  0  0  0  0  0
    3.1466   -5.5417    0.3034 H   0  0  0  0  0  0  0  0  0  0  0  0
    4.7238   -7.1172    0.8812 H   0  0  0  0  0  0  0  0  0  0  0  0
    4.8223   -6.7907   -0.8950 H   0  0  0  0  0  0  0  0  0  0  0  0
    6.2006   -7.4759   -0.0222 H   0  0  0  0  0  0  0  0  0  0  0  0
    8.6516   -2.0210    0.8915 H   0  0  0  0  0  0  0  0  0  0  0  0
    7.3955   -1.1337    0.0151 H   0  0  0  0  0  0  0  0  0  0  0  0
    7.2288   -1.4672    1.7843 H   0  0  0  0  0  0  0  0  0  0  0  0
    5.1744   -1.0309    0.6619 H   0  0  0  0  0  0  0  0  0  0  0  0
   -3.6621   -1.5715   -1.3855 H   0  0  0  0  0  0  0  0  0  0  0  0
   -5.1898   -0.3079   -2.6322 H   0  0  0  0  0  0  0  0  0  0  0  0
   -5.2699    0.9239   -1.3577 H   0  0  0  0  0  0  0  0  0  0  0  0
   -7.3730   -0.3871   -1.2831 H   0  0  0  0  0  0  0  0  0  0  0  0
   -6.4158   -0.7388    0.1592 H   0  0  0  0  0  0  0  0  0  0  0  0
   -6.3352   -2.1598   -3.2858 H   0  0  0  0  0  0  0  0  0  0  0  0
   -7.9902   -2.1835   -2.5956 H   0  0  0  0  0  0  0  0  0  0  0  0
   -6.9944   -3.6519   -2.5997 H   0  0  0  0  0  0  0  0  0  0  0  0
  1  2  1  0
  2  3  1  0
  3  4  1  0
  4  5  1  0
  5  6  2  0
  6  7  1  0
  7  8  2  0
  8  9  1  0
  9 10  1  0
 10 11  1  0
  9 12  2  0
 12 13  1  0
 13 14  1  0
 12 15  1  0
 15 16  2  0
 16 17  1  0
 17 18  2  0
 17 19  1  0
 19 20  1  0
 20 21  1  0
 21 22  1  0
 22 23  2  0
 23 24  1  0
 24 25  2  0
 25 26  1  0
 26 27  1  0
 25 28  1  0
 28 29  1  0
 29 30  1  0
 28 31  2  0
  3 32  1  0
 32 33  2  0
 32 34  1  0
 34 35  1  0
 35 36  1  0
 36 37  1  0
 37 38  1  0
 19  5  1  0
 31 22  1  0
 16  7  1  0
  1 39  1  0
  1 40  1  0
  1 41  1  0
  2 42  1  0
  2 43  1  0
  3 44  1  0
  8 45  1  0
 11 46  1  0
 11 47  1  0
 11 48  1  0
 14 49  1  0
 14 50  1  0
 14 51  1  0
 15 52  1  0
 20 53  1  0
 20 54  1  0
 21 55  1  0
 21 56  1  0
 23 57  1  0
 24 58  1  0
 27 59  1  0
 27 60  1  0
 27 61  1  0
 30 62  1  0
 30 63  1  0
 30 64  1  0
 31 65  1  0
 34 66  1  0
 35 67  1  0
 35 68  1  0
 36 69  1  0
 36 70  1  0
 38 71  1  0
 38 72  1  0
 38 73  1  0
M  END
$$$$
