
     RDKit          3D

 56 61  0  0  0  0  0  0  0  0999 V2000
    7.9737    3.0858   -2.4449 C   0  0  0  0  0  0  0  0  0  0  0  0
    6.6592    2.9483   -1.9201 O   0  0  0  0  0  0  0  0  0  0  0  0
    6.3467    1.7553   -1.3286 C   0  0  0  0  0  0  0  0  0  0  0  0
    7.1952    0.6599   -1.1989 C   0  0  0  0  0  0  0  0  0  0  0  0
    6.7407   -0.4954   -0.5612 C   0  0  0  0  0  0  0  0  0  0  0  0
    5.4340   -0.5631   -0.0523 C   0  0  0  0  0  0  0  0  0  0  0  0
    4.9743   -1.7220    0.5926 C   0  0  0  0  0  0  0  0  0  0  0  0
    3.6582   -1.7196    1.0703 C   0  0  0  0  0  0  0  0  0  0  0  0
    2.8134   -2.6252    1.7549 C   0  0  0  0  0  0  0  0  0  0  0  0
    1.5894   -1.9955    1.9217 C   0  0  0  0  0  0  0  0  0  0  0  0
    0.3883   -2.4915    2.5816 C   0  0  0  0  0  0  0  0  0  0  0  0
    0.4410   -3.5380    3.2334 O   0  0  0  0  0  0  0  0  0  0  0  0
   -0.8211   -1.7977    2.4724 N   0  0  0  0  0  0  0  0  0  0  0  0
   -1.0440   -0.5977    1.6578 C   0  0  0  0  0  0  0  0  0  0  0  0
   -2.5212   -0.1515    1.6081 C   0  0  0  0  0  0  0  0  0  0  0  0
   -3.4051   -1.2852    1.2948 N   0  0  0  0  0  0  0  0  0  0  0  0
   -4.8141   -0.8994    1.1567 C   0  0  0  0  0  0  0  0  0  0  0  0
   -5.0789   -0.0193   -0.0477 C   0  0  0  0  0  0  0  0  0  0  0  0
   -4.7431   -0.4731   -1.3471 C   0  0  0  0  0  0  0  0  0  0  0  0
   -4.9866    0.3173   -2.4745 C   0  0  0  0  0  0  0  0  0  0  0  0
   -5.5675    1.5505   -2.2763 C   0  0  0  0  0  0  0  0  0  0  0  0
   -5.9006    2.0010   -1.0200 C   0  0  0  0  0  0  0  0  0  0  0  0
   -5.6729    1.2441    0.1113 C   0  0  0  0  0  0  0  0  0  0  0  0
   -6.4624    3.2403   -1.0449 O   0  0  0  0  0  0  0  0  0  0  0  0
   -6.4395    3.5187   -2.4617 C   0  0  0  0  0  0  0  0  0  0  0  0
   -5.8779    2.4488   -3.2499 O   0  0  0  0  0  0  0  0  0  0  0  0
   -3.2390   -2.3898    2.2628 C   0  0  0  0  0  0  0  0  0  0  0  0
   -1.9979   -2.2983    3.1773 C   0  0  0  0  0  0  0  0  0  0  0  0
    1.6591   -0.7386    1.3878 O   0  0  0  0  0  0  0  0  0  0  0  0
    2.9049   -0.5711    0.8695 C   0  0  0  0  0  0  0  0  0  0  0  0
    3.2967    0.5604    0.2642 N   0  0  0  0  0  0  0  0  0  0  0  0
    4.5592    0.5429   -0.1859 C   0  0  0  0  0  0  0  0  0  0  0  0
    5.0436    1.6775   -0.8220 C   0  0  0  0  0  0  0  0  0  0  0  0
    8.1443    2.3795   -3.2651 H   0  0  0  0  0  0  0  0  0  0  0  0
    8.0669    4.0982   -2.8515 H   0  0  0  0  0  0  0  0  0  0  0  0
    8.7287    2.9734   -1.6591 H   0  0  0  0  0  0  0  0  0  0  0  0
    8.2115    0.6702   -1.5792 H   0  0  0  0  0  0  0  0  0  0  0  0
    7.4157   -1.3445   -0.4665 H   0  0  0  0  0  0  0  0  0  0  0  0
    5.6074   -2.5951    0.7189 H   0  0  0  0  0  0  0  0  0  0  0  0
    3.0484   -3.6258    2.0931 H   0  0  0  0  0  0  0  0  0  0  0  0
   -0.6964   -0.8119    0.6405 H   0  0  0  0  0  0  0  0  0  0  0  0
   -0.4435    0.2184    2.0750 H   0  0  0  0  0  0  0  0  0  0  0  0
   -2.6019    0.6358    0.8507 H   0  0  0  0  0  0  0  0  0  0  0  0
   -2.8047    0.2968    2.5695 H   0  0  0  0  0  0  0  0  0  0  0  0
   -5.4335   -1.7964    1.0224 H   0  0  0  0  0  0  0  0  0  0  0  0
   -5.1701   -0.4126    2.0741 H   0  0  0  0  0  0  0  0  0  0  0  0
   -4.2781   -1.4507   -1.4706 H   0  0  0  0  0  0  0  0  0  0  0  0
   -4.7253   -0.0267   -3.4686 H   0  0  0  0  0  0  0  0  0  0  0  0
   -5.9475    1.6269    1.0877 H   0  0  0  0  0  0  0  0  0  0  0  0
   -5.8481    4.4266   -2.6310 H   0  0  0  0  0  0  0  0  0  0  0  0
   -7.4664    3.7007   -2.7999 H   0  0  0  0  0  0  0  0  0  0  0  0
   -4.1171   -2.4934    2.9137 H   0  0  0  0  0  0  0  0  0  0  0  0
   -3.1719   -3.3157    1.6779 H   0  0  0  0  0  0  0  0  0  0  0  0
   -1.8149   -3.2748    3.6364 H   0  0  0  0  0  0  0  0  0  0  0  0
   -2.1929   -1.5948    3.9960 H   0  0  0  0  0  0  0  0  0  0  0  0
    4.3837    2.5368   -0.9304 H   0  0  0  0  0  0  0  0  0  0  0  0
  1  2  1  0
  2  3  1  0
  3  4  2  0
  4  5  1  0
  5  6  2  0
  6  7  1  0
  7  8  2  0
  8  9  1  0
  9 10  2  0
 10 11  1  0
 11 12  2  0
 11 13  1  0
 13 14  1  0
 14 15  1  0
 15 16  1  0
 16 17  1  0
 17 18  1  0
 18 19  2  0
 19 20  1  0
 20 21  2  0
 21 22  1  0
 22 23  2  0
 22 24  1  0
 24 25  1  0
 25 26  1  0
 16 27  1  0
 27 28  1  0
 10 29  1  0
 29 30  1  0
 30 31  2  0
 31 32  1  0
 32 33  2  0
 33  3  1  0
 32  6  1  0
 30  8  1  0
 28 13  1  0
 23 18  1  0
 26 21  1  0
  1 34  1  0
  1 35  1  0
  1 36  1  0
  4 37  1  0
  5 38  1  0
  7 39  1  0
  9 40  1  0
 14 41  1  0
 14 42  1  0
 15 43  1  0
 15 44  1  0
 17 45  1  0
 17 46  1  0
 19 47  1  0
 20 48  1  0
 23 49  1  0
 25 50  1  0
 25 51  1  0
 27 52  1  0
 27 53  1  0
 28 54  1  0
 28 55  1  0
 33 56  1  0
M  END
$$$$
