
     RDKit          3D

 39 40  0  0  0  0  0  0  0  0999 V2000
   -0.6551    3.2636    0.7026 O   0  0  0  0  0  0  0  0  0  0  0  0
   -0.7622    2.1132    1.1246 C   0  0  0  0  0  0  0  0  0  0  0  0
   -1.8049    1.1793    0.6115 C   0  0  0  0  0  0  0  0  0  0  0  0
   -2.7470    1.6222   -0.2333 C   0  0  0  0  0  0  0  0  0  0  0  0
   -3.8088    0.7822   -0.8080 C   0  0  0  0  0  0  0  0  0  0  0  0
   -4.3234    1.1229   -2.0692 C   0  0  0  0  0  0  0  0  0  0  0  0
   -5.3516    0.3743   -2.6502 C   0  0  0  0  0  0  0  0  0  0  0  0
   -5.8758   -0.7151   -1.9633 C   0  0  0  0  0  0  0  0  0  0  0  0
   -6.8779   -1.4731   -2.4917 O   0  0  0  0  0  0  0  0  0  0  0  0
   -5.3916   -1.0621   -0.7079 C   0  0  0  0  0  0  0  0  0  0  0  0
   -4.3641   -0.3121   -0.1284 C   0  0  0  0  0  0  0  0  0  0  0  0
    0.1775    1.5813    2.1682 C   0  0  0  0  0  0  0  0  0  0  0  0
    1.3474    0.8696    1.5497 C   0  0  0  0  0  0  0  0  0  0  0  0
    1.2913   -0.3367    1.3286 O   0  0  0  0  0  0  0  0  0  0  0  0
    2.5311    1.7103    1.1983 C   0  0  0  0  0  0  0  0  0  0  0  0
    3.7144    1.2879    0.7282 C   0  0  0  0  0  0  0  0  0  0  0  0
    4.1382   -0.0888    0.4687 C   0  0  0  0  0  0  0  0  0  0  0  0
    4.3239   -1.0016    1.5137 C   0  0  0  0  0  0  0  0  0  0  0  0
    4.7656   -2.3008    1.2459 C   0  0  0  0  0  0  0  0  0  0  0  0
    5.0279   -2.6801   -0.0654 C   0  0  0  0  0  0  0  0  0  0  0  0
    5.4575   -3.9568   -0.2840 O   0  0  0  0  0  0  0  0  0  0  0  0
    4.8574   -1.7828   -1.1155 C   0  0  0  0  0  0  0  0  0  0  0  0
    4.4151   -0.4841   -0.8458 C   0  0  0  0  0  0  0  0  0  0  0  0
   -1.7456    0.1468    0.9416 H   0  0  0  0  0  0  0  0  0  0  0  0
   -2.7423    2.6634   -0.5564 H   0  0  0  0  0  0  0  0  0  0  0  0
   -3.9207    1.9739   -2.6160 H   0  0  0  0  0  0  0  0  0  0  0  0
   -5.7248    0.6564   -3.6301 H   0  0  0  0  0  0  0  0  0  0  0  0
   -7.1151   -1.1113   -3.3613 H   0  0  0  0  0  0  0  0  0  0  0  0
   -5.8149   -1.9117   -0.1780 H   0  0  0  0  0  0  0  0  0  0  0  0
   -4.0165   -0.5927    0.8628 H   0  0  0  0  0  0  0  0  0  0  0  0
    0.5202    2.4070    2.8007 H   0  0  0  0  0  0  0  0  0  0  0  0
   -0.3489    0.8959    2.8417 H   0  0  0  0  0  0  0  0  0  0  0  0
    2.3815    2.7796    1.3266 H   0  0  0  0  0  0  0  0  0  0  0  0
    4.4703    2.0334    0.4831 H   0  0  0  0  0  0  0  0  0  0  0  0
    4.1173   -0.7152    2.5421 H   0  0  0  0  0  0  0  0  0  0  0  0
    4.8985   -3.0134    2.0552 H   0  0  0  0  0  0  0  0  0  0  0  0
    5.6204   -4.0681   -1.2359 H   0  0  0  0  0  0  0  0  0  0  0  0
    5.0538   -2.0723   -2.1426 H   0  0  0  0  0  0  0  0  0  0  0  0
    4.2818    0.2156   -1.6685 H   0  0  0  0  0  0  0  0  0  0  0  0
  1  2  2  0
  2  3  1  0
  3  4  2  3
  4  5  1  0
  5  6  2  0
  6  7  1  0
  7  8  2  0
  8  9  1  0
  8 10  1  0
 10 11  2  0
  2 12  1  0
 12 13  1  0
 13 14  2  0
 13 15  1  0
 15 16  2  3
 16 17  1  0
 17 18  2  0
 18 19  1  0
 19 20  2  0
 20 21  1  0
 20 22  1  0
 22 23  2  0
 11  5  1  0
 23 17  1  0
  3 24  1  0
  4 25  1  0
  6 26  1  0
  7 27  1  0
  9 28  1  0
 10 29  1  0
 11 30  1  0
 12 31  1  0
 12 32  1  0
 15 33  1  0
 16 34  1  0
 18 35  1  0
 19 36  1  0
 21 37  1  0
 22 38  1  0
 23 39  1  0
M  END
$$$$
