
     RDKit          3D

 48 51  0  0  0  0  0  0  0  0999 V2000
   -2.2376   -0.9780   -2.2811 C   0  0  0  0  0  0  0  0  0  0  0  0
   -1.6742   -2.1982   -1.5720 C   0  0  0  0  0  0  0  0  0  0  0  0
   -1.2950   -1.9215   -0.2049 N   0  0  0  0  0  0  0  0  0  0  0  0
   -2.0828   -2.0617    0.9073 C   0  0  0  0  0  0  0  0  0  0  0  0
   -3.7478   -2.5238    0.8763 S   0  0  0  0  0  0  0  0  0  0  0  0
   -4.4442   -1.2751    2.0028 C   0  0  0  0  0  0  0  0  0  0  0  0
   -4.4992    0.0948    1.3662 C   0  0  0  0  0  0  0  0  0  0  0  0
   -5.5456    0.4342    0.4923 C   0  0  0  0  0  0  0  0  0  0  0  0
   -5.5767    1.6891   -0.1175 C   0  0  0  0  0  0  0  0  0  0  0  0
   -4.5628    2.6035    0.1420 C   0  0  0  0  0  0  0  0  0  0  0  0
   -4.5921    3.8051   -0.4489 F   0  0  0  0  0  0  0  0  0  0  0  0
   -3.5176    2.2881    1.0009 C   0  0  0  0  0  0  0  0  0  0  0  0
   -3.4846    1.0348    1.6133 C   0  0  0  0  0  0  0  0  0  0  0  0
   -1.4001   -1.7557    1.9823 N   0  0  0  0  0  0  0  0  0  0  0  0
   -0.1433   -1.3904    1.5793 N   0  0  0  0  0  0  0  0  0  0  0  0
   -0.0777   -1.4777    0.2646 C   0  0  0  0  0  0  0  0  0  0  0  0
    1.2058   -1.0638   -0.5189 C   0  0  0  0  0  0  0  0  0  0  0  0
    1.4366   -0.9760   -1.8942 C   0  0  0  0  0  0  0  0  0  0  0  0
    2.6690   -0.5596   -2.1728 N   0  0  0  0  0  0  0  0  0  0  0  0
    3.2029   -0.2205   -0.9634 N   0  0  0  0  0  0  0  0  0  0  0  0
    4.3817    0.5865   -0.9477 C   0  0  0  0  0  0  0  0  0  0  0  0
    5.1801    0.6427   -2.1036 C   0  0  0  0  0  0  0  0  0  0  0  0
    6.3304    1.4344   -2.1360 C   0  0  0  0  0  0  0  0  0  0  0  0
    6.6866    2.1907   -1.0232 C   0  0  0  0  0  0  0  0  0  0  0  0
    5.8872    2.1646    0.1173 C   0  0  0  0  0  0  0  0  0  0  0  0
    4.7341    1.3731    0.1559 C   0  0  0  0  0  0  0  0  0  0  0  0
    2.4151   -0.7125    0.0608 C   0  0  0  0  0  0  0  0  0  0  0  0
    2.8850   -0.8605    1.4467 C   0  0  0  0  0  0  0  0  0  0  0  0
    2.4080   -1.9831    2.0399 F   0  0  0  0  0  0  0  0  0  0  0  0
    2.5289    0.1935    2.2206 F   0  0  0  0  0  0  0  0  0  0  0  0
    4.2365   -0.9716    1.5313 F   0  0  0  0  0  0  0  0  0  0  0  0
   -3.1511   -0.6227   -1.7934 H   0  0  0  0  0  0  0  0  0  0  0  0
   -1.5230   -0.1489   -2.2843 H   0  0  0  0  0  0  0  0  0  0  0  0
   -2.4816   -1.2228   -3.3194 H   0  0  0  0  0  0  0  0  0  0  0  0
   -0.8013   -2.5952   -2.0961 H   0  0  0  0  0  0  0  0  0  0  0  0
   -2.4091   -3.0098   -1.5759 H   0  0  0  0  0  0  0  0  0  0  0  0
   -5.4611   -1.5871    2.2677 H   0  0  0  0  0  0  0  0  0  0  0  0
   -3.8827   -1.2481    2.9436 H   0  0  0  0  0  0  0  0  0  0  0  0
   -6.3391   -0.2797    0.2805 H   0  0  0  0  0  0  0  0  0  0  0  0
   -6.3824    1.9588   -0.7926 H   0  0  0  0  0  0  0  0  0  0  0  0
   -2.7351    3.0164    1.1886 H   0  0  0  0  0  0  0  0  0  0  0  0
   -2.6575    0.7908    2.2798 H   0  0  0  0  0  0  0  0  0  0  0  0
    0.7848   -1.1923   -2.7281 H   0  0  0  0  0  0  0  0  0  0  0  0
    4.9259    0.0619   -2.9889 H   0  0  0  0  0  0  0  0  0  0  0  0
    6.9454    1.4602   -3.0320 H   0  0  0  0  0  0  0  0  0  0  0  0
    7.5807    2.8084   -1.0479 H   0  0  0  0  0  0  0  0  0  0  0  0
    6.1556    2.7714    0.9793 H   0  0  0  0  0  0  0  0  0  0  0  0
    4.1248    1.4333    1.0512 H   0  0  0  0  0  0  0  0  0  0  0  0
  1  2  1  0
  2  3  1  0
  3  4  1  0
  4  5  1  0
  5  6  1  0
  6  7  1  0
  7  8  2  0
  8  9  1  0
  9 10  2  0
 10 11  1  0
 10 12  1  0
 12 13  2  0
  4 14  2  0
 14 15  1  0
 15 16  2  0
 16 17  1  0
 17 18  1  0
 18 19  2  0
 19 20  1  0
 20 21  1  0
 21 22  2  0
 22 23  1  0
 23 24  2  0
 24 25  1  0
 25 26  2  0
 20 27  1  0
 27 28  1  0
 28 29  1  0
 28 30  1  0
 28 31  1  0
 16  3  1  0
 27 17  2  0
 13  7  1  0
 26 21  1  0
  1 32  1  0
  1 33  1  0
  1 34  1  0
  2 35  1  0
  2 36  1  0
  6 37  1  0
  6 38  1  0
  8 39  1  0
  9 40  1  0
 12 41  1  0
 13 42  1  0
 18 43  1  0
 22 44  1  0
 23 45  1  0
 24 46  1  0
 25 47  1  0
 26 48  1  0
M  END
$$$$
