
     RDKit          3D

 38 40  0  0  0  0  0  0  0  0999 V2000
   -2.0893   -0.7041   -2.4235 C   0  0  0  0  0  0  0  0  0  0  0  0
   -1.9647    0.2063   -1.2340 C   0  0  0  0  0  0  0  0  0  0  0  0
   -1.5398    1.5292   -1.4644 C   0  0  0  0  0  0  0  0  0  0  0  0
   -1.4196    2.4350   -0.4142 C   0  0  0  0  0  0  0  0  0  0  0  0
   -0.9989    3.6822   -0.6667 F   0  0  0  0  0  0  0  0  0  0  0  0
   -1.7366    2.0673    0.8834 C   0  0  0  0  0  0  0  0  0  0  0  0
   -2.1571    0.7628    1.1408 C   0  0  0  0  0  0  0  0  0  0  0  0
   -2.2508   -0.1758    0.0932 C   0  0  0  0  0  0  0  0  0  0  0  0
   -2.7383   -1.8385    0.5688 S   0  0  0  0  0  6  0  0  0  0  0  0
   -3.8230   -1.7040    1.5196 O   0  0  0  0  0  0  0  0  0  0  0  0
   -2.8806   -2.6725   -0.6027 O   0  0  0  0  0  0  0  0  0  0  0  0
   -1.4074   -2.3953    1.4612 N   0  0  0  0  0  0  0  0  0  0  0  0
   -0.1016   -2.2127    0.9249 C   0  0  0  0  0  0  0  0  0  0  0  0
    0.2856   -2.8439   -0.2551 C   0  0  0  0  0  0  0  0  0  0  0  0
    1.5254   -2.5514   -0.8234 C   0  0  0  0  0  0  0  0  0  0  0  0
    2.3651   -1.6236   -0.2126 C   0  0  0  0  0  0  0  0  0  0  0  0
    3.5318   -1.3314   -0.8643 O   0  0  0  0  0  0  0  0  0  0  0  0
    2.0051   -1.0148    0.9972 C   0  0  0  0  0  0  0  0  0  0  0  0
    3.0665    0.1352    1.8552 S   0  0  0  0  0  0  0  0  0  0  0  0
    2.9010    1.5291    0.8281 C   0  0  0  0  0  0  0  0  0  0  0  0
    2.1083    2.5974    1.1325 N   0  0  0  0  0  0  0  0  0  0  0  0
    2.2464    3.3721    0.0819 C   0  0  0  0  0  0  0  0  0  0  0  0
    3.0891    2.7860   -0.8088 N   0  0  0  0  0  0  0  0  0  0  0  0
    3.5242    1.5956   -0.3548 N   0  0  0  0  0  0  0  0  0  0  0  0
    0.7645   -1.3236    1.5658 C   0  0  0  0  0  0  0  0  0  0  0  0
   -1.8219   -0.1865   -3.3518 H   0  0  0  0  0  0  0  0  0  0  0  0
   -1.4111   -1.5553   -2.3364 H   0  0  0  0  0  0  0  0  0  0  0  0
   -3.1227   -1.0461   -2.5377 H   0  0  0  0  0  0  0  0  0  0  0  0
   -1.2942    1.8705   -2.4668 H   0  0  0  0  0  0  0  0  0  0  0  0
   -1.6430    2.7918    1.6862 H   0  0  0  0  0  0  0  0  0  0  0  0
   -2.4021    0.4787    2.1625 H   0  0  0  0  0  0  0  0  0  0  0  0
   -1.5405   -2.2438    2.4589 H   0  0  0  0  0  0  0  0  0  0  0  0
   -0.3753   -3.5538   -0.7472 H   0  0  0  0  0  0  0  0  0  0  0  0
    1.8258   -3.0266   -1.7525 H   0  0  0  0  0  0  0  0  0  0  0  0
    3.8309   -0.4508   -0.5540 H   0  0  0  0  0  0  0  0  0  0  0  0
    1.7754    4.3313   -0.0851 H   0  0  0  0  0  0  0  0  0  0  0  0
    3.4099    3.1268   -1.7101 H   0  0  0  0  0  0  0  0  0  0  0  0
    0.4632   -0.8429    2.4946 H   0  0  0  0  0  0  0  0  0  0  0  0
  1  2  1  0
  2  3  2  0
  3  4  1  0
  4  5  1  0
  4  6  2  0
  6  7  1  0
  7  8  2  0
  8  9  1  0
  9 10  2  0
  9 11  2  0
  9 12  1  0
 12 13  1  0
 13 14  2  0
 14 15  1  0
 15 16  2  0
 16 17  1  0
 16 18  1  0
 18 19  1  0
 19 20  1  0
 20 21  1  0
 21 22  2  0
 22 23  1  0
 23 24  1  0
 18 25  2  0
  8  2  1  0
 25 13  1  0
 24 20  2  0
  1 26  1  0
  1 27  1  0
  1 28  1  0
  3 29  1  0
  6 30  1  0
  7 31  1  0
 12 32  1  0
 14 33  1  0
 15 34  1  0
 17 35  1  0
 22 36  1  0
 23 37  1  0
 25 38  1  0
M  END
$$$$
