
     RDKit          3D

 72 77  0  0  0  0  0  0  0  0999 V2000
   -4.7280    0.7451    2.1278 O   0  0  0  0  0  0  0  0  0  0  0  0
   -4.4523    0.6266    0.9293 C   0  0  0  0  0  0  0  0  0  0  0  0
   -5.5573    0.4463   -0.1442 C   0  0  0  0  0  0  0  0  0  0  0  0
   -5.6579   -0.9879   -0.6726 C   0  0  0  0  0  0  0  0  0  0  0  0
   -6.1205   -1.2085   -1.9820 C   0  0  0  0  0  0  0  0  0  0  0  0
   -6.2267   -2.5030   -2.4931 C   0  0  0  0  0  0  0  0  0  0  0  0
   -5.8807   -3.5956   -1.7020 C   0  0  0  0  0  0  0  0  0  0  0  0
   -5.4357   -3.3955   -0.3974 C   0  0  0  0  0  0  0  0  0  0  0  0
   -5.3292   -2.1019    0.1170 C   0  0  0  0  0  0  0  0  0  0  0  0
   -6.9176    0.9957    0.2969 C   0  0  0  0  0  0  0  0  0  0  0  0
   -7.6761    0.3675    1.2980 C   0  0  0  0  0  0  0  0  0  0  0  0
   -8.9179    0.8786    1.6802 C   0  0  0  0  0  0  0  0  0  0  0  0
   -9.4196    2.0248    1.0692 C   0  0  0  0  0  0  0  0  0  0  0  0
   -8.6792    2.6635    0.0775 C   0  0  0  0  0  0  0  0  0  0  0  0
   -7.4366    2.1545   -0.3063 C   0  0  0  0  0  0  0  0  0  0  0  0
   -3.1160    0.6096    0.5139 N   0  0  0  0  0  0  0  0  0  0  0  0
   -2.0940    0.9602    1.5024 C   0  0  0  0  0  0  0  0  0  0  0  0
   -0.7338    0.2965    1.2172 C   0  0  0  0  0  0  0  0  0  0  0  0
   -0.2631    0.5370   -0.1684 N   0  0  0  0  0  0  0  0  0  0  0  0
    1.0214   -0.1579   -0.4336 C   0  0  0  0  0  0  0  0  0  0  0  0
    2.2060    0.5340    0.2718 C   0  0  0  0  0  0  0  0  0  0  0  0
    2.1846    1.9388   -0.0446 O   0  0  0  0  0  0  0  0  0  0  0  0
    3.5451   -0.0689   -0.1785 C   0  0  0  0  0  0  0  0  0  0  0  0
    4.6343    0.6199    0.4986 N   0  0  0  0  0  0  0  0  0  0  0  0
    5.9455    0.2368    0.3314 C   0  0  0  0  0  0  0  0  0  0  0  0
    6.2187   -0.9509   -0.1416 N   0  0  0  0  0  0  0  0  0  0  0  0
    7.5588   -1.3523   -0.3199 C   0  0  0  0  0  0  0  0  0  0  0  0
    7.8068   -2.6293   -0.8271 C   0  0  0  0  0  0  0  0  0  0  0  0
    9.1160   -3.0766   -1.0256 C   0  0  0  0  0  0  0  0  0  0  0  0
   10.1945   -2.2465   -0.7170 C   0  0  0  0  0  0  0  0  0  0  0  0
    9.9713   -0.9664   -0.2086 C   0  0  0  0  0  0  0  0  0  0  0  0
    8.6565   -0.5326   -0.0154 C   0  0  0  0  0  0  0  0  0  0  0  0
    8.3425    0.7383    0.4938 N   0  0  0  0  0  0  0  0  0  0  0  0
    9.1758    1.7593    0.8851 C   0  0  0  0  0  0  0  0  0  0  0  0
    8.3952    2.8073    1.3250 C   0  0  0  0  0  0  0  0  0  0  0  0
    7.0435    2.4098    1.1939 C   0  0  0  0  0  0  0  0  0  0  0  0
    7.0353    1.1290    0.6722 C   0  0  0  0  0  0  0  0  0  0  0  0
   -1.2982    0.0417   -1.1053 C   0  0  0  0  0  0  0  0  0  0  0  0
   -2.6713    0.7024   -0.8796 C   0  0  0  0  0  0  0  0  0  0  0  0
   -5.2459    1.0763   -0.9883 H   0  0  0  0  0  0  0  0  0  0  0  0
   -6.4112   -0.3689   -2.6101 H   0  0  0  0  0  0  0  0  0  0  0  0
   -6.5890   -2.6589   -3.5059 H   0  0  0  0  0  0  0  0  0  0  0  0
   -5.9693   -4.6039   -2.0976 H   0  0  0  0  0  0  0  0  0  0  0  0
   -5.1791   -4.2486    0.2256 H   0  0  0  0  0  0  0  0  0  0  0  0
   -4.9945   -1.9779    1.1455 H   0  0  0  0  0  0  0  0  0  0  0  0
   -7.2981   -0.5213    1.7984 H   0  0  0  0  0  0  0  0  0  0  0  0
   -9.4892    0.3824    2.4601 H   0  0  0  0  0  0  0  0  0  0  0  0
  -10.3850    2.4222    1.3703 H   0  0  0  0  0  0  0  0  0  0  0  0
   -9.0684    3.5609   -0.3959 H   0  0  0  0  0  0  0  0  0  0  0  0
   -6.8779    2.6736   -1.0813 H   0  0  0  0  0  0  0  0  0  0  0  0
   -1.9913    2.0525    1.4832 H   0  0  0  0  0  0  0  0  0  0  0  0
   -2.4200    0.6809    2.5100 H   0  0  0  0  0  0  0  0  0  0  0  0
   -0.0143    0.6987    1.9379 H   0  0  0  0  0  0  0  0  0  0  0  0
   -0.8197   -0.7823    1.4037 H   0  0  0  0  0  0  0  0  0  0  0  0
    1.2124   -0.1089   -1.5139 H   0  0  0  0  0  0  0  0  0  0  0  0
    0.9714   -1.2186   -0.1576 H   0  0  0  0  0  0  0  0  0  0  0  0
    2.1174    0.4476    1.3603 H   0  0  0  0  0  0  0  0  0  0  0  0
    1.2323    2.1655   -0.0818 H   0  0  0  0  0  0  0  0  0  0  0  0
    3.5646   -1.1395    0.0539 H   0  0  0  0  0  0  0  0  0  0  0  0
    3.6688    0.0600   -1.2602 H   0  0  0  0  0  0  0  0  0  0  0  0
    4.4763    1.6237    0.5413 H   0  0  0  0  0  0  0  0  0  0  0  0
    6.9693   -3.2784   -1.0677 H   0  0  0  0  0  0  0  0  0  0  0  0
    9.2919   -4.0738   -1.4209 H   0  0  0  0  0  0  0  0  0  0  0  0
   11.2110   -2.5995   -0.8731 H   0  0  0  0  0  0  0  0  0  0  0  0
   10.8251   -0.3393    0.0250 H   0  0  0  0  0  0  0  0  0  0  0  0
   10.2509    1.6712    0.8282 H   0  0  0  0  0  0  0  0  0  0  0  0
    8.7615    3.7536    1.7019 H   0  0  0  0  0  0  0  0  0  0  0  0
    6.1725    2.9961    1.4555 H   0  0  0  0  0  0  0  0  0  0  0  0
   -0.9902    0.2475   -2.1375 H   0  0  0  0  0  0  0  0  0  0  0  0
   -1.4071   -1.0469   -1.0055 H   0  0  0  0  0  0  0  0  0  0  0  0
   -2.6265    1.7689   -1.1314 H   0  0  0  0  0  0  0  0  0  0  0  0
   -3.3890    0.2356   -1.5554 H   0  0  0  0  0  0  0  0  0  0  0  0
  1  2  2  0
  2  3  1  0
  3  4  1  0
  4  5  2  0
  5  6  1  0
  6  7  2  0
  7  8  1  0
  8  9  2  0
  3 10  1  0
 10 11  2  0
 11 12  1  0
 12 13  2  0
 13 14  1  0
 14 15  2  0
  2 16  1  0
 16 17  1  0
 17 18  1  0
 18 19  1  0
 19 20  1  0
 20 21  1  0
 21 22  1  0
 21 23  1  0
 23 24  1  0
 24 25  1  0
 25 26  2  0
 26 27  1  0
 27 28  2  0
 28 29  1  0
 29 30  2  0
 30 31  1  0
 31 32  2  0
 32 33  1  0
 33 34  1  0
 34 35  2  0
 35 36  1  0
 36 37  2  0
 19 38  1  0
 38 39  1  0
  9  4  1  0
 15 10  1  0
 39 16  1  0
 37 25  1  0
 32 27  1  0
 37 33  1  0
  3 40  1  0
  5 41  1  0
  6 42  1  0
  7 43  1  0
  8 44  1  0
  9 45  1  0
 11 46  1  0
 12 47  1  0
 13 48  1  0
 14 49  1  0
 15 50  1  0
 17 51  1  0
 17 52  1  0
 18 53  1  0
 18 54  1  0
 20 55  1  0
 20 56  1  0
 21 57  1  0
 22 58  1  0
 23 59  1  0
 23 60  1  0
 24 61  1  0
 28 62  1  0
 29 63  1  0
 30 64  1  0
 31 65  1  0
 34 66  1  0
 35 67  1  0
 36 68  1  0
 38 69  1  0
 38 70  1  0
 39 71  1  0
 39 72  1  0
M  END
$$$$
