
     RDKit          3D

 39 42  0  0  0  0  0  0  0  0999 V2000
    5.9405    1.2622   -0.6285 C   0  0  0  0  0  0  0  0  0  0  0  0
    5.7365    0.9588    0.7287 C   0  0  0  0  0  0  0  0  0  0  0  0
    4.4958    0.4995    1.1832 C   0  0  0  0  0  0  0  0  0  0  0  0
    3.4717    0.3505    0.2632 C   0  0  0  0  0  0  0  0  0  0  0  0
    3.6837    0.6571   -1.0989 C   0  0  0  0  0  0  0  0  0  0  0  0
    4.9087    1.1124   -1.5572 C   0  0  0  0  0  0  0  0  0  0  0  0
    2.4179    0.4127   -1.8953 C   0  0  0  0  0  0  0  0  0  0  0  0
    1.4621   -0.0707   -0.8239 C   0  0  0  0  0  0  0  0  0  0  0  0
    0.1372   -0.4489   -0.9684 C   0  0  0  0  0  0  0  0  0  0  0  0
   -0.5725   -0.8597    0.1720 C   0  0  0  0  0  0  0  0  0  0  0  0
   -2.0209   -1.2941    0.0544 C   0  0  0  0  0  0  0  0  0  0  0  0
   -2.8854   -0.2812   -0.5740 N   0  0  0  0  0  0  0  0  0  0  0  0
   -4.2288   -0.8279   -0.8653 C   0  0  0  0  0  0  0  0  0  0  0  0
   -5.1194   -1.0015    0.3771 C   0  0  0  0  0  0  0  0  0  0  0  0
   -5.2475    0.2250    1.1055 O   0  0  0  0  0  0  0  0  0  0  0  0
   -3.9614    0.7309    1.4847 C   0  0  0  0  0  0  0  0  0  0  0  0
   -3.0529    0.9309    0.2600 C   0  0  0  0  0  0  0  0  0  0  0  0
    0.0783   -0.8880    1.4267 C   0  0  0  0  0  0  0  0  0  0  0  0
    1.4184   -0.5049    1.5613 C   0  0  0  0  0  0  0  0  0  0  0  0
    2.1048   -0.0963    0.4315 C   0  0  0  0  0  0  0  0  0  0  0  0
    6.9142    1.6180   -0.9574 H   0  0  0  0  0  0  0  0  0  0  0  0
    6.5548    1.0833    1.4340 H   0  0  0  0  0  0  0  0  0  0  0  0
    4.3489    0.2683    2.2324 H   0  0  0  0  0  0  0  0  0  0  0  0
    5.0661    1.3469   -2.6046 H   0  0  0  0  0  0  0  0  0  0  0  0
    2.0576    1.3429   -2.3442 H   0  0  0  0  0  0  0  0  0  0  0  0
    2.5788   -0.3636   -2.6491 H   0  0  0  0  0  0  0  0  0  0  0  0
   -0.3477   -0.4189   -1.9400 H   0  0  0  0  0  0  0  0  0  0  0  0
   -2.4007   -1.5969    1.0371 H   0  0  0  0  0  0  0  0  0  0  0  0
   -2.0166   -2.2035   -0.5617 H   0  0  0  0  0  0  0  0  0  0  0  0
   -4.7242   -0.1267   -1.5494 H   0  0  0  0  0  0  0  0  0  0  0  0
   -4.1499   -1.7766   -1.4091 H   0  0  0  0  0  0  0  0  0  0  0  0
   -4.7348   -1.7791    1.0467 H   0  0  0  0  0  0  0  0  0  0  0  0
   -6.1247   -1.3051    0.0676 H   0  0  0  0  0  0  0  0  0  0  0  0
   -4.1226    1.6927    1.9821 H   0  0  0  0  0  0  0  0  0  0  0  0
   -3.5108    0.0546    2.2197 H   0  0  0  0  0  0  0  0  0  0  0  0
   -3.5062    1.6999   -0.3796 H   0  0  0  0  0  0  0  0  0  0  0  0
   -2.0859    1.3395    0.5728 H   0  0  0  0  0  0  0  0  0  0  0  0
   -0.4633   -1.2112    2.3134 H   0  0  0  0  0  0  0  0  0  0  0  0
    1.9001   -0.5312    2.5327 H   0  0  0  0  0  0  0  0  0  0  0  0
  1  2  2  0
  2  3  1  0
  3  4  2  0
  4  5  1  0
  5  6  2  0
  5  7  1  0
  7  8  1  0
  8  9  2  0
  9 10  1  0
 10 11  1  0
 11 12  1  0
 12 13  1  0
 13 14  1  0
 14 15  1  0
 15 16  1  0
 16 17  1  0
 10 18  2  0
 18 19  1  0
 19 20  2  0
  6  1  1  0
 20  8  1  0
 20  4  1  0
 17 12  1  0
  1 21  1  0
  2 22  1  0
  3 23  1  0
  6 24  1  0
  7 25  1  0
  7 26  1  0
  9 27  1  0
 11 28  1  0
 11 29  1  0
 13 30  1  0
 13 31  1  0
 14 32  1  0
 14 33  1  0
 16 34  1  0
 16 35  1  0
 17 36  1  0
 17 37  1  0
 18 38  1  0
 19 39  1  0
M  END
$$$$
