
     RDKit          3D

 37 38  0  0  0  0  0  0  0  0999 V2000
    5.1797   -1.7746    0.6302 C   0  0  0  0  0  0  0  0  0  0  0  0
    3.9664   -1.6093   -0.2671 C   0  0  0  0  0  0  0  0  0  0  0  0
    3.1215   -0.5089    0.1529 N   0  0  0  0  0  0  0  0  0  0  0  0
    2.0022   -0.5888    0.9238 C   0  0  0  0  0  0  0  0  0  0  0  0
    1.5310    0.7015    1.0662 C   0  0  0  0  0  0  0  0  0  0  0  0
    0.3319    1.1492    1.8209 C   0  0  0  0  0  0  0  0  0  0  0  0
   -0.8358    0.8785    1.0111 N   0  0  0  0  0  0  0  0  0  0  0  0
   -1.6270   -0.2250    1.2443 C   0  0  0  0  0  0  0  0  0  0  0  0
   -1.4744   -0.9894    2.1897 O   0  0  0  0  0  0  0  0  0  0  0  0
   -2.7041   -0.4894    0.2495 C   0  0  0  0  0  0  0  0  0  0  0  0
   -3.1490   -1.8102    0.0884 C   0  0  0  0  0  0  0  0  0  0  0  0
   -4.1606   -2.1140   -0.8257 C   0  0  0  0  0  0  0  0  0  0  0  0
   -4.7435   -1.0981   -1.5825 C   0  0  0  0  0  0  0  0  0  0  0  0
   -4.3107    0.2240   -1.4112 C   0  0  0  0  0  0  0  0  0  0  0  0
   -4.9298    1.2974   -2.1988 N   0  0  0  0  0  4  0  0  0  0  0  0
   -5.8933    1.0033   -2.9194 O   0  0  0  0  0  0  0  0  0  0  0  0
   -4.4459    2.4339   -2.0975 O   0  0  0  0  0  1  0  0  0  0  0  0
   -3.2955    0.5378   -0.4951 C   0  0  0  0  0  0  0  0  0  0  0  0
    2.4550    1.4920    0.3270 C   0  0  0  0  0  0  0  0  0  0  0  0
    2.4506    2.9632    0.1308 C   0  0  0  0  0  0  0  0  0  0  0  0
    3.4141    0.7449   -0.2329 N   0  0  0  0  0  0  0  0  0  0  0  0
    5.7917   -2.6159    0.2909 H   0  0  0  0  0  0  0  0  0  0  0  0
    5.8028   -0.8740    0.6230 H   0  0  0  0  0  0  0  0  0  0  0  0
    4.8803   -1.9647    1.6664 H   0  0  0  0  0  0  0  0  0  0  0  0
    3.3574   -2.5199   -0.2589 H   0  0  0  0  0  0  0  0  0  0  0  0
    4.2701   -1.4182   -1.3023 H   0  0  0  0  0  0  0  0  0  0  0  0
    1.6321   -1.5302    1.3074 H   0  0  0  0  0  0  0  0  0  0  0  0
    0.2658    0.6419    2.7888 H   0  0  0  0  0  0  0  0  0  0  0  0
    0.3587    2.2282    2.0016 H   0  0  0  0  0  0  0  0  0  0  0  0
   -0.8592    1.3213    0.1040 H   0  0  0  0  0  0  0  0  0  0  0  0
   -2.7034   -2.6098    0.6797 H   0  0  0  0  0  0  0  0  0  0  0  0
   -4.4941   -3.1432   -0.9427 H   0  0  0  0  0  0  0  0  0  0  0  0
   -5.5315   -1.3494   -2.2903 H   0  0  0  0  0  0  0  0  0  0  0  0
   -2.9928    1.5708   -0.3449 H   0  0  0  0  0  0  0  0  0  0  0  0
    3.2398    3.2811   -0.5584 H   0  0  0  0  0  0  0  0  0  0  0  0
    1.4909    3.2902   -0.2821 H   0  0  0  0  0  0  0  0  0  0  0  0
    2.6086    3.4738    1.0860 H   0  0  0  0  0  0  0  0  0  0  0  0
  1  2  1  0
  2  3  1  0
  3  4  1  0
  4  5  2  0
  5  6  1  0
  6  7  1  0
  7  8  1  0
  8  9  2  0
  8 10  1  0
 10 11  2  0
 11 12  1  0
 12 13  2  0
 13 14  1  0
 14 15  1  0
 15 16  2  0
 15 17  1  0
 14 18  2  0
  5 19  1  0
 19 20  1  0
 19 21  2  0
 21  3  1  0
 18 10  1  0
  1 22  1  0
  1 23  1  0
  1 24  1  0
  2 25  1  0
  2 26  1  0
  4 27  1  0
  6 28  1  0
  6 29  1  0
  7 30  1  0
 11 31  1  0
 12 32  1  0
 13 33  1  0
 18 34  1  0
 20 35  1  0
 20 36  1  0
 20 37  1  0
M  CHG  2  15   1  17  -1
M  END
$$$$
