
     RDKit          3D

 57 60  0  0  0  0  0  0  0  0999 V2000
    5.2365    3.0128    0.5959 C   0  0  0  0  0  0  0  0  0  0  0  0
    4.2837    1.9437    0.1744 C   0  0  0  0  0  0  0  0  0  0  0  0
    2.9180    2.0663    0.0096 C   0  0  0  0  0  0  0  0  0  0  0  0
    2.3944    0.7942   -0.2994 C   0  0  0  0  0  0  0  0  0  0  0  0
    1.0277    0.4457   -0.5375 C   0  0  0  0  0  0  0  0  0  0  0  0
   -0.0205    1.2716   -0.3818 C   0  0  0  0  0  0  0  0  0  0  0  0
   -1.3939    0.8275   -0.6290 C   0  0  0  0  0  0  0  0  0  0  0  0
   -1.8234    0.7228   -1.9516 C   0  0  0  0  0  0  0  0  0  0  0  0
   -3.1067    0.2885   -2.2287 C   0  0  0  0  0  0  0  0  0  0  0  0
   -3.9567   -0.0553   -1.1818 C   0  0  0  0  0  0  0  0  0  0  0  0
   -5.2592   -0.5212   -1.4532 C   0  0  0  0  0  0  0  0  0  0  0  0
   -6.1618   -0.9014   -0.4457 C   0  0  0  0  0  0  0  0  0  0  0  0
   -7.4329   -1.3866   -0.7391 N   0  0  0  0  0  0  0  0  0  0  0  0
   -8.0323   -1.1077   -2.0468 C   0  0  0  0  0  0  0  0  0  0  0  0
   -8.3836   -1.6811    0.3354 C   0  0  0  0  0  0  0  0  0  0  0  0
   -5.6820   -0.8032    0.8663 C   0  0  0  0  0  0  0  0  0  0  0  0
   -4.3912   -0.3361    1.1646 C   0  0  0  0  0  0  0  0  0  0  0  0
   -3.5023    0.0534    0.1526 C   0  0  0  0  0  0  0  0  0  0  0  0
   -2.2313    0.5134    0.4006 N   0  0  0  0  0  4  0  0  0  0  0  0
   -1.7641    0.6327    1.8030 C   0  0  0  0  0  0  0  0  0  0  0  0
    3.4605   -0.0920   -0.3556 C   0  0  0  0  0  0  0  0  0  0  0  0
    3.4684   -1.5344   -0.7617 C   0  0  0  0  0  0  0  0  0  0  0  0
    4.6266    0.6091   -0.0261 N   0  0  0  0  0  0  0  0  0  0  0  0
    5.9325    0.0523    0.1078 C   0  0  0  0  0  0  0  0  0  0  0  0
    6.1175   -1.1328    0.8321 C   0  0  0  0  0  0  0  0  0  0  0  0
    7.3981   -1.6724    0.9730 C   0  0  0  0  0  0  0  0  0  0  0  0
    8.4934   -1.0354    0.3916 C   0  0  0  0  0  0  0  0  0  0  0  0
    8.3124    0.1429   -0.3313 C   0  0  0  0  0  0  0  0  0  0  0  0
    7.0351    0.6900   -0.4735 C   0  0  0  0  0  0  0  0  0  0  0  0
    5.9471    2.6511    1.3449 H   0  0  0  0  0  0  0  0  0  0  0  0
    4.6939    3.8508    1.0481 H   0  0  0  0  0  0  0  0  0  0  0  0
    5.7832    3.4067   -0.2660 H   0  0  0  0  0  0  0  0  0  0  0  0
    2.3778    2.9965    0.1262 H   0  0  0  0  0  0  0  0  0  0  0  0
    0.8383   -0.5782   -0.8562 H   0  0  0  0  0  0  0  0  0  0  0  0
    0.0994    2.3030   -0.0641 H   0  0  0  0  0  0  0  0  0  0  0  0
   -1.1562    0.9787   -2.7738 H   0  0  0  0  0  0  0  0  0  0  0  0
   -3.4307    0.2098   -3.2664 H   0  0  0  0  0  0  0  0  0  0  0  0
   -5.5618   -0.6011   -2.4960 H   0  0  0  0  0  0  0  0  0  0  0  0
   -9.0600   -1.4831   -2.1090 H   0  0  0  0  0  0  0  0  0  0  0  0
   -7.4765   -1.6074   -2.8479 H   0  0  0  0  0  0  0  0  0  0  0  0
   -8.0662   -0.0295   -2.2394 H   0  0  0  0  0  0  0  0  0  0  0  0
   -7.9658   -2.3985    1.0496 H   0  0  0  0  0  0  0  0  0  0  0  0
   -8.6732   -0.7650    0.8605 H   0  0  0  0  0  0  0  0  0  0  0  0
   -9.2961   -2.1448   -0.0552 H   0  0  0  0  0  0  0  0  0  0  0  0
   -6.3093   -1.0904    1.7082 H   0  0  0  0  0  0  0  0  0  0  0  0
   -4.1263   -0.3051    2.2173 H   0  0  0  0  0  0  0  0  0  0  0  0
   -2.5017    1.2145    2.3644 H   0  0  0  0  0  0  0  0  0  0  0  0
   -0.8113    1.1554    1.8815 H   0  0  0  0  0  0  0  0  0  0  0  0
   -1.6591   -0.3793    2.2044 H   0  0  0  0  0  0  0  0  0  0  0  0
    2.6707   -1.7452   -1.4814 H   0  0  0  0  0  0  0  0  0  0  0  0
    3.3101   -2.1764    0.1110 H   0  0  0  0  0  0  0  0  0  0  0  0
    4.4019   -1.8208   -1.2554 H   0  0  0  0  0  0  0  0  0  0  0  0
    5.2875   -1.6275    1.3289 H   0  0  0  0  0  0  0  0  0  0  0  0
    7.5443   -2.5860    1.5446 H   0  0  0  0  0  0  0  0  0  0  0  0
    9.4900   -1.4569    0.5030 H   0  0  0  0  0  0  0  0  0  0  0  0
    9.1677    0.6332   -0.7901 H   0  0  0  0  0  0  0  0  0  0  0  0
    6.9194    1.5881   -1.0729 H   0  0  0  0  0  0  0  0  0  0  0  0
  1  2  1  0
  2  3  2  0
  3  4  1  0
  4  5  1  0
  5  6  2  3
  6  7  1  0
  7  8  2  0
  8  9  1  0
  9 10  2  0
 10 11  1  0
 11 12  2  0
 12 13  1  0
 13 14  1  0
 13 15  1  0
 12 16  1  0
 16 17  2  0
 17 18  1  0
 18 19  2  0
 19 20  1  0
  4 21  2  0
 21 22  1  0
 21 23  1  0
 23 24  1  0
 24 25  2  0
 25 26  1  0
 26 27  2  0
 27 28  1  0
 28 29  2  0
 23  2  1  0
 29 24  1  0
 19  7  1  0
 18 10  1  0
  1 30  1  0
  1 31  1  0
  1 32  1  0
  3 33  1  0
  5 34  1  0
  6 35  1  0
  8 36  1  0
  9 37  1  0
 11 38  1  0
 14 39  1  0
 14 40  1  0
 14 41  1  0
 15 42  1  0
 15 43  1  0
 15 44  1  0
 16 45  1  0
 17 46  1  0
 20 47  1  0
 20 48  1  0
 20 49  1  0
 22 50  1  0
 22 51  1  0
 22 52  1  0
 25 53  1  0
 26 54  1  0
 27 55  1  0
 28 56  1  0
 29 57  1  0
M  CHG  1  19   1
M  END
$$$$
