
     RDKit          3D

 52 51  0  0  0  0  0  0  0  0999 V2000
   -3.7278    0.9856   -3.4527 C   0  0  0  0  0  0  0  0  0  0  0  0
   -4.0470    1.0448   -2.2954 C   0  0  0  0  0  0  0  0  0  0  0  0
   -4.4409    1.1368   -0.8857 C   0  0  0  0  0  0  0  0  0  0  0  0
   -3.9988   -0.1053   -0.0670 N   0  0  0  0  0  4  0  0  0  0  0  0
   -4.5036    0.1069    1.3540 C   0  0  0  0  0  0  0  0  0  0  0  0
   -4.6676   -1.3515   -0.6465 C   0  0  0  0  0  0  0  0  0  0  0  0
   -2.4601   -0.2162   -0.1240 C   0  0  0  0  0  0  0  0  0  0  0  0
   -1.8454   -1.2828    0.7922 C   0  0  0  0  0  0  0  0  0  0  0  0
   -1.4348   -0.8298    2.2017 C   0  0  0  0  0  0  0  0  0  0  0  0
   -0.5011    0.3827    2.2868 C   0  0  0  0  0  0  0  0  0  0  0  0
    0.7976    0.2144    1.4949 C   0  0  0  0  0  0  0  0  0  0  0  0
    1.7393    1.4011    1.7183 C   0  0  0  0  0  0  0  0  0  0  0  0
    3.0883    1.2445    1.0088 C   0  0  0  0  0  0  0  0  0  0  0  0
    2.9749    1.2864   -0.5178 C   0  0  0  0  0  0  0  0  0  0  0  0
    4.3326    1.2893   -1.2231 C   0  0  0  0  0  0  0  0  0  0  0  0
    5.2192    0.0574   -1.0036 C   0  0  0  0  0  0  0  0  0  0  0  0
    4.6607   -1.2481   -1.5803 C   0  0  0  0  0  0  0  0  0  0  0  0
    3.8952   -2.0870   -0.5674 C   0  0  0  0  0  0  0  0  0  0  0  0
   -3.4481    0.9474   -4.4833 H   0  0  0  0  0  0  0  0  0  0  0  0
   -3.9881    2.0136   -0.4073 H   0  0  0  0  0  0  0  0  0  0  0  0
   -5.5310    1.2139   -0.7938 H   0  0  0  0  0  0  0  0  0  0  0  0
   -3.9618    0.9500    1.7930 H   0  0  0  0  0  0  0  0  0  0  0  0
   -4.3455   -0.8100    1.9270 H   0  0  0  0  0  0  0  0  0  0  0  0
   -5.5764    0.3228    1.3156 H   0  0  0  0  0  0  0  0  0  0  0  0
   -4.2351   -1.5712   -1.6266 H   0  0  0  0  0  0  0  0  0  0  0  0
   -4.5000   -2.1922    0.0323 H   0  0  0  0  0  0  0  0  0  0  0  0
   -5.7419   -1.1588   -0.7317 H   0  0  0  0  0  0  0  0  0  0  0  0
   -2.2103   -0.4728   -1.1601 H   0  0  0  0  0  0  0  0  0  0  0  0
   -2.0574    0.7806    0.0778 H   0  0  0  0  0  0  0  0  0  0  0  0
   -0.9404   -1.6567    0.2950 H   0  0  0  0  0  0  0  0  0  0  0  0
   -2.4980   -2.1568    0.8816 H   0  0  0  0  0  0  0  0  0  0  0  0
   -0.9399   -1.6792    2.6917 H   0  0  0  0  0  0  0  0  0  0  0  0
   -2.3217   -0.6203    2.8069 H   0  0  0  0  0  0  0  0  0  0  0  0
   -0.2576    0.5455    3.3446 H   0  0  0  0  0  0  0  0  0  0  0  0
   -1.0252    1.2860    1.9552 H   0  0  0  0  0  0  0  0  0  0  0  0
    1.2966   -0.7128    1.8006 H   0  0  0  0  0  0  0  0  0  0  0  0
    0.5656    0.1267    0.4289 H   0  0  0  0  0  0  0  0  0  0  0  0
    1.9296    1.5088    2.7935 H   0  0  0  0  0  0  0  0  0  0  0  0
    1.2547    2.3284    1.3893 H   0  0  0  0  0  0  0  0  0  0  0  0
    3.7446    2.0598    1.3390 H   0  0  0  0  0  0  0  0  0  0  0  0
    3.5581    0.3099    1.3342 H   0  0  0  0  0  0  0  0  0  0  0  0
    2.4430    2.2022   -0.8068 H   0  0  0  0  0  0  0  0  0  0  0  0
    2.3705    0.4540   -0.8904 H   0  0  0  0  0  0  0  0  0  0  0  0
    4.8926    2.1768   -0.9004 H   0  0  0  0  0  0  0  0  0  0  0  0
    4.1624    1.4142   -2.3005 H   0  0  0  0  0  0  0  0  0  0  0  0
    5.4733   -0.0585    0.0562 H   0  0  0  0  0  0  0  0  0  0  0  0
    6.1684    0.2622   -1.5167 H   0  0  0  0  0  0  0  0  0  0  0  0
    4.0318   -1.0501   -2.4561 H   0  0  0  0  0  0  0  0  0  0  0  0
    5.5047   -1.8545   -1.9329 H   0  0  0  0  0  0  0  0  0  0  0  0
    4.5181   -2.3136    0.3042 H   0  0  0  0  0  0  0  0  0  0  0  0
    2.9893   -1.5864   -0.2204 H   0  0  0  0  0  0  0  0  0  0  0  0
    3.5948   -3.0381   -1.0204 H   0  0  0  0  0  0  0  0  0  0  0  0
  1  2  3  0
  2  3  1  0
  3  4  1  0
  4  5  1  0
  4  6  1  0
  4  7  1  0
  7  8  1  0
  8  9  1  0
  9 10  1  0
 10 11  1  0
 11 12  1  0
 12 13  1  0
 13 14  1  0
 14 15  1  0
 15 16  1  0
 16 17  1  0
 17 18  1  0
  1 19  1  0
  3 20  1  0
  3 21  1  0
  5 22  1  0
  5 23  1  0
  5 24  1  0
  6 25  1  0
  6 26  1  0
  6 27  1  0
  7 28  1  0
  7 29  1  0
  8 30  1  0
  8 31  1  0
  9 32  1  0
  9 33  1  0
 10 34  1  0
 10 35  1  0
 11 36  1  0
 11 37  1  0
 12 38  1  0
 12 39  1  0
 13 40  1  0
 13 41  1  0
 14 42  1  0
 14 43  1  0
 15 44  1  0
 15 45  1  0
 16 46  1  0
 16 47  1  0
 17 48  1  0
 17 49  1  0
 18 50  1  0
 18 51  1  0
 18 52  1  0
M  CHG  1   4   1
M  END
$$$$
