
     RDKit          3D

 69 71  0  0  0  0  0  0  0  0999 V2000
   -6.5316    3.1806   -0.1976 C   0  0  0  0  0  0  0  0  0  0  0  0
   -5.5976    2.2333   -0.7042 O   0  0  0  0  0  0  0  0  0  0  0  0
   -4.2704    2.5548   -0.5823 C   0  0  0  0  0  0  0  0  0  0  0  0
   -3.8271    3.8838   -0.5831 C   0  0  0  0  0  0  0  0  0  0  0  0
   -2.4746    4.1824   -0.4418 C   0  0  0  0  0  0  0  0  0  0  0  0
   -1.5487    3.1555   -0.2941 C   0  0  0  0  0  0  0  0  0  0  0  0
   -1.9587    1.8081   -0.2978 C   0  0  0  0  0  0  0  0  0  0  0  0
   -0.8790    0.7346   -0.1395 C   0  0  0  0  0  0  0  0  0  0  0  0
   -1.2788   -0.3926    0.8656 C   0  0  0  0  0  0  0  0  0  0  0  0
   -1.6326   -0.1348    2.0163 O   0  0  0  0  0  0  0  0  0  0  0  0
   -1.1634   -1.6850    0.3827 N   0  0  0  0  0  0  0  0  0  0  0  0
   -1.5411   -2.8975    1.1201 C   0  0  0  0  0  0  0  0  0  0  0  0
   -0.7377   -3.0287    2.4244 C   0  0  0  0  0  0  0  0  0  0  0  0
   -1.2118   -4.1112    0.2321 C   0  0  0  0  0  0  0  0  0  0  0  0
   -3.0468   -2.9057    1.4220 C   0  0  0  0  0  0  0  0  0  0  0  0
   -0.3024    0.2310   -1.4270 N   0  0  0  0  0  0  0  0  0  0  0  0
    0.9836   -0.3209   -1.4938 C   0  0  0  0  0  0  0  0  0  0  0  0
    1.3424   -1.0456   -2.4250 O   0  0  0  0  0  0  0  0  0  0  0  0
    1.9473   -0.0032   -0.3631 C   0  0  0  0  0  0  0  0  0  0  0  0
    3.3449   -0.5395   -0.6650 C   0  0  0  0  0  0  0  0  0  0  0  0
    4.3288   -0.2070    0.4375 C   0  0  0  0  0  0  0  0  0  0  0  0
    3.9711    0.2461    1.5192 O   0  0  0  0  0  0  0  0  0  0  0  0
    5.6241   -0.4923    0.0700 N   0  0  0  0  0  0  0  0  0  0  0  0
    6.7337   -0.3222    0.8666 C   0  0  0  0  0  0  0  0  0  0  0  0
    6.8194    0.0983    2.2117 C   0  0  0  0  0  0  0  0  0  0  0  0
    8.1628    0.0778    2.4946 C   0  0  0  0  0  0  0  0  0  0  0  0
    8.9675    0.3816    3.6898 C   0  0  0  0  0  0  0  0  0  0  0  0
    8.8436   -0.3219    1.3886 O   0  0  0  0  0  0  0  0  0  0  0  0
    7.9490   -0.5770    0.3668 N   0  0  0  0  0  0  0  0  0  0  0  0
   -1.1998    0.0605   -2.5624 C   0  0  0  0  0  0  0  0  0  0  0  0
   -0.7445    0.2082   -3.9973 C   0  0  0  0  0  0  0  0  0  0  0  0
   -1.6292    1.2466   -3.3955 C   0  0  0  0  0  0  0  0  0  0  0  0
   -3.3295    1.5079   -0.4813 C   0  0  0  0  0  0  0  0  0  0  0  0
   -3.6299    0.1670   -0.5040 O   0  0  0  0  0  0  0  0  0  0  0  0
   -4.7492   -0.2467   -1.2768 C   0  0  0  0  0  0  0  0  0  0  0  0
   -7.5016    2.6806   -0.1250 H   0  0  0  0  0  0  0  0  0  0  0  0
   -6.6452    4.0231   -0.8863 H   0  0  0  0  0  0  0  0  0  0  0  0
   -6.2569    3.5240    0.8051 H   0  0  0  0  0  0  0  0  0  0  0  0
   -4.5185    4.7114   -0.7045 H   0  0  0  0  0  0  0  0  0  0  0  0
   -2.1432    5.2177   -0.4434 H   0  0  0  0  0  0  0  0  0  0  0  0
   -0.4976    3.4115   -0.1775 H   0  0  0  0  0  0  0  0  0  0  0  0
   -0.0556    1.2275    0.3911 H   0  0  0  0  0  0  0  0  0  0  0  0
   -1.0660   -1.7686   -0.6224 H   0  0  0  0  0  0  0  0  0  0  0  0
   -0.9277   -3.9924    2.9099 H   0  0  0  0  0  0  0  0  0  0  0  0
    0.3389   -2.9551    2.2326 H   0  0  0  0  0  0  0  0  0  0  0  0
   -0.9955   -2.2492    3.1475 H   0  0  0  0  0  0  0  0  0  0  0  0
   -1.7647   -4.0690   -0.7140 H   0  0  0  0  0  0  0  0  0  0  0  0
   -1.4672   -5.0542    0.7290 H   0  0  0  0  0  0  0  0  0  0  0  0
   -0.1447   -4.1397   -0.0183 H   0  0  0  0  0  0  0  0  0  0  0  0
   -3.3451   -3.8346    1.9227 H   0  0  0  0  0  0  0  0  0  0  0  0
   -3.3388   -2.0740    2.0723 H   0  0  0  0  0  0  0  0  0  0  0  0
   -3.6331   -2.8179    0.5005 H   0  0  0  0  0  0  0  0  0  0  0  0
    2.0039    1.0846   -0.2410 H   0  0  0  0  0  0  0  0  0  0  0  0
    1.5748   -0.4496    0.5648 H   0  0  0  0  0  0  0  0  0  0  0  0
    3.7112   -0.1128   -1.6068 H   0  0  0  0  0  0  0  0  0  0  0  0
    3.3169   -1.6299   -0.7751 H   0  0  0  0  0  0  0  0  0  0  0  0
    5.8356   -0.8333   -0.8573 H   0  0  0  0  0  0  0  0  0  0  0  0
    6.0193    0.3675    2.8861 H   0  0  0  0  0  0  0  0  0  0  0  0
    9.6546   -0.4405    3.9127 H   0  0  0  0  0  0  0  0  0  0  0  0
    8.3284    0.5342    4.5644 H   0  0  0  0  0  0  0  0  0  0  0  0
    9.5560    1.2917    3.5357 H   0  0  0  0  0  0  0  0  0  0  0  0
   -1.9411   -0.7167   -2.3965 H   0  0  0  0  0  0  0  0  0  0  0  0
   -1.1683   -0.4670   -4.7314 H   0  0  0  0  0  0  0  0  0  0  0  0
    0.2842    0.4796   -4.2003 H   0  0  0  0  0  0  0  0  0  0  0  0
   -1.1858    2.2151   -3.1992 H   0  0  0  0  0  0  0  0  0  0  0  0
   -2.6625    1.2918   -3.7164 H   0  0  0  0  0  0  0  0  0  0  0  0
   -4.8307    0.3035   -2.2201 H   0  0  0  0  0  0  0  0  0  0  0  0
   -4.6004   -1.3018   -1.5286 H   0  0  0  0  0  0  0  0  0  0  0  0
   -5.6676   -0.1840   -0.6865 H   0  0  0  0  0  0  0  0  0  0  0  0
  1  2  1  0
  2  3  1  0
  3  4  2  0
  4  5  1  0
  5  6  2  0
  6  7  1  0
  7  8  1  0
  8  9  1  0
  9 10  2  0
  9 11  1  0
 11 12  1  0
 12 13  1  0
 12 14  1  0
 12 15  1  0
  8 16  1  0
 16 17  1  0
 17 18  2  0
 17 19  1  0
 19 20  1  0
 20 21  1  0
 21 22  2  0
 21 23  1  0
 23 24  1  0
 24 25  1  0
 25 26  2  0
 26 27  1  0
 26 28  1  0
 28 29  1  0
 16 30  1  0
 30 31  1  0
 31 32  1  0
  7 33  2  0
 33 34  1  0
 34 35  1  0
 33  3  1  0
 29 24  2  0
 32 30  1  0
  1 36  1  0
  1 37  1  0
  1 38  1  0
  4 39  1  0
  5 40  1  0
  6 41  1  0
  8 42  1  0
 11 43  1  0
 13 44  1  0
 13 45  1  0
 13 46  1  0
 14 47  1  0
 14 48  1  0
 14 49  1  0
 15 50  1  0
 15 51  1  0
 15 52  1  0
 19 53  1  0
 19 54  1  0
 20 55  1  0
 20 56  1  0
 23 57  1  0
 25 58  1  0
 27 59  1  0
 27 60  1  0
 27 61  1  0
 30 62  1  0
 31 63  1  0
 31 64  1  0
 32 65  1  0
 32 66  1  0
 35 67  1  0
 35 68  1  0
 35 69  1  0
M  END
$$$$
