
     RDKit          3D

 97 99  0  0  0  0  0  0  0  0999 V2000
   -3.4782    3.2426   -3.4566 C   0  0  0  0  0  0  0  0  0  0  0  0
   -2.5926    2.2511   -2.7678 C   0  0  0  0  0  0  0  0  0  0  0  0
   -1.6131    1.7313   -3.2798 O   0  0  0  0  0  0  0  0  0  0  0  0
   -3.0120    2.0526   -1.4904 O   0  0  0  0  0  0  0  0  0  0  0  0
   -2.2422    1.1293   -0.6679 C   0  0  1  0  0  0  0  0  0  0  0  0
   -1.1999    1.9189    0.1807 C   0  0  2  0  0  0  0  0  0  0  0  0
   -0.2508    2.6041   -0.6659 O   0  0  0  0  0  0  0  0  0  0  0  0
   -0.5171    3.8926   -0.9938 C   0  0  0  0  0  0  0  0  0  0  0  0
    0.5630    4.4408   -1.8716 C   0  0  0  0  0  0  0  0  0  0  0  0
   -1.4938    4.5333   -0.6318 O   0  0  0  0  0  0  0  0  0  0  0  0
   -0.3485    1.0876    1.1471 C   0  0  0  0  0  0  0  0  0  0  0  0
   -0.3963    1.6015    2.5694 C   0  0  0  0  0  0  0  0  0  0  0  0
    0.4479    0.0262    0.8716 C   0  0  0  0  0  0  0  0  0  0  0  0
    0.7569   -0.6357   -0.4521 C   0  0  1  0  0  0  0  0  0  0  0  0
    1.7275    0.1570   -1.3637 C   0  0  1  0  0  0  0  0  0  0  0  0
    2.8691    0.5525   -0.5824 O   0  0  0  0  0  0  0  0  0  0  0  0
    3.3843    1.7769   -0.8405 C   0  0  0  0  0  0  0  0  0  0  0  0
    3.1425    2.4737   -1.8125 O   0  0  0  0  0  0  0  0  0  0  0  0
    4.3151    2.1760    0.2445 C   0  0  0  0  0  0  0  0  0  0  0  0
    4.2712    1.5860    1.5157 C   0  0  0  0  0  0  0  0  0  0  0  0
    5.1463    2.0123    2.5170 C   0  0  0  0  0  0  0  0  0  0  0  0
    6.0596    3.0349    2.2581 C   0  0  0  0  0  0  0  0  0  0  0  0
    6.0996    3.6341    0.9989 C   0  0  0  0  0  0  0  0  0  0  0  0
    5.2301    3.2079   -0.0067 C   0  0  0  0  0  0  0  0  0  0  0  0
    2.0679   -0.8373   -2.4997 C   0  0  1  0  0  0  0  0  0  0  0  0
    3.5339   -0.8831   -2.9139 C   0  0  0  0  0  0  0  0  0  0  0  0
    1.5333   -2.2153   -2.0300 C   0  0  0  0  0  0  0  0  0  0  0  0
    1.3456   -2.0856   -0.4931 C   0  0  1  0  0  0  0  0  0  0  0  0
    2.7524   -2.2044   -0.0712 O   0  0  0  0  0  0  0  0  0  0  0  0
    3.2648   -2.0571    1.1674 C   0  0  0  0  0  0  0  0  0  0  0  0
    4.7520   -2.2369    1.1083 C   0  0  0  0  0  0  0  0  0  0  0  0
    2.6595   -1.7916    2.1938 O   0  0  0  0  0  0  0  0  0  0  0  0
    0.5138   -3.2774    0.0796 C   0  0  1  0  0  0  0  0  0  0  0  0
    0.3679   -3.1437    1.5147 O   0  0  0  0  0  0  0  0  0  0  0  0
    0.9255   -4.1050    2.2995 C   0  0  0  0  0  0  0  0  0  0  0  0
    0.6008   -3.8518    3.7401 C   0  0  0  0  0  0  0  0  0  0  0  0
    1.5676   -5.0664    1.8975 O   0  0  0  0  0  0  0  0  0  0  0  0
   -0.9143   -3.5318   -0.5025 C   0  0  1  0  0  0  0  0  0  0  0  0
   -1.4305   -4.9072   -0.0493 C   0  0  0  0  0  0  0  0  0  0  0  0
   -1.9493   -2.5072   -0.0840 C   0  0  0  0  0  0  0  0  0  0  0  0
   -2.8354   -1.9219   -0.9122 C   0  0  0  0  0  0  0  0  0  0  0  0
   -3.8971   -0.9041   -0.4772 C   0  0  0  0  0  0  0  0  0  0  0  0
   -4.7247   -0.4933   -1.7138 C   0  0  0  0  0  0  0  0  0  0  0  0
   -4.8775   -1.5992    0.4995 C   0  0  0  0  0  0  0  0  0  0  0  0
   -3.2404    0.3382    0.2292 C   0  0  2  0  0  0  0  0  0  0  0  0
   -4.2750    1.2641    0.6564 O   0  0  0  0  0  0  0  0  0  0  0  0
   -4.5154    1.3975    1.9841 C   0  0  0  0  0  0  0  0  0  0  0  0
   -5.5648    2.4426    2.2049 C   0  0  0  0  0  0  0  0  0  0  0  0
   -3.9620    0.7780    2.8782 O   0  0  0  0  0  0  0  0  0  0  0  0
   -3.4477    3.0619   -4.5352 H   0  0  0  0  0  0  0  0  0  0  0  0
   -3.1339    4.2561   -3.2415 H   0  0  0  0  0  0  0  0  0  0  0  0
   -4.5149    3.1186   -3.1258 H   0  0  0  0  0  0  0  0  0  0  0  0
   -1.7200    0.4445   -1.3339 H   0  0  0  0  0  0  0  0  0  0  0  0
   -1.7534    2.6651    0.7696 H   0  0  0  0  0  0  0  0  0  0  0  0
    1.4447    4.6799   -1.2743 H   0  0  0  0  0  0  0  0  0  0  0  0
    0.2033    5.3490   -2.3655 H   0  0  0  0  0  0  0  0  0  0  0  0
    0.8097    3.7175   -2.6534 H   0  0  0  0  0  0  0  0  0  0  0  0
   -1.4176    1.5462    2.9583 H   0  0  0  0  0  0  0  0  0  0  0  0
   -0.0664    2.6457    2.6031 H   0  0  0  0  0  0  0  0  0  0  0  0
    0.2474    1.0302    3.2470 H   0  0  0  0  0  0  0  0  0  0  0  0
    0.9762   -0.4073    1.7155 H   0  0  0  0  0  0  0  0  0  0  0  0
   -0.1861   -0.7051   -0.9942 H   0  0  0  0  0  0  0  0  0  0  0  0
    1.2213    1.0321   -1.7859 H   0  0  0  0  0  0  0  0  0  0  0  0
    3.5443    0.8092    1.7490 H   0  0  0  0  0  0  0  0  0  0  0  0
    5.1134    1.5521    3.5010 H   0  0  0  0  0  0  0  0  0  0  0  0
    6.7348    3.3713    3.0407 H   0  0  0  0  0  0  0  0  0  0  0  0
    6.8051    4.4387    0.8009 H   0  0  0  0  0  0  0  0  0  0  0  0
    5.2598    3.6855   -0.9834 H   0  0  0  0  0  0  0  0  0  0  0  0
    1.4868   -0.5569   -3.3876 H   0  0  0  0  0  0  0  0  0  0  0  0
    4.1882   -1.2052   -2.1007 H   0  0  0  0  0  0  0  0  0  0  0  0
    3.6710   -1.5790   -3.7448 H   0  0  0  0  0  0  0  0  0  0  0  0
    3.8712    0.1001   -3.2538 H   0  0  0  0  0  0  0  0  0  0  0  0
    0.5827   -2.3961   -2.5406 H   0  0  0  0  0  0  0  0  0  0  0  0
    2.2157   -3.0289   -2.2993 H   0  0  0  0  0  0  0  0  0  0  0  0
    4.9932   -3.1913    0.6406 H   0  0  0  0  0  0  0  0  0  0  0  0
    5.1999   -1.4126    0.5518 H   0  0  0  0  0  0  0  0  0  0  0  0
    5.1584   -2.2411    2.1235 H   0  0  0  0  0  0  0  0  0  0  0  0
    1.1072   -4.1724   -0.1504 H   0  0  0  0  0  0  0  0  0  0  0  0
    1.2618   -4.4527    4.3695 H   0  0  0  0  0  0  0  0  0  0  0  0
   -0.4400   -4.1306    3.9332 H   0  0  0  0  0  0  0  0  0  0  0  0
    0.7645   -2.8003    3.9886 H   0  0  0  0  0  0  0  0  0  0  0  0
   -0.8566   -3.5712   -1.5950 H   0  0  0  0  0  0  0  0  0  0  0  0
   -1.5845   -4.9480    1.0348 H   0  0  0  0  0  0  0  0  0  0  0  0
   -0.7228   -5.6990   -0.3208 H   0  0  0  0  0  0  0  0  0  0  0  0
   -2.3890   -5.1417   -0.5278 H   0  0  0  0  0  0  0  0  0  0  0  0
   -1.9783   -2.2741    0.9816 H   0  0  0  0  0  0  0  0  0  0  0  0
   -2.8170   -2.1858   -1.9698 H   0  0  0  0  0  0  0  0  0  0  0  0
   -5.4548    0.2869   -1.4704 H   0  0  0  0  0  0  0  0  0  0  0  0
   -5.2808   -1.3500   -2.1138 H   0  0  0  0  0  0  0  0  0  0  0  0
   -4.0908   -0.1237   -2.5261 H   0  0  0  0  0  0  0  0  0  0  0  0
   -4.3920   -1.8512    1.4502 H   0  0  0  0  0  0  0  0  0  0  0  0
   -5.7389   -0.9617    0.7289 H   0  0  0  0  0  0  0  0  0  0  0  0
   -5.2692   -2.5304    0.0723 H   0  0  0  0  0  0  0  0  0  0  0  0
   -2.7017   -0.0451    1.1011 H   0  0  0  0  0  0  0  0  0  0  0  0
   -6.4417    2.2270    1.5879 H   0  0  0  0  0  0  0  0  0  0  0  0
   -5.8708    2.4281    3.2540 H   0  0  0  0  0  0  0  0  0  0  0  0
   -5.1591    3.4276    1.9655 H   0  0  0  0  0  0  0  0  0  0  0  0
  1  2  1  0
  2  3  2  0
  2  4  1  0
  4  5  1  0
  5  6  1  0
  6  7  1  0
  7  8  1  0
  8  9  1  0
  8 10  2  0
  6 11  1  0
 11 12  1  0
 11 13  2  0
 13 14  1  0
 14 15  1  0
 15 16  1  0
 16 17  1  0
 17 18  2  0
 17 19  1  0
 19 20  2  0
 20 21  1  0
 21 22  2  0
 22 23  1  0
 23 24  2  0
 15 25  1  0
 25 26  1  0
 25 27  1  0
 27 28  1  0
 28 29  1  1
 29 30  1  0
 30 31  1  0
 30 32  2  0
 28 33  1  0
 33 34  1  0
 34 35  1  0
 35 36  1  0
 35 37  2  0
 33 38  1  0
 38 39  1  0
 38 40  1  0
 40 41  2  0
 41 42  1  0
 42 43  1  0
 42 44  1  0
 42 45  1  0
 45 46  1  0
 46 47  1  0
 47 48  1  0
 47 49  2  0
 45  5  1  0
 28 14  1  0
 24 19  1  0
  1 50  1  0
  1 51  1  0
  1 52  1  0
  5 53  1  6
  6 54  1  1
  9 55  1  0
  9 56  1  0
  9 57  1  0
 12 58  1  0
 12 59  1  0
 12 60  1  0
 13 61  1  0
 14 62  1  6
 15 63  1  6
 20 64  1  0
 21 65  1  0
 22 66  1  0
 23 67  1  0
 24 68  1  0
 25 69  1  6
 26 70  1  0
 26 71  1  0
 26 72  1  0
 27 73  1  0
 27 74  1  0
 31 75  1  0
 31 76  1  0
 31 77  1  0
 33 78  1  1
 36 79  1  0
 36 80  1  0
 36 81  1  0
 38 82  1  6
 39 83  1  0
 39 84  1  0
 39 85  1  0
 40 86  1  0
 41 87  1  0
 43 88  1  0
 43 89  1  0
 43 90  1  0
 44 91  1  0
 44 92  1  0
 44 93  1  0
 45 94  1  1
 48 95  1  0
 48 96  1  0
 48 97  1  0
M  END
$$$$
