
     RDKit          3D

 51 54  0  0  0  0  0  0  0  0999 V2000
   -3.5054   -4.5012    2.1454 C   0  0  0  0  0  0  0  0  0  0  0  0
   -2.1202   -4.2203    2.3068 O   0  0  0  0  0  0  0  0  0  0  0  0
   -1.6399   -3.0779    1.7273 C   0  0  0  0  0  0  0  0  0  0  0  0
   -2.3776   -2.2083    0.9289 C   0  0  0  0  0  0  0  0  0  0  0  0
   -1.7776   -1.0517    0.3920 C   0  0  0  0  0  0  0  0  0  0  0  0
   -2.5799   -0.1676   -0.4693 C   0  0  0  0  0  0  0  0  0  0  0  0
   -3.7410   -0.4810   -0.7226 O   0  0  0  0  0  0  0  0  0  0  0  0
   -1.9494    0.9608   -0.9676 N   0  0  0  0  0  0  0  0  0  0  0  0
   -2.7345    1.8589   -1.8018 C   0  0  0  0  0  0  0  0  0  0  0  0
   -3.1976    3.0186   -0.9873 C   0  0  0  0  0  0  0  0  0  0  0  0
   -2.6925    4.2859   -0.7750 C   0  0  0  0  0  0  0  0  0  0  0  0
   -3.5918    4.9320    0.1067 C   0  0  0  0  0  0  0  0  0  0  0  0
   -4.5859    4.0207    0.3765 C   0  0  0  0  0  0  0  0  0  0  0  0
   -4.3550    2.8565   -0.2821 O   0  0  0  0  0  0  0  0  0  0  0  0
   -0.6160    1.2793   -0.7624 C   0  0  0  0  0  0  0  0  0  0  0  0
   -0.0853    2.2528   -1.3068 O   0  0  0  0  0  0  0  0  0  0  0  0
    0.1084    0.4542    0.0926 N   0  0  0  0  0  0  0  0  0  0  0  0
    1.5163    0.8039    0.3020 C   0  0  0  0  0  0  0  0  0  0  0  0
    2.4134    0.1287   -0.7355 C   0  0  0  0  0  0  0  0  0  0  0  0
    2.1015   -0.9208   -1.2997 O   0  0  0  0  0  0  0  0  0  0  0  0
    3.7376    0.7450   -1.0493 C   0  0  0  0  0  0  0  0  0  0  0  0
    4.3257    1.7192   -0.2307 C   0  0  0  0  0  0  0  0  0  0  0  0
    5.5658    2.2671   -0.5732 C   0  0  0  0  0  0  0  0  0  0  0  0
    6.2260    1.8412   -1.7269 C   0  0  0  0  0  0  0  0  0  0  0  0
    5.6462    0.8649   -2.5349 C   0  0  0  0  0  0  0  0  0  0  0  0
    6.5428    0.2862   -4.0969 Br  0  0  0  0  0  0  0  0  0  0  0  0
    4.4101    0.3130   -2.2025 C   0  0  0  0  0  0  0  0  0  0  0  0
   -0.4448   -0.7318    0.6485 C   0  0  0  0  0  0  0  0  0  0  0  0
    0.2957   -1.6154    1.4433 C   0  0  0  0  0  0  0  0  0  0  0  0
   -0.2922   -2.7785    1.9557 C   0  0  0  0  0  0  0  0  0  0  0  0
    0.4895   -3.5827    2.7492 O   0  0  0  0  0  0  0  0  0  0  0  0
    1.0336   -4.6512    1.9705 C   0  0  0  0  0  0  0  0  0  0  0  0
   -3.7279   -5.4173    2.7011 H   0  0  0  0  0  0  0  0  0  0  0  0
   -3.7493   -4.6828    1.0935 H   0  0  0  0  0  0  0  0  0  0  0  0
   -4.1237   -3.7003    2.5641 H   0  0  0  0  0  0  0  0  0  0  0  0
   -3.4226   -2.4016    0.7010 H   0  0  0  0  0  0  0  0  0  0  0  0
   -2.1230    2.2144   -2.6396 H   0  0  0  0  0  0  0  0  0  0  0  0
   -3.5973    1.3418   -2.2359 H   0  0  0  0  0  0  0  0  0  0  0  0
   -1.7819    4.6845   -1.2035 H   0  0  0  0  0  0  0  0  0  0  0  0
   -3.5247    5.9367    0.4982 H   0  0  0  0  0  0  0  0  0  0  0  0
   -5.4803    4.0427    0.9844 H   0  0  0  0  0  0  0  0  0  0  0  0
    1.6191    1.8907    0.2128 H   0  0  0  0  0  0  0  0  0  0  0  0
    1.8419    0.5427    1.3125 H   0  0  0  0  0  0  0  0  0  0  0  0
    3.8490    2.0699    0.6814 H   0  0  0  0  0  0  0  0  0  0  0  0
    6.0202    3.0265    0.0607 H   0  0  0  0  0  0  0  0  0  0  0  0
    7.1901    2.2738   -1.9853 H   0  0  0  0  0  0  0  0  0  0  0  0
    3.9643   -0.4480   -2.8412 H   0  0  0  0  0  0  0  0  0  0  0  0
    1.3428   -1.4537    1.6737 H   0  0  0  0  0  0  0  0  0  0  0  0
    0.2546   -5.2322    1.4650 H   0  0  0  0  0  0  0  0  0  0  0  0
    1.7549   -4.2660    1.2388 H   0  0  0  0  0  0  0  0  0  0  0  0
    1.5679   -5.3222    2.6506 H   0  0  0  0  0  0  0  0  0  0  0  0
  1  2  1  0
  2  3  1  0
  3  4  2  0
  4  5  1  0
  5  6  1  0
  6  7  2  0
  6  8  1  0
  8  9  1  0
  9 10  1  0
 10 11  2  0
 11 12  1  0
 12 13  2  0
 13 14  1  0
  8 15  1  0
 15 16  2  0
 15 17  1  0
 17 18  1  0
 18 19  1  0
 19 20  2  0
 19 21  1  0
 21 22  2  0
 22 23  1  0
 23 24  2  0
 24 25  1  0
 25 26  1  0
 25 27  2  0
 17 28  1  0
 28 29  1  0
 29 30  2  0
 30 31  1  0
 31 32  1  0
 30  3  1  0
 28  5  2  0
 14 10  1  0
 27 21  1  0
  1 33  1  0
  1 34  1  0
  1 35  1  0
  4 36  1  0
  9 37  1  0
  9 38  1  0
 11 39  1  0
 12 40  1  0
 13 41  1  0
 18 42  1  0
 18 43  1  0
 22 44  1  0
 23 45  1  0
 24 46  1  0
 27 47  1  0
 29 48  1  0
 32 49  1  0
 32 50  1  0
 32 51  1  0
M  END
$$$$
