
     RDKit          3D

 38 40  0  0  0  0  0  0  0  0999 V2000
   -7.8867    0.8066   -0.2527 C   0  0  0  0  0  0  0  0  0  0  0  0
   -6.4335    1.0306   -0.6320 C   0  0  0  0  0  0  0  0  0  0  0  0
   -5.9447   -0.0502   -1.4260 O   0  0  0  0  0  0  0  0  0  0  0  0
   -5.4779   -1.1676   -0.6626 C   0  0  0  0  0  0  0  0  0  0  0  0
   -4.0644   -0.9236   -0.2478 C   0  0  0  0  0  0  0  0  0  0  0  0
   -3.6842   -0.5898    0.9699 N   0  0  0  0  0  0  0  0  0  0  0  0
   -2.3161   -0.4281    1.0556 N   0  0  0  0  0  0  0  0  0  0  0  0
   -1.7159   -0.6520   -0.0927 C   0  0  0  0  0  0  0  0  0  0  0  0
   -0.3584   -0.5466   -0.2378 N   0  0  0  0  0  0  0  0  0  0  0  0
    0.3865   -0.7728   -1.3712 C   0  0  0  0  0  0  0  0  0  0  0  0
   -0.0293   -1.1240   -2.4714 O   0  0  0  0  0  0  0  0  0  0  0  0
    1.8849   -0.5396   -1.1521 C   0  0  0  0  0  0  0  0  0  0  0  0
    2.1567   -0.1673    0.1976 O   0  0  0  0  0  0  0  0  0  0  0  0
    3.4649    0.0765    0.5199 C   0  0  0  0  0  0  0  0  0  0  0  0
    3.6722    0.4486    1.8642 C   0  0  0  0  0  0  0  0  0  0  0  0
    4.9540    0.7309    2.3471 C   0  0  0  0  0  0  0  0  0  0  0  0
    6.0027    0.6315    1.4619 C   0  0  0  0  0  0  0  0  0  0  0  0
    5.8060    0.2690    0.1506 C   0  0  0  0  0  0  0  0  0  0  0  0
    4.5520   -0.0155   -0.3536 C   0  0  0  0  0  0  0  0  0  0  0  0
    6.9688    0.2302   -0.5553 O   0  0  0  0  0  0  0  0  0  0  0  0
    7.9183    0.6108    0.4630 C   0  0  0  0  0  0  0  0  0  0  0  0
    7.3107    0.8659    1.7463 O   0  0  0  0  0  0  0  0  0  0  0  0
   -2.7664   -1.0764   -1.3633 S   0  0  0  0  0  0  0  0  0  0  0  0
   -8.0010   -0.0730    0.3876 H   0  0  0  0  0  0  0  0  0  0  0  0
   -8.2847    1.6750    0.2801 H   0  0  0  0  0  0  0  0  0  0  0  0
   -8.4945    0.6317   -1.1466 H   0  0  0  0  0  0  0  0  0  0  0  0
   -6.3644    1.9337   -1.2472 H   0  0  0  0  0  0  0  0  0  0  0  0
   -5.8115    1.1912    0.2551 H   0  0  0  0  0  0  0  0  0  0  0  0
   -5.5346   -2.0530   -1.3049 H   0  0  0  0  0  0  0  0  0  0  0  0
   -6.1184   -1.3541    0.2057 H   0  0  0  0  0  0  0  0  0  0  0  0
    0.1377   -0.2752    0.6040 H   0  0  0  0  0  0  0  0  0  0  0  0
    2.1871    0.2635   -1.8343 H   0  0  0  0  0  0  0  0  0  0  0  0
    2.3945   -1.4794   -1.3941 H   0  0  0  0  0  0  0  0  0  0  0  0
    2.8229    0.5186    2.5405 H   0  0  0  0  0  0  0  0  0  0  0  0
    5.1166    1.0174    3.3798 H   0  0  0  0  0  0  0  0  0  0  0  0
    4.4585   -0.2960   -1.3947 H   0  0  0  0  0  0  0  0  0  0  0  0
    8.4393    1.5176    0.1349 H   0  0  0  0  0  0  0  0  0  0  0  0
    8.6523   -0.1952    0.5764 H   0  0  0  0  0  0  0  0  0  0  0  0
  1  2  1  0
  2  3  1  0
  3  4  1  0
  4  5  1  0
  5  6  2  0
  6  7  1  0
  7  8  2  0
  8  9  1  0
  9 10  1  0
 10 11  2  0
 10 12  1  0
 12 13  1  0
 13 14  1  0
 14 15  2  0
 15 16  1  0
 16 17  2  0
 17 18  1  0
 18 19  2  0
 18 20  1  0
 20 21  1  0
 21 22  1  0
  8 23  1  0
 23  5  1  0
 19 14  1  0
 22 17  1  0
  1 24  1  0
  1 25  1  0
  1 26  1  0
  2 27  1  0
  2 28  1  0
  4 29  1  0
  4 30  1  0
  9 31  1  0
 12 32  1  0
 12 33  1  0
 15 34  1  0
 16 35  1  0
 19 36  1  0
 21 37  1  0
 21 38  1  0
M  END
$$$$
