
     RDKit          3D

 43 45  0  0  0  0  0  0  0  0999 V2000
    7.5783    0.9350    1.4560 O   0  0  0  0  0  0  0  0  0  0  0  0
    8.0830    0.2378    0.5926 C   0  0  0  0  0  0  0  0  0  0  0  0
    9.4183    0.0290    0.5948 O   0  0  0  0  0  0  0  0  0  0  0  0
    7.4129   -0.4443   -0.5750 C   0  0  0  0  0  0  0  0  0  0  0  0
    5.9051   -0.4531   -0.5001 C   0  0  0  0  0  0  0  0  0  0  0  0
    5.1667    0.6854   -0.8412 C   0  0  0  0  0  0  0  0  0  0  0  0
    3.7704    0.6746   -0.7622 C   0  0  0  0  0  0  0  0  0  0  0  0
    3.0849   -0.4721   -0.3437 C   0  0  0  0  0  0  0  0  0  0  0  0
    1.6773   -0.3972   -0.2861 N   0  0  0  0  0  0  0  0  0  0  0  0
    0.7943   -1.4186    0.0138 C   0  0  0  0  0  0  0  0  0  0  0  0
    1.0683   -2.5968    0.2077 O   0  0  0  0  0  0  0  0  0  0  0  0
   -0.6410   -1.0159    0.0509 C   0  0  0  0  0  0  0  0  0  0  0  0
   -1.0479    0.2369    0.5220 C   0  0  0  0  0  0  0  0  0  0  0  0
   -2.4073    0.5761    0.5388 C   0  0  0  0  0  0  0  0  0  0  0  0
   -3.3726   -0.3319    0.0976 C   0  0  0  0  0  0  0  0  0  0  0  0
   -4.7535   -0.0671    0.0820 N   0  0  0  0  0  0  0  0  0  0  0  0
   -5.4132    1.0919    0.4525 C   0  0  0  0  0  0  0  0  0  0  0  0
   -4.8770    2.1164    0.8616 O   0  0  0  0  0  0  0  0  0  0  0  0
   -6.8542    0.9835    0.3024 C   0  0  0  0  0  0  0  0  0  0  0  0
   -7.8669    1.8892    0.5564 C   0  0  0  0  0  0  0  0  0  0  0  0
   -9.0834    1.2452    0.2274 C   0  0  0  0  0  0  0  0  0  0  0  0
   -8.7445   -0.0139   -0.2075 C   0  0  0  0  0  0  0  0  0  0  0  0
   -7.3979   -0.1866   -0.1680 O   0  0  0  0  0  0  0  0  0  0  0  0
   -2.9607   -1.5927   -0.3523 C   0  0  0  0  0  0  0  0  0  0  0  0
   -1.6051   -1.9357   -0.3721 C   0  0  0  0  0  0  0  0  0  0  0  0
    3.8210   -1.6041    0.0042 C   0  0  0  0  0  0  0  0  0  0  0  0
    5.2190   -1.5952   -0.0710 C   0  0  0  0  0  0  0  0  0  0  0  0
    9.7278    0.5210    1.3848 H   0  0  0  0  0  0  0  0  0  0  0  0
    7.7254    0.0616   -1.4962 H   0  0  0  0  0  0  0  0  0  0  0  0
    7.7790   -1.4768   -0.6271 H   0  0  0  0  0  0  0  0  0  0  0  0
    5.6722    1.5938   -1.1619 H   0  0  0  0  0  0  0  0  0  0  0  0
    3.2311    1.5787   -1.0315 H   0  0  0  0  0  0  0  0  0  0  0  0
    1.2783    0.4912   -0.5583 H   0  0  0  0  0  0  0  0  0  0  0  0
   -0.3293    0.9538    0.9106 H   0  0  0  0  0  0  0  0  0  0  0  0
   -2.6781    1.5572    0.9176 H   0  0  0  0  0  0  0  0  0  0  0  0
   -5.3638   -0.8102   -0.2429 H   0  0  0  0  0  0  0  0  0  0  0  0
   -7.7283    2.8932    0.9351 H   0  0  0  0  0  0  0  0  0  0  0  0
  -10.0840    1.6487    0.2989 H   0  0  0  0  0  0  0  0  0  0  0  0
   -9.3156   -0.8614   -0.5613 H   0  0  0  0  0  0  0  0  0  0  0  0
   -3.6859   -2.3284   -0.6918 H   0  0  0  0  0  0  0  0  0  0  0  0
   -1.3029   -2.9220   -0.7196 H   0  0  0  0  0  0  0  0  0  0  0  0
    3.3380   -2.5132    0.3489 H   0  0  0  0  0  0  0  0  0  0  0  0
    5.7617   -2.4943    0.2132 H   0  0  0  0  0  0  0  0  0  0  0  0
  1  2  2  0
  2  3  1  0
  2  4  1  0
  4  5  1  0
  5  6  2  0
  6  7  1  0
  7  8  2  0
  8  9  1  0
  9 10  1  0
 10 11  2  0
 10 12  1  0
 12 13  2  0
 13 14  1  0
 14 15  2  0
 15 16  1  0
 16 17  1  0
 17 18  2  0
 17 19  1  0
 19 20  2  0
 20 21  1  0
 21 22  2  0
 22 23  1  0
 15 24  1  0
 24 25  2  0
  8 26  1  0
 26 27  2  0
 27  5  1  0
 25 12  1  0
 23 19  1  0
  3 28  1  0
  4 29  1  0
  4 30  1  0
  6 31  1  0
  7 32  1  0
  9 33  1  0
 13 34  1  0
 14 35  1  0
 16 36  1  0
 20 37  1  0
 21 38  1  0
 22 39  1  0
 24 40  1  0
 25 41  1  0
 26 42  1  0
 27 43  1  0
M  END
$$$$
