
     RDKit          3D

 38 39  0  0  0  0  0  0  0  0999 V2000
    0.6923    0.0884    1.1799 O   0  0  0  0  0  0  0  0  0  0  0  0
    0.6375   -0.6915    0.2347 C   0  0  0  0  0  0  0  0  0  0  0  0
   -0.6571   -1.0589   -0.4882 C   0  0  0  0  0  0  0  0  0  0  0  0
   -1.7672   -0.3633    0.0736 O   0  0  0  0  0  0  0  0  0  0  0  0
   -2.9478   -0.6301   -0.5241 C   0  0  0  0  0  0  0  0  0  0  0  0
   -3.1171   -1.3883   -1.4699 O   0  0  0  0  0  0  0  0  0  0  0  0
   -4.0629    0.1204    0.1063 C   0  0  0  0  0  0  0  0  0  0  0  0
   -3.8450    0.9823    1.1927 C   0  0  0  0  0  0  0  0  0  0  0  0
   -4.9150    1.6756    1.7648 C   0  0  0  0  0  0  0  0  0  0  0  0
   -6.1981    1.5102    1.2554 C   0  0  0  0  0  0  0  0  0  0  0  0
   -7.2094    2.2074    1.8463 O   0  0  0  0  0  0  0  0  0  0  0  0
   -6.4353    0.6612    0.1800 C   0  0  0  0  0  0  0  0  0  0  0  0
   -5.3677   -0.0315   -0.3917 C   0  0  0  0  0  0  0  0  0  0  0  0
   -5.6842   -0.8480   -1.4472 O   0  0  0  0  0  0  0  0  0  0  0  0
    1.7542   -1.3201   -0.2811 N   0  0  0  0  0  0  0  0  0  0  0  0
    3.0811   -1.0987    0.2691 C   0  0  0  0  0  0  0  0  0  0  0  0
    3.6601    0.2762   -0.0862 C   0  0  0  0  0  0  0  0  0  0  0  0
    5.0848    0.3557    0.1873 N   0  0  0  0  0  0  0  0  0  0  0  0
    6.0502   -0.0389   -0.7059 C   0  0  0  0  0  0  0  0  0  0  0  0
    5.6682   -0.5077   -1.9273 O   0  0  0  0  0  0  0  0  0  0  0  0
    7.3050    0.0759   -0.2566 C   0  0  0  0  0  0  0  0  0  0  0  0
    7.3370    0.6895    1.3683 S   0  0  0  0  0  0  0  0  0  0  0  0
    5.5635    0.7693    1.4203 C   0  0  0  0  0  0  0  0  0  0  0  0
    4.9340    1.1213    2.4024 O   0  0  0  0  0  0  0  0  0  0  0  0
   -0.5454   -0.7863   -1.5442 H   0  0  0  0  0  0  0  0  0  0  0  0
   -0.8078   -2.1399   -0.3860 H   0  0  0  0  0  0  0  0  0  0  0  0
   -2.8491    1.1264    1.6075 H   0  0  0  0  0  0  0  0  0  0  0  0
   -4.7462    2.3430    2.6063 H   0  0  0  0  0  0  0  0  0  0  0  0
   -8.0418    1.9942    1.3920 H   0  0  0  0  0  0  0  0  0  0  0  0
   -7.4332    0.5254   -0.2245 H   0  0  0  0  0  0  0  0  0  0  0  0
   -4.8638   -1.2839   -1.7663 H   0  0  0  0  0  0  0  0  0  0  0  0
    1.6677   -1.9020   -1.1050 H   0  0  0  0  0  0  0  0  0  0  0  0
    3.7163   -1.9004   -0.1233 H   0  0  0  0  0  0  0  0  0  0  0  0
    3.0345   -1.2172    1.3579 H   0  0  0  0  0  0  0  0  0  0  0  0
    3.1473    1.0521    0.4948 H   0  0  0  0  0  0  0  0  0  0  0  0
    3.4844    0.5123   -1.1427 H   0  0  0  0  0  0  0  0  0  0  0  0
    6.4707   -0.7005   -2.4423 H   0  0  0  0  0  0  0  0  0  0  0  0
    8.2054   -0.1794   -0.7953 H   0  0  0  0  0  0  0  0  0  0  0  0
  1  2  2  0
  2  3  1  0
  3  4  1  0
  4  5  1  0
  5  6  2  0
  5  7  1  0
  7  8  2  0
  8  9  1  0
  9 10  2  0
 10 11  1  0
 10 12  1  0
 12 13  2  0
 13 14  1  0
  2 15  1  0
 15 16  1  0
 16 17  1  0
 17 18  1  0
 18 19  1  0
 19 20  1  0
 19 21  2  0
 21 22  1  0
 22 23  1  0
 23 24  2  0
 13  7  1  0
 23 18  1  0
  3 25  1  0
  3 26  1  0
  8 27  1  0
  9 28  1  0
 11 29  1  0
 12 30  1  0
 14 31  1  0
 15 32  1  0
 16 33  1  0
 16 34  1  0
 17 35  1  0
 17 36  1  0
 20 37  1  0
 21 38  1  0
M  END
$$$$
