
     RDKit          3D

 40 42  0  0  0  0  0  0  0  0999 V2000
    3.7663    1.7049    1.5818 N   0  0  0  0  0  0  0  0  0  0  0  0
    3.2569    0.8634    0.5060 C   0  0  0  0  0  0  0  0  0  0  0  0
    2.2347   -0.1342    1.0492 C   0  0  0  0  0  0  0  0  0  0  0  0
    1.7475   -1.1374   -0.0030 C   0  0  0  0  0  0  0  0  0  0  0  0
    0.9615   -0.5410   -1.1840 C   0  0  0  0  0  0  0  0  0  0  0  0
   -0.3320    0.0672   -0.7873 N   0  0  0  0  0  0  0  0  0  0  0  0
   -0.3646    1.4841   -0.7022 C   0  0  0  0  0  0  0  0  0  0  0  0
    0.2310    2.2847   -1.6983 C   0  0  0  0  0  0  0  0  0  0  0  0
    0.2021    3.6813   -1.6390 C   0  0  0  0  0  0  0  0  0  0  0  0
   -0.4419    4.3164   -0.5868 C   0  0  0  0  0  0  0  0  0  0  0  0
   -1.0721    3.5527    0.3918 C   0  0  0  0  0  0  0  0  0  0  0  0
   -1.0521    2.1486    0.3325 C   0  0  0  0  0  0  0  0  0  0  0  0
   -1.9014    1.2774    1.6345 S   0  0  0  0  0  0  0  0  0  0  0  0
   -2.0634   -0.3484    0.9237 C   0  0  0  0  0  0  0  0  0  0  0  0
   -2.9936   -1.2115    1.5259 C   0  0  0  0  0  0  0  0  0  0  0  0
   -3.1721   -2.5110    1.0555 C   0  0  0  0  0  0  0  0  0  0  0  0
   -2.4284   -2.9664   -0.0346 C   0  0  0  0  0  0  0  0  0  0  0  0
   -2.5995   -4.3688   -0.5625 C   0  0  0  0  0  0  0  0  0  0  0  0
   -1.6150   -5.2049   -0.1312 F   0  0  0  0  0  0  0  0  0  0  0  0
   -2.5696   -4.4294   -1.9232 F   0  0  0  0  0  0  0  0  0  0  0  0
   -3.7739   -4.9495   -0.1904 F   0  0  0  0  0  0  0  0  0  0  0  0
   -1.4887   -2.1007   -0.6247 C   0  0  0  0  0  0  0  0  0  0  0  0
   -1.2741   -0.7875   -0.1567 C   0  0  0  0  0  0  0  0  0  0  0  0
    4.2132    1.1289    2.2935 H   0  0  0  0  0  0  0  0  0  0  0  0
    4.4850    2.3285    1.2184 H   0  0  0  0  0  0  0  0  0  0  0  0
    2.8064    1.5070   -0.2539 H   0  0  0  0  0  0  0  0  0  0  0  0
    4.0928    0.3310    0.0395 H   0  0  0  0  0  0  0  0  0  0  0  0
    1.3842    0.3966    1.4905 H   0  0  0  0  0  0  0  0  0  0  0  0
    2.6940   -0.7079    1.8652 H   0  0  0  0  0  0  0  0  0  0  0  0
    1.1479   -1.9015    0.5046 H   0  0  0  0  0  0  0  0  0  0  0  0
    2.6198   -1.6659   -0.4090 H   0  0  0  0  0  0  0  0  0  0  0  0
    1.6194    0.1591   -1.7072 H   0  0  0  0  0  0  0  0  0  0  0  0
    0.7846   -1.3281   -1.9266 H   0  0  0  0  0  0  0  0  0  0  0  0
    0.7002    1.8308   -2.5666 H   0  0  0  0  0  0  0  0  0  0  0  0
    0.6744    4.2680   -2.4226 H   0  0  0  0  0  0  0  0  0  0  0  0
   -0.4670    5.4013   -0.5322 H   0  0  0  0  0  0  0  0  0  0  0  0
   -1.5857    4.0598    1.2056 H   0  0  0  0  0  0  0  0  0  0  0  0
   -3.5872   -0.8714    2.3726 H   0  0  0  0  0  0  0  0  0  0  0  0
   -3.8998   -3.1596    1.5408 H   0  0  0  0  0  0  0  0  0  0  0  0
   -0.9400   -2.4666   -1.4898 H   0  0  0  0  0  0  0  0  0  0  0  0
  1  2  1  0
  2  3  1  0
  3  4  1  0
  4  5  1  0
  5  6  1  0
  6  7  1  0
  7  8  2  0
  8  9  1  0
  9 10  2  0
 10 11  1  0
 11 12  2  0
 12 13  1  0
 13 14  1  0
 14 15  2  0
 15 16  1  0
 16 17  2  0
 17 18  1  0
 18 19  1  0
 18 20  1  0
 18 21  1  0
 17 22  1  0
 22 23  2  0
 23  6  1  0
 12  7  1  0
 23 14  1  0
  1 24  1  0
  1 25  1  0
  2 26  1  0
  2 27  1  0
  3 28  1  0
  3 29  1  0
  4 30  1  0
  4 31  1  0
  5 32  1  0
  5 33  1  0
  8 34  1  0
  9 35  1  0
 10 36  1  0
 11 37  1  0
 15 38  1  0
 16 39  1  0
 22 40  1  0
M  END
$$$$
