
     RDKit          3D

 54 58  0  0  0  0  0  0  0  0999 V2000
    4.9982    0.7062    3.3750 F   0  0  0  0  0  0  0  0  0  0  0  0
    4.4358    0.1694    2.2537 C   0  0  0  0  0  0  0  0  0  0  0  0
    3.1722    0.6780    2.1994 F   0  0  0  0  0  0  0  0  0  0  0  0
    4.2932   -1.1602    2.5183 F   0  0  0  0  0  0  0  0  0  0  0  0
    5.2275    0.4396    0.9921 C   0  0  0  0  0  0  0  0  0  0  0  0
    6.4390    1.1583    1.0875 C   0  0  0  0  0  0  0  0  0  0  0  0
    7.2005    1.4418   -0.0458 C   0  0  0  0  0  0  0  0  0  0  0  0
    6.7659    1.0115   -1.2951 C   0  0  0  0  0  0  0  0  0  0  0  0
    5.5738    0.2930   -1.4119 C   0  0  0  0  0  0  0  0  0  0  0  0
    4.7934   -0.0035   -0.2796 C   0  0  0  0  0  0  0  0  0  0  0  0
    3.5060   -0.7790   -0.4881 C   0  0  0  0  0  0  0  0  0  0  0  0
    2.3302    0.1282   -0.8961 C   0  0  0  0  0  0  0  0  0  0  0  0
    1.1466   -0.6411   -1.3257 N   0  0  0  0  0  0  0  0  0  0  0  0
    0.1474    0.2560   -1.9632 C   0  0  0  0  0  0  0  0  0  0  0  0
   -1.0935   -0.5205   -2.4447 C   0  0  0  0  0  0  0  0  0  0  0  0
   -1.7299   -1.2638   -1.3384 N   0  0  0  0  0  0  0  0  0  0  0  0
   -2.7250   -0.6382   -0.5936 C   0  0  0  0  0  0  0  0  0  0  0  0
   -2.8033    0.6689   -0.5933 N   0  0  0  0  0  0  0  0  0  0  0  0
   -3.8165    1.3271    0.1383 C   0  0  0  0  0  0  0  0  0  0  0  0
   -3.8702    2.7232    0.0957 C   0  0  0  0  0  0  0  0  0  0  0  0
   -4.8739    3.4229    0.7781 C   0  0  0  0  0  0  0  0  0  0  0  0
   -5.8343    2.7296    1.5180 C   0  0  0  0  0  0  0  0  0  0  0  0
   -5.7943    1.3357    1.5839 C   0  0  0  0  0  0  0  0  0  0  0  0
   -4.7859    0.6499    0.8946 C   0  0  0  0  0  0  0  0  0  0  0  0
   -4.6911   -0.7520    0.8859 N   0  0  0  0  0  0  0  0  0  0  0  0
   -5.4831   -1.6887    1.5100 C   0  0  0  0  0  0  0  0  0  0  0  0
   -5.0446   -2.9427    1.1352 C   0  0  0  0  0  0  0  0  0  0  0  0
   -3.9397   -2.7577    0.2713 C   0  0  0  0  0  0  0  0  0  0  0  0
   -3.7132   -1.3954    0.1613 C   0  0  0  0  0  0  0  0  0  0  0  0
   -0.7598   -2.1368   -0.6516 C   0  0  0  0  0  0  0  0  0  0  0  0
    0.4906   -1.3437   -0.1988 C   0  0  0  0  0  0  0  0  0  0  0  0
    6.7989    1.5060    2.0563 H   0  0  0  0  0  0  0  0  0  0  0  0
    8.1303    2.0012    0.0489 H   0  0  0  0  0  0  0  0  0  0  0  0
    7.3554    1.2311   -2.1820 H   0  0  0  0  0  0  0  0  0  0  0  0
    5.2511   -0.0404   -2.4012 H   0  0  0  0  0  0  0  0  0  0  0  0
    3.2644   -1.3505    0.4126 H   0  0  0  0  0  0  0  0  0  0  0  0
    3.6781   -1.5329   -1.2689 H   0  0  0  0  0  0  0  0  0  0  0  0
    2.6635    0.7492   -1.7380 H   0  0  0  0  0  0  0  0  0  0  0  0
    2.0789    0.8210   -0.0815 H   0  0  0  0  0  0  0  0  0  0  0  0
   -0.1523    1.0485   -1.2657 H   0  0  0  0  0  0  0  0  0  0  0  0
    0.5982    0.7408   -2.8368 H   0  0  0  0  0  0  0  0  0  0  0  0
   -0.7938   -1.2392   -3.2163 H   0  0  0  0  0  0  0  0  0  0  0  0
   -1.8041    0.1587   -2.9251 H   0  0  0  0  0  0  0  0  0  0  0  0
   -3.1284    3.2674   -0.4840 H   0  0  0  0  0  0  0  0  0  0  0  0
   -4.9073    4.5090    0.7248 H   0  0  0  0  0  0  0  0  0  0  0  0
   -6.6202    3.2747    2.0364 H   0  0  0  0  0  0  0  0  0  0  0  0
   -6.5546    0.8166    2.1581 H   0  0  0  0  0  0  0  0  0  0  0  0
   -6.3024   -1.4038    2.1539 H   0  0  0  0  0  0  0  0  0  0  0  0
   -5.4797   -3.8860    1.4437 H   0  0  0  0  0  0  0  0  0  0  0  0
   -3.3697   -3.5347   -0.2227 H   0  0  0  0  0  0  0  0  0  0  0  0
   -0.4581   -2.9360   -1.3419 H   0  0  0  0  0  0  0  0  0  0  0  0
   -1.1989   -2.6261    0.2236 H   0  0  0  0  0  0  0  0  0  0  0  0
    1.1840   -2.0634    0.2500 H   0  0  0  0  0  0  0  0  0  0  0  0
    0.2047   -0.6275    0.5836 H   0  0  0  0  0  0  0  0  0  0  0  0
  1  2  1  0
  2  3  1  0
  2  4  1  0
  2  5  1  0
  5  6  2  0
  6  7  1  0
  7  8  2  0
  8  9  1  0
  9 10  2  0
 10 11  1  0
 11 12  1  0
 12 13  1  0
 13 14  1  0
 14 15  1  0
 15 16  1  0
 16 17  1  0
 17 18  2  0
 18 19  1  0
 19 20  2  0
 20 21  1  0
 21 22  2  0
 22 23  1  0
 23 24  2  0
 24 25  1  0
 25 26  1  0
 26 27  2  0
 27 28  1  0
 28 29  2  0
 16 30  1  0
 30 31  1  0
 10  5  1  0
 31 13  1  0
 29 17  1  0
 24 19  1  0
 29 25  1  0
  6 32  1  0
  7 33  1  0
  8 34  1  0
  9 35  1  0
 11 36  1  0
 11 37  1  0
 12 38  1  0
 12 39  1  0
 14 40  1  0
 14 41  1  0
 15 42  1  0
 15 43  1  0
 20 44  1  0
 21 45  1  0
 22 46  1  0
 23 47  1  0
 26 48  1  0
 27 49  1  0
 28 50  1  0
 30 51  1  0
 30 52  1  0
 31 53  1  0
 31 54  1  0
M  END
$$$$
