
     RDKit          3D

 36 37  0  0  0  0  0  0  0  0999 V2000
   -1.6841    0.3789    2.6641 O   0  0  0  0  0  0  0  0  0  0  0  0
   -0.6555    0.4990    2.0046 C   0  0  0  0  0  0  0  0  0  0  0  0
    0.6838    0.8810    2.6397 C   0  0  0  0  0  0  0  0  0  0  0  0
    1.8223    0.6183    1.8138 O   0  0  0  0  0  0  0  0  0  0  0  0
    2.2580   -0.6659    1.8468 C   0  0  0  0  0  0  0  0  0  0  0  0
    1.7503   -1.5764    2.4789 O   0  0  0  0  0  0  0  0  0  0  0  0
    3.4497   -0.8378    0.9735 C   0  0  0  0  0  0  0  0  0  0  0  0
    3.9576   -2.1338    0.7981 C   0  0  0  0  0  0  0  0  0  0  0  0
    5.0732   -2.3516   -0.0127 C   0  0  0  0  0  0  0  0  0  0  0  0
    5.6881   -1.2754   -0.6512 C   0  0  0  0  0  0  0  0  0  0  0  0
    5.1862    0.0135   -0.4752 C   0  0  0  0  0  0  0  0  0  0  0  0
    5.9506    1.3391   -1.2628 Cl  0  0  0  0  0  0  0  0  0  0  0  0
    4.0720    0.2411    0.3324 C   0  0  0  0  0  0  0  0  0  0  0  0
   -0.6227    0.3744    0.6325 N   0  0  0  0  0  0  0  0  0  0  0  0
   -1.8021    0.0392   -0.1424 C   0  0  0  0  0  0  0  0  0  0  0  0
   -2.7507    1.2284   -0.3297 C   0  0  0  0  0  0  0  0  0  0  0  0
   -3.7995    0.9421   -1.2924 N   0  0  0  0  0  0  0  0  0  0  0  0
   -5.0093    0.3869   -0.9586 C   0  0  0  0  0  0  0  0  0  0  0  0
   -5.2744    0.1258    0.3500 O   0  0  0  0  0  0  0  0  0  0  0  0
   -5.8176    0.1490   -1.9978 C   0  0  0  0  0  0  0  0  0  0  0  0
   -5.0679    0.6120   -3.4964 S   0  0  0  0  0  0  0  0  0  0  0  0
   -3.5950    1.1240   -2.6500 C   0  0  0  0  0  0  0  0  0  0  0  0
   -2.5956    1.5387   -3.2135 O   0  0  0  0  0  0  0  0  0  0  0  0
    0.6609    1.9605    2.8223 H   0  0  0  0  0  0  0  0  0  0  0  0
    0.7816    0.3827    3.6113 H   0  0  0  0  0  0  0  0  0  0  0  0
    3.4845   -2.9808    1.2937 H   0  0  0  0  0  0  0  0  0  0  0  0
    5.4616   -3.3589   -0.1449 H   0  0  0  0  0  0  0  0  0  0  0  0
    6.5571   -1.4470   -1.2819 H   0  0  0  0  0  0  0  0  0  0  0  0
    3.7039    1.2556    0.4577 H   0  0  0  0  0  0  0  0  0  0  0  0
    0.2466    0.5669    0.1491 H   0  0  0  0  0  0  0  0  0  0  0  0
   -1.4473   -0.3286   -1.1113 H   0  0  0  0  0  0  0  0  0  0  0  0
   -2.3258   -0.7863    0.3534 H   0  0  0  0  0  0  0  0  0  0  0  0
   -2.1769    2.0877   -0.6996 H   0  0  0  0  0  0  0  0  0  0  0  0
   -3.1931    1.5396    0.6235 H   0  0  0  0  0  0  0  0  0  0  0  0
   -6.1636   -0.2599    0.4197 H   0  0  0  0  0  0  0  0  0  0  0  0
   -6.8068   -0.2819   -1.9538 H   0  0  0  0  0  0  0  0  0  0  0  0
  1  2  2  0
  2  3  1  0
  3  4  1  0
  4  5  1  0
  5  6  2  0
  5  7  1  0
  7  8  2  0
  8  9  1  0
  9 10  2  0
 10 11  1  0
 11 12  1  0
 11 13  2  0
  2 14  1  0
 14 15  1  0
 15 16  1  0
 16 17  1  0
 17 18  1  0
 18 19  1  0
 18 20  2  0
 20 21  1  0
 21 22  1  0
 22 23  2  0
 13  7  1  0
 22 17  1  0
  3 24  1  0
  3 25  1  0
  8 26  1  0
  9 27  1  0
 10 28  1  0
 13 29  1  0
 14 30  1  0
 15 31  1  0
 15 32  1  0
 16 33  1  0
 16 34  1  0
 19 35  1  0
 20 36  1  0
M  END
$$$$
