
     RDKit          3D

 54 58  0  0  0  0  0  0  0  0999 V2000
    2.5877    2.2961   -0.9400 F   0  0  0  0  0  0  0  0  0  0  0  0
    3.8897    2.4425   -1.3127 C   0  0  0  0  0  0  0  0  0  0  0  0
    3.9409    2.1176   -2.6345 F   0  0  0  0  0  0  0  0  0  0  0  0
    4.1352    3.7834   -1.2555 F   0  0  0  0  0  0  0  0  0  0  0  0
    4.8414    1.6161   -0.4729 C   0  0  0  0  0  0  0  0  0  0  0  0
    5.9531    2.2484    0.1186 C   0  0  0  0  0  0  0  0  0  0  0  0
    6.8644    1.5300    0.8925 C   0  0  0  0  0  0  0  0  0  0  0  0
    6.6839    0.1655    1.0863 C   0  0  0  0  0  0  0  0  0  0  0  0
    5.5938   -0.4813    0.5062 C   0  0  0  0  0  0  0  0  0  0  0  0
    4.6646    0.2262   -0.2790 C   0  0  0  0  0  0  0  0  0  0  0  0
    3.4928   -0.5394   -0.8651 C   0  0  0  0  0  0  0  0  0  0  0  0
    2.3448   -0.6949    0.1491 C   0  0  0  0  0  0  0  0  0  0  0  0
    1.2324   -1.5188   -0.3618 N   0  0  0  0  0  0  0  0  0  0  0  0
    0.4592   -0.8041   -1.4111 C   0  0  0  0  0  0  0  0  0  0  0  0
   -0.7780   -1.6009   -1.8864 C   0  0  0  0  0  0  0  0  0  0  0  0
   -1.6604   -1.9678   -0.7595 N   0  0  0  0  0  0  0  0  0  0  0  0
   -2.6311   -1.0556   -0.3476 C   0  0  0  0  0  0  0  0  0  0  0  0
   -2.4993    0.2092   -0.6588 N   0  0  0  0  0  0  0  0  0  0  0  0
   -3.4440    1.1588   -0.2229 C   0  0  0  0  0  0  0  0  0  0  0  0
   -3.2418    2.4979   -0.5611 C   0  0  0  0  0  0  0  0  0  0  0  0
   -4.1407    3.4831   -0.1430 C   0  0  0  0  0  0  0  0  0  0  0  0
   -5.2565    3.1354    0.6197 C   0  0  0  0  0  0  0  0  0  0  0  0
   -5.4793    1.8030    0.9688 C   0  0  0  0  0  0  0  0  0  0  0  0
   -4.5697    0.8293    0.5455 C   0  0  0  0  0  0  0  0  0  0  0  0
   -4.7203   -0.5339    0.8453 N   0  0  0  0  0  0  0  0  0  0  0  0
   -5.7151   -1.1728    1.5474 C   0  0  0  0  0  0  0  0  0  0  0  0
   -5.4598   -2.5273    1.5195 C   0  0  0  0  0  0  0  0  0  0  0  0
   -4.2628   -2.7130    0.7893 C   0  0  0  0  0  0  0  0  0  0  0  0
   -3.8024   -1.4639    0.4117 C   0  0  0  0  0  0  0  0  0  0  0  0
   -0.9033   -2.6951    0.2776 C   0  0  0  0  0  0  0  0  0  0  0  0
    0.3120   -1.8660    0.7497 C   0  0  0  0  0  0  0  0  0  0  0  0
    6.1155    3.3170   -0.0226 H   0  0  0  0  0  0  0  0  0  0  0  0
    7.7145    2.0365    1.3425 H   0  0  0  0  0  0  0  0  0  0  0  0
    7.3924   -0.3976    1.6886 H   0  0  0  0  0  0  0  0  0  0  0  0
    5.4697   -1.5511    0.6691 H   0  0  0  0  0  0  0  0  0  0  0  0
    3.1514   -0.0488   -1.7812 H   0  0  0  0  0  0  0  0  0  0  0  0
    3.8434   -1.5309   -1.1821 H   0  0  0  0  0  0  0  0  0  0  0  0
    2.7574   -1.1826    1.0428 H   0  0  0  0  0  0  0  0  0  0  0  0
    1.9854    0.2892    0.4772 H   0  0  0  0  0  0  0  0  0  0  0  0
    0.1458    0.1807   -1.0437 H   0  0  0  0  0  0  0  0  0  0  0  0
    1.0927   -0.6373   -2.2888 H   0  0  0  0  0  0  0  0  0  0  0  0
   -0.4464   -2.5231   -2.3804 H   0  0  0  0  0  0  0  0  0  0  0  0
   -1.3290   -1.0311   -2.6438 H   0  0  0  0  0  0  0  0  0  0  0  0
   -2.3728    2.7726   -1.1533 H   0  0  0  0  0  0  0  0  0  0  0  0
   -3.9672    4.5219   -0.4132 H   0  0  0  0  0  0  0  0  0  0  0  0
   -5.9537    3.9061    0.9419 H   0  0  0  0  0  0  0  0  0  0  0  0
   -6.3543    1.5558    1.5606 H   0  0  0  0  0  0  0  0  0  0  0  0
   -6.5349   -0.6308    1.9954 H   0  0  0  0  0  0  0  0  0  0  0  0
   -6.0763   -3.2966    1.9666 H   0  0  0  0  0  0  0  0  0  0  0  0
   -3.7861   -3.6566    0.5582 H   0  0  0  0  0  0  0  0  0  0  0  0
   -0.5621   -3.6519   -0.1369 H   0  0  0  0  0  0  0  0  0  0  0  0
   -1.5272   -2.9348    1.1438 H   0  0  0  0  0  0  0  0  0  0  0  0
   -0.0434   -0.9546    1.2484 H   0  0  0  0  0  0  0  0  0  0  0  0
    0.8538   -2.4594    1.4955 H   0  0  0  0  0  0  0  0  0  0  0  0
  1  2  1  0
  2  3  1  0
  2  4  1  0
  2  5  1  0
  5  6  2  0
  6  7  1  0
  7  8  2  0
  8  9  1  0
  9 10  2  0
 10 11  1  0
 11 12  1  0
 12 13  1  0
 13 14  1  0
 14 15  1  0
 15 16  1  0
 16 17  1  0
 17 18  2  0
 18 19  1  0
 19 20  2  0
 20 21  1  0
 21 22  2  0
 22 23  1  0
 23 24  2  0
 24 25  1  0
 25 26  1  0
 26 27  2  0
 27 28  1  0
 28 29  2  0
 16 30  1  0
 30 31  1  0
 10  5  1  0
 31 13  1  0
 29 17  1  0
 24 19  1  0
 29 25  1  0
  6 32  1  0
  7 33  1  0
  8 34  1  0
  9 35  1  0
 11 36  1  0
 11 37  1  0
 12 38  1  0
 12 39  1  0
 14 40  1  0
 14 41  1  0
 15 42  1  0
 15 43  1  0
 20 44  1  0
 21 45  1  0
 22 46  1  0
 23 47  1  0
 26 48  1  0
 27 49  1  0
 28 50  1  0
 30 51  1  0
 30 52  1  0
 31 53  1  0
 31 54  1  0
M  END
$$$$
