
     RDKit          3D

 31 32  0  0  0  0  0  0  0  0999 V2000
    5.4290   -1.4226    1.0881 C   0  0  0  0  0  0  0  0  0  0  0  0
    4.3235   -0.0619    1.5489 S   0  0  0  0  0  0  0  0  0  0  0  0
    2.8285   -0.5820    0.7245 C   0  0  0  0  0  0  0  0  0  0  0  0
    2.7974   -0.8204   -0.6538 C   0  0  0  0  0  0  0  0  0  0  0  0
    1.6096   -1.2099   -1.2757 C   0  0  0  0  0  0  0  0  0  0  0  0
    0.4459   -1.3588   -0.5230 C   0  0  0  0  0  0  0  0  0  0  0  0
    0.4710   -1.1201    0.8493 C   0  0  0  0  0  0  0  0  0  0  0  0
   -0.7376   -1.2317    1.6020 N   0  0  0  0  0  0  0  0  0  0  0  0
   -1.6791    0.1810    1.7142 S   0  0  0  0  0  6  0  0  0  0  0  0
   -2.8023   -0.1328    2.5738 O   0  0  0  0  0  0  0  0  0  0  0  0
   -0.8107    1.3024    2.0122 O   0  0  0  0  0  0  0  0  0  0  0  0
   -2.4054    0.5682    0.1766 C   0  0  0  0  0  0  0  0  0  0  0  0
   -2.7461    1.8351   -0.2594 C   0  0  0  0  0  0  0  0  0  0  0  0
   -3.2934    1.6479   -1.4943 N   0  0  0  0  0  0  0  0  0  0  0  0
   -3.8126    2.6703   -2.3667 C   0  0  0  0  0  0  0  0  0  0  0  0
   -3.2730    0.3100   -1.7690 C   0  0  0  0  0  0  0  0  0  0  0  0
   -2.7408   -0.3774   -0.7832 N   0  0  0  0  0  0  0  0  0  0  0  0
    1.6536   -0.7166    1.4720 C   0  0  0  0  0  0  0  0  0  0  0  0
    6.3763   -1.3077    1.6218 H   0  0  0  0  0  0  0  0  0  0  0  0
    5.6367   -1.4112    0.0151 H   0  0  0  0  0  0  0  0  0  0  0  0
    4.9897   -2.3850    1.3650 H   0  0  0  0  0  0  0  0  0  0  0  0
    3.6902   -0.6893   -1.2597 H   0  0  0  0  0  0  0  0  0  0  0  0
    1.5885   -1.3912   -2.3472 H   0  0  0  0  0  0  0  0  0  0  0  0
   -0.4756   -1.6674   -1.0107 H   0  0  0  0  0  0  0  0  0  0  0  0
   -0.6063   -1.5887    2.5474 H   0  0  0  0  0  0  0  0  0  0  0  0
   -2.6407    2.8053    0.2072 H   0  0  0  0  0  0  0  0  0  0  0  0
   -3.2483    2.6456   -3.3024 H   0  0  0  0  0  0  0  0  0  0  0  0
   -3.7020    3.6481   -1.8912 H   0  0  0  0  0  0  0  0  0  0  0  0
   -4.8699    2.4635   -2.5510 H   0  0  0  0  0  0  0  0  0  0  0  0
   -3.6566   -0.1061   -2.6921 H   0  0  0  0  0  0  0  0  0  0  0  0
    1.6610   -0.4967    2.5363 H   0  0  0  0  0  0  0  0  0  0  0  0
  1  2  1  0
  2  3  1  0
  3  4  2  0
  4  5  1  0
  5  6  2  0
  6  7  1  0
  7  8  1  0
  8  9  1  0
  9 10  2  0
  9 11  2  0
  9 12  1  0
 12 13  2  0
 13 14  1  0
 14 15  1  0
 14 16  1  0
 16 17  2  0
  7 18  2  0
 18  3  1  0
 17 12  1  0
  1 19  1  0
  1 20  1  0
  1 21  1  0
  4 22  1  0
  5 23  1  0
  6 24  1  0
  8 25  1  0
 13 26  1  0
 15 27  1  0
 15 28  1  0
 15 29  1  0
 16 30  1  0
 18 31  1  0
M  END
$$$$
