
     RDKit          3D

 46 49  0  0  0  0  0  0  0  0999 V2000
    3.4174    3.4422   -1.6710 O   0  0  0  0  0  0  0  0  0  0  0  0
    2.7067    2.5796   -1.1627 C   0  0  0  0  0  0  0  0  0  0  0  0
    1.2651    2.9013   -0.7909 C   0  0  0  0  0  0  0  0  0  0  0  0
    0.0806    1.7251   -1.5297 S   0  0  0  0  0  0  0  0  0  0  0  0
   -0.0712    0.5761   -0.2509 C   0  0  0  0  0  0  0  0  0  0  0  0
    0.7150    0.5264    0.7968 N   0  0  0  0  0  0  0  0  0  0  0  0
    0.2906   -0.5001    1.5877 N   0  0  0  0  0  0  0  0  0  0  0  0
   -0.7454   -1.0735    1.0052 C   0  0  0  0  0  0  0  0  0  0  0  0
   -1.5322   -2.2076    1.5784 C   0  0  0  0  0  0  0  0  0  0  0  0
   -2.6902   -1.7739    2.4412 C   0  0  0  0  0  0  0  0  0  0  0  0
   -3.1183   -0.5070    2.7905 C   0  0  0  0  0  0  0  0  0  0  0  0
   -4.2530   -0.5263    3.6478 C   0  0  0  0  0  0  0  0  0  0  0  0
   -4.6331   -1.8098    3.9664 C   0  0  0  0  0  0  0  0  0  0  0  0
   -3.6573   -2.9761    3.1930 S   0  0  0  0  0  0  0  0  0  0  0  0
   -0.9826   -0.4424   -0.2003 N   0  0  0  0  0  0  0  0  0  0  0  0
   -1.9288   -0.8385   -1.2260 C   0  0  0  0  0  0  0  0  0  0  0  0
   -3.2610   -0.2261   -1.0073 C   0  0  0  0  0  0  0  0  0  0  0  0
   -4.4646   -0.7077   -0.5339 C   0  0  0  0  0  0  0  0  0  0  0  0
   -5.3749    0.3784   -0.5803 C   0  0  0  0  0  0  0  0  0  0  0  0
   -4.6744    1.4469   -1.0900 C   0  0  0  0  0  0  0  0  0  0  0  0
   -3.3932    1.0880   -1.3574 O   0  0  0  0  0  0  0  0  0  0  0  0
    3.1116    1.2969   -0.8577 N   0  0  0  0  0  0  0  0  0  0  0  0
    4.3600    0.6899   -1.1204 C   0  0  0  0  0  0  0  0  0  0  0  0
    5.5000    1.4201   -1.4651 C   0  0  0  0  0  0  0  0  0  0  0  0
    6.7142    0.7681   -1.7147 C   0  0  0  0  0  0  0  0  0  0  0  0
    6.7891   -0.6216   -1.6385 C   0  0  0  0  0  0  0  0  0  0  0  0
    8.2784   -1.4151   -1.9777 Cl  0  0  0  0  0  0  0  0  0  0  0  0
    5.6651   -1.3706   -1.3019 C   0  0  0  0  0  0  0  0  0  0  0  0
    4.4622   -0.7145   -1.0315 C   0  0  0  0  0  0  0  0  0  0  0  0
    3.0881   -1.6922   -0.6413 Cl  0  0  0  0  0  0  0  0  0  0  0  0
    1.1686    2.9770    0.2949 H   0  0  0  0  0  0  0  0  0  0  0  0
    1.0307    3.8872   -1.2035 H   0  0  0  0  0  0  0  0  0  0  0  0
   -0.8487   -2.8126    2.1887 H   0  0  0  0  0  0  0  0  0  0  0  0
   -1.8919   -2.8685    0.7813 H   0  0  0  0  0  0  0  0  0  0  0  0
   -2.6180    0.4010    2.4802 H   0  0  0  0  0  0  0  0  0  0  0  0
   -4.7348    0.3670    4.0446 H   0  0  0  0  0  0  0  0  0  0  0  0
   -5.4391   -2.1163    4.6240 H   0  0  0  0  0  0  0  0  0  0  0  0
   -1.9966   -1.9315   -1.2200 H   0  0  0  0  0  0  0  0  0  0  0  0
   -1.5264   -0.5638   -2.2065 H   0  0  0  0  0  0  0  0  0  0  0  0
   -4.6652   -1.7148   -0.1890 H   0  0  0  0  0  0  0  0  0  0  0  0
   -6.4135    0.3825   -0.2815 H   0  0  0  0  0  0  0  0  0  0  0  0
   -4.9302    2.4760   -1.3133 H   0  0  0  0  0  0  0  0  0  0  0  0
    2.4040    0.6745   -0.4719 H   0  0  0  0  0  0  0  0  0  0  0  0
    5.4824    2.5039   -1.5354 H   0  0  0  0  0  0  0  0  0  0  0  0
    7.5927    1.3580   -1.9807 H   0  0  0  0  0  0  0  0  0  0  0  0
    5.7220   -2.4557   -1.2604 H   0  0  0  0  0  0  0  0  0  0  0  0
  1  2  2  0
  2  3  1  0
  3  4  1  0
  4  5  1  0
  5  6  2  0
  6  7  1  0
  7  8  2  0
  8  9  1  0
  9 10  1  0
 10 11  2  0
 11 12  1  0
 12 13  2  0
 13 14  1  0
  8 15  1  0
 15 16  1  0
 16 17  1  0
 17 18  2  0
 18 19  1  0
 19 20  2  0
 20 21  1  0
  2 22  1  0
 22 23  1  0
 23 24  2  0
 24 25  1  0
 25 26  2  0
 26 27  1  0
 26 28  1  0
 28 29  2  0
 29 30  1  0
 15  5  1  0
 21 17  1  0
 29 23  1  0
 14 10  1  0
  3 31  1  0
  3 32  1  0
  9 33  1  0
  9 34  1  0
 11 35  1  0
 12 36  1  0
 13 37  1  0
 16 38  1  0
 16 39  1  0
 18 40  1  0
 19 41  1  0
 20 42  1  0
 22 43  1  0
 24 44  1  0
 25 45  1  0
 28 46  1  0
M  END
$$$$
