
     RDKit          3D

 35 36  0  0  0  0  0  0  0  0999 V2000
   -5.7842    1.6277    0.6962 C   0  0  0  0  0  0  0  0  0  0  0  0
   -4.9561    0.4533    1.1475 C   0  0  0  0  0  0  0  0  0  0  0  0
   -5.2536   -0.1865    2.1542 O   0  0  0  0  0  0  0  0  0  0  0  0
   -3.7560    0.0630    0.3489 C   0  0  0  0  0  0  0  0  0  0  0  0
   -3.4119    0.7046   -0.8474 C   0  0  0  0  0  0  0  0  0  0  0  0
   -2.2758    0.3024   -1.5581 C   0  0  0  0  0  0  0  0  0  0  0  0
   -1.4861   -0.7430   -1.0791 C   0  0  0  0  0  0  0  0  0  0  0  0
   -0.2986   -1.1181   -1.7715 N   0  0  0  0  0  0  0  0  0  0  0  0
    1.1186   -0.2519   -1.3888 S   0  0  0  0  0  6  0  0  0  0  0  0
    1.8901   -0.2807   -2.6155 O   0  0  0  0  0  0  0  0  0  0  0  0
    0.7541    0.9979   -0.7572 O   0  0  0  0  0  0  0  0  0  0  0  0
    1.8824   -1.3581   -0.1948 C   0  0  0  0  0  0  0  0  0  0  0  0
    3.2198   -0.7969    0.2166 C   0  0  0  0  0  0  0  0  0  0  0  0
    4.3865   -1.1553   -0.4756 C   0  0  0  0  0  0  0  0  0  0  0  0
    5.6244   -0.6306   -0.0966 C   0  0  0  0  0  0  0  0  0  0  0  0
    5.7028    0.2568    0.9740 C   0  0  0  0  0  0  0  0  0  0  0  0
    7.2280    0.9016    1.4406 Cl  0  0  0  0  0  0  0  0  0  0  0  0
    4.5530    0.6269    1.6672 C   0  0  0  0  0  0  0  0  0  0  0  0
    3.3145    0.1030    1.2893 C   0  0  0  0  0  0  0  0  0  0  0  0
   -1.8135   -1.3799    0.1150 C   0  0  0  0  0  0  0  0  0  0  0  0
   -2.9504   -0.9826    0.8235 C   0  0  0  0  0  0  0  0  0  0  0  0
   -6.5800    1.8074    1.4259 H   0  0  0  0  0  0  0  0  0  0  0  0
   -6.2488    1.4133   -0.2696 H   0  0  0  0  0  0  0  0  0  0  0  0
   -5.1684    2.5292    0.6425 H   0  0  0  0  0  0  0  0  0  0  0  0
   -4.0024    1.5248   -1.2453 H   0  0  0  0  0  0  0  0  0  0  0  0
   -2.0046    0.8260   -2.4715 H   0  0  0  0  0  0  0  0  0  0  0  0
   -0.3839   -1.1444   -2.7906 H   0  0  0  0  0  0  0  0  0  0  0  0
    1.9947   -2.3412   -0.6624 H   0  0  0  0  0  0  0  0  0  0  0  0
    1.2184   -1.4462    0.6696 H   0  0  0  0  0  0  0  0  0  0  0  0
    4.3411   -1.8374   -1.3232 H   0  0  0  0  0  0  0  0  0  0  0  0
    6.5200   -0.9131   -0.6435 H   0  0  0  0  0  0  0  0  0  0  0  0
    4.6119    1.3262    2.4971 H   0  0  0  0  0  0  0  0  0  0  0  0
    2.4235    0.4134    1.8332 H   0  0  0  0  0  0  0  0  0  0  0  0
   -1.2049   -2.1940    0.4970 H   0  0  0  0  0  0  0  0  0  0  0  0
   -3.2045   -1.4912    1.7525 H   0  0  0  0  0  0  0  0  0  0  0  0
  1  2  1  0
  2  3  2  0
  2  4  1  0
  4  5  2  0
  5  6  1  0
  6  7  2  0
  7  8  1  0
  8  9  1  0
  9 10  2  0
  9 11  2  0
  9 12  1  0
 12 13  1  0
 13 14  2  0
 14 15  1  0
 15 16  2  0
 16 17  1  0
 16 18  1  0
 18 19  2  0
  7 20  1  0
 20 21  2  0
 21  4  1  0
 19 13  1  0
  1 22  1  0
  1 23  1  0
  1 24  1  0
  5 25  1  0
  6 26  1  0
  8 27  1  0
 12 28  1  0
 12 29  1  0
 14 30  1  0
 15 31  1  0
 18 32  1  0
 19 33  1  0
 20 34  1  0
 21 35  1  0
M  END
$$$$
