
     RDKit          3D

 55 60  0  0  0  0  0  0  0  0999 V2000
   -3.4759    0.3341    2.8657 O   0  0  0  0  0  0  0  0  0  0  0  0
   -3.5518    0.6511    1.6800 C   0  0  0  0  0  0  0  0  0  0  0  0
   -4.5903    1.5608    1.2203 C   0  0  0  0  0  0  0  0  0  0  0  0
   -5.2701    1.6478   -0.0313 C   0  0  0  0  0  0  0  0  0  0  0  0
   -6.1870    2.6654    0.0879 C   0  0  0  0  0  0  0  0  0  0  0  0
   -6.1390    3.2005    1.3334 O   0  0  0  0  0  0  0  0  0  0  0  0
   -5.1886    2.5161    2.0189 C   0  0  0  0  0  0  0  0  0  0  0  0
   -2.6722    0.1206    0.7150 N   0  0  0  0  0  0  0  0  0  0  0  0
   -2.0502    1.0226   -0.2519 C   0  0  0  0  0  0  0  0  0  0  0  0
   -1.3858    0.2824   -1.4026 C   0  0  0  0  0  0  0  0  0  0  0  0
   -0.5062   -0.9394   -1.0219 C   0  0  0  0  0  0  0  0  0  0  0  0
   -1.2614   -1.7843    0.0290 C   0  0  0  0  0  0  0  0  0  0  0  0
   -1.8349   -0.9758    1.1819 C   0  0  0  0  0  0  0  0  0  0  0  0
   -0.5199   -1.7041   -2.2719 O   0  0  0  0  0  0  0  0  0  0  0  0
    0.4112   -2.6805   -2.4497 C   0  0  0  0  0  0  0  0  0  0  0  0
    0.1870   -3.5604   -3.5100 C   0  0  0  0  0  0  0  0  0  0  0  0
    1.0822   -4.6035   -3.7537 C   0  0  0  0  0  0  0  0  0  0  0  0
    2.1975   -4.7567   -2.9364 C   0  0  0  0  0  0  0  0  0  0  0  0
    3.0512   -5.7612   -3.1698 F   0  0  0  0  0  0  0  0  0  0  0  0
    2.4396   -3.8821   -1.8857 C   0  0  0  0  0  0  0  0  0  0  0  0
    1.5423   -2.8356   -1.6581 C   0  0  0  0  0  0  0  0  0  0  0  0
    1.7688   -1.8774   -0.5719 C   0  0  0  0  0  0  0  0  0  0  0  0
    2.5550   -2.1620    0.3284 O   0  0  0  0  0  0  0  0  0  0  0  0
    0.9630   -0.5774   -0.6363 C   0  0  0  0  0  0  0  0  0  0  0  0
    1.2007    0.2349    0.6254 C   0  0  0  0  0  0  0  0  0  0  0  0
    2.3574    1.0543    0.1585 C   0  0  0  0  0  0  0  0  0  0  0  0
    3.2108    1.8225    1.0948 C   0  0  0  0  0  0  0  0  0  0  0  0
    2.9217    1.8919    2.4624 C   0  0  0  0  0  0  0  0  0  0  0  0
    3.7462    2.6316    3.3148 C   0  0  0  0  0  0  0  0  0  0  0  0
    4.8574    3.3034    2.8069 C   0  0  0  0  0  0  0  0  0  0  0  0
    5.1483    3.2391    1.4456 C   0  0  0  0  0  0  0  0  0  0  0  0
    4.3274    2.5015    0.5906 C   0  0  0  0  0  0  0  0  0  0  0  0
    2.5194    1.0690   -1.1264 N   0  0  0  0  0  0  0  0  0  0  0  0
    1.5394    0.2220   -1.6870 O   0  0  0  0  0  0  0  0  0  0  0  0
   -5.1172    1.0332   -0.9074 H   0  0  0  0  0  0  0  0  0  0  0  0
   -6.9189    3.0994   -0.5795 H   0  0  0  0  0  0  0  0  0  0  0  0
   -5.0482    2.8140    3.0494 H   0  0  0  0  0  0  0  0  0  0  0  0
   -2.7845    1.7155   -0.6680 H   0  0  0  0  0  0  0  0  0  0  0  0
   -1.3465    1.6605    0.2880 H   0  0  0  0  0  0  0  0  0  0  0  0
   -0.8241    0.9910   -2.0229 H   0  0  0  0  0  0  0  0  0  0  0  0
   -2.1956   -0.0725   -2.0586 H   0  0  0  0  0  0  0  0  0  0  0  0
   -2.0917   -2.3033   -0.4714 H   0  0  0  0  0  0  0  0  0  0  0  0
   -0.6261   -2.5839    0.4266 H   0  0  0  0  0  0  0  0  0  0  0  0
   -1.0525   -0.5682    1.8289 H   0  0  0  0  0  0  0  0  0  0  0  0
   -2.4404   -1.6431    1.8080 H   0  0  0  0  0  0  0  0  0  0  0  0
   -0.6880   -3.4379   -4.1439 H   0  0  0  0  0  0  0  0  0  0  0  0
    0.9169   -5.2966   -4.5731 H   0  0  0  0  0  0  0  0  0  0  0  0
    3.3215   -4.0143   -1.2659 H   0  0  0  0  0  0  0  0  0  0  0  0
    0.4058    0.9345    0.8658 H   0  0  0  0  0  0  0  0  0  0  0  0
    1.4303   -0.3630    1.5100 H   0  0  0  0  0  0  0  0  0  0  0  0
    2.0636    1.3840    2.8912 H   0  0  0  0  0  0  0  0  0  0  0  0
    3.5223    2.6833    4.3778 H   0  0  0  0  0  0  0  0  0  0  0  0
    5.4980    3.8768    3.4726 H   0  0  0  0  0  0  0  0  0  0  0  0
    6.0149    3.7614    1.0478 H   0  0  0  0  0  0  0  0  0  0  0  0
    4.5675    2.4586   -0.4700 H   0  0  0  0  0  0  0  0  0  0  0  0
  1  2  2  0
  2  3  1  0
  3  4  1  0
  4  5  2  0
  5  6  1  0
  6  7  1  0
  2  8  1  0
  8  9  1  0
  9 10  1  0
 10 11  1  0
 11 12  1  0
 12 13  1  0
 11 14  1  0
 14 15  1  0
 15 16  2  0
 16 17  1  0
 17 18  2  0
 18 19  1  0
 18 20  1  0
 20 21  2  0
 21 22  1  0
 22 23  2  0
 22 24  1  0
 24 25  1  0
 25 26  1  0
 26 27  1  0
 27 28  2  0
 28 29  1  0
 29 30  2  0
 30 31  1  0
 31 32  2  0
 26 33  2  0
 33 34  1  0
  7  3  2  0
 13  8  1  0
 21 15  1  0
 34 24  1  0
 24 11  1  0
 32 27  1  0
  4 35  1  0
  5 36  1  0
  7 37  1  0
  9 38  1  0
  9 39  1  0
 10 40  1  0
 10 41  1  0
 12 42  1  0
 12 43  1  0
 13 44  1  0
 13 45  1  0
 16 46  1  0
 17 47  1  0
 20 48  1  0
 25 49  1  0
 25 50  1  0
 28 51  1  0
 29 52  1  0
 30 53  1  0
 31 54  1  0
 32 55  1  0
M  END
$$$$
