
     RDKit          3D

 33 33  0  0  0  0  0  0  0  0999 V2000
   -4.1470   -0.7286    1.9445 C   0  0  0  0  0  0  0  0  0  0  0  0
   -3.4615   -0.9606    0.5964 C   0  0  0  0  0  0  0  0  0  0  0  0
   -4.4789   -0.8069   -0.5355 C   0  0  0  0  0  0  0  0  0  0  0  0
   -2.3525   -0.0053    0.4894 N   0  0  0  0  0  0  0  0  0  0  0  0
   -1.4213   -0.3170   -0.5913 C   0  0  0  0  0  0  0  0  0  0  0  0
   -0.2301    0.6408   -0.5825 C   0  0  0  0  0  0  0  0  0  0  0  0
    0.5921    0.5604    0.7028 C   0  0  0  0  0  0  0  0  0  0  0  0
    1.7394    1.4082    0.6055 O   0  0  0  0  0  0  0  0  0  0  0  0
    2.9298    0.8865    0.1782 C   0  0  0  0  0  0  0  0  0  0  0  0
    3.0796   -0.3698   -0.4182 C   0  0  0  0  0  0  0  0  0  0  0  0
    4.3402   -0.8127   -0.8345 C   0  0  0  0  0  0  0  0  0  0  0  0
    5.4570    0.0007   -0.6622 C   0  0  0  0  0  0  0  0  0  0  0  0
    7.0024   -0.5512   -1.1780 Cl  0  0  0  0  0  0  0  0  0  0  0  0
    5.3290    1.2568   -0.0803 C   0  0  0  0  0  0  0  0  0  0  0  0
    4.0684    1.6966    0.3346 C   0  0  0  0  0  0  0  0  0  0  0  0
    3.9556    3.4251    1.1208 Br  0  0  0  0  0  0  0  0  0  0  0  0
   -4.5713    0.2795    2.0143 H   0  0  0  0  0  0  0  0  0  0  0  0
   -3.4397   -0.8567    2.7718 H   0  0  0  0  0  0  0  0  0  0  0  0
   -4.9611   -1.4465    2.0927 H   0  0  0  0  0  0  0  0  0  0  0  0
   -3.0710   -1.9857    0.5956 H   0  0  0  0  0  0  0  0  0  0  0  0
   -4.0404   -1.0531   -1.5075 H   0  0  0  0  0  0  0  0  0  0  0  0
   -4.8699    0.2154   -0.5876 H   0  0  0  0  0  0  0  0  0  0  0  0
   -5.3287   -1.4814   -0.3831 H   0  0  0  0  0  0  0  0  0  0  0  0
   -2.7206    0.9396    0.3710 H   0  0  0  0  0  0  0  0  0  0  0  0
   -1.9185   -0.2358   -1.5638 H   0  0  0  0  0  0  0  0  0  0  0  0
   -1.0515   -1.3443   -0.4899 H   0  0  0  0  0  0  0  0  0  0  0  0
   -0.5689    1.6744   -0.7309 H   0  0  0  0  0  0  0  0  0  0  0  0
    0.4070    0.4197   -1.4471 H   0  0  0  0  0  0  0  0  0  0  0  0
   -0.0007    0.9519    1.5376 H   0  0  0  0  0  0  0  0  0  0  0  0
    0.8546   -0.4670    0.9795 H   0  0  0  0  0  0  0  0  0  0  0  0
    2.2348   -1.0294   -0.5866 H   0  0  0  0  0  0  0  0  0  0  0  0
    4.4403   -1.7922   -1.2957 H   0  0  0  0  0  0  0  0  0  0  0  0
    6.2034    1.8887    0.0484 H   0  0  0  0  0  0  0  0  0  0  0  0
  1  2  1  0
  2  3  1  0
  2  4  1  0
  4  5  1  0
  5  6  1  0
  6  7  1  0
  7  8  1  0
  8  9  1  0
  9 10  2  0
 10 11  1  0
 11 12  2  0
 12 13  1  0
 12 14  1  0
 14 15  2  0
 15 16  1  0
 15  9  1  0
  1 17  1  0
  1 18  1  0
  1 19  1  0
  2 20  1  0
  3 21  1  0
  3 22  1  0
  3 23  1  0
  4 24  1  0
  5 25  1  0
  5 26  1  0
  6 27  1  0
  6 28  1  0
  7 29  1  0
  7 30  1  0
 10 31  1  0
 11 32  1  0
 14 33  1  0
M  END
$$$$
