
     RDKit          3D

 46 48  0  0  0  0  0  0  0  0999 V2000
   -0.2990    1.6853   -0.8745 C   0  0  0  0  0  0  0  0  0  0  0  0
   -1.4097    1.7024   -1.6235 C   0  0  0  0  0  0  0  0  0  0  0  0
   -2.3377    0.5565   -1.9387 C   0  0  0  0  0  0  0  0  0  0  0  0
   -2.0372   -0.6944   -1.2672 N   0  0  0  0  0  0  0  0  0  0  0  0
   -1.1768   -1.6807   -1.6642 C   0  0  0  0  0  0  0  0  0  0  0  0
   -0.2372   -1.6267   -3.1120 S   0  0  0  0  0  0  0  0  0  0  0  0
    1.2701   -2.4910   -2.5681 C   0  0  0  0  0  0  0  0  0  0  0  0
    2.1550   -1.6187   -1.7088 C   0  0  0  0  0  0  0  0  0  0  0  0
    3.0515   -0.7166   -2.2967 C   0  0  0  0  0  0  0  0  0  0  0  0
    3.8606    0.0977   -1.5007 C   0  0  0  0  0  0  0  0  0  0  0  0
    3.7826    0.0269   -0.1041 C   0  0  0  0  0  0  0  0  0  0  0  0
    4.6869    0.8941    0.6959 C   0  0  0  0  0  0  0  0  0  0  0  0
    5.5329    1.6235    0.2030 O   0  0  0  0  0  0  0  0  0  0  0  0
    4.4425    0.7460    2.0211 O   0  0  0  0  0  0  0  0  0  0  0  0
    5.3313    1.4845    2.8621 C   0  0  0  0  0  0  0  0  0  0  0  0
    2.8797   -0.8630    0.4879 C   0  0  0  0  0  0  0  0  0  0  0  0
    2.0780   -1.6825   -0.3099 C   0  0  0  0  0  0  0  0  0  0  0  0
   -1.1672   -2.6487   -0.7779 N   0  0  0  0  0  0  0  0  0  0  0  0
   -2.0276   -2.3007    0.2322 N   0  0  0  0  0  0  0  0  0  0  0  0
   -2.5628   -1.1375   -0.0764 C   0  0  0  0  0  0  0  0  0  0  0  0
   -3.5198   -0.4568    0.7327 C   0  0  0  0  0  0  0  0  0  0  0  0
   -5.2011   -0.5863    0.4221 S   0  0  0  0  0  0  0  0  0  0  0  0
   -5.5142    0.4576    1.7488 C   0  0  0  0  0  0  0  0  0  0  0  0
   -6.7701    0.8115    2.0692 N   0  0  0  0  0  0  0  0  0  0  0  0
   -4.4608    0.8655    2.4095 N   0  0  0  0  0  0  0  0  0  0  0  0
   -3.3046    0.3349    1.8479 C   0  0  0  0  0  0  0  0  0  0  0  0
   -2.0005    0.6841    2.4735 C   0  0  0  0  0  0  0  0  0  0  0  0
    0.0740    0.7891   -0.3888 H   0  0  0  0  0  0  0  0  0  0  0  0
    0.2898    2.5864   -0.7368 H   0  0  0  0  0  0  0  0  0  0  0  0
   -1.6987    2.6491   -2.0801 H   0  0  0  0  0  0  0  0  0  0  0  0
   -2.3478    0.3725   -3.0173 H   0  0  0  0  0  0  0  0  0  0  0  0
   -3.3586    0.8450   -1.6737 H   0  0  0  0  0  0  0  0  0  0  0  0
    1.8257   -2.7897   -3.4615 H   0  0  0  0  0  0  0  0  0  0  0  0
    1.0201   -3.4260   -2.0483 H   0  0  0  0  0  0  0  0  0  0  0  0
    3.1270   -0.6432   -3.3807 H   0  0  0  0  0  0  0  0  0  0  0  0
    4.5587    0.7829   -1.9777 H   0  0  0  0  0  0  0  0  0  0  0  0
    5.0412    1.3067    3.9005 H   0  0  0  0  0  0  0  0  0  0  0  0
    5.2565    2.5594    2.6603 H   0  0  0  0  0  0  0  0  0  0  0  0
    6.3586    1.1349    2.7268 H   0  0  0  0  0  0  0  0  0  0  0  0
    2.7951   -0.9418    1.5681 H   0  0  0  0  0  0  0  0  0  0  0  0
    1.3849   -2.3734    0.1707 H   0  0  0  0  0  0  0  0  0  0  0  0
   -7.5004    0.1578    1.8121 H   0  0  0  0  0  0  0  0  0  0  0  0
   -6.8796    1.1812    3.0096 H   0  0  0  0  0  0  0  0  0  0  0  0
   -1.6407    1.6385    2.0757 H   0  0  0  0  0  0  0  0  0  0  0  0
   -1.2419   -0.0803    2.2822 H   0  0  0  0  0  0  0  0  0  0  0  0
   -2.1087    0.7843    3.5591 H   0  0  0  0  0  0  0  0  0  0  0  0
  1  2  2  0
  2  3  1  0
  3  4  1  0
  4  5  1  0
  5  6  1  0
  6  7  1  0
  7  8  1  0
  8  9  2  0
  9 10  1  0
 10 11  2  0
 11 12  1  0
 12 13  2  0
 12 14  1  0
 14 15  1  0
 11 16  1  0
 16 17  2  0
  5 18  2  0
 18 19  1  0
 19 20  2  0
 20 21  1  0
 21 22  1  0
 22 23  1  0
 23 24  1  0
 23 25  2  0
 25 26  1  0
 26 27  1  0
 20  4  1  0
 26 21  2  0
 17  8  1  0
  1 28  1  0
  1 29  1  0
  2 30  1  0
  3 31  1  0
  3 32  1  0
  7 33  1  0
  7 34  1  0
  9 35  1  0
 10 36  1  0
 15 37  1  0
 15 38  1  0
 15 39  1  0
 16 40  1  0
 17 41  1  0
 24 42  1  0
 24 43  1  0
 27 44  1  0
 27 45  1  0
 27 46  1  0
M  END
$$$$
