
     RDKit          3D

 61 65  0  0  0  0  0  0  0  0999 V2000
   -8.2854    3.0668   -3.2596 C   0  0  0  0  0  0  0  0  0  0  0  0
   -7.3434    2.1284   -2.5675 C   0  0  0  0  0  0  0  0  0  0  0  0
   -7.7351    0.8240   -2.2619 C   0  0  0  0  0  0  0  0  0  0  0  0
   -6.8384   -0.0596   -1.6509 C   0  0  0  0  0  0  0  0  0  0  0  0
   -5.5194    0.3203   -1.3383 C   0  0  0  0  0  0  0  0  0  0  0  0
   -4.5874   -0.6414   -0.7074 C   0  0  0  0  0  0  0  0  0  0  0  0
   -3.2137   -0.5812   -0.8623 C   0  0  0  0  0  0  0  0  0  0  0  0
   -2.4246   -1.5420   -0.2266 C   0  0  0  0  0  0  0  0  0  0  0  0
   -0.9588   -1.3857   -0.3821 C   0  0  0  0  0  0  0  0  0  0  0  0
   -0.5074   -1.3098   -1.5155 O   0  0  0  0  0  0  0  0  0  0  0  0
   -0.2728   -1.2764    0.8115 N   0  0  0  0  0  0  0  0  0  0  0  0
    1.1197   -1.1471    0.9886 C   0  0  0  0  0  0  0  0  0  0  0  0
    1.5876   -1.0126    2.3045 C   0  0  0  0  0  0  0  0  0  0  0  0
    2.9552   -0.8907    2.5686 C   0  0  0  0  0  0  0  0  0  0  0  0
    3.8626   -0.8962    1.5073 C   0  0  0  0  0  0  0  0  0  0  0  0
    5.6038   -0.7948    1.8345 S   0  0  0  0  0  6  0  0  0  0  0  0
    6.3278   -1.4120    0.7460 O   0  0  0  0  0  0  0  0  0  0  0  0
    5.8149   -1.2336    3.2003 O   0  0  0  0  0  0  0  0  0  0  0  0
    5.8744    0.8664    1.8585 N   0  0  0  0  0  0  0  0  0  0  0  0
    6.2911    1.4404    0.5942 C   0  0  0  0  0  0  0  0  0  0  0  0
    5.6574    1.2341   -0.5889 O   0  0  0  0  0  0  0  0  0  0  0  0
    6.2919    1.9409   -1.5892 N   0  0  0  0  0  0  0  0  0  0  0  0
    7.3090    2.5703   -0.9967 C   0  0  0  0  0  0  0  0  0  0  0  0
    8.2265    3.4130   -1.7992 C   0  0  0  0  0  0  0  0  0  0  0  0
    7.3454    2.3060    0.4030 C   0  0  0  0  0  0  0  0  0  0  0  0
    8.3235    2.8209    1.3865 C   0  0  0  0  0  0  0  0  0  0  0  0
    3.4129   -1.0482    0.1942 C   0  0  0  0  0  0  0  0  0  0  0  0
    2.0421   -1.1654   -0.0613 C   0  0  0  0  0  0  0  0  0  0  0  0
   -3.0051   -2.5907    0.5181 C   0  0  0  0  0  0  0  0  0  0  0  0
   -2.2934   -3.6574    1.1277 C   0  0  0  0  0  0  0  0  0  0  0  0
   -2.9570   -4.6407    1.8586 C   0  0  0  0  0  0  0  0  0  0  0  0
   -4.3371   -4.5824    1.9824 C   0  0  0  0  0  0  0  0  0  0  0  0
   -5.0435   -3.5496    1.3622 C   0  0  0  0  0  0  0  0  0  0  0  0
   -4.4063   -2.5594    0.6255 C   0  0  0  0  0  0  0  0  0  0  0  0
   -5.1634   -1.6148    0.0429 N   0  0  0  0  0  0  0  0  0  0  0  0
   -5.1437    1.6380   -1.6561 C   0  0  0  0  0  0  0  0  0  0  0  0
   -6.0378    2.5262   -2.2675 C   0  0  0  0  0  0  0  0  0  0  0  0
   -8.1277    3.0232   -4.3420 H   0  0  0  0  0  0  0  0  0  0  0  0
   -9.3284    2.8075   -3.0460 H   0  0  0  0  0  0  0  0  0  0  0  0
   -8.1296    4.0961   -2.9187 H   0  0  0  0  0  0  0  0  0  0  0  0
   -8.7405    0.4801   -2.4952 H   0  0  0  0  0  0  0  0  0  0  0  0
   -7.1777   -1.0694   -1.4237 H   0  0  0  0  0  0  0  0  0  0  0  0
   -2.7433    0.1831   -1.4732 H   0  0  0  0  0  0  0  0  0  0  0  0
   -0.8308   -1.2653    1.6571 H   0  0  0  0  0  0  0  0  0  0  0  0
    0.8948   -1.0046    3.1430 H   0  0  0  0  0  0  0  0  0  0  0  0
    3.2990   -0.7978    3.5966 H   0  0  0  0  0  0  0  0  0  0  0  0
    6.3674    1.1489    2.7022 H   0  0  0  0  0  0  0  0  0  0  0  0
    9.2412    2.9978   -1.7742 H   0  0  0  0  0  0  0  0  0  0  0  0
    7.9086    3.4696   -2.8465 H   0  0  0  0  0  0  0  0  0  0  0  0
    8.2587    4.4336   -1.4002 H   0  0  0  0  0  0  0  0  0  0  0  0
    9.2400    2.2234    1.3525 H   0  0  0  0  0  0  0  0  0  0  0  0
    7.9303    2.7857    2.4067 H   0  0  0  0  0  0  0  0  0  0  0  0
    8.5841    3.8625    1.1703 H   0  0  0  0  0  0  0  0  0  0  0  0
    4.1141   -1.0772   -0.6385 H   0  0  0  0  0  0  0  0  0  0  0  0
    1.7290   -1.2782   -1.0955 H   0  0  0  0  0  0  0  0  0  0  0  0
   -1.2137   -3.7455    1.0188 H   0  0  0  0  0  0  0  0  0  0  0  0
   -2.3987   -5.4529    2.3180 H   0  0  0  0  0  0  0  0  0  0  0  0
   -4.8709   -5.3433    2.5469 H   0  0  0  0  0  0  0  0  0  0  0  0
   -6.1280   -3.5204    1.4501 H   0  0  0  0  0  0  0  0  0  0  0  0
   -4.1460    2.0050   -1.4245 H   0  0  0  0  0  0  0  0  0  0  0  0
   -5.7040    3.5341   -2.5051 H   0  0  0  0  0  0  0  0  0  0  0  0
  1  2  1  0
  2  3  2  0
  3  4  1  0
  4  5  2  0
  5  6  1  0
  6  7  2  0
  7  8  1  0
  8  9  1  0
  9 10  2  0
  9 11  1  0
 11 12  1  0
 12 13  2  0
 13 14  1  0
 14 15  2  0
 15 16  1  0
 16 17  2  0
 16 18  2  0
 16 19  1  0
 19 20  1  0
 20 21  1  0
 21 22  1  0
 22 23  2  0
 23 24  1  0
 23 25  1  0
 25 26  1  0
 15 27  1  0
 27 28  2  0
  8 29  2  0
 29 30  1  0
 30 31  2  0
 31 32  1  0
 32 33  2  0
 33 34  1  0
 34 35  2  0
  5 36  1  0
 36 37  2  0
 37  2  1  0
 35  6  1  0
 28 12  1  0
 34 29  1  0
 25 20  2  0
  1 38  1  0
  1 39  1  0
  1 40  1  0
  3 41  1  0
  4 42  1  0
  7 43  1  0
 11 44  1  0
 13 45  1  0
 14 46  1  0
 19 47  1  0
 24 48  1  0
 24 49  1  0
 24 50  1  0
 26 51  1  0
 26 52  1  0
 26 53  1  0
 27 54  1  0
 28 55  1  0
 30 56  1  0
 31 57  1  0
 32 58  1  0
 33 59  1  0
 36 60  1  0
 37 61  1  0
M  END
$$$$
