
     RDKit          3D

 35 37  0  0  0  0  0  0  0  0999 V2000
   -4.9290    0.5157    1.6872 C   0  0  0  0  0  0  0  0  0  0  0  0
   -4.9129    0.6676    0.1903 C   0  0  0  0  0  0  0  0  0  0  0  0
   -6.1120    0.9029   -0.4989 C   0  0  0  0  0  0  0  0  0  0  0  0
   -6.1150    1.0461   -1.8849 C   0  0  0  0  0  0  0  0  0  0  0  0
   -4.9207    0.9552   -2.5934 C   0  0  0  0  0  0  0  0  0  0  0  0
   -3.7195    0.7211   -1.9187 C   0  0  0  0  0  0  0  0  0  0  0  0
   -3.7062    0.5760   -0.5277 C   0  0  0  0  0  0  0  0  0  0  0  0
   -2.5878    0.3448    0.2281 O   0  0  0  0  0  0  0  0  0  0  0  0
   -1.3437    0.2433   -0.4424 C   0  0  0  0  0  0  0  0  0  0  0  0
   -0.1917   -0.0156    0.5380 C   0  0  0  0  0  0  0  0  0  0  0  0
   -0.3593   -0.1172    1.7478 O   0  0  0  0  0  0  0  0  0  0  0  0
    1.0206   -0.1139   -0.1217 N   0  0  0  0  0  0  0  0  0  0  0  0
    2.1927   -0.3433    0.5461 C   0  0  0  0  0  0  0  0  0  0  0  0
    2.4301   -0.5074    1.8231 N   0  0  0  0  0  0  0  0  0  0  0  0
    3.7763   -0.7173    2.0691 N   0  0  0  0  0  0  0  0  0  0  0  0
    4.4903   -0.7011    0.9613 C   0  0  0  0  0  0  0  0  0  0  0  0
    5.9110   -0.8939    0.9426 C   0  0  0  0  0  0  0  0  0  0  0  0
    6.7579   -1.1207    2.0176 C   0  0  0  0  0  0  0  0  0  0  0  0
    8.0709   -1.2479    1.5045 C   0  0  0  0  0  0  0  0  0  0  0  0
    7.9609   -1.0928    0.1453 C   0  0  0  0  0  0  0  0  0  0  0  0
    6.6681   -0.8794   -0.2057 O   0  0  0  0  0  0  0  0  0  0  0  0
    3.5677   -0.4280   -0.4622 S   0  0  0  0  0  0  0  0  0  0  0  0
   -4.5527   -0.4722    1.9721 H   0  0  0  0  0  0  0  0  0  0  0  0
   -5.9427    0.6133    2.0899 H   0  0  0  0  0  0  0  0  0  0  0  0
   -4.3110    1.2898    2.1535 H   0  0  0  0  0  0  0  0  0  0  0  0
   -7.0518    0.9759    0.0439 H   0  0  0  0  0  0  0  0  0  0  0  0
   -7.0491    1.2282   -2.4100 H   0  0  0  0  0  0  0  0  0  0  0  0
   -4.9240    1.0670   -3.6746 H   0  0  0  0  0  0  0  0  0  0  0  0
   -2.8150    0.6581   -2.5125 H   0  0  0  0  0  0  0  0  0  0  0  0
   -1.1210    1.1818   -0.9649 H   0  0  0  0  0  0  0  0  0  0  0  0
   -1.3648   -0.5964   -1.1480 H   0  0  0  0  0  0  0  0  0  0  0  0
    1.0813   -0.0190   -1.1239 H   0  0  0  0  0  0  0  0  0  0  0  0
    6.4493   -1.1851    3.0532 H   0  0  0  0  0  0  0  0  0  0  0  0
    8.9818   -1.4297    2.0577 H   0  0  0  0  0  0  0  0  0  0  0  0
    8.6710   -1.1062   -0.6701 H   0  0  0  0  0  0  0  0  0  0  0  0
  1  2  1  0
  2  3  2  0
  3  4  1  0
  4  5  2  0
  5  6  1  0
  6  7  2  0
  7  8  1  0
  8  9  1  0
  9 10  1  0
 10 11  2  0
 10 12  1  0
 12 13  1  0
 13 14  2  0
 14 15  1  0
 15 16  2  0
 16 17  1  0
 17 18  2  0
 18 19  1  0
 19 20  2  0
 20 21  1  0
 16 22  1  0
  7  2  1  0
 22 13  1  0
 21 17  1  0
  1 23  1  0
  1 24  1  0
  1 25  1  0
  3 26  1  0
  4 27  1  0
  5 28  1  0
  6 29  1  0
  9 30  1  0
  9 31  1  0
 12 32  1  0
 18 33  1  0
 19 34  1  0
 20 35  1  0
M  END
$$$$
