
     RDKit          3D

 38 40  0  0  0  0  0  0  0  0999 V2000
   -2.8185    2.9611   -0.2750 C   0  0  0  0  0  0  0  0  0  0  0  0
   -2.3317    1.6365    0.2353 C   0  0  0  0  0  0  0  0  0  0  0  0
   -2.1396    1.4323    1.6086 C   0  0  0  0  0  0  0  0  0  0  0  0
   -1.7469    0.1813    2.0908 C   0  0  0  0  0  0  0  0  0  0  0  0
   -1.5511   -0.8742    1.1958 C   0  0  0  0  0  0  0  0  0  0  0  0
   -1.1545   -2.4947    1.8194 S   0  0  0  0  0  6  0  0  0  0  0  0
   -1.6777   -3.4710    0.8876 O   0  0  0  0  0  0  0  0  0  0  0  0
   -1.5302   -2.5241    3.2182 O   0  0  0  0  0  0  0  0  0  0  0  0
    0.5336   -2.5305    1.7919 N   0  0  0  0  0  0  0  0  0  0  0  0
    1.2202   -2.3097    0.5665 C   0  0  0  0  0  0  0  0  0  0  0  0
    1.0883   -3.1994   -0.4982 C   0  0  0  0  0  0  0  0  0  0  0  0
    1.7412   -2.9471   -1.7054 C   0  0  0  0  0  0  0  0  0  0  0  0
    2.5200   -1.7974   -1.8437 C   0  0  0  0  0  0  0  0  0  0  0  0
    3.1531   -1.5545   -3.0319 O   0  0  0  0  0  0  0  0  0  0  0  0
    2.6579   -0.8927   -0.7813 C   0  0  0  0  0  0  0  0  0  0  0  0
    3.6391    0.5952   -0.9383 S   0  0  0  0  0  0  0  0  0  0  0  0
    2.3999    1.8144   -0.8015 C   0  0  0  0  0  0  0  0  0  0  0  0
    1.9325    2.5315   -1.8706 N   0  0  0  0  0  0  0  0  0  0  0  0
    1.0204    3.3050   -1.3327 C   0  0  0  0  0  0  0  0  0  0  0  0
    0.9510    3.0626    0.0012 N   0  0  0  0  0  0  0  0  0  0  0  0
    1.8341    2.1244    0.3727 N   0  0  0  0  0  0  0  0  0  0  0  0
    2.0133   -1.1709    0.4327 C   0  0  0  0  0  0  0  0  0  0  0  0
   -1.7591   -0.6893   -0.1732 C   0  0  0  0  0  0  0  0  0  0  0  0
   -2.1423    0.5661   -0.6497 C   0  0  0  0  0  0  0  0  0  0  0  0
   -3.9125    2.9856   -0.2683 H   0  0  0  0  0  0  0  0  0  0  0  0
   -2.4412    3.7801    0.3464 H   0  0  0  0  0  0  0  0  0  0  0  0
   -2.4664    3.1399   -1.2963 H   0  0  0  0  0  0  0  0  0  0  0  0
   -2.3172    2.2397    2.3164 H   0  0  0  0  0  0  0  0  0  0  0  0
   -1.6231    0.0337    3.1614 H   0  0  0  0  0  0  0  0  0  0  0  0
    0.9341   -2.1293    2.6387 H   0  0  0  0  0  0  0  0  0  0  0  0
    0.4854   -4.0991   -0.3952 H   0  0  0  0  0  0  0  0  0  0  0  0
    1.6299   -3.6547   -2.5216 H   0  0  0  0  0  0  0  0  0  0  0  0
    2.9445   -2.2619   -3.6626 H   0  0  0  0  0  0  0  0  0  0  0  0
    0.4019    4.0297   -1.8418 H   0  0  0  0  0  0  0  0  0  0  0  0
    0.3448    3.4792    0.6983 H   0  0  0  0  0  0  0  0  0  0  0  0
    2.1160   -0.4800    1.2659 H   0  0  0  0  0  0  0  0  0  0  0  0
   -1.6392   -1.5153   -0.8708 H   0  0  0  0  0  0  0  0  0  0  0  0
   -2.3099    0.6972   -1.7173 H   0  0  0  0  0  0  0  0  0  0  0  0
  1  2  1  0
  2  3  2  0
  3  4  1  0
  4  5  2  0
  5  6  1  0
  6  7  2  0
  6  8  2  0
  6  9  1  0
  9 10  1  0
 10 11  2  0
 11 12  1  0
 12 13  2  0
 13 14  1  0
 13 15  1  0
 15 16  1  0
 16 17  1  0
 17 18  1  0
 18 19  2  0
 19 20  1  0
 20 21  1  0
 15 22  2  0
  5 23  1  0
 23 24  2  0
 24  2  1  0
 22 10  1  0
 21 17  2  0
  1 25  1  0
  1 26  1  0
  1 27  1  0
  3 28  1  0
  4 29  1  0
  9 30  1  0
 11 31  1  0
 12 32  1  0
 14 33  1  0
 19 34  1  0
 20 35  1  0
 22 36  1  0
 23 37  1  0
 24 38  1  0
M  END
$$$$
