
     RDKit          3D

 55 60  0  0  0  0  0  0  0  0999 V2000
    3.4680    0.9882    3.3536 O   0  0  0  0  0  0  0  0  0  0  0  0
    3.6500    0.9401    2.1377 C   0  0  0  0  0  0  0  0  0  0  0  0
    4.8517    1.5179    1.5523 C   0  0  0  0  0  0  0  0  0  0  0  0
    5.6232    1.1445    0.4118 C   0  0  0  0  0  0  0  0  0  0  0  0
    6.6789    2.0232    0.3428 C   0  0  0  0  0  0  0  0  0  0  0  0
    6.6285    2.9030    1.3733 O   0  0  0  0  0  0  0  0  0  0  0  0
    5.5374    2.5798    2.1117 C   0  0  0  0  0  0  0  0  0  0  0  0
    2.7173    0.3297    1.2900 N   0  0  0  0  0  0  0  0  0  0  0  0
    2.5732    0.6577   -0.1264 C   0  0  0  0  0  0  0  0  0  0  0  0
    1.1096    0.6354   -0.5633 C   0  0  0  0  0  0  0  0  0  0  0  0
    0.4888   -0.7721   -0.3708 C   0  0  0  0  0  0  0  0  0  0  0  0
    0.9771   -1.4022    0.9694 C   0  0  0  0  0  0  0  0  0  0  0  0
    1.6224   -0.3979    1.9183 C   0  0  0  0  0  0  0  0  0  0  0  0
    1.0636   -1.6495   -1.3841 O   0  0  0  0  0  0  0  0  0  0  0  0
    0.5130   -1.6379   -2.6320 C   0  0  0  0  0  0  0  0  0  0  0  0
    1.2291   -2.3064   -3.6247 C   0  0  0  0  0  0  0  0  0  0  0  0
    0.7570   -2.3213   -4.9399 C   0  0  0  0  0  0  0  0  0  0  0  0
   -0.4335   -1.6673   -5.2588 C   0  0  0  0  0  0  0  0  0  0  0  0
   -1.0051   -1.6811   -6.8805 Cl  0  0  0  0  0  0  0  0  0  0  0  0
   -1.1616   -1.0068   -4.2734 C   0  0  0  0  0  0  0  0  0  0  0  0
   -0.6847   -1.0095   -2.9592 C   0  0  0  0  0  0  0  0  0  0  0  0
   -1.4372   -0.3422   -1.8893 C   0  0  0  0  0  0  0  0  0  0  0  0
   -2.2883    0.4971   -2.1689 O   0  0  0  0  0  0  0  0  0  0  0  0
   -1.0633   -0.7511   -0.4703 C   0  0  0  0  0  0  0  0  0  0  0  0
   -1.7734    0.1077    0.5645 C   0  0  0  0  0  0  0  0  0  0  0  0
   -2.9670   -0.7571    0.7948 C   0  0  0  0  0  0  0  0  0  0  0  0
   -4.1732   -0.2680    1.5032 C   0  0  0  0  0  0  0  0  0  0  0  0
   -4.2212    1.0088    2.0756 C   0  0  0  0  0  0  0  0  0  0  0  0
   -5.3764    1.4351    2.7401 C   0  0  0  0  0  0  0  0  0  0  0  0
   -6.4797    0.5879    2.8338 C   0  0  0  0  0  0  0  0  0  0  0  0
   -7.8963    1.1177    3.6526 Cl  0  0  0  0  0  0  0  0  0  0  0  0
   -6.4400   -0.6846    2.2694 C   0  0  0  0  0  0  0  0  0  0  0  0
   -5.2872   -1.1127    1.6052 C   0  0  0  0  0  0  0  0  0  0  0  0
   -2.8463   -1.9709    0.3591 N   0  0  0  0  0  0  0  0  0  0  0  0
   -1.5841   -2.0759   -0.2646 O   0  0  0  0  0  0  0  0  0  0  0  0
    5.4481    0.3224   -0.2668 H   0  0  0  0  0  0  0  0  0  0  0  0
    7.5164    2.1402   -0.3311 H   0  0  0  0  0  0  0  0  0  0  0  0
    5.3732    3.1837    2.9943 H   0  0  0  0  0  0  0  0  0  0  0  0
    3.1521   -0.0759   -0.6975 H   0  0  0  0  0  0  0  0  0  0  0  0
    2.9851    1.6525   -0.3231 H   0  0  0  0  0  0  0  0  0  0  0  0
    1.0652    0.9462   -1.6132 H   0  0  0  0  0  0  0  0  0  0  0  0
    0.5571    1.3841    0.0172 H   0  0  0  0  0  0  0  0  0  0  0  0
    0.1592   -1.9029    1.4994 H   0  0  0  0  0  0  0  0  0  0  0  0
    1.7143   -2.1906    0.7622 H   0  0  0  0  0  0  0  0  0  0  0  0
    0.8937    0.3410    2.2696 H   0  0  0  0  0  0  0  0  0  0  0  0
    1.9972   -0.9225    2.8051 H   0  0  0  0  0  0  0  0  0  0  0  0
    2.1589   -2.8139   -3.3781 H   0  0  0  0  0  0  0  0  0  0  0  0
    1.3216   -2.8427   -5.7091 H   0  0  0  0  0  0  0  0  0  0  0  0
   -2.0949   -0.5053   -4.5187 H   0  0  0  0  0  0  0  0  0  0  0  0
   -2.0321    1.1091    0.2142 H   0  0  0  0  0  0  0  0  0  0  0  0
   -1.2334    0.1806    1.5112 H   0  0  0  0  0  0  0  0  0  0  0  0
   -3.3776    1.6902    2.0226 H   0  0  0  0  0  0  0  0  0  0  0  0
   -5.4094    2.4280    3.1820 H   0  0  0  0  0  0  0  0  0  0  0  0
   -7.2982   -1.3480    2.3403 H   0  0  0  0  0  0  0  0  0  0  0  0
   -5.2672   -2.1090    1.1664 H   0  0  0  0  0  0  0  0  0  0  0  0
  1  2  2  0
  2  3  1  0
  3  4  1  0
  4  5  2  0
  5  6  1  0
  6  7  1  0
  2  8  1  0
  8  9  1  0
  9 10  1  0
 10 11  1  0
 11 12  1  0
 12 13  1  0
 11 14  1  0
 14 15  1  0
 15 16  2  0
 16 17  1  0
 17 18  2  0
 18 19  1  0
 18 20  1  0
 20 21  2  0
 21 22  1  0
 22 23  2  0
 22 24  1  0
 24 25  1  0
 25 26  1  0
 26 27  1  0
 27 28  2  0
 28 29  1  0
 29 30  2  0
 30 31  1  0
 30 32  1  0
 32 33  2  0
 26 34  2  0
 34 35  1  0
  7  3  2  0
 13  8  1  0
 21 15  1  0
 35 24  1  0
 24 11  1  0
 33 27  1  0
  4 36  1  0
  5 37  1  0
  7 38  1  0
  9 39  1  0
  9 40  1  0
 10 41  1  0
 10 42  1  0
 12 43  1  0
 12 44  1  0
 13 45  1  0
 13 46  1  0
 16 47  1  0
 17 48  1  0
 20 49  1  0
 25 50  1  0
 25 51  1  0
 28 52  1  0
 29 53  1  0
 32 54  1  0
 33 55  1  0
M  END
$$$$
