
     RDKit          3D

 47 50  0  0  0  0  0  0  0  0999 V2000
   -6.1729    1.7516    2.3615 C   0  0  0  0  0  0  0  0  0  0  0  0
   -5.5315    0.5257    1.7361 C   0  0  0  0  0  0  0  0  0  0  0  0
   -4.7950    0.8706    0.4447 C   0  0  0  0  0  0  0  0  0  0  0  0
   -4.2378   -0.3047   -0.1414 O   0  0  0  0  0  0  0  0  0  0  0  0
   -2.9505   -0.6557    0.1598 C   0  0  0  0  0  0  0  0  0  0  0  0
   -2.1832   -0.0980    1.1846 C   0  0  0  0  0  0  0  0  0  0  0  0
   -0.8849   -0.5618    1.4370 C   0  0  0  0  0  0  0  0  0  0  0  0
   -0.3355   -1.5937    0.6705 C   0  0  0  0  0  0  0  0  0  0  0  0
    1.0062   -2.1144    0.9413 C   0  0  0  0  0  0  0  0  0  0  0  0
    2.1605   -1.4564    0.7563 C   0  0  0  0  0  0  0  0  0  0  0  0
    3.7148   -2.2135    1.1145 S   0  0  0  0  0  0  0  0  0  0  0  0
    4.5203   -0.7900    0.6069 C   0  0  0  0  0  0  0  0  0  0  0  0
    5.7625   -0.4115    0.5228 N   0  0  0  0  0  0  0  0  0  0  0  0
    5.6223    0.8777    0.0258 C   0  0  0  0  0  0  0  0  0  0  0  0
    6.8567    1.7929   -0.2628 C   0  0  0  0  0  0  0  0  0  0  0  0
    8.1779    1.4387   -0.0657 C   0  0  0  0  0  0  0  0  0  0  0  0
    8.9611    2.5536   -0.4515 C   0  0  0  0  0  0  0  0  0  0  0  0
    8.0722    3.5192   -0.8598 C   0  0  0  0  0  0  0  0  0  0  0  0
    6.7964    3.0693   -0.7496 O   0  0  0  0  0  0  0  0  0  0  0  0
    4.3516    1.2766   -0.1854 N   0  0  0  0  0  0  0  0  0  0  0  0
    3.6788    0.1790    0.1977 N   0  0  0  0  0  0  0  0  0  0  0  0
    2.3205   -0.0597    0.2277 C   0  0  0  0  0  0  0  0  0  0  0  0
    1.4899    0.7577   -0.1198 O   0  0  0  0  0  0  0  0  0  0  0  0
   -1.1018   -2.1681   -0.3445 C   0  0  0  0  0  0  0  0  0  0  0  0
   -2.3868   -1.6856   -0.6094 C   0  0  0  0  0  0  0  0  0  0  0  0
   -3.0820   -2.3170   -1.6126 O   0  0  0  0  0  0  0  0  0  0  0  0
   -3.1604   -1.4847   -2.7760 C   0  0  0  0  0  0  0  0  0  0  0  0
   -3.6705   -2.3368   -3.9241 C   0  0  0  0  0  0  0  0  0  0  0  0
   -6.7002    1.4769    3.2805 H   0  0  0  0  0  0  0  0  0  0  0  0
   -5.4177    2.5025    2.6146 H   0  0  0  0  0  0  0  0  0  0  0  0
   -6.8965    2.2078    1.6785 H   0  0  0  0  0  0  0  0  0  0  0  0
   -4.8473    0.0625    2.4554 H   0  0  0  0  0  0  0  0  0  0  0  0
   -6.2992   -0.2291    1.5267 H   0  0  0  0  0  0  0  0  0  0  0  0
   -5.5197    1.2595   -0.2806 H   0  0  0  0  0  0  0  0  0  0  0  0
   -4.0524    1.6661    0.5761 H   0  0  0  0  0  0  0  0  0  0  0  0
   -2.5651    0.6919    1.8220 H   0  0  0  0  0  0  0  0  0  0  0  0
   -0.3144   -0.1054    2.2428 H   0  0  0  0  0  0  0  0  0  0  0  0
    1.0132   -3.1407    1.3060 H   0  0  0  0  0  0  0  0  0  0  0  0
    8.5248    0.4864    0.3117 H   0  0  0  0  0  0  0  0  0  0  0  0
   10.0382    2.6429   -0.4344 H   0  0  0  0  0  0  0  0  0  0  0  0
    8.1796    4.5268   -1.2370 H   0  0  0  0  0  0  0  0  0  0  0  0
   -0.7120   -2.9858   -0.9449 H   0  0  0  0  0  0  0  0  0  0  0  0
   -2.1723   -1.0839   -3.0351 H   0  0  0  0  0  0  0  0  0  0  0  0
   -3.8549   -0.6543   -2.6111 H   0  0  0  0  0  0  0  0  0  0  0  0
   -2.9995   -3.1835   -4.1033 H   0  0  0  0  0  0  0  0  0  0  0  0
   -4.6546   -2.7540   -3.6864 H   0  0  0  0  0  0  0  0  0  0  0  0
   -3.7489   -1.7476   -4.8421 H   0  0  0  0  0  0  0  0  0  0  0  0
  1  2  1  0
  2  3  1  0
  3  4  1  0
  4  5  1  0
  5  6  2  0
  6  7  1  0
  7  8  2  0
  8  9  1  0
  9 10  2  3
 10 11  1  0
 11 12  1  0
 12 13  2  0
 13 14  1  0
 14 15  1  0
 15 16  2  0
 16 17  1  0
 17 18  2  0
 18 19  1  0
 14 20  2  0
 20 21  1  0
 21 22  1  0
 22 23  2  0
  8 24  1  0
 24 25  2  0
 25 26  1  0
 26 27  1  0
 27 28  1  0
 25  5  1  0
 22 10  1  0
 21 12  1  0
 19 15  1  0
  1 29  1  0
  1 30  1  0
  1 31  1  0
  2 32  1  0
  2 33  1  0
  3 34  1  0
  3 35  1  0
  6 36  1  0
  7 37  1  0
  9 38  1  0
 16 39  1  0
 17 40  1  0
 18 41  1  0
 24 42  1  0
 27 43  1  0
 27 44  1  0
 28 45  1  0
 28 46  1  0
 28 47  1  0
M  END
$$$$
