
     RDKit          3D

 50 54  0  0  0  0  0  0  0  0999 V2000
   -4.8421    0.2987    0.8629 C   0  0  0  0  0  0  0  0  0  0  0  0
   -4.3246   -0.9073    0.1443 C   0  0  0  0  0  0  0  0  0  0  0  0
   -5.0997   -1.9437   -0.2154 C   0  0  0  0  0  0  0  0  0  0  0  0
   -4.5473   -3.0838   -0.8961 C   0  0  0  0  0  0  0  0  0  0  0  0
   -3.2437   -3.1160   -1.1887 C   0  0  0  0  0  0  0  0  0  0  0  0
   -2.3904   -2.0721   -0.8501 N   0  0  0  0  0  0  0  0  0  0  0  0
   -1.0450   -2.1753   -1.1583 C   0  0  0  0  0  0  0  0  0  0  0  0
   -0.5284   -3.1560   -1.6995 O   0  0  0  0  0  0  0  0  0  0  0  0
   -0.1952   -1.0099   -0.7874 C   0  0  0  0  0  0  0  0  0  0  0  0
    1.2234   -1.0234   -1.1097 C   0  0  0  0  0  0  0  0  0  0  0  0
    2.0350    0.0038   -0.8130 C   0  0  0  0  0  0  0  0  0  0  0  0
    3.7231   -0.1251   -1.1344 S   0  0  0  0  0  6  0  0  0  0  0  0
    4.3495    1.1846   -1.0845 O   0  0  0  0  0  0  0  0  0  0  0  0
    3.9546   -0.9936   -2.2757 O   0  0  0  0  0  0  0  0  0  0  0  0
    4.3011   -1.0076    0.3109 C   0  0  0  0  0  0  0  0  0  0  0  0
    4.5787   -0.2956    1.4858 C   0  0  0  0  0  0  0  0  0  0  0  0
    5.0371   -0.9835    2.6098 C   0  0  0  0  0  0  0  0  0  0  0  0
    5.2210   -2.3623    2.5454 C   0  0  0  0  0  0  0  0  0  0  0  0
    5.6580   -3.0194    3.6272 F   0  0  0  0  0  0  0  0  0  0  0  0
    4.9610   -3.0699    1.3756 C   0  0  0  0  0  0  0  0  0  0  0  0
    4.5033   -2.3925    0.2451 C   0  0  0  0  0  0  0  0  0  0  0  0
    1.4183    1.1883   -0.1354 C   0  0  0  0  0  0  0  0  0  0  0  0
    2.1087    2.2565    0.1353 N   0  0  0  0  0  0  0  0  0  0  0  0
    0.0592    1.1341    0.2131 N   0  0  0  0  0  0  0  0  0  0  0  0
   -0.5547    2.3188    0.8546 C   0  0  0  0  0  0  0  0  0  0  0  0
   -1.1454    3.3315   -0.0757 C   0  0  0  0  0  0  0  0  0  0  0  0
   -1.9012    3.2456   -1.2296 C   0  0  0  0  0  0  0  0  0  0  0  0
   -2.1728    4.5733   -1.6345 C   0  0  0  0  0  0  0  0  0  0  0  0
   -1.5693    5.3870   -0.7046 C   0  0  0  0  0  0  0  0  0  0  0  0
   -0.9502    4.6450    0.2490 O   0  0  0  0  0  0  0  0  0  0  0  0
   -0.7595    0.0332   -0.1381 C   0  0  0  0  0  0  0  0  0  0  0  0
   -2.0996    0.0400    0.1678 N   0  0  0  0  0  0  0  0  0  0  0  0
   -2.8559   -0.9509   -0.1831 C   0  0  0  0  0  0  0  0  0  0  0  0
   -5.9239    0.2402    1.0255 H   0  0  0  0  0  0  0  0  0  0  0  0
   -4.6465    1.2058    0.2838 H   0  0  0  0  0  0  0  0  0  0  0  0
   -4.3650    0.3983    1.8436 H   0  0  0  0  0  0  0  0  0  0  0  0
   -6.1639   -1.9554    0.0031 H   0  0  0  0  0  0  0  0  0  0  0  0
   -5.2043   -3.9081   -1.1598 H   0  0  0  0  0  0  0  0  0  0  0  0
   -2.8046   -3.9713   -1.6985 H   0  0  0  0  0  0  0  0  0  0  0  0
    1.6052   -1.9167   -1.5985 H   0  0  0  0  0  0  0  0  0  0  0  0
    4.4473    0.7836    1.5333 H   0  0  0  0  0  0  0  0  0  0  0  0
    5.2574   -0.4558    3.5319 H   0  0  0  0  0  0  0  0  0  0  0  0
    5.1178   -4.1424    1.3588 H   0  0  0  0  0  0  0  0  0  0  0  0
    4.3113   -2.9472   -0.6719 H   0  0  0  0  0  0  0  0  0  0  0  0
    3.0758    2.2207   -0.2253 H   0  0  0  0  0  0  0  0  0  0  0  0
   -1.3448    1.9969    1.5460 H   0  0  0  0  0  0  0  0  0  0  0  0
    0.1748    2.8083    1.5117 H   0  0  0  0  0  0  0  0  0  0  0  0
   -2.2158    2.3342   -1.7148 H   0  0  0  0  0  0  0  0  0  0  0  0
   -2.7364    4.8989   -2.4990 H   0  0  0  0  0  0  0  0  0  0  0  0
   -1.4912    6.4576   -0.5827 H   0  0  0  0  0  0  0  0  0  0  0  0
  1  2  1  0
  2  3  2  0
  3  4  1  0
  4  5  2  0
  5  6  1  0
  6  7  1  0
  7  8  2  0
  7  9  1  0
  9 10  1  0
 10 11  2  0
 11 12  1  0
 12 13  2  0
 12 14  2  0
 12 15  1  0
 15 16  2  0
 16 17  1  0
 17 18  2  0
 18 19  1  0
 18 20  1  0
 20 21  2  0
 11 22  1  0
 22 23  2  3
 22 24  1  0
 24 25  1  0
 25 26  1  0
 26 27  2  0
 27 28  1  0
 28 29  2  0
 29 30  1  0
 24 31  1  0
 31 32  1  0
 32 33  2  0
 33  2  1  0
 33  6  1  0
 31  9  2  0
 21 15  1  0
 30 26  1  0
  1 34  1  0
  1 35  1  0
  1 36  1  0
  3 37  1  0
  4 38  1  0
  5 39  1  0
 10 40  1  0
 16 41  1  0
 17 42  1  0
 20 43  1  0
 21 44  1  0
 23 45  1  0
 25 46  1  0
 25 47  1  0
 27 48  1  0
 28 49  1  0
 29 50  1  0
M  END
$$$$
