
     RDKit          3D

 43 45  0  0  0  0  0  0  0  0999 V2000
   -4.7850   -0.9613    1.8702 C   0  0  0  0  0  0  0  0  0  0  0  0
   -4.3673    0.0977    1.0179 O   0  0  0  0  0  0  0  0  0  0  0  0
   -3.2498   -0.1173    0.2624 C   0  0  0  0  0  0  0  0  0  0  0  0
   -2.4830   -1.2781    0.2412 C   0  0  0  0  0  0  0  0  0  0  0  0
   -1.3523   -1.3652   -0.5825 C   0  0  0  0  0  0  0  0  0  0  0  0
   -0.9616   -0.2915   -1.3910 C   0  0  0  0  0  0  0  0  0  0  0  0
    0.1375   -0.3149   -2.1963 O   0  0  0  0  0  0  0  0  0  0  0  0
    1.0366   -1.4098   -2.0886 C   0  0  0  0  0  0  0  0  0  0  0  0
   -1.7335    0.8766   -1.3588 C   0  0  0  0  0  0  0  0  0  0  0  0
   -1.3191    2.3221   -2.3187 S   0  0  0  0  0  6  0  0  0  0  0  0
   -2.5232    3.1258   -2.4185 O   0  0  0  0  0  0  0  0  0  0  0  0
   -0.6000    1.9487   -3.5164 O   0  0  0  0  0  0  0  0  0  0  0  0
   -0.2970    3.1961   -1.2809 N   0  0  0  0  0  0  0  0  0  0  0  0
    0.8872    2.5649   -0.8114 C   0  0  0  0  0  0  0  0  0  0  0  0
    1.9751    2.4043   -1.6651 C   0  0  0  0  0  0  0  0  0  0  0  0
    3.1071    1.7234   -1.2217 C   0  0  0  0  0  0  0  0  0  0  0  0
    3.1330    1.1772    0.0609 C   0  0  0  0  0  0  0  0  0  0  0  0
    4.2736    0.5003    0.3950 O   0  0  0  0  0  0  0  0  0  0  0  0
    2.0406    1.3220    0.9288 C   0  0  0  0  0  0  0  0  0  0  0  0
    1.9973    0.6991    2.6020 S   0  0  0  0  0  0  0  0  0  0  0  0
    2.0989   -1.0206    2.3621 C   0  0  0  0  0  0  0  0  0  0  0  0
    3.1799   -1.6105    1.7573 N   0  0  0  0  0  0  0  0  0  0  0  0
    2.8964   -2.8901    1.8343 C   0  0  0  0  0  0  0  0  0  0  0  0
    1.7023   -3.0535    2.4627 N   0  0  0  0  0  0  0  0  0  0  0  0
    1.1665   -1.8703    2.8010 N   0  0  0  0  0  0  0  0  0  0  0  0
    0.9207    2.0386    0.4822 C   0  0  0  0  0  0  0  0  0  0  0  0
   -2.8765    0.9550   -0.5452 C   0  0  0  0  0  0  0  0  0  0  0  0
   -5.6812   -0.6285    2.4025 H   0  0  0  0  0  0  0  0  0  0  0  0
   -4.0190   -1.1913    2.6184 H   0  0  0  0  0  0  0  0  0  0  0  0
   -5.0523   -1.8514    1.2911 H   0  0  0  0  0  0  0  0  0  0  0  0
   -2.7341   -2.1388    0.8526 H   0  0  0  0  0  0  0  0  0  0  0  0
   -0.7937   -2.2956   -0.5661 H   0  0  0  0  0  0  0  0  0  0  0  0
    1.4086   -1.5210   -1.0648 H   0  0  0  0  0  0  0  0  0  0  0  0
    1.8952   -1.2027   -2.7344 H   0  0  0  0  0  0  0  0  0  0  0  0
    0.5696   -2.3348   -2.4416 H   0  0  0  0  0  0  0  0  0  0  0  0
   -0.8360    3.7472   -0.6152 H   0  0  0  0  0  0  0  0  0  0  0  0
    1.9437    2.7985   -2.6781 H   0  0  0  0  0  0  0  0  0  0  0  0
    3.9601    1.5988   -1.8833 H   0  0  0  0  0  0  0  0  0  0  0  0
    4.0498   -0.1482    1.0948 H   0  0  0  0  0  0  0  0  0  0  0  0
    3.4976   -3.7130    1.4735 H   0  0  0  0  0  0  0  0  0  0  0  0
    1.2093   -3.9094    2.6932 H   0  0  0  0  0  0  0  0  0  0  0  0
    0.0620    2.1636    1.1373 H   0  0  0  0  0  0  0  0  0  0  0  0
   -3.4843    1.8580   -0.5285 H   0  0  0  0  0  0  0  0  0  0  0  0
  1  2  1  0
  2  3  1  0
  3  4  2  0
  4  5  1  0
  5  6  2  0
  6  7  1  0
  7  8  1  0
  6  9  1  0
  9 10  1  0
 10 11  2  0
 10 12  2  0
 10 13  1  0
 13 14  1  0
 14 15  2  0
 15 16  1  0
 16 17  2  0
 17 18  1  0
 17 19  1  0
 19 20  1  0
 20 21  1  0
 21 22  1  0
 22 23  2  0
 23 24  1  0
 24 25  1  0
 19 26  2  0
  9 27  2  0
 27  3  1  0
 26 14  1  0
 25 21  2  0
  1 28  1  0
  1 29  1  0
  1 30  1  0
  4 31  1  0
  5 32  1  0
  8 33  1  0
  8 34  1  0
  8 35  1  0
 13 36  1  0
 15 37  1  0
 16 38  1  0
 18 39  1  0
 23 40  1  0
 24 41  1  0
 26 42  1  0
 27 43  1  0
M  END
$$$$
