
     RDKit          3D

 59 62  0  0  0  0  0  0  0  0999 V2000
   -6.2207    2.3968   -4.0649 C   0  0  0  0  0  0  0  0  0  0  0  0
   -5.8152    2.4741   -2.7081 O   0  0  0  0  0  0  0  0  0  0  0  0
   -4.8157    1.6250   -2.3152 C   0  0  0  0  0  0  0  0  0  0  0  0
   -4.2187    0.6384   -3.1022 C   0  0  0  0  0  0  0  0  0  0  0  0
   -3.2195   -0.1826   -2.5655 C   0  0  0  0  0  0  0  0  0  0  0  0
   -2.8023   -0.0256   -1.2376 C   0  0  0  0  0  0  0  0  0  0  0  0
   -1.7772   -0.9081   -0.6969 C   0  0  0  0  0  0  0  0  0  0  0  0
   -0.4946   -1.1487   -1.1545 C   0  0  0  0  0  0  0  0  0  0  0  0
    0.1324   -2.1100   -0.4111 N   0  0  0  0  0  0  0  0  0  0  0  0
   -0.7565   -2.4837    0.4834 C   0  0  0  0  0  0  0  0  0  0  0  0
   -0.4847   -3.6958    1.6933 S   0  0  0  0  0  0  0  0  0  0  0  0
    1.2480   -4.1261    1.3929 C   0  0  0  0  0  0  0  0  0  0  0  0
    2.1759   -3.0616    1.9484 C   0  0  0  0  0  0  0  0  0  0  0  0
    2.5627   -3.1171    3.1122 O   0  0  0  0  0  0  0  0  0  0  0  0
    2.4989   -2.0978    1.0154 N   0  0  0  0  0  0  0  0  0  0  0  0
    3.4707   -1.1416    1.1166 C   0  0  0  0  0  0  0  0  0  0  0  0
    3.6454   -0.2384    0.1817 N   0  0  0  0  0  0  0  0  0  0  0  0
    4.7545    0.5498    0.4710 C   0  0  0  0  0  0  0  0  0  0  0  0
    5.1832    1.6372   -0.5047 C   0  0  0  0  0  0  0  0  0  0  0  0
    4.2250    1.7232   -1.7131 C   0  0  0  0  0  0  0  0  0  0  0  0
    6.5922    1.3264   -1.0391 C   0  0  0  0  0  0  0  0  0  0  0  0
    5.2004    3.0110    0.1944 C   0  0  0  0  0  0  0  0  0  0  0  0
    5.3863    0.2111    1.6538 C   0  0  0  0  0  0  0  0  0  0  0  0
    4.5795   -1.0924    2.4053 S   0  0  0  0  0  0  0  0  0  0  0  0
   -1.9305   -1.7861    0.3637 N   0  0  0  0  0  0  0  0  0  0  0  0
   -3.1529   -2.0097    1.1242 C   0  0  0  0  0  0  0  0  0  0  0  0
   -3.2141   -1.1643    2.3451 C   0  0  0  0  0  0  0  0  0  0  0  0
   -2.2786   -0.7141    3.2606 C   0  0  0  0  0  0  0  0  0  0  0  0
   -2.9828    0.0670    4.2109 C   0  0  0  0  0  0  0  0  0  0  0  0
   -4.3050    0.0349    3.8274 C   0  0  0  0  0  0  0  0  0  0  0  0
   -4.4547   -0.7084    2.6971 O   0  0  0  0  0  0  0  0  0  0  0  0
   -3.3876    0.9799   -0.4583 C   0  0  0  0  0  0  0  0  0  0  0  0
   -4.3907    1.7929   -0.9956 C   0  0  0  0  0  0  0  0  0  0  0  0
   -6.6025    1.4019   -4.3135 H   0  0  0  0  0  0  0  0  0  0  0  0
   -5.4017    2.6830   -4.7330 H   0  0  0  0  0  0  0  0  0  0  0  0
   -7.0385    3.1077   -4.2119 H   0  0  0  0  0  0  0  0  0  0  0  0
   -4.5152    0.4706   -4.1302 H   0  0  0  0  0  0  0  0  0  0  0  0
   -2.7837   -0.9632   -3.1903 H   0  0  0  0  0  0  0  0  0  0  0  0
    0.0043   -0.6747   -1.9944 H   0  0  0  0  0  0  0  0  0  0  0  0
    1.4356   -4.2984    0.3291 H   0  0  0  0  0  0  0  0  0  0  0  0
    1.4718   -5.0679    1.9099 H   0  0  0  0  0  0  0  0  0  0  0  0
    1.9160   -2.0147    0.1824 H   0  0  0  0  0  0  0  0  0  0  0  0
    3.1996    1.9529   -1.3969 H   0  0  0  0  0  0  0  0  0  0  0  0
    4.5429    2.5108   -2.4119 H   0  0  0  0  0  0  0  0  0  0  0  0
    4.1968    0.7765   -2.2700 H   0  0  0  0  0  0  0  0  0  0  0  0
    6.6269    0.3395   -1.5043 H   0  0  0  0  0  0  0  0  0  0  0  0
    6.9024    2.0546   -1.7851 H   0  0  0  0  0  0  0  0  0  0  0  0
    7.3398    1.3322   -0.2387 H   0  0  0  0  0  0  0  0  0  0  0  0
    5.4898    3.7987   -0.5052 H   0  0  0  0  0  0  0  0  0  0  0  0
    4.2154    3.2676    0.5978 H   0  0  0  0  0  0  0  0  0  0  0  0
    5.9118    3.0361    1.0264 H   0  0  0  0  0  0  0  0  0  0  0  0
    6.2656    0.6526    2.0998 H   0  0  0  0  0  0  0  0  0  0  0  0
   -3.2154   -3.0705    1.3877 H   0  0  0  0  0  0  0  0  0  0  0  0
   -3.9988   -1.8113    0.4607 H   0  0  0  0  0  0  0  0  0  0  0  0
   -1.2109   -0.9110    3.2407 H   0  0  0  0  0  0  0  0  0  0  0  0
   -2.5771    0.5844    5.0677 H   0  0  0  0  0  0  0  0  0  0  0  0
   -5.2128    0.4659    4.2284 H   0  0  0  0  0  0  0  0  0  0  0  0
   -3.0717    1.1487    0.5708 H   0  0  0  0  0  0  0  0  0  0  0  0
   -4.8434    2.5724   -0.3765 H   0  0  0  0  0  0  0  0  0  0  0  0
  1  2  1  0
  2  3  1  0
  3  4  2  0
  4  5  1  0
  5  6  2  0
  6  7  1  0
  7  8  2  0
  8  9  1  0
  9 10  2  0
 10 11  1  0
 11 12  1  0
 12 13  1  0
 13 14  2  0
 13 15  1  0
 15 16  1  0
 16 17  2  0
 17 18  1  0
 18 19  1  0
 19 20  1  0
 19 21  1  0
 19 22  1  0
 18 23  2  0
 23 24  1  0
 10 25  1  0
 25 26  1  0
 26 27  1  0
 27 28  2  0
 28 29  1  0
 29 30  2  0
 30 31  1  0
  6 32  1  0
 32 33  2  0
 33  3  1  0
 25  7  1  0
 31 27  1  0
 24 16  1  0
  1 34  1  0
  1 35  1  0
  1 36  1  0
  4 37  1  0
  5 38  1  0
  8 39  1  0
 12 40  1  0
 12 41  1  0
 15 42  1  0
 20 43  1  0
 20 44  1  0
 20 45  1  0
 21 46  1  0
 21 47  1  0
 21 48  1  0
 22 49  1  0
 22 50  1  0
 22 51  1  0
 23 52  1  0
 26 53  1  0
 26 54  1  0
 28 55  1  0
 29 56  1  0
 30 57  1  0
 32 58  1  0
 33 59  1  0
M  END
$$$$
