
     RDKit          3D

 25 26  0  0  0  0  0  0  0  0999 V2000
    5.6505   -0.2710    0.8199 O   0  0  0  0  0  0  0  0  0  0  0  0
    4.8164    0.5173    0.3529 N   0  0  0  0  0  4  0  0  0  0  0  0
    5.0808    1.6480   -0.0779 O   0  0  0  0  0  1  0  0  0  0  0  0
    3.4295    0.0808    0.3068 C   0  0  0  0  0  0  0  0  0  0  0  0
    3.0497   -1.1693    0.7878 C   0  0  0  0  0  0  0  0  0  0  0  0
    1.7025   -1.5301    0.7160 C   0  0  0  0  0  0  0  0  0  0  0  0
    0.7680   -0.6459    0.1662 C   0  0  0  0  0  0  0  0  0  0  0  0
   -0.5818   -1.0631    0.1338 N   0  0  0  0  0  0  0  0  0  0  0  0
   -1.7404   -0.3148   -0.1724 C   0  0  0  0  0  0  0  0  0  0  0  0
   -1.8266    1.0704    0.0052 C   0  0  0  0  0  0  0  0  0  0  0  0
   -3.0166    1.7602   -0.2501 C   0  0  0  0  0  0  0  0  0  0  0  0
   -4.1508    1.0685   -0.6648 C   0  0  0  0  0  0  0  0  0  0  0  0
   -4.0977   -0.3138   -0.8130 C   0  0  0  0  0  0  0  0  0  0  0  0
   -2.9058   -0.9986   -0.5571 C   0  0  0  0  0  0  0  0  0  0  0  0
    1.1472    0.5681   -0.2909 N   0  0  0  0  0  0  0  0  0  0  0  0
    2.4582    0.9125   -0.2189 C   0  0  0  0  0  0  0  0  0  0  0  0
    3.7704   -1.8598    1.2185 H   0  0  0  0  0  0  0  0  0  0  0  0
    1.3833   -2.4942    1.1014 H   0  0  0  0  0  0  0  0  0  0  0  0
   -0.6417   -2.0054   -0.2350 H   0  0  0  0  0  0  0  0  0  0  0  0
   -0.9677    1.6375    0.3523 H   0  0  0  0  0  0  0  0  0  0  0  0
   -3.0531    2.8380   -0.1161 H   0  0  0  0  0  0  0  0  0  0  0  0
   -5.0751    1.6050   -0.8610 H   0  0  0  0  0  0  0  0  0  0  0  0
   -4.9838   -0.8618   -1.1217 H   0  0  0  0  0  0  0  0  0  0  0  0
   -2.8979   -2.0799   -0.6658 H   0  0  0  0  0  0  0  0  0  0  0  0
    2.6823    1.9018   -0.6101 H   0  0  0  0  0  0  0  0  0  0  0  0
  1  2  2  0
  2  3  1  0
  2  4  1  0
  4  5  2  0
  5  6  1  0
  6  7  2  0
  7  8  1  0
  8  9  1  0
  9 10  2  0
 10 11  1  0
 11 12  2  0
 12 13  1  0
 13 14  2  0
  7 15  1  0
 15 16  2  0
 16  4  1  0
 14  9  1  0
  5 17  1  0
  6 18  1  0
  8 19  1  0
 10 20  1  0
 11 21  1  0
 12 22  1  0
 13 23  1  0
 14 24  1  0
 16 25  1  0
M  CHG  2   2   1   3  -1
M  END
$$$$
