
     RDKit          3D

 48 49  0  0  0  0  0  0  0  0999 V2000
   -6.4849    0.5813   -0.8200 C   0  0  0  0  0  0  0  0  0  0  0  0
   -5.8046   -0.5335   -0.0402 C   0  0  0  0  0  0  0  0  0  0  0  0
   -4.3596   -0.3308    0.0542 N   0  0  0  0  0  0  0  0  0  0  0  0
   -3.5299   -0.8780   -1.0238 C   0  0  0  0  0  0  0  0  0  0  0  0
   -3.2145   -2.3504   -0.8108 C   0  0  0  0  0  0  0  0  0  0  0  0
   -3.8834    0.4539    1.1048 C   0  0  0  0  0  0  0  0  0  0  0  0
   -4.5992    0.9834    1.9505 O   0  0  0  0  0  0  0  0  0  0  0  0
   -2.4311    0.6722    1.2197 C   0  0  0  0  0  0  0  0  0  0  0  0
   -1.8764    1.8577    0.7372 C   0  0  0  0  0  0  0  0  0  0  0  0
   -0.4997    2.0755    0.8547 C   0  0  0  0  0  0  0  0  0  0  0  0
    0.3192    1.1199    1.4640 C   0  0  0  0  0  0  0  0  0  0  0  0
    1.7096    1.2659    1.6225 N   0  0  0  0  0  0  0  0  0  0  0  0
    2.5160    2.2940    1.1636 C   0  0  0  0  0  0  0  0  0  0  0  0
    2.1645    3.2796    0.5232 O   0  0  0  0  0  0  0  0  0  0  0  0
    3.9823    2.1013    1.5636 C   0  0  0  0  0  0  0  0  0  0  0  0
    4.4009    0.7418    1.5674 O   0  0  0  0  0  0  0  0  0  0  0  0
    4.6290    0.1138    0.3699 C   0  0  0  0  0  0  0  0  0  0  0  0
    4.5591    0.7323   -0.8837 C   0  0  0  0  0  0  0  0  0  0  0  0
    4.8081   -0.0000   -2.0512 C   0  0  0  0  0  0  0  0  0  0  0  0
    5.1292   -1.3602   -1.9666 C   0  0  0  0  0  0  0  0  0  0  0  0
    5.3876   -2.1261   -3.1921 N   0  0  0  0  0  4  0  0  0  0  0  0
    5.6367   -3.3336   -3.0730 O   0  0  0  0  0  0  0  0  0  0  0  0
    5.3389   -1.5191   -4.2706 O   0  0  0  0  0  1  0  0  0  0  0  0
    5.2013   -1.9957   -0.7242 C   0  0  0  0  0  0  0  0  0  0  0  0
    4.9500   -1.2558    0.4338 C   0  0  0  0  0  0  0  0  0  0  0  0
    5.0260   -2.0835    1.9516 Cl  0  0  0  0  0  0  0  0  0  0  0  0
   -0.2584   -0.0571    1.9643 C   0  0  0  0  0  0  0  0  0  0  0  0
   -1.6324   -0.2825    1.8478 C   0  0  0  0  0  0  0  0  0  0  0  0
   -7.5645    0.4079   -0.8664 H   0  0  0  0  0  0  0  0  0  0  0  0
   -6.1036    0.6364   -1.8447 H   0  0  0  0  0  0  0  0  0  0  0  0
   -6.3147    1.5547   -0.3486 H   0  0  0  0  0  0  0  0  0  0  0  0
   -6.0003   -1.5021   -0.5119 H   0  0  0  0  0  0  0  0  0  0  0  0
   -6.2294   -0.5756    0.9693 H   0  0  0  0  0  0  0  0  0  0  0  0
   -4.0621   -0.7413   -1.9718 H   0  0  0  0  0  0  0  0  0  0  0  0
   -2.5946   -0.3182   -1.1082 H   0  0  0  0  0  0  0  0  0  0  0  0
   -4.1278   -2.9531   -0.7877 H   0  0  0  0  0  0  0  0  0  0  0  0
   -2.5835   -2.7235   -1.6234 H   0  0  0  0  0  0  0  0  0  0  0  0
   -2.6871   -2.5129    0.1335 H   0  0  0  0  0  0  0  0  0  0  0  0
   -2.5097    2.6120    0.2769 H   0  0  0  0  0  0  0  0  0  0  0  0
   -0.1011    3.0095    0.4708 H   0  0  0  0  0  0  0  0  0  0  0  0
    2.1970    0.5066    2.0895 H   0  0  0  0  0  0  0  0  0  0  0  0
    4.0785    2.4708    2.5912 H   0  0  0  0  0  0  0  0  0  0  0  0
    4.6396    2.7239    0.9467 H   0  0  0  0  0  0  0  0  0  0  0  0
    4.3116    1.7842   -1.0006 H   0  0  0  0  0  0  0  0  0  0  0  0
    4.7456    0.5065   -3.0138 H   0  0  0  0  0  0  0  0  0  0  0  0
    5.4472   -3.0528   -0.6461 H   0  0  0  0  0  0  0  0  0  0  0  0
    0.3509   -0.8112    2.4568 H   0  0  0  0  0  0  0  0  0  0  0  0
   -2.0761   -1.1884    2.2519 H   0  0  0  0  0  0  0  0  0  0  0  0
  1  2  1  0
  2  3  1  0
  3  4  1  0
  4  5  1  0
  3  6  1  0
  6  7  2  0
  6  8  1  0
  8  9  2  0
  9 10  1  0
 10 11  2  0
 11 12  1  0
 12 13  1  0
 13 14  2  0
 13 15  1  0
 15 16  1  0
 16 17  1  0
 17 18  2  0
 18 19  1  0
 19 20  2  0
 20 21  1  0
 21 22  2  0
 21 23  1  0
 20 24  1  0
 24 25  2  0
 25 26  1  0
 11 27  1  0
 27 28  2  0
 28  8  1  0
 25 17  1  0
  1 29  1  0
  1 30  1  0
  1 31  1  0
  2 32  1  0
  2 33  1  0
  4 34  1  0
  4 35  1  0
  5 36  1  0
  5 37  1  0
  5 38  1  0
  9 39  1  0
 10 40  1  0
 12 41  1  0
 15 42  1  0
 15 43  1  0
 18 44  1  0
 19 45  1  0
 24 46  1  0
 27 47  1  0
 28 48  1  0
M  CHG  2  21   1  23  -1
M  END
$$$$
