
     RDKit          3D

 62 67  0  0  0  0  0  0  0  0999 V2000
   -3.2955   -3.8693    0.7004 C   0  0  0  0  0  0  0  0  0  0  0  0
   -3.2830   -2.4872    1.0269 O   0  0  0  0  0  0  0  0  0  0  0  0
   -2.5740   -2.1032    2.1381 C   0  0  0  0  0  0  0  0  0  0  0  0
   -1.8811   -2.9836    2.9777 C   0  0  0  0  0  0  0  0  0  0  0  0
   -1.1775   -2.5030    4.0863 C   0  0  0  0  0  0  0  0  0  0  0  0
   -1.1572   -1.1405    4.3679 C   0  0  0  0  0  0  0  0  0  0  0  0
   -1.8433   -0.2533    3.5411 C   0  0  0  0  0  0  0  0  0  0  0  0
   -2.5575   -0.7229    2.4263 C   0  0  0  0  0  0  0  0  0  0  0  0
   -3.2514    0.2517    1.5745 C   0  0  0  0  0  0  0  0  0  0  0  0
   -4.8755    0.6355    1.9363 S   0  0  0  0  0  0  0  0  0  0  0  0
   -4.9933    1.7589    0.6384 C   0  0  0  0  0  0  0  0  0  0  0  0
   -6.1310    2.5212    0.2931 C   0  0  0  0  0  0  0  0  0  0  0  0
   -6.0031    3.3651   -0.7907 C   0  0  0  0  0  0  0  0  0  0  0  0
   -4.8405    3.4685   -1.5040 C   0  0  0  0  0  0  0  0  0  0  0  0
   -3.7162    2.7328   -1.1846 C   0  0  0  0  0  0  0  0  0  0  0  0
   -3.7864    1.8456   -0.0747 C   0  0  0  0  0  0  0  0  0  0  0  0
   -2.7854    0.9639    0.4830 C   0  0  0  0  0  0  0  0  0  0  0  0
   -1.4203    0.8058   -0.0010 C   0  0  0  0  0  0  0  0  0  0  0  0
   -0.4486    1.7598    0.3165 C   0  0  0  0  0  0  0  0  0  0  0  0
    0.8644    1.6101   -0.1442 C   0  0  0  0  0  0  0  0  0  0  0  0
    1.2115    0.5073   -0.9260 C   0  0  0  0  0  0  0  0  0  0  0  0
    2.4520    0.2402   -1.4348 O   0  0  0  0  0  0  0  0  0  0  0  0
    3.5212    1.0998   -1.0324 C   0  0  0  0  0  0  0  0  0  0  0  0
    4.8481    0.5799   -1.6211 C   0  0  0  0  0  0  0  0  0  0  0  0
    5.5843   -0.3475   -0.7376 N   0  0  0  0  0  0  0  0  0  0  0  0
    4.9146   -1.6541   -0.5550 C   0  0  0  0  0  0  0  0  0  0  0  0
    5.4953   -2.7710   -1.4369 C   0  0  0  0  0  0  0  0  0  0  0  0
    6.8898   -3.0111   -1.1990 O   0  0  0  0  0  0  0  0  0  0  0  0
    7.5854   -1.8497   -0.7252 C   0  0  0  0  0  0  0  0  0  0  0  0
    6.9650   -0.5422   -1.2383 C   0  0  0  0  0  0  0  0  0  0  0  0
    0.2338   -0.4367   -1.2518 C   0  0  0  0  0  0  0  0  0  0  0  0
   -1.0771   -0.2919   -0.7933 C   0  0  0  0  0  0  0  0  0  0  0  0
   -4.9352    4.3573   -2.5298 O   0  0  0  0  0  0  0  0  0  0  0  0
   -6.2998    4.7991   -2.3805 C   0  0  0  0  0  0  0  0  0  0  0  0
   -6.9837    4.1762   -1.2742 O   0  0  0  0  0  0  0  0  0  0  0  0
   -3.7681   -4.4582    1.4927 H   0  0  0  0  0  0  0  0  0  0  0  0
   -3.8946   -3.9929   -0.2073 H   0  0  0  0  0  0  0  0  0  0  0  0
   -2.2857   -4.2321    0.4833 H   0  0  0  0  0  0  0  0  0  0  0  0
   -1.8661   -4.0531    2.7975 H   0  0  0  0  0  0  0  0  0  0  0  0
   -0.6420   -3.1968    4.7297 H   0  0  0  0  0  0  0  0  0  0  0  0
   -0.6072   -0.7682    5.2281 H   0  0  0  0  0  0  0  0  0  0  0  0
   -1.8203    0.8108    3.7649 H   0  0  0  0  0  0  0  0  0  0  0  0
   -7.0573    2.4459    0.8503 H   0  0  0  0  0  0  0  0  0  0  0  0
   -2.8071    2.8297   -1.7690 H   0  0  0  0  0  0  0  0  0  0  0  0
   -0.7056    2.6213    0.9284 H   0  0  0  0  0  0  0  0  0  0  0  0
    1.5879    2.3717    0.1258 H   0  0  0  0  0  0  0  0  0  0  0  0
    3.3370    2.1021   -1.4385 H   0  0  0  0  0  0  0  0  0  0  0  0
    3.5916    1.1598    0.0608 H   0  0  0  0  0  0  0  0  0  0  0  0
    5.4852    1.4617   -1.7701 H   0  0  0  0  0  0  0  0  0  0  0  0
    4.6770    0.1231   -2.6043 H   0  0  0  0  0  0  0  0  0  0  0  0
    5.0644   -1.9378    0.4947 H   0  0  0  0  0  0  0  0  0  0  0  0
    3.8331   -1.6000   -0.6969 H   0  0  0  0  0  0  0  0  0  0  0  0
    5.3657   -2.5336   -2.4992 H   0  0  0  0  0  0  0  0  0  0  0  0
    4.9671   -3.7109   -1.2473 H   0  0  0  0  0  0  0  0  0  0  0  0
    7.5956   -1.8765    0.3707 H   0  0  0  0  0  0  0  0  0  0  0  0
    8.6238   -1.9315   -1.0615 H   0  0  0  0  0  0  0  0  0  0  0  0
    7.5808    0.3066   -0.9221 H   0  0  0  0  0  0  0  0  0  0  0  0
    6.9711   -0.5730   -2.3357 H   0  0  0  0  0  0  0  0  0  0  0  0
    0.4958   -1.2961   -1.8637 H   0  0  0  0  0  0  0  0  0  0  0  0
   -1.8229   -1.0402   -1.0507 H   0  0  0  0  0  0  0  0  0  0  0  0
   -6.8455    4.5721   -3.3036 H   0  0  0  0  0  0  0  0  0  0  0  0
   -6.3025    5.8846   -2.2283 H   0  0  0  0  0  0  0  0  0  0  0  0
  1  2  1  0
  2  3  1  0
  3  4  2  0
  4  5  1  0
  5  6  2  0
  6  7  1  0
  7  8  2  0
  8  9  1  0
  9 10  1  0
 10 11  1  0
 11 12  2  0
 12 13  1  0
 13 14  2  0
 14 15  1  0
 15 16  2  0
 16 17  1  0
 17 18  1  0
 18 19  2  0
 19 20  1  0
 20 21  2  0
 21 22  1  0
 22 23  1  0
 23 24  1  0
 24 25  1  0
 25 26  1  0
 26 27  1  0
 27 28  1  0
 28 29  1  0
 29 30  1  0
 21 31  1  0
 31 32  2  0
 14 33  1  0
 33 34  1  0
 34 35  1  0
  8  3  1  0
 17  9  2  0
 32 18  1  0
 16 11  1  0
 30 25  1  0
 35 13  1  0
  1 36  1  0
  1 37  1  0
  1 38  1  0
  4 39  1  0
  5 40  1  0
  6 41  1  0
  7 42  1  0
 12 43  1  0
 15 44  1  0
 19 45  1  0
 20 46  1  0
 23 47  1  0
 23 48  1  0
 24 49  1  0
 24 50  1  0
 26 51  1  0
 26 52  1  0
 27 53  1  0
 27 54  1  0
 29 55  1  0
 29 56  1  0
 30 57  1  0
 30 58  1  0
 31 59  1  0
 32 60  1  0
 34 61  1  0
 34 62  1  0
M  END
$$$$
