
     RDKit          3D

 56 61  0  0  0  0  0  0  0  0999 V2000
    5.4248    2.2151   -3.8835 C   0  0  0  0  0  0  0  0  0  0  0  0
    4.4616    1.5004   -2.9809 C   0  0  0  0  0  0  0  0  0  0  0  0
    4.5180    1.6743   -1.5951 C   0  0  0  0  0  0  0  0  0  0  0  0
    3.6373    0.9865   -0.7537 C   0  0  0  0  0  0  0  0  0  0  0  0
    2.6950    0.1096   -1.2905 C   0  0  0  0  0  0  0  0  0  0  0  0
    1.6948   -0.6636   -0.3599 C   0  0  0  0  0  0  0  0  0  0  0  0
    0.7674   -1.6161   -0.7628 C   0  0  0  0  0  0  0  0  0  0  0  0
    0.0350   -2.0354    0.3483 N   0  0  0  0  0  4  0  0  0  0  0  0
   -1.1225   -2.9472    0.3491 C   0  0  0  0  0  0  0  0  0  0  0  0
   -2.3700   -2.3141    1.0012 C   0  0  0  0  0  0  0  0  0  0  0  0
   -2.9310   -2.9487    1.8972 O   0  0  0  0  0  0  0  0  0  0  0  0
   -2.6610   -0.9871    0.6294 N   0  0  0  0  0  0  0  0  0  0  0  0
   -3.1766   -0.0421    1.5898 C   0  0  0  0  0  0  0  0  0  0  0  0
   -4.0549   -0.4481    2.6089 C   0  0  0  0  0  0  0  0  0  0  0  0
   -4.5417    0.4571    3.5579 C   0  0  0  0  0  0  0  0  0  0  0  0
   -4.1557    1.7899    3.5137 C   0  0  0  0  0  0  0  0  0  0  0  0
   -3.2818    2.2178    2.5194 C   0  0  0  0  0  0  0  0  0  0  0  0
   -2.7959    1.3150    1.5610 C   0  0  0  0  0  0  0  0  0  0  0  0
   -1.6031    1.9326    0.3926 S   0  0  0  0  0  0  0  0  0  0  0  0
   -1.9347    0.8081   -0.9355 C   0  0  0  0  0  0  0  0  0  0  0  0
   -1.6646    1.2306   -2.2448 C   0  0  0  0  0  0  0  0  0  0  0  0
   -1.8989    0.3831   -3.3256 C   0  0  0  0  0  0  0  0  0  0  0  0
   -2.4149   -0.8883   -3.1053 C   0  0  0  0  0  0  0  0  0  0  0  0
   -2.6725   -1.3196   -1.8018 C   0  0  0  0  0  0  0  0  0  0  0  0
   -2.4063   -0.4918   -0.6944 C   0  0  0  0  0  0  0  0  0  0  0  0
    0.5402   -1.4172    1.4128 C   0  0  0  0  0  0  0  0  0  0  0  0
    1.4956   -0.5863    1.0067 N   0  0  0  0  0  0  0  0  0  0  0  0
    2.0440    0.1920    2.1086 C   0  0  0  0  0  0  0  0  0  0  0  0
    1.0594   -0.0854    3.2772 C   0  0  0  0  0  0  0  0  0  0  0  0
    0.3155   -1.3743    2.8769 C   0  0  0  0  0  0  0  0  0  0  0  0
    2.6453   -0.0812   -2.6761 C   0  0  0  0  0  0  0  0  0  0  0  0
    3.5266    0.6084   -3.5139 C   0  0  0  0  0  0  0  0  0  0  0  0
    5.8240    3.1147   -3.4026 H   0  0  0  0  0  0  0  0  0  0  0  0
    6.2593    1.5536   -4.1385 H   0  0  0  0  0  0  0  0  0  0  0  0
    4.9256    2.5327   -4.8054 H   0  0  0  0  0  0  0  0  0  0  0  0
    5.2532    2.3500   -1.1605 H   0  0  0  0  0  0  0  0  0  0  0  0
    3.7297    1.1524    0.3114 H   0  0  0  0  0  0  0  0  0  0  0  0
    0.5138   -2.0357   -1.7215 H   0  0  0  0  0  0  0  0  0  0  0  0
   -0.8290   -3.8190    0.9467 H   0  0  0  0  0  0  0  0  0  0  0  0
   -1.3382   -3.3058   -0.6590 H   0  0  0  0  0  0  0  0  0  0  0  0
   -4.4283   -1.4673    2.6699 H   0  0  0  0  0  0  0  0  0  0  0  0
   -5.2352    0.1169    4.3246 H   0  0  0  0  0  0  0  0  0  0  0  0
   -4.5380    2.4950    4.2486 H   0  0  0  0  0  0  0  0  0  0  0  0
   -2.9813    3.2637    2.4992 H   0  0  0  0  0  0  0  0  0  0  0  0
   -1.2850    2.2336   -2.4344 H   0  0  0  0  0  0  0  0  0  0  0  0
   -1.7105    0.7303   -4.3398 H   0  0  0  0  0  0  0  0  0  0  0  0
   -2.6476   -1.5325   -3.9514 H   0  0  0  0  0  0  0  0  0  0  0  0
   -3.1440   -2.2926   -1.6754 H   0  0  0  0  0  0  0  0  0  0  0  0
    2.0694    1.2561    1.8628 H   0  0  0  0  0  0  0  0  0  0  0  0
    3.0460   -0.1816    2.3389 H   0  0  0  0  0  0  0  0  0  0  0  0
    0.3397    0.7397    3.3385 H   0  0  0  0  0  0  0  0  0  0  0  0
    1.5616   -0.1657    4.2451 H   0  0  0  0  0  0  0  0  0  0  0  0
   -0.7513   -1.3365    3.0905 H   0  0  0  0  0  0  0  0  0  0  0  0
    0.7820   -2.2720    3.2879 H   0  0  0  0  0  0  0  0  0  0  0  0
    1.9300   -0.7523   -3.1419 H   0  0  0  0  0  0  0  0  0  0  0  0
    3.4797    0.4482   -4.5900 H   0  0  0  0  0  0  0  0  0  0  0  0
  1  2  1  0
  2  3  2  0
  3  4  1  0
  4  5  2  0
  5  6  1  0
  6  7  2  0
  7  8  1  0
  8  9  1  0
  9 10  1  0
 10 11  2  0
 10 12  1  0
 12 13  1  0
 13 14  2  0
 14 15  1  0
 15 16  2  0
 16 17  1  0
 17 18  2  0
 18 19  1  0
 19 20  1  0
 20 21  2  0
 21 22  1  0
 22 23  2  0
 23 24  1  0
 24 25  2  0
  8 26  2  0
 26 27  1  0
 27 28  1  0
 28 29  1  0
 29 30  1  0
  5 31  1  0
 31 32  2  0
 32  2  1  0
 27  6  1  0
 25 12  1  0
 30 26  1  0
 18 13  1  0
 25 20  1  0
  1 33  1  0
  1 34  1  0
  1 35  1  0
  3 36  1  0
  4 37  1  0
  7 38  1  0
  9 39  1  0
  9 40  1  0
 14 41  1  0
 15 42  1  0
 16 43  1  0
 17 44  1  0
 21 45  1  0
 22 46  1  0
 23 47  1  0
 24 48  1  0
 28 49  1  0
 28 50  1  0
 29 51  1  0
 29 52  1  0
 30 53  1  0
 30 54  1  0
 31 55  1  0
 32 56  1  0
M  CHG  1   8   1
M  END
$$$$
