
     RDKit          3D

 47 50  0  0  0  0  0  0  0  0999 V2000
   -9.1557    0.4637   -1.4883 C   0  0  0  0  0  0  0  0  0  0  0  0
   -7.9638   -0.2965   -1.2822 O   0  0  0  0  0  0  0  0  0  0  0  0
   -6.9595    0.4002   -0.6948 C   0  0  0  0  0  0  0  0  0  0  0  0
   -7.0078    1.5687   -0.3447 O   0  0  0  0  0  0  0  0  0  0  0  0
   -5.7530   -0.4563   -0.5253 C   0  0  0  0  0  0  0  0  0  0  0  0
   -5.7472   -1.8167   -0.8504 C   0  0  0  0  0  0  0  0  0  0  0  0
   -4.5877   -2.5720   -0.6676 C   0  0  0  0  0  0  0  0  0  0  0  0
   -3.4272   -1.9821   -0.1530 C   0  0  0  0  0  0  0  0  0  0  0  0
   -3.4180   -0.6267    0.1944 C   0  0  0  0  0  0  0  0  0  0  0  0
   -2.2652    0.0237    0.7235 N   0  0  0  0  0  0  0  0  0  0  0  0
   -2.2002    1.3834    0.7329 N   0  0  0  0  0  0  0  0  0  0  0  0
   -1.0081    1.7082    1.2054 N   0  0  0  0  0  0  0  0  0  0  0  0
   -0.3047    0.5989    1.5633 N   0  0  0  0  0  0  0  0  0  0  0  0
   -1.0787   -0.4303    1.2915 C   0  0  0  0  0  0  0  0  0  0  0  0
   -0.6957   -2.0556    1.7515 S   0  0  0  0  0  0  0  0  0  0  0  0
    0.7609   -1.8034    2.8044 C   0  0  0  0  0  0  0  0  0  0  0  0
    2.0326   -1.7814    1.9713 C   0  0  0  0  0  0  0  0  0  0  0  0
    2.6624   -2.8215    1.7846 O   0  0  0  0  0  0  0  0  0  0  0  0
    2.3500   -0.5250    1.5079 N   0  0  0  0  0  0  0  0  0  0  0  0
    3.4543   -0.1604    0.7818 C   0  0  0  0  0  0  0  0  0  0  0  0
    3.6137    1.0793    0.3733 N   0  0  0  0  0  0  0  0  0  0  0  0
    4.8135    1.1895   -0.2927 C   0  0  0  0  0  0  0  0  0  0  0  0
    5.5403    0.0219   -0.3865 C   0  0  0  0  0  0  0  0  0  0  0  0
    4.7101   -1.2459    0.3821 S   0  0  0  0  0  0  0  0  0  0  0  0
    6.8825   -0.1131   -1.0182 C   0  0  0  0  0  0  0  0  0  0  0  0
    7.1935    1.1252   -1.8798 C   0  0  0  0  0  0  0  0  0  0  0  0
    6.7788    2.4380   -1.1911 C   0  0  0  0  0  0  0  0  0  0  0  0
    5.2729    2.4794   -0.8811 C   0  0  0  0  0  0  0  0  0  0  0  0
   -4.5870    0.1344   -0.0120 C   0  0  0  0  0  0  0  0  0  0  0  0
   -8.9365    1.4015   -2.0119 H   0  0  0  0  0  0  0  0  0  0  0  0
   -9.6419    0.6645   -0.5264 H   0  0  0  0  0  0  0  0  0  0  0  0
   -9.8351   -0.1278   -2.1081 H   0  0  0  0  0  0  0  0  0  0  0  0
   -6.6339   -2.3003   -1.2529 H   0  0  0  0  0  0  0  0  0  0  0  0
   -4.5817   -3.6266   -0.9399 H   0  0  0  0  0  0  0  0  0  0  0  0
   -2.5494   -2.6173   -0.0845 H   0  0  0  0  0  0  0  0  0  0  0  0
    0.8323   -2.6441    3.5041 H   0  0  0  0  0  0  0  0  0  0  0  0
    0.6767   -0.8983    3.4165 H   0  0  0  0  0  0  0  0  0  0  0  0
    1.6993    0.2410    1.6453 H   0  0  0  0  0  0  0  0  0  0  0  0
    6.9424   -1.0163   -1.6371 H   0  0  0  0  0  0  0  0  0  0  0  0
    7.6391   -0.2007   -0.2275 H   0  0  0  0  0  0  0  0  0  0  0  0
    8.2645    1.1509   -2.1025 H   0  0  0  0  0  0  0  0  0  0  0  0
    6.6680    1.0440   -2.8400 H   0  0  0  0  0  0  0  0  0  0  0  0
    7.0473    3.2925   -1.8218 H   0  0  0  0  0  0  0  0  0  0  0  0
    7.3444    2.5412   -0.2558 H   0  0  0  0  0  0  0  0  0  0  0  0
    4.7107    2.6628   -1.8043 H   0  0  0  0  0  0  0  0  0  0  0  0
    5.0608    3.3078   -0.1954 H   0  0  0  0  0  0  0  0  0  0  0  0
   -4.6128    1.1975    0.2374 H   0  0  0  0  0  0  0  0  0  0  0  0
  1  2  1  0
  2  3  1  0
  3  4  2  0
  3  5  1  0
  5  6  2  0
  6  7  1  0
  7  8  2  0
  8  9  1  0
  9 10  1  0
 10 11  1  0
 11 12  2  0
 12 13  1  0
 13 14  2  0
 14 15  1  0
 15 16  1  0
 16 17  1  0
 17 18  2  0
 17 19  1  0
 19 20  1  0
 20 21  2  0
 21 22  1  0
 22 23  2  0
 23 24  1  0
 23 25  1  0
 25 26  1  0
 26 27  1  0
 27 28  1  0
  9 29  2  0
 29  5  1  0
 14 10  1  0
 24 20  1  0
 28 22  1  0
  1 30  1  0
  1 31  1  0
  1 32  1  0
  6 33  1  0
  7 34  1  0
  8 35  1  0
 16 36  1  0
 16 37  1  0
 19 38  1  0
 25 39  1  0
 25 40  1  0
 26 41  1  0
 26 42  1  0
 27 43  1  0
 27 44  1  0
 28 45  1  0
 28 46  1  0
 29 47  1  0
M  END
$$$$
