
     RDKit          3D

 65 68  0  0  0  0  0  0  0  0999 V2000
    9.1542   -0.3816    4.7149 C   0  0  0  0  0  0  0  0  0  0  0  0
    8.1002    0.3102    3.9537 C   0  0  0  0  0  0  0  0  0  0  0  0
    6.9099   -0.0788    3.3925 C   0  0  0  0  0  0  0  0  0  0  0  0
    6.3927    1.0980    2.8059 C   0  0  0  0  0  0  0  0  0  0  0  0
    5.2273    1.2870    2.0979 N   0  0  0  0  0  0  0  0  0  0  0  0
    4.2791    0.3206    1.8493 C   0  0  0  0  0  0  0  0  0  0  0  0
    4.3146   -0.8393    2.2457 O   0  0  0  0  0  0  0  0  0  0  0  0
    3.1494    0.8557    0.9935 C   0  0  0  0  0  0  0  0  0  0  0  0
    2.0431   -0.1771    0.7907 C   0  0  0  0  0  0  0  0  0  0  0  0
    0.9470    0.3613   -0.1132 C   0  0  0  0  0  0  0  0  0  0  0  0
    0.9988    1.5258   -0.5198 O   0  0  0  0  0  0  0  0  0  0  0  0
   -0.1100   -0.4810   -0.4515 N   0  0  0  0  0  0  0  0  0  0  0  0
   -0.2978   -1.8183    0.1279 C   0  0  0  0  0  0  0  0  0  0  0  0
    0.0033   -2.9132   -0.8623 C   0  0  0  0  0  0  0  0  0  0  0  0
   -0.8239   -3.9586   -1.2342 C   0  0  0  0  0  0  0  0  0  0  0  0
   -0.2207   -4.8259   -2.1886 C   0  0  0  0  0  0  0  0  0  0  0  0
    1.0629   -4.4360   -2.4974 C   0  0  0  0  0  0  0  0  0  0  0  0
    1.5227   -3.0254   -1.6524 S   0  0  0  0  0  0  0  0  0  0  0  0
   -1.2555    0.1716   -1.1248 C   0  0  0  0  0  0  0  0  0  0  0  0
   -2.1847    0.8257   -0.0580 C   0  0  0  0  0  0  0  0  0  0  0  0
   -2.2779    0.4157    1.0993 O   0  0  0  0  0  0  0  0  0  0  0  0
   -2.9404    1.8861   -0.5323 N   0  0  0  0  0  0  0  0  0  0  0  0
   -3.9431    2.5247    0.2909 C   0  0  0  0  0  0  0  0  0  0  0  0
   -4.3694    3.8835   -0.2523 C   0  0  0  0  0  0  0  0  0  0  0  0
   -5.6851    4.1335    0.4643 C   0  0  0  0  0  0  0  0  0  0  0  0
   -6.3637    2.7685    0.5034 C   0  0  0  0  0  0  0  0  0  0  0  0
   -5.2499    1.7302    0.3552 C   0  0  0  0  0  0  0  0  0  0  0  0
   -2.0052   -0.7109   -2.1171 C   0  0  0  0  0  0  0  0  0  0  0  0
   -1.4268   -0.9563   -3.3757 C   0  0  0  0  0  0  0  0  0  0  0  0
   -2.0738   -1.7584   -4.3165 C   0  0  0  0  0  0  0  0  0  0  0  0
   -3.3091   -2.3261   -4.0165 C   0  0  0  0  0  0  0  0  0  0  0  0
   -3.8959   -2.0970   -2.7733 C   0  0  0  0  0  0  0  0  0  0  0  0
   -3.2474   -1.3000   -1.8267 C   0  0  0  0  0  0  0  0  0  0  0  0
    7.2173    2.1331    3.0026 N   0  0  0  0  0  0  0  0  0  0  0  0
    8.2858    1.6379    3.7261 O   0  0  0  0  0  0  0  0  0  0  0  0
    9.1108   -0.0971    5.7710 H   0  0  0  0  0  0  0  0  0  0  0  0
    9.0377   -1.4679    4.6495 H   0  0  0  0  0  0  0  0  0  0  0  0
   10.1459   -0.1231    4.3275 H   0  0  0  0  0  0  0  0  0  0  0  0
    6.4823   -1.0706    3.4039 H   0  0  0  0  0  0  0  0  0  0  0  0
    5.1000    2.2326    1.7631 H   0  0  0  0  0  0  0  0  0  0  0  0
    2.7407    1.7522    1.4765 H   0  0  0  0  0  0  0  0  0  0  0  0
    3.5712    1.1542    0.0256 H   0  0  0  0  0  0  0  0  0  0  0  0
    2.4669   -1.0831    0.3526 H   0  0  0  0  0  0  0  0  0  0  0  0
    1.6092   -0.4244    1.7659 H   0  0  0  0  0  0  0  0  0  0  0  0
   -1.3285   -1.9077    0.4892 H   0  0  0  0  0  0  0  0  0  0  0  0
    0.3374   -1.9633    1.0058 H   0  0  0  0  0  0  0  0  0  0  0  0
   -1.8256   -4.0898   -0.8460 H   0  0  0  0  0  0  0  0  0  0  0  0
   -0.6992   -5.6967   -2.6184 H   0  0  0  0  0  0  0  0  0  0  0  0
    1.7553   -4.9114   -3.1794 H   0  0  0  0  0  0  0  0  0  0  0  0
   -0.8692    1.0144   -1.7163 H   0  0  0  0  0  0  0  0  0  0  0  0
   -2.9682    2.0387   -1.5332 H   0  0  0  0  0  0  0  0  0  0  0  0
   -3.5412    2.6432    1.3054 H   0  0  0  0  0  0  0  0  0  0  0  0
   -3.6290    4.6645   -0.0459 H   0  0  0  0  0  0  0  0  0  0  0  0
   -4.5270    3.8466   -1.3385 H   0  0  0  0  0  0  0  0  0  0  0  0
   -6.2982    4.8862   -0.0395 H   0  0  0  0  0  0  0  0  0  0  0  0
   -5.4938    4.4822    1.4864 H   0  0  0  0  0  0  0  0  0  0  0  0
   -6.9244    2.6320    1.4340 H   0  0  0  0  0  0  0  0  0  0  0  0
   -7.0735    2.6715   -0.3264 H   0  0  0  0  0  0  0  0  0  0  0  0
   -5.2428    1.0221    1.1907 H   0  0  0  0  0  0  0  0  0  0  0  0
   -5.4120    1.1468   -0.5601 H   0  0  0  0  0  0  0  0  0  0  0  0
   -0.4527   -0.5348   -3.6216 H   0  0  0  0  0  0  0  0  0  0  0  0
   -1.6055   -1.9467   -5.2794 H   0  0  0  0  0  0  0  0  0  0  0  0
   -3.8112   -2.9530   -4.7492 H   0  0  0  0  0  0  0  0  0  0  0  0
   -4.8575   -2.5465   -2.5375 H   0  0  0  0  0  0  0  0  0  0  0  0
   -3.7259   -1.1564   -0.8590 H   0  0  0  0  0  0  0  0  0  0  0  0
  1  2  1  0
  2  3  2  0
  3  4  1  0
  4  5  1  0
  5  6  1  0
  6  7  2  0
  6  8  1  0
  8  9  1  0
  9 10  1  0
 10 11  2  0
 10 12  1  0
 12 13  1  0
 13 14  1  0
 14 15  2  0
 15 16  1  0
 16 17  2  0
 17 18  1  0
 12 19  1  0
 19 20  1  0
 20 21  2  0
 20 22  1  0
 22 23  1  0
 23 24  1  0
 24 25  1  0
 25 26  1  0
 26 27  1  0
 19 28  1  0
 28 29  2  0
 29 30  1  0
 30 31  2  0
 31 32  1  0
 32 33  2  0
  4 34  2  0
 34 35  1  0
 35  2  1  0
 18 14  1  0
 27 23  1  0
 33 28  1  0
  1 36  1  0
  1 37  1  0
  1 38  1  0
  3 39  1  0
  5 40  1  0
  8 41  1  0
  8 42  1  0
  9 43  1  0
  9 44  1  0
 13 45  1  0
 13 46  1  0
 15 47  1  0
 16 48  1  0
 17 49  1  0
 19 50  1  0
 22 51  1  0
 23 52  1  0
 24 53  1  0
 24 54  1  0
 25 55  1  0
 25 56  1  0
 26 57  1  0
 26 58  1  0
 27 59  1  0
 27 60  1  0
 29 61  1  0
 30 62  1  0
 31 63  1  0
 32 64  1  0
 33 65  1  0
M  END
$$$$
