
     RDKit          3D

 48 50  0  0  0  0  0  0  0  0999 V2000
   -4.7468   -1.8232    1.4470 C   0  0  0  0  0  0  0  0  0  0  0  0
   -5.1437   -0.8925    0.4499 O   0  0  0  0  0  0  0  0  0  0  0  0
   -4.2242    0.0411    0.0476 C   0  0  0  0  0  0  0  0  0  0  0  0
   -2.9154    0.1330    0.5268 C   0  0  0  0  0  0  0  0  0  0  0  0
   -2.0512    1.1267    0.0441 C   0  0  0  0  0  0  0  0  0  0  0  0
   -0.6721    1.2404    0.5403 C   0  0  0  0  0  0  0  0  0  0  0  0
    0.3026    0.3237    0.3705 C   0  0  0  0  0  0  0  0  0  0  0  0
    0.0938   -0.8944   -0.3300 C   0  0  0  0  0  0  0  0  0  0  0  0
    0.0086   -1.9157   -0.8741 N   0  0  0  0  0  0  0  0  0  0  0  0
    1.6620    0.6402    0.9458 C   0  0  0  0  0  0  0  0  0  0  0  0
    1.8328    1.7007    1.5404 O   0  0  0  0  0  0  0  0  0  0  0  0
    2.6273   -0.3336    0.7392 N   0  0  0  0  0  0  0  0  0  0  0  0
    3.9889   -0.3279    1.1608 C   0  0  0  0  0  0  0  0  0  0  0  0
    4.5263    0.7371    1.8914 C   0  0  0  0  0  0  0  0  0  0  0  0
    5.8571    0.7211    2.2945 C   0  0  0  0  0  0  0  0  0  0  0  0
    6.6657   -0.3626    1.9706 C   0  0  0  0  0  0  0  0  0  0  0  0
    6.1830   -1.4402    1.2504 C   0  0  0  0  0  0  0  0  0  0  0  0
    7.0474   -2.4362    0.9903 N   0  0  0  0  0  0  0  0  0  0  0  0
    6.6106   -3.5005    0.2903 C   0  0  0  0  0  0  0  0  0  0  0  0
    5.3216   -3.6243   -0.1751 C   0  0  0  0  0  0  0  0  0  0  0  0
    4.4286   -2.5912    0.0961 C   0  0  0  0  0  0  0  0  0  0  0  0
    4.8297   -1.4444    0.8292 C   0  0  0  0  0  0  0  0  0  0  0  0
   -2.5063    2.0534   -0.9044 C   0  0  0  0  0  0  0  0  0  0  0  0
   -3.8133    1.9833   -1.3910 C   0  0  0  0  0  0  0  0  0  0  0  0
   -4.3498    2.8364   -2.3204 O   0  0  0  0  0  0  0  0  0  0  0  0
   -3.5917    3.9859   -2.6705 C   0  0  0  0  0  0  0  0  0  0  0  0
   -4.6565    0.9605   -0.9239 C   0  0  0  0  0  0  0  0  0  0  0  0
   -5.9597    0.9074   -1.3696 O   0  0  0  0  0  0  0  0  0  0  0  0
   -6.0433    0.0639   -2.5170 C   0  0  0  0  0  0  0  0  0  0  0  0
   -3.9207   -2.4499    1.0951 H   0  0  0  0  0  0  0  0  0  0  0  0
   -5.5985   -2.4796    1.6501 H   0  0  0  0  0  0  0  0  0  0  0  0
   -4.4885   -1.3148    2.3817 H   0  0  0  0  0  0  0  0  0  0  0  0
   -2.5521   -0.5554    1.2829 H   0  0  0  0  0  0  0  0  0  0  0  0
   -0.4665    2.1747    1.0633 H   0  0  0  0  0  0  0  0  0  0  0  0
    2.3545   -1.1586    0.2259 H   0  0  0  0  0  0  0  0  0  0  0  0
    3.9397    1.6053    2.1716 H   0  0  0  0  0  0  0  0  0  0  0  0
    6.2648    1.5538    2.8621 H   0  0  0  0  0  0  0  0  0  0  0  0
    7.7056   -0.3665    2.2904 H   0  0  0  0  0  0  0  0  0  0  0  0
    7.3519   -4.2735    0.1099 H   0  0  0  0  0  0  0  0  0  0  0  0
    5.0146   -4.5002   -0.7356 H   0  0  0  0  0  0  0  0  0  0  0  0
    3.4186   -2.7103   -0.2816 H   0  0  0  0  0  0  0  0  0  0  0  0
   -1.8215    2.8198   -1.2542 H   0  0  0  0  0  0  0  0  0  0  0  0
   -4.2022    4.5974   -3.3419 H   0  0  0  0  0  0  0  0  0  0  0  0
   -2.6824    3.7050   -3.2118 H   0  0  0  0  0  0  0  0  0  0  0  0
   -3.3568    4.5920   -1.7892 H   0  0  0  0  0  0  0  0  0  0  0  0
   -5.4367    0.4511   -3.3430 H   0  0  0  0  0  0  0  0  0  0  0  0
   -5.7483   -0.9641   -2.2803 H   0  0  0  0  0  0  0  0  0  0  0  0
   -7.0872    0.0478   -2.8446 H   0  0  0  0  0  0  0  0  0  0  0  0
  1  2  1  0
  2  3  1  0
  3  4  2  0
  4  5  1  0
  5  6  1  0
  6  7  2  3
  7  8  1  0
  8  9  3  0
  7 10  1  0
 10 11  2  0
 10 12  1  0
 12 13  1  0
 13 14  2  0
 14 15  1  0
 15 16  2  0
 16 17  1  0
 17 18  2  0
 18 19  1  0
 19 20  2  0
 20 21  1  0
 21 22  2  0
  5 23  2  0
 23 24  1  0
 24 25  1  0
 25 26  1  0
 24 27  2  0
 27 28  1  0
 28 29  1  0
 27  3  1  0
 22 13  1  0
 22 17  1  0
  1 30  1  0
  1 31  1  0
  1 32  1  0
  4 33  1  0
  6 34  1  0
 12 35  1  0
 14 36  1  0
 15 37  1  0
 16 38  1  0
 19 39  1  0
 20 40  1  0
 21 41  1  0
 23 42  1  0
 26 43  1  0
 26 44  1  0
 26 45  1  0
 29 46  1  0
 29 47  1  0
 29 48  1  0
M  END
$$$$
