
     RDKit          3D

 33 34  0  0  0  0  0  0  0  0999 V2000
   -2.0621    3.7714    1.5430 C   0  0  0  0  0  0  0  0  0  0  0  0
   -1.2948    2.5902    1.3087 O   0  0  0  0  0  0  0  0  0  0  0  0
   -0.2816    2.7711    0.4287 C   0  0  0  0  0  0  0  0  0  0  0  0
    0.1037    3.8159   -0.0646 O   0  0  0  0  0  0  0  0  0  0  0  0
    0.4192    1.4910    0.2681 C   0  0  0  0  0  0  0  0  0  0  0  0
    1.7548    1.4649    0.6671 C   0  0  0  0  0  0  0  0  0  0  0  0
    2.4154    0.2609    0.5945 C   0  0  0  0  0  0  0  0  0  0  0  0
    3.7319    0.2564    1.0000 O   0  0  0  0  0  0  0  0  0  0  0  0
    4.3533   -1.0207    0.8912 C   0  0  0  0  0  0  0  0  0  0  0  0
    1.8339   -0.8788    0.1694 N   0  0  0  0  0  0  0  0  0  0  0  0
    0.5361   -0.8341   -0.2300 C   0  0  0  0  0  0  0  0  0  0  0  0
   -0.1991    0.3363   -0.2199 C   0  0  0  0  0  0  0  0  0  0  0  0
   -1.5606    0.3077   -0.7675 C   0  0  0  0  0  0  0  0  0  0  0  0
   -2.1286    1.3576   -1.0522 O   0  0  0  0  0  0  0  0  0  0  0  0
   -2.1156   -0.9436   -0.9847 N   0  0  0  0  0  0  0  0  0  0  0  0
   -3.4929   -1.0040   -1.4387 C   0  0  0  0  0  0  0  0  0  0  0  0
   -1.3822   -2.1212   -1.0435 C   0  0  0  0  0  0  0  0  0  0  0  0
   -1.8867   -3.1766   -1.4324 O   0  0  0  0  0  0  0  0  0  0  0  0
   -0.0566   -2.0372   -0.6638 N   0  0  0  0  0  0  0  0  0  0  0  0
    0.7812   -3.2277   -0.6908 C   0  0  0  0  0  0  0  0  0  0  0  0
   -2.4493    4.1766    0.6034 H   0  0  0  0  0  0  0  0  0  0  0  0
   -1.4593    4.5175    2.0676 H   0  0  0  0  0  0  0  0  0  0  0  0
   -2.9115    3.5026    2.1757 H   0  0  0  0  0  0  0  0  0  0  0  0
    2.2574    2.3542    1.0333 H   0  0  0  0  0  0  0  0  0  0  0  0
    4.3788   -1.3611   -0.1492 H   0  0  0  0  0  0  0  0  0  0  0  0
    5.3869   -0.9199    1.2361 H   0  0  0  0  0  0  0  0  0  0  0  0
    3.8599   -1.7572    1.5340 H   0  0  0  0  0  0  0  0  0  0  0  0
   -3.4950   -1.1024   -2.5310 H   0  0  0  0  0  0  0  0  0  0  0  0
   -4.0495   -0.1044   -1.1558 H   0  0  0  0  0  0  0  0  0  0  0  0
   -3.9904   -1.8787   -1.0047 H   0  0  0  0  0  0  0  0  0  0  0  0
    0.2218   -4.1135   -1.0012 H   0  0  0  0  0  0  0  0  0  0  0  0
    1.1818   -3.4174    0.3090 H   0  0  0  0  0  0  0  0  0  0  0  0
    1.5999   -3.0760   -1.4001 H   0  0  0  0  0  0  0  0  0  0  0  0
  1  2  1  0
  2  3  1  0
  3  4  2  0
  3  5  1  0
  5  6  2  0
  6  7  1  0
  7  8  1  0
  8  9  1  0
  7 10  2  0
 10 11  1  0
 11 12  2  0
 12 13  1  0
 13 14  2  0
 13 15  1  0
 15 16  1  0
 15 17  1  0
 17 18  2  0
 17 19  1  0
 19 20  1  0
 12  5  1  0
 19 11  1  0
  1 21  1  0
  1 22  1  0
  1 23  1  0
  6 24  1  0
  9 25  1  0
  9 26  1  0
  9 27  1  0
 16 28  1  0
 16 29  1  0
 16 30  1  0
 20 31  1  0
 20 32  1  0
 20 33  1  0
M  END
$$$$
