
     RDKit          3D

 43 45  0  0  0  0  0  0  0  0999 V2000
    6.5438   -1.8756    0.7540 C   0  0  0  0  0  0  0  0  0  0  0  0
    5.6568   -0.7016    0.4572 C   0  0  0  0  0  0  0  0  0  0  0  0
    6.2051    0.5675    0.2395 C   0  0  0  0  0  0  0  0  0  0  0  0
    5.3775    1.6682   -0.0045 C   0  0  0  0  0  0  0  0  0  0  0  0
    5.9737    3.0171   -0.2793 C   0  0  0  0  0  0  0  0  0  0  0  0
    3.9883    1.4823   -0.0414 C   0  0  0  0  0  0  0  0  0  0  0  0
    3.4200    0.2232    0.1957 C   0  0  0  0  0  0  0  0  0  0  0  0
    2.0122    0.1337    0.1495 N   0  0  0  0  0  0  0  0  0  0  0  0
    1.2312   -0.9732    0.4281 C   0  0  0  0  0  0  0  0  0  0  0  0
    1.6096   -2.0648    0.8335 O   0  0  0  0  0  0  0  0  0  0  0  0
   -0.2306   -0.7622    0.2369 C   0  0  0  0  0  0  0  0  0  0  0  0
   -1.1194   -1.3485    1.1414 C   0  0  0  0  0  0  0  0  0  0  0  0
   -2.5006   -1.1715    0.9926 C   0  0  0  0  0  0  0  0  0  0  0  0
   -3.0099   -0.4196   -0.0683 C   0  0  0  0  0  0  0  0  0  0  0  0
   -4.3844   -0.1958   -0.2969 N   0  0  0  0  0  0  0  0  0  0  0  0
   -5.4571   -0.5946    0.4929 C   0  0  0  0  0  0  0  0  0  0  0  0
   -5.3410   -1.1904    1.5595 O   0  0  0  0  0  0  0  0  0  0  0  0
   -6.7606   -0.2269   -0.0500 C   0  0  0  0  0  0  0  0  0  0  0  0
   -7.1798    0.3419   -1.2436 C   0  0  0  0  0  0  0  0  0  0  0  0
   -8.5921    0.4505   -1.1792 C   0  0  0  0  0  0  0  0  0  0  0  0
   -8.9575   -0.0573    0.0425 C   0  0  0  0  0  0  0  0  0  0  0  0
   -7.8646   -0.4693    0.7293 O   0  0  0  0  0  0  0  0  0  0  0  0
   -2.1126    0.1459   -0.9865 C   0  0  0  0  0  0  0  0  0  0  0  0
   -0.7309   -0.0229   -0.8392 C   0  0  0  0  0  0  0  0  0  0  0  0
    4.2623   -0.8610    0.4474 C   0  0  0  0  0  0  0  0  0  0  0  0
    6.1384   -2.7896    0.3081 H   0  0  0  0  0  0  0  0  0  0  0  0
    6.6306   -2.0147    1.8355 H   0  0  0  0  0  0  0  0  0  0  0  0
    7.5451   -1.7282    0.3354 H   0  0  0  0  0  0  0  0  0  0  0  0
    7.2856    0.6976    0.2593 H   0  0  0  0  0  0  0  0  0  0  0  0
    5.2940    3.8171    0.0325 H   0  0  0  0  0  0  0  0  0  0  0  0
    6.9081    3.1506    0.2761 H   0  0  0  0  0  0  0  0  0  0  0  0
    6.1794    3.1247   -1.3490 H   0  0  0  0  0  0  0  0  0  0  0  0
    3.3514    2.3375   -0.2508 H   0  0  0  0  0  0  0  0  0  0  0  0
    1.5272    1.0003   -0.0404 H   0  0  0  0  0  0  0  0  0  0  0  0
   -0.7422   -1.9469    1.9690 H   0  0  0  0  0  0  0  0  0  0  0  0
   -3.1469   -1.6485    1.7233 H   0  0  0  0  0  0  0  0  0  0  0  0
   -4.6071    0.3428   -1.1202 H   0  0  0  0  0  0  0  0  0  0  0  0
   -6.5577    0.6404   -2.0747 H   0  0  0  0  0  0  0  0  0  0  0  0
   -9.2614    0.8455   -1.9307 H   0  0  0  0  0  0  0  0  0  0  0  0
   -9.9039   -0.1922    0.5483 H   0  0  0  0  0  0  0  0  0  0  0  0
   -2.4748    0.7206   -1.8355 H   0  0  0  0  0  0  0  0  0  0  0  0
   -0.0635    0.3992   -1.5860 H   0  0  0  0  0  0  0  0  0  0  0  0
    3.8584   -1.8515    0.6339 H   0  0  0  0  0  0  0  0  0  0  0  0
  1  2  1  0
  2  3  2  0
  3  4  1  0
  4  5  1  0
  4  6  2  0
  6  7  1  0
  7  8  1  0
  8  9  1  0
  9 10  2  0
  9 11  1  0
 11 12  2  0
 12 13  1  0
 13 14  2  0
 14 15  1  0
 15 16  1  0
 16 17  2  0
 16 18  1  0
 18 19  2  0
 19 20  1  0
 20 21  2  0
 21 22  1  0
 14 23  1  0
 23 24  2  0
  7 25  2  0
 25  2  1  0
 24 11  1  0
 22 18  1  0
  1 26  1  0
  1 27  1  0
  1 28  1  0
  3 29  1  0
  5 30  1  0
  5 31  1  0
  5 32  1  0
  6 33  1  0
  8 34  1  0
 12 35  1  0
 13 36  1  0
 15 37  1  0
 19 38  1  0
 20 39  1  0
 21 40  1  0
 23 41  1  0
 24 42  1  0
 25 43  1  0
M  END
$$$$
