
     RDKit          3D

 46 49  0  0  0  0  0  0  0  0999 V2000
    2.8078   -1.3647   -2.3580 O   0  0  0  0  0  0  0  0  0  0  0  0
    2.2903   -0.2569   -2.4836 C   0  0  0  0  0  0  0  0  0  0  0  0
    1.2113    0.0029   -3.5255 C   0  0  0  0  0  0  0  0  0  0  0  0
   -0.3730   -0.7226   -2.9988 S   0  0  0  0  0  0  0  0  0  0  0  0
   -0.7214    0.2417   -1.6083 C   0  0  0  0  0  0  0  0  0  0  0  0
   -0.1763    1.4038   -1.3364 N   0  0  0  0  0  0  0  0  0  0  0  0
   -0.6407    1.8076   -0.1147 N   0  0  0  0  0  0  0  0  0  0  0  0
   -1.4845    0.8931    0.3302 C   0  0  0  0  0  0  0  0  0  0  0  0
   -2.2088    0.9415    1.6376 C   0  0  0  0  0  0  0  0  0  0  0  0
   -1.5171    0.1374    2.7058 C   0  0  0  0  0  0  0  0  0  0  0  0
   -0.1847    0.1590    3.0746 C   0  0  0  0  0  0  0  0  0  0  0  0
    0.1022   -0.7469    4.1348 C   0  0  0  0  0  0  0  0  0  0  0  0
   -1.0223   -1.4194    4.5553 C   0  0  0  0  0  0  0  0  0  0  0  0
   -2.4121   -0.9593    3.6742 S   0  0  0  0  0  0  0  0  0  0  0  0
   -1.5727   -0.1212   -0.6012 N   0  0  0  0  0  0  0  0  0  0  0  0
   -2.3547   -1.3377   -0.4995 C   0  0  0  0  0  0  0  0  0  0  0  0
   -3.6670   -1.1713   -1.1694 C   0  0  0  0  0  0  0  0  0  0  0  0
   -4.1413   -1.4911   -2.4256 C   0  0  0  0  0  0  0  0  0  0  0  0
   -5.4948   -1.0763   -2.4586 C   0  0  0  0  0  0  0  0  0  0  0  0
   -5.7620   -0.5386   -1.2218 C   0  0  0  0  0  0  0  0  0  0  0  0
   -4.6591   -0.5948   -0.4310 O   0  0  0  0  0  0  0  0  0  0  0  0
    2.5470    0.8469   -1.6797 N   0  0  0  0  0  0  0  0  0  0  0  0
    3.5151    0.8533   -0.6484 C   0  0  0  0  0  0  0  0  0  0  0  0
    3.1135    1.4147    0.5732 C   0  0  0  0  0  0  0  0  0  0  0  0
    3.9799    1.4310    1.6677 C   0  0  0  0  0  0  0  0  0  0  0  0
    5.2644    0.9108    1.5379 C   0  0  0  0  0  0  0  0  0  0  0  0
    6.3262    0.9214    2.8912 Cl  0  0  0  0  0  0  0  0  0  0  0  0
    5.7015    0.4011    0.3174 C   0  0  0  0  0  0  0  0  0  0  0  0
    4.8349    0.3830   -0.7814 C   0  0  0  0  0  0  0  0  0  0  0  0
    5.5263   -0.0657   -2.3034 Cl  0  0  0  0  0  0  0  0  0  0  0  0
    1.5267   -0.4673   -4.4625 H   0  0  0  0  0  0  0  0  0  0  0  0
    1.0997    1.0739   -3.7234 H   0  0  0  0  0  0  0  0  0  0  0  0
   -3.2471    0.6200    1.5023 H   0  0  0  0  0  0  0  0  0  0  0  0
   -2.2567    1.9855    1.9734 H   0  0  0  0  0  0  0  0  0  0  0  0
    0.5537    0.7944    2.5997 H   0  0  0  0  0  0  0  0  0  0  0  0
    1.0828   -0.8931    4.5720 H   0  0  0  0  0  0  0  0  0  0  0  0
   -1.0971   -2.1568    5.3426 H   0  0  0  0  0  0  0  0  0  0  0  0
   -2.4887   -1.5840    0.5564 H   0  0  0  0  0  0  0  0  0  0  0  0
   -1.7848   -2.1623   -0.9385 H   0  0  0  0  0  0  0  0  0  0  0  0
   -3.5796   -1.9620   -3.2223 H   0  0  0  0  0  0  0  0  0  0  0  0
   -6.1911   -1.1590   -3.2829 H   0  0  0  0  0  0  0  0  0  0  0  0
   -6.6407   -0.0980   -0.7709 H   0  0  0  0  0  0  0  0  0  0  0  0
    1.7181    1.4225   -1.5109 H   0  0  0  0  0  0  0  0  0  0  0  0
    2.1091    1.8174    0.6932 H   0  0  0  0  0  0  0  0  0  0  0  0
    3.6459    1.8468    2.6149 H   0  0  0  0  0  0  0  0  0  0  0  0
    6.7218    0.0394    0.2118 H   0  0  0  0  0  0  0  0  0  0  0  0
  1  2  2  0
  2  3  1  0
  3  4  1  0
  4  5  1  0
  5  6  2  0
  6  7  1  0
  7  8  2  0
  8  9  1  0
  9 10  1  0
 10 11  2  0
 11 12  1  0
 12 13  2  0
 13 14  1  0
  8 15  1  0
 15 16  1  0
 16 17  1  0
 17 18  2  0
 18 19  1  0
 19 20  2  0
 20 21  1  0
  2 22  1  0
 22 23  1  0
 23 24  2  0
 24 25  1  0
 25 26  2  0
 26 27  1  0
 26 28  1  0
 28 29  2  0
 29 30  1  0
 15  5  1  0
 21 17  1  0
 29 23  1  0
 14 10  1  0
  3 31  1  0
  3 32  1  0
  9 33  1  0
  9 34  1  0
 11 35  1  0
 12 36  1  0
 13 37  1  0
 16 38  1  0
 16 39  1  0
 18 40  1  0
 19 41  1  0
 20 42  1  0
 22 43  1  0
 24 44  1  0
 25 45  1  0
 28 46  1  0
M  END
$$$$
