
     RDKit          3D

 39 40  0  0  0  0  0  0  0  0999 V2000
    6.7698    1.4920   -1.0540 C   0  0  0  0  0  0  0  0  0  0  0  0
    5.2670    1.4171   -0.8225 C   0  0  0  0  0  0  0  0  0  0  0  0
    4.7442   -0.0250   -0.7334 C   0  0  0  0  0  0  0  0  0  0  0  0
    5.2028   -0.7478    0.5318 C   0  0  0  0  0  0  0  0  0  0  0  0
    3.2170   -0.0630   -0.8493 C   0  0  0  0  0  0  0  0  0  0  0  0
    2.6916   -0.6656   -1.7808 O   0  0  0  0  0  0  0  0  0  0  0  0
    2.5686    0.6151    0.1558 N   0  0  0  0  0  0  0  0  0  0  0  0
    1.2132    0.7523    0.3186 C   0  0  0  0  0  0  0  0  0  0  0  0
    0.7010    1.4564    1.3027 N   0  0  0  0  0  0  0  0  0  0  0  0
   -0.6794    1.4624    1.2795 N   0  0  0  0  0  0  0  0  0  0  0  0
   -1.1552    0.7513    0.2791 C   0  0  0  0  0  0  0  0  0  0  0  0
   -2.6060    0.5538   -0.0099 C   0  0  0  0  0  0  0  0  0  0  0  0
   -3.1963   -0.5434    0.8768 C   0  0  0  0  0  0  0  0  0  0  0  0
   -4.6566   -0.7735    0.5754 C   0  0  0  0  0  0  0  0  0  0  0  0
   -5.6370    0.0470    1.1493 C   0  0  0  0  0  0  0  0  0  0  0  0
   -6.9863   -0.1500    0.8517 C   0  0  0  0  0  0  0  0  0  0  0  0
   -7.3674   -1.1662   -0.0215 C   0  0  0  0  0  0  0  0  0  0  0  0
   -6.3999   -1.9862   -0.5988 C   0  0  0  0  0  0  0  0  0  0  0  0
   -5.0494   -1.7902   -0.3051 C   0  0  0  0  0  0  0  0  0  0  0  0
    0.0570    0.0327   -0.7034 S   0  0  0  0  0  0  0  0  0  0  0  0
    7.0518    0.9748   -1.9778 H   0  0  0  0  0  0  0  0  0  0  0  0
    7.3271    1.0476   -0.2240 H   0  0  0  0  0  0  0  0  0  0  0  0
    7.0830    2.5380   -1.1436 H   0  0  0  0  0  0  0  0  0  0  0  0
    5.0220    1.9738    0.0895 H   0  0  0  0  0  0  0  0  0  0  0  0
    4.7625    1.9370   -1.6461 H   0  0  0  0  0  0  0  0  0  0  0  0
    5.1270   -0.5853   -1.5968 H   0  0  0  0  0  0  0  0  0  0  0  0
    4.7085   -1.7218    0.6241 H   0  0  0  0  0  0  0  0  0  0  0  0
    6.2826   -0.9238    0.5138 H   0  0  0  0  0  0  0  0  0  0  0  0
    4.9705   -0.1734    1.4349 H   0  0  0  0  0  0  0  0  0  0  0  0
    3.1014    1.0970    0.8655 H   0  0  0  0  0  0  0  0  0  0  0  0
   -2.7606    0.3132   -1.0686 H   0  0  0  0  0  0  0  0  0  0  0  0
   -3.1292    1.5008    0.1672 H   0  0  0  0  0  0  0  0  0  0  0  0
   -3.0832   -0.2830    1.9377 H   0  0  0  0  0  0  0  0  0  0  0  0
   -2.6435   -1.4824    0.7444 H   0  0  0  0  0  0  0  0  0  0  0  0
   -5.3556    0.8449    1.8333 H   0  0  0  0  0  0  0  0  0  0  0  0
   -7.7405    0.4899    1.3019 H   0  0  0  0  0  0  0  0  0  0  0  0
   -8.4186   -1.3194   -0.2514 H   0  0  0  0  0  0  0  0  0  0  0  0
   -6.6972   -2.7792   -1.2788 H   0  0  0  0  0  0  0  0  0  0  0  0
   -4.3068   -2.4380   -0.7675 H   0  0  0  0  0  0  0  0  0  0  0  0
  1  2  1  0
  2  3  1  0
  3  4  1  0
  3  5  1  0
  5  6  2  0
  5  7  1  0
  7  8  1  0
  8  9  2  0
  9 10  1  0
 10 11  2  0
 11 12  1  0
 12 13  1  0
 13 14  1  0
 14 15  2  0
 15 16  1  0
 16 17  2  0
 17 18  1  0
 18 19  2  0
 11 20  1  0
 20  8  1  0
 19 14  1  0
  1 21  1  0
  1 22  1  0
  1 23  1  0
  2 24  1  0
  2 25  1  0
  3 26  1  0
  4 27  1  0
  4 28  1  0
  4 29  1  0
  7 30  1  0
 12 31  1  0
 12 32  1  0
 13 33  1  0
 13 34  1  0
 15 35  1  0
 16 36  1  0
 17 37  1  0
 18 38  1  0
 19 39  1  0
M  END
$$$$
