
     RDKit          3D

 73 75  0  0  0  0  0  0  0  0999 V2000
   -2.1674   -1.8448    1.8898 C   0  0  0  0  0  0  0  0  0  0  0  0
   -2.5920   -0.4347    1.4890 C   0  0  0  0  0  0  0  0  0  0  0  0
   -2.6498   -0.1717   -0.0254 C   0  0  0  0  0  0  0  0  0  0  0  0
   -0.9864   -0.2654   -0.8039 S   0  0  0  0  0  0  0  0  0  0  0  0
   -0.3173    1.2868   -0.3379 C   0  0  0  0  0  0  0  0  0  0  0  0
   -1.1131    2.3038   -0.3525 N   0  0  0  0  0  0  0  0  0  0  0  0
   -0.6085    3.5618   -0.0154 C   0  0  0  0  0  0  0  0  0  0  0  0
   -1.4620    4.6666   -0.0708 C   0  0  0  0  0  0  0  0  0  0  0  0
   -0.9986    5.9469    0.2578 C   0  0  0  0  0  0  0  0  0  0  0  0
   -1.7703    7.0821    0.2237 O   0  0  0  0  0  0  0  0  0  0  0  0
   -3.1297    6.9451   -0.1674 C   0  0  0  0  0  0  0  0  0  0  0  0
    0.3456    6.1230    0.6494 C   0  0  0  0  0  0  0  0  0  0  0  0
    0.7228    7.4065    0.9564 O   0  0  0  0  0  0  0  0  0  0  0  0
    2.0970    7.6450    1.2256 C   0  0  0  0  0  0  0  0  0  0  0  0
    1.1963    5.0168    0.7101 C   0  0  0  0  0  0  0  0  0  0  0  0
    0.7108    3.7480    0.3740 C   0  0  0  0  0  0  0  0  0  0  0  0
    1.5818    2.5620    0.4201 C   0  0  0  0  0  0  0  0  0  0  0  0
    2.7333    2.6810    0.8343 O   0  0  0  0  0  0  0  0  0  0  0  0
    1.0258    1.3545   -0.0023 N   0  0  0  0  0  0  0  0  0  0  0  0
    1.9245    0.1928    0.0339 C   0  0  0  0  0  0  0  0  0  0  0  0
    1.9405   -0.4679    1.4177 C   0  0  0  0  0  0  0  0  0  0  0  0
    2.7709   -1.7265    1.4202 C   0  0  0  0  0  0  0  0  0  0  0  0
    4.1474   -1.6645    1.6552 C   0  0  0  0  0  0  0  0  0  0  0  0
    4.9222   -2.8265    1.6315 C   0  0  0  0  0  0  0  0  0  0  0  0
    4.3325   -4.0679    1.3699 C   0  0  0  0  0  0  0  0  0  0  0  0
    5.0179   -5.2570    1.3269 O   0  0  0  0  0  0  0  0  0  0  0  0
    6.4021   -5.2310    1.6421 C   0  0  0  0  0  0  0  0  0  0  0  0
    2.9468   -4.1395    1.1222 C   0  0  0  0  0  0  0  0  0  0  0  0
    2.4436   -5.3902    0.8589 O   0  0  0  0  0  0  0  0  0  0  0  0
    1.0421   -5.5084    0.6546 C   0  0  0  0  0  0  0  0  0  0  0  0
    2.1784   -2.9691    1.1487 C   0  0  0  0  0  0  0  0  0  0  0  0
   -3.6663   -1.1100   -0.6948 C   0  0  0  0  0  0  0  0  0  0  0  0
   -4.8670   -1.0421   -0.4288 O   0  0  0  0  0  0  0  0  0  0  0  0
   -3.1671   -2.0508   -1.5693 N   0  0  0  0  0  0  0  0  0  0  0  0
   -4.0499   -2.8473   -2.4048 C   0  0  0  0  0  0  0  0  0  0  0  0
   -4.5179   -2.0664   -3.6378 C   0  0  0  0  0  0  0  0  0  0  0  0
   -3.4115   -1.7079   -4.4750 O   0  0  0  0  0  0  0  0  0  0  0  0
   -3.0524   -2.7348   -5.3905 C   0  0  0  0  0  0  0  0  0  0  0  0
   -1.1617   -2.0871    1.5364 H   0  0  0  0  0  0  0  0  0  0  0  0
   -2.8620   -2.5959    1.4996 H   0  0  0  0  0  0  0  0  0  0  0  0
   -2.1624   -1.9344    2.9814 H   0  0  0  0  0  0  0  0  0  0  0  0
   -3.5868   -0.2521    1.9154 H   0  0  0  0  0  0  0  0  0  0  0  0
   -1.9201    0.2884    1.9694 H   0  0  0  0  0  0  0  0  0  0  0  0
   -3.0531    0.8332   -0.1972 H   0  0  0  0  0  0  0  0  0  0  0  0
   -2.4884    4.4938   -0.3781 H   0  0  0  0  0  0  0  0  0  0  0  0
   -3.2104    6.5726   -1.1935 H   0  0  0  0  0  0  0  0  0  0  0  0
   -3.6795    6.3064    0.5328 H   0  0  0  0  0  0  0  0  0  0  0  0
   -3.5876    7.9386   -0.1405 H   0  0  0  0  0  0  0  0  0  0  0  0
    2.2257    8.7197    1.3890 H   0  0  0  0  0  0  0  0  0  0  0  0
    2.7242    7.3624    0.3737 H   0  0  0  0  0  0  0  0  0  0  0  0
    2.4119    7.1314    2.1394 H   0  0  0  0  0  0  0  0  0  0  0  0
    2.2340    5.1115    1.0139 H   0  0  0  0  0  0  0  0  0  0  0  0
    1.6469   -0.5282   -0.7414 H   0  0  0  0  0  0  0  0  0  0  0  0
    2.9395    0.5204   -0.2266 H   0  0  0  0  0  0  0  0  0  0  0  0
    0.9205   -0.7017    1.7464 H   0  0  0  0  0  0  0  0  0  0  0  0
    2.3307    0.2297    2.1698 H   0  0  0  0  0  0  0  0  0  0  0  0
    4.6293   -0.7086    1.8566 H   0  0  0  0  0  0  0  0  0  0  0  0
    5.9871   -2.7263    1.8162 H   0  0  0  0  0  0  0  0  0  0  0  0
    6.5735   -4.8568    2.6575 H   0  0  0  0  0  0  0  0  0  0  0  0
    6.9620   -4.6470    0.9044 H   0  0  0  0  0  0  0  0  0  0  0  0
    6.7731   -6.2602    1.6031 H   0  0  0  0  0  0  0  0  0  0  0  0
    0.8178   -6.5624    0.4708 H   0  0  0  0  0  0  0  0  0  0  0  0
    0.7213   -4.9457   -0.2284 H   0  0  0  0  0  0  0  0  0  0  0  0
    0.4849   -5.1982    1.5444 H   0  0  0  0  0  0  0  0  0  0  0  0
    1.1110   -2.9988    0.9563 H   0  0  0  0  0  0  0  0  0  0  0  0
   -2.2430   -1.8571   -1.9435 H   0  0  0  0  0  0  0  0  0  0  0  0
   -4.9156   -3.1611   -1.8127 H   0  0  0  0  0  0  0  0  0  0  0  0
   -3.4835   -3.7371   -2.6944 H   0  0  0  0  0  0  0  0  0  0  0  0
   -4.9962   -1.1302   -3.3285 H   0  0  0  0  0  0  0  0  0  0  0  0
   -5.2590   -2.6408   -4.2063 H   0  0  0  0  0  0  0  0  0  0  0  0
   -3.8989   -2.9826   -6.0410 H   0  0  0  0  0  0  0  0  0  0  0  0
   -2.7070   -3.6285   -4.8626 H   0  0  0  0  0  0  0  0  0  0  0  0
   -2.2331   -2.3655   -6.0170 H   0  0  0  0  0  0  0  0  0  0  0  0
  1  2  1  0
  2  3  1  0
  3  4  1  0
  4  5  1  0
  5  6  2  0
  6  7  1  0
  7  8  2  0
  8  9  1  0
  9 10  1  0
 10 11  1  0
  9 12  2  0
 12 13  1  0
 13 14  1  0
 12 15  1  0
 15 16  2  0
 16 17  1  0
 17 18  2  0
 17 19  1  0
 19 20  1  0
 20 21  1  0
 21 22  1  0
 22 23  2  0
 23 24  1  0
 24 25  2  0
 25 26  1  0
 26 27  1  0
 25 28  1  0
 28 29  1  0
 29 30  1  0
 28 31  2  0
  3 32  1  0
 32 33  2  0
 32 34  1  0
 34 35  1  0
 35 36  1  0
 36 37  1  0
 37 38  1  0
 19  5  1  0
 31 22  1  0
 16  7  1  0
  1 39  1  0
  1 40  1  0
  1 41  1  0
  2 42  1  0
  2 43  1  0
  3 44  1  0
  8 45  1  0
 11 46  1  0
 11 47  1  0
 11 48  1  0
 14 49  1  0
 14 50  1  0
 14 51  1  0
 15 52  1  0
 20 53  1  0
 20 54  1  0
 21 55  1  0
 21 56  1  0
 23 57  1  0
 24 58  1  0
 27 59  1  0
 27 60  1  0
 27 61  1  0
 30 62  1  0
 30 63  1  0
 30 64  1  0
 31 65  1  0
 34 66  1  0
 35 67  1  0
 35 68  1  0
 36 69  1  0
 36 70  1  0
 38 71  1  0
 38 72  1  0
 38 73  1  0
M  END
$$$$
