
     RDKit          3D

 60 63  0  0  0  0  0  0  0  0999 V2000
   -4.6293    5.6176    2.1809 C   0  0  0  0  0  0  0  0  0  0  0  0
   -4.2619    5.1529    0.8895 O   0  0  0  0  0  0  0  0  0  0  0  0
   -3.4990    4.0190    0.8371 C   0  0  0  0  0  0  0  0  0  0  0  0
   -2.9523    3.7394   -0.4182 C   0  0  0  0  0  0  0  0  0  0  0  0
   -2.1488    2.6132   -0.6162 C   0  0  0  0  0  0  0  0  0  0  0  0
   -1.9049    1.7444    0.4516 C   0  0  0  0  0  0  0  0  0  0  0  0
   -1.0917    0.5989    0.2713 N   0  0  0  0  0  0  0  0  0  0  0  0
   -1.3704   -0.7080    0.6617 C   0  0  0  0  0  0  0  0  0  0  0  0
   -2.6951   -1.2190    1.1402 C   0  0  0  0  0  0  0  0  0  0  0  0
   -3.5743   -1.6470   -0.0024 C   0  0  0  0  0  0  0  0  0  0  0  0
   -3.3922   -2.7179   -0.8644 C   0  0  0  0  0  0  0  0  0  0  0  0
   -4.4667   -2.7363   -1.7812 C   0  0  0  0  0  0  0  0  0  0  0  0
   -5.2861   -1.6750   -1.4666 C   0  0  0  0  0  0  0  0  0  0  0  0
   -4.7482   -1.0259   -0.3801 N   0  0  0  0  0  0  0  0  0  0  0  0
   -5.3617    0.1322    0.2368 C   0  0  0  0  0  0  0  0  0  0  0  0
   -0.3237   -1.4755    0.4041 N   0  0  0  0  0  0  0  0  0  0  0  0
    0.6212   -0.7140   -0.2187 N   0  0  0  0  0  0  0  0  0  0  0  0
    0.1633    0.5148   -0.3071 C   0  0  0  0  0  0  0  0  0  0  0  0
    1.0883    1.8623   -0.8912 S   0  0  0  0  0  0  0  0  0  0  0  0
    2.5999    1.0494   -1.4791 C   0  0  0  0  0  0  0  0  0  0  0  0
    3.5725    0.8021   -0.3374 C   0  0  0  0  0  0  0  0  0  0  0  0
    4.5070    1.5675   -0.0950 O   0  0  0  0  0  0  0  0  0  0  0  0
    3.3353   -0.3534    0.3716 N   0  0  0  0  0  0  0  0  0  0  0  0
    4.2125   -0.8347    1.4190 C   0  0  0  0  0  0  0  0  0  0  0  0
    4.6092   -2.3016    1.2104 C   0  0  0  0  0  0  0  0  0  0  0  0
    5.3538   -2.5518   -0.0813 C   0  0  0  0  0  0  0  0  0  0  0  0
    4.6998   -3.1259   -1.1828 C   0  0  0  0  0  0  0  0  0  0  0  0
    5.3870   -3.3516   -2.3802 C   0  0  0  0  0  0  0  0  0  0  0  0
    6.7335   -3.0066   -2.4915 C   0  0  0  0  0  0  0  0  0  0  0  0
    7.3912   -2.4290   -1.4076 C   0  0  0  0  0  0  0  0  0  0  0  0
    6.7047   -2.1989   -0.2080 C   0  0  0  0  0  0  0  0  0  0  0  0
   -2.4534    2.0151    1.7114 C   0  0  0  0  0  0  0  0  0  0  0  0
   -3.2483    3.1512    1.9015 C   0  0  0  0  0  0  0  0  0  0  0  0
   -3.7506    5.7755    2.8128 H   0  0  0  0  0  0  0  0  0  0  0  0
   -5.3390    4.9324    2.6579 H   0  0  0  0  0  0  0  0  0  0  0  0
   -5.1295    6.5835    2.0551 H   0  0  0  0  0  0  0  0  0  0  0  0
   -3.1487    4.4116   -1.2497 H   0  0  0  0  0  0  0  0  0  0  0  0
   -1.7537    2.4225   -1.6113 H   0  0  0  0  0  0  0  0  0  0  0  0
   -2.5085   -2.1030    1.7686 H   0  0  0  0  0  0  0  0  0  0  0  0
   -3.2025   -0.5090    1.7966 H   0  0  0  0  0  0  0  0  0  0  0  0
   -2.5579   -3.4086   -0.8340 H   0  0  0  0  0  0  0  0  0  0  0  0
   -4.6242   -3.4404   -2.5892 H   0  0  0  0  0  0  0  0  0  0  0  0
   -6.2111   -1.3364   -1.9251 H   0  0  0  0  0  0  0  0  0  0  0  0
   -6.4055    0.2070   -0.0934 H   0  0  0  0  0  0  0  0  0  0  0  0
   -5.3405    0.0220    1.3260 H   0  0  0  0  0  0  0  0  0  0  0  0
   -4.8085    1.0167   -0.0838 H   0  0  0  0  0  0  0  0  0  0  0  0
    2.3818    0.1170   -2.0081 H   0  0  0  0  0  0  0  0  0  0  0  0
    3.0917    1.7121   -2.2004 H   0  0  0  0  0  0  0  0  0  0  0  0
    2.4578   -0.8490    0.2102 H   0  0  0  0  0  0  0  0  0  0  0  0
    3.6553   -0.7473    2.3611 H   0  0  0  0  0  0  0  0  0  0  0  0
    5.1024   -0.1990    1.4947 H   0  0  0  0  0  0  0  0  0  0  0  0
    5.2385   -2.6363    2.0481 H   0  0  0  0  0  0  0  0  0  0  0  0
    3.7142   -2.9335    1.2459 H   0  0  0  0  0  0  0  0  0  0  0  0
    3.6474   -3.3913   -1.1161 H   0  0  0  0  0  0  0  0  0  0  0  0
    4.8675   -3.7931   -3.2317 H   0  0  0  0  0  0  0  0  0  0  0  0
    7.2681   -3.1831   -3.4231 H   0  0  0  0  0  0  0  0  0  0  0  0
    8.4411   -2.1557   -1.4916 H   0  0  0  0  0  0  0  0  0  0  0  0
    7.2322   -1.7404    0.6268 H   0  0  0  0  0  0  0  0  0  0  0  0
   -2.2382    1.3850    2.5725 H   0  0  0  0  0  0  0  0  0  0  0  0
   -3.6509    3.3334    2.8924 H   0  0  0  0  0  0  0  0  0  0  0  0
  1  2  1  0
  2  3  1  0
  3  4  2  0
  4  5  1  0
  5  6  2  0
  6  7  1  0
  7  8  1  0
  8  9  1  0
  9 10  1  0
 10 11  2  0
 11 12  1  0
 12 13  2  0
 13 14  1  0
 14 15  1  0
  8 16  2  0
 16 17  1  0
 17 18  2  0
 18 19  1  0
 19 20  1  0
 20 21  1  0
 21 22  2  0
 21 23  1  0
 23 24  1  0
 24 25  1  0
 25 26  1  0
 26 27  2  0
 27 28  1  0
 28 29  2  0
 29 30  1  0
 30 31  2  0
  6 32  1  0
 32 33  2  0
 33  3  1  0
 18  7  1  0
 31 26  1  0
 14 10  1  0
  1 34  1  0
  1 35  1  0
  1 36  1  0
  4 37  1  0
  5 38  1  0
  9 39  1  0
  9 40  1  0
 11 41  1  0
 12 42  1  0
 13 43  1  0
 15 44  1  0
 15 45  1  0
 15 46  1  0
 20 47  1  0
 20 48  1  0
 23 49  1  0
 24 50  1  0
 24 51  1  0
 25 52  1  0
 25 53  1  0
 27 54  1  0
 28 55  1  0
 29 56  1  0
 30 57  1  0
 31 58  1  0
 32 59  1  0
 33 60  1  0
M  END
$$$$
