
     RDKit          3D

 39 40  0  0  0  0  0  0  0  0999 V2000
   -0.8669   -3.2536    0.8903 C   0  0  0  0  0  0  0  0  0  0  0  0
   -1.2056   -1.9610    0.1463 C   0  0  0  0  0  0  0  0  0  0  0  0
   -2.5573   -1.6624    0.4776 O   0  0  0  0  0  0  0  0  0  0  0  0
   -3.2739   -0.7870   -0.2924 C   0  0  0  0  0  0  0  0  0  0  0  0
   -2.7437   -0.0195   -1.3352 C   0  0  0  0  0  0  0  0  0  0  0  0
   -3.5603    0.8593   -2.0573 C   0  0  0  0  0  0  0  0  0  0  0  0
   -4.9178    0.9737   -1.7341 C   0  0  0  0  0  0  0  0  0  0  0  0
   -5.7721    1.8940   -2.4940 N   0  0  0  0  0  4  0  0  0  0  0  0
   -5.2562    2.5122   -3.4358 O   0  0  0  0  0  0  0  0  0  0  0  0
   -6.9586    1.9929   -2.1527 O   0  0  0  0  0  1  0  0  0  0  0  0
   -5.4658    0.2172   -0.6955 C   0  0  0  0  0  0  0  0  0  0  0  0
   -4.6411   -0.6560    0.0186 C   0  0  0  0  0  0  0  0  0  0  0  0
   -5.3628   -1.5808    1.2914 Cl  0  0  0  0  0  0  0  0  0  0  0  0
   -0.1848   -0.8647    0.5438 C   0  0  0  0  0  0  0  0  0  0  0  0
   -0.5159    0.1229    1.1929 O   0  0  0  0  0  0  0  0  0  0  0  0
    1.0911   -1.1182    0.0529 N   0  0  0  0  0  0  0  0  0  0  0  0
    2.2457   -0.3228    0.2104 C   0  0  0  0  0  0  0  0  0  0  0  0
    3.4291   -0.7964   -0.3703 C   0  0  0  0  0  0  0  0  0  0  0  0
    4.6191   -0.0691   -0.2614 C   0  0  0  0  0  0  0  0  0  0  0  0
    4.6454    1.1419    0.4372 C   0  0  0  0  0  0  0  0  0  0  0  0
    5.9346    1.8788    0.5240 C   0  0  0  0  0  0  0  0  0  0  0  0
    6.0724    2.8025    1.5226 N   0  0  0  0  0  0  0  0  0  0  0  0
    6.8577    1.6477   -0.2469 O   0  0  0  0  0  0  0  0  0  0  0  0
    3.4640    1.6259    1.0066 C   0  0  0  0  0  0  0  0  0  0  0  0
    2.2736    0.8936    0.8957 C   0  0  0  0  0  0  0  0  0  0  0  0
   -1.5945   -4.0365    0.6497 H   0  0  0  0  0  0  0  0  0  0  0  0
   -0.9127   -3.0991    1.9745 H   0  0  0  0  0  0  0  0  0  0  0  0
    0.1324   -3.6238    0.6431 H   0  0  0  0  0  0  0  0  0  0  0  0
   -1.1191   -2.1624   -0.9293 H   0  0  0  0  0  0  0  0  0  0  0  0
   -1.6936   -0.0601   -1.6059 H   0  0  0  0  0  0  0  0  0  0  0  0
   -3.1196    1.4506   -2.8587 H   0  0  0  0  0  0  0  0  0  0  0  0
   -6.5187    0.2978   -0.4345 H   0  0  0  0  0  0  0  0  0  0  0  0
    1.2215   -1.9730   -0.4741 H   0  0  0  0  0  0  0  0  0  0  0  0
    3.4497   -1.7356   -0.9175 H   0  0  0  0  0  0  0  0  0  0  0  0
    5.5281   -0.4519   -0.7225 H   0  0  0  0  0  0  0  0  0  0  0  0
    5.4609    2.8290    2.3254 H   0  0  0  0  0  0  0  0  0  0  0  0
    6.9976    3.1989    1.6323 H   0  0  0  0  0  0  0  0  0  0  0  0
    3.4352    2.5819    1.5210 H   0  0  0  0  0  0  0  0  0  0  0  0
    1.3829    1.3130    1.3539 H   0  0  0  0  0  0  0  0  0  0  0  0
  1  2  1  0
  2  3  1  0
  3  4  1  0
  4  5  2  0
  5  6  1  0
  6  7  2  0
  7  8  1  0
  8  9  2  0
  8 10  1  0
  7 11  1  0
 11 12  2  0
 12 13  1  0
  2 14  1  0
 14 15  2  0
 14 16  1  0
 16 17  1  0
 17 18  2  0
 18 19  1  0
 19 20  2  0
 20 21  1  0
 21 22  1  0
 21 23  2  0
 20 24  1  0
 24 25  2  0
 12  4  1  0
 25 17  1  0
  1 26  1  0
  1 27  1  0
  1 28  1  0
  2 29  1  0
  5 30  1  0
  6 31  1  0
 11 32  1  0
 16 33  1  0
 18 34  1  0
 19 35  1  0
 22 36  1  0
 22 37  1  0
 24 38  1  0
 25 39  1  0
M  CHG  2   8   1  10  -1
M  END
$$$$
