
     RDKit          3D

 40 42  0  0  0  0  0  0  0  0999 V2000
   -5.6869   -1.5951    1.4473 C   0  0  0  0  0  0  0  0  0  0  0  0
   -5.5998   -0.4001    0.4802 C   0  0  0  0  0  0  0  0  0  0  0  0
   -6.6531    0.6419    0.9149 C   0  0  0  0  0  0  0  0  0  0  0  0
   -5.9486   -0.8606   -0.9471 C   0  0  0  0  0  0  0  0  0  0  0  0
   -4.2118    0.2224    0.5194 C   0  0  0  0  0  0  0  0  0  0  0  0
   -3.9552    1.4680    0.8735 N   0  0  0  0  0  0  0  0  0  0  0  0
   -2.6103    1.7666    0.8181 N   0  0  0  0  0  0  0  0  0  0  0  0
   -1.8904    0.7410    0.4248 C   0  0  0  0  0  0  0  0  0  0  0  0
   -0.5261    0.8238    0.3011 N   0  0  0  0  0  0  0  0  0  0  0  0
    0.3344   -0.1805   -0.1011 C   0  0  0  0  0  0  0  0  0  0  0  0
    0.0190   -1.3223   -0.4169 O   0  0  0  0  0  0  0  0  0  0  0  0
    1.7913    0.3049   -0.1115 C   0  0  0  0  0  0  0  0  0  0  0  0
    2.6786   -0.7229   -0.5238 O   0  0  0  0  0  0  0  0  0  0  0  0
    4.0110   -0.4169   -0.5756 C   0  0  0  0  0  0  0  0  0  0  0  0
    4.8336   -1.4832   -0.9927 C   0  0  0  0  0  0  0  0  0  0  0  0
    6.2197   -1.3310   -1.0975 C   0  0  0  0  0  0  0  0  0  0  0  0
    6.7488   -0.1017   -0.7782 C   0  0  0  0  0  0  0  0  0  0  0  0
    5.9514    0.9416   -0.3709 C   0  0  0  0  0  0  0  0  0  0  0  0
    4.5802    0.8193   -0.2585 C   0  0  0  0  0  0  0  0  0  0  0  0
    6.6682    2.0674   -0.1039 O   0  0  0  0  0  0  0  0  0  0  0  0
    8.0074    1.6107   -0.3905 C   0  0  0  0  0  0  0  0  0  0  0  0
    8.0649    0.2347   -0.8189 O   0  0  0  0  0  0  0  0  0  0  0  0
   -2.7913   -0.6610    0.0932 S   0  0  0  0  0  0  0  0  0  0  0  0
   -5.4153   -1.3007    2.4679 H   0  0  0  0  0  0  0  0  0  0  0  0
   -6.7030   -2.0052    1.4773 H   0  0  0  0  0  0  0  0  0  0  0  0
   -5.0179   -2.4108    1.1512 H   0  0  0  0  0  0  0  0  0  0  0  0
   -6.6488    1.5156    0.2522 H   0  0  0  0  0  0  0  0  0  0  0  0
   -7.6636    0.2175    0.8952 H   0  0  0  0  0  0  0  0  0  0  0  0
   -6.4649    0.9996    1.9343 H   0  0  0  0  0  0  0  0  0  0  0  0
   -6.9736   -1.2459   -0.9980 H   0  0  0  0  0  0  0  0  0  0  0  0
   -5.2850   -1.6612   -1.2925 H   0  0  0  0  0  0  0  0  0  0  0  0
   -5.8667   -0.0336   -1.6624 H   0  0  0  0  0  0  0  0  0  0  0  0
   -0.1646    1.7366    0.5415 H   0  0  0  0  0  0  0  0  0  0  0  0
    1.8485    1.1514   -0.8069 H   0  0  0  0  0  0  0  0  0  0  0  0
    2.0360    0.6250    0.9088 H   0  0  0  0  0  0  0  0  0  0  0  0
    4.3798   -2.4420   -1.2372 H   0  0  0  0  0  0  0  0  0  0  0  0
    6.8528   -2.1501   -1.4180 H   0  0  0  0  0  0  0  0  0  0  0  0
    4.0037    1.6745    0.0668 H   0  0  0  0  0  0  0  0  0  0  0  0
    8.4312    2.2421   -1.1799 H   0  0  0  0  0  0  0  0  0  0  0  0
    8.6164    1.7224    0.5141 H   0  0  0  0  0  0  0  0  0  0  0  0
  1  2  1  0
  2  3  1  0
  2  4  1  0
  2  5  1  0
  5  6  2  0
  6  7  1  0
  7  8  2  0
  8  9  1  0
  9 10  1  0
 10 11  2  0
 10 12  1  0
 12 13  1  0
 13 14  1  0
 14 15  2  0
 15 16  1  0
 16 17  2  0
 17 18  1  0
 18 19  2  0
 18 20  1  0
 20 21  1  0
 21 22  1  0
  8 23  1  0
 23  5  1  0
 19 14  1  0
 22 17  1  0
  1 24  1  0
  1 25  1  0
  1 26  1  0
  3 27  1  0
  3 28  1  0
  3 29  1  0
  4 30  1  0
  4 31  1  0
  4 32  1  0
  9 33  1  0
 12 34  1  0
 12 35  1  0
 15 36  1  0
 16 37  1  0
 19 38  1  0
 21 39  1  0
 21 40  1  0
M  END
$$$$
