
     RDKit          3D

 52 51  0  0  0  0  0  0  0  0999 V2000
   -5.4076    2.3385   -2.5021 C   0  0  0  0  0  0  0  0  0  0  0  0
   -5.7240    1.8926   -1.4323 C   0  0  0  0  0  0  0  0  0  0  0  0
   -6.1237    1.3607   -0.1265 C   0  0  0  0  0  0  0  0  0  0  0  0
   -5.2640    0.1449    0.3023 N   0  0  0  0  0  4  0  0  0  0  0  0
   -5.4104   -0.9700   -0.7290 C   0  0  0  0  0  0  0  0  0  0  0  0
   -5.8229   -0.3385    1.6385 C   0  0  0  0  0  0  0  0  0  0  0  0
   -3.7933    0.5959    0.4432 C   0  0  0  0  0  0  0  0  0  0  0  0
   -2.8601   -0.5054    0.9552 C   0  0  0  0  0  0  0  0  0  0  0  0
   -1.4138   -0.0214    1.1332 C   0  0  0  0  0  0  0  0  0  0  0  0
   -0.7110    0.2941   -0.1903 C   0  0  0  0  0  0  0  0  0  0  0  0
    0.7341    0.7758   -0.0135 C   0  0  0  0  0  0  0  0  0  0  0  0
    1.6832   -0.3174    0.4851 C   0  0  0  0  0  0  0  0  0  0  0  0
    3.1285    0.1641    0.6610 C   0  0  0  0  0  0  0  0  0  0  0  0
    3.8310    0.4777   -0.6623 C   0  0  0  0  0  0  0  0  0  0  0  0
    5.2735    0.9654   -0.4855 C   0  0  0  0  0  0  0  0  0  0  0  0
    6.2331   -0.0091    0.2042 C   0  0  0  0  0  0  0  0  0  0  0  0
    6.3714   -1.3464   -0.5236 C   0  0  0  0  0  0  0  0  0  0  0  0
    7.4224   -2.2286    0.1327 C   0  0  0  0  0  0  0  0  0  0  0  0
   -5.1361    2.7446   -3.4519 H   0  0  0  0  0  0  0  0  0  0  0  0
   -6.0191    2.1196    0.6573 H   0  0  0  0  0  0  0  0  0  0  0  0
   -7.1674    1.0265   -0.1513 H   0  0  0  0  0  0  0  0  0  0  0  0
   -4.8932   -0.6795   -1.6473 H   0  0  0  0  0  0  0  0  0  0  0  0
   -4.9686   -1.8845   -0.3240 H   0  0  0  0  0  0  0  0  0  0  0  0
   -6.4763   -1.1307   -0.9170 H   0  0  0  0  0  0  0  0  0  0  0  0
   -6.8965   -0.5166    1.5221 H   0  0  0  0  0  0  0  0  0  0  0  0
   -5.6421    0.4352    2.3903 H   0  0  0  0  0  0  0  0  0  0  0  0
   -5.3311   -1.2739    1.9164 H   0  0  0  0  0  0  0  0  0  0  0  0
   -3.7886    1.4506    1.1299 H   0  0  0  0  0  0  0  0  0  0  0  0
   -3.4696    0.9355   -0.5446 H   0  0  0  0  0  0  0  0  0  0  0  0
   -2.8642   -1.3663    0.2784 H   0  0  0  0  0  0  0  0  0  0  0  0
   -3.2007   -0.8614    1.9330 H   0  0  0  0  0  0  0  0  0  0  0  0
   -0.8659   -0.8109    1.6593 H   0  0  0  0  0  0  0  0  0  0  0  0
   -1.3987    0.8621    1.7828 H   0  0  0  0  0  0  0  0  0  0  0  0
   -1.2585    1.0850   -0.7149 H   0  0  0  0  0  0  0  0  0  0  0  0
   -0.7281   -0.5885   -0.8409 H   0  0  0  0  0  0  0  0  0  0  0  0
    1.0789    1.1429   -0.9864 H   0  0  0  0  0  0  0  0  0  0  0  0
    0.7560    1.6301    0.6737 H   0  0  0  0  0  0  0  0  0  0  0  0
    1.3388   -0.6840    1.4584 H   0  0  0  0  0  0  0  0  0  0  0  0
    1.6609   -1.1720   -0.2017 H   0  0  0  0  0  0  0  0  0  0  0  0
    3.6765   -0.6276    1.1844 H   0  0  0  0  0  0  0  0  0  0  0  0
    3.1466    1.0468    1.3113 H   0  0  0  0  0  0  0  0  0  0  0  0
    3.8091   -0.4033   -1.3137 H   0  0  0  0  0  0  0  0  0  0  0  0
    3.2837    1.2653   -1.1922 H   0  0  0  0  0  0  0  0  0  0  0  0
    5.2628    1.9025    0.0852 H   0  0  0  0  0  0  0  0  0  0  0  0
    5.6761    1.2142   -1.4755 H   0  0  0  0  0  0  0  0  0  0  0  0
    7.2183    0.4711    0.2610 H   0  0  0  0  0  0  0  0  0  0  0  0
    5.9175   -0.1794    1.2399 H   0  0  0  0  0  0  0  0  0  0  0  0
    6.6486   -1.1747   -1.5700 H   0  0  0  0  0  0  0  0  0  0  0  0
    5.4158   -1.8815   -0.5215 H   0  0  0  0  0  0  0  0  0  0  0  0
    7.1601   -2.4424    1.1738 H   0  0  0  0  0  0  0  0  0  0  0  0
    7.5035   -3.1814   -0.3999 H   0  0  0  0  0  0  0  0  0  0  0  0
    8.4051   -1.7466    0.1173 H   0  0  0  0  0  0  0  0  0  0  0  0
  1  2  3  0
  2  3  1  0
  3  4  1  0
  4  5  1  0
  4  6  1  0
  4  7  1  0
  7  8  1  0
  8  9  1  0
  9 10  1  0
 10 11  1  0
 11 12  1  0
 12 13  1  0
 13 14  1  0
 14 15  1  0
 15 16  1  0
 16 17  1  0
 17 18  1  0
  1 19  1  0
  3 20  1  0
  3 21  1  0
  5 22  1  0
  5 23  1  0
  5 24  1  0
  6 25  1  0
  6 26  1  0
  6 27  1  0
  7 28  1  0
  7 29  1  0
  8 30  1  0
  8 31  1  0
  9 32  1  0
  9 33  1  0
 10 34  1  0
 10 35  1  0
 11 36  1  0
 11 37  1  0
 12 38  1  0
 12 39  1  0
 13 40  1  0
 13 41  1  0
 14 42  1  0
 14 43  1  0
 15 44  1  0
 15 45  1  0
 16 46  1  0
 16 47  1  0
 17 48  1  0
 17 49  1  0
 18 50  1  0
 18 51  1  0
 18 52  1  0
M  CHG  1   4   1
M  END
$$$$
