
     RDKit          3D

 56 61  0  0  0  0  0  0  0  0999 V2000
    8.4401    0.1893    0.6204 C   0  0  0  0  0  0  0  0  0  0  0  0
    6.9594    0.2101    0.3674 C   0  0  0  0  0  0  0  0  0  0  0  0
    6.3984   -0.5874   -0.6378 C   0  0  0  0  0  0  0  0  0  0  0  0
    5.0163   -0.5951   -0.8560 C   0  0  0  0  0  0  0  0  0  0  0  0
    4.1783    0.1913   -0.0647 C   0  0  0  0  0  0  0  0  0  0  0  0
    2.6258    0.1985   -0.3043 C   0  0  0  0  0  0  0  0  0  0  0  0
    1.6967    1.0160    0.3297 C   0  0  0  0  0  0  0  0  0  0  0  0
    0.4298    0.7440   -0.1852 N   0  0  0  0  0  4  0  0  0  0  0  0
   -0.8501    1.3460    0.2318 C   0  0  0  0  0  0  0  0  0  0  0  0
   -1.6825    0.3312    1.0458 C   0  0  0  0  0  0  0  0  0  0  0  0
   -1.0719   -0.4739    1.7623 O   0  0  0  0  0  0  0  0  0  0  0  0
   -3.0626    0.2955    0.7733 N   0  0  0  0  0  0  0  0  0  0  0  0
   -3.7853    1.4263    0.2529 C   0  0  0  0  0  0  0  0  0  0  0  0
   -3.4838    2.7219    0.7179 C   0  0  0  0  0  0  0  0  0  0  0  0
   -4.1587    3.8421    0.2242 C   0  0  0  0  0  0  0  0  0  0  0  0
   -5.1621    3.6863   -0.7259 C   0  0  0  0  0  0  0  0  0  0  0  0
   -5.4991    2.4102   -1.1731 C   0  0  0  0  0  0  0  0  0  0  0  0
   -4.8286    1.2831   -0.6776 C   0  0  0  0  0  0  0  0  0  0  0  0
   -5.3035   -0.3102   -1.2937 S   0  0  0  0  0  0  0  0  0  0  0  0
   -4.9003   -1.2667    0.1514 C   0  0  0  0  0  0  0  0  0  0  0  0
   -5.6359   -2.4414    0.3758 C   0  0  0  0  0  0  0  0  0  0  0  0
   -5.3350   -3.2640    1.4548 C   0  0  0  0  0  0  0  0  0  0  0  0
   -4.2956   -2.9202    2.3102 C   0  0  0  0  0  0  0  0  0  0  0  0
   -3.5531   -1.7553    2.0840 C   0  0  0  0  0  0  0  0  0  0  0  0
   -3.8364   -0.9041    1.0030 C   0  0  0  0  0  0  0  0  0  0  0  0
    0.5615   -0.2507   -1.0547 C   0  0  0  0  0  0  0  0  0  0  0  0
    1.8476   -0.5655   -1.1573 N   0  0  0  0  0  0  0  0  0  0  0  0
    2.0654   -1.6672   -2.0838 C   0  0  0  0  0  0  0  0  0  0  0  0
    0.6332   -2.2083   -2.3549 C   0  0  0  0  0  0  0  0  0  0  0  0
   -0.3154   -1.0753   -1.9157 C   0  0  0  0  0  0  0  0  0  0  0  0
    4.7331    0.9835    0.9494 C   0  0  0  0  0  0  0  0  0  0  0  0
    6.1146    0.9850    1.1673 C   0  0  0  0  0  0  0  0  0  0  0  0
    8.6869   -0.6038    1.3340 H   0  0  0  0  0  0  0  0  0  0  0  0
    8.7815    1.1496    1.0233 H   0  0  0  0  0  0  0  0  0  0  0  0
    8.9925    0.0160   -0.3086 H   0  0  0  0  0  0  0  0  0  0  0  0
    7.0402   -1.2076   -1.2614 H   0  0  0  0  0  0  0  0  0  0  0  0
    4.6375   -1.2145   -1.6601 H   0  0  0  0  0  0  0  0  0  0  0  0
    1.7803    1.7758    1.0879 H   0  0  0  0  0  0  0  0  0  0  0  0
   -1.3536    1.6482   -0.6906 H   0  0  0  0  0  0  0  0  0  0  0  0
   -0.6380    2.2251    0.8490 H   0  0  0  0  0  0  0  0  0  0  0  0
   -2.7637    2.8862    1.5156 H   0  0  0  0  0  0  0  0  0  0  0  0
   -3.9212    4.8373    0.5992 H   0  0  0  0  0  0  0  0  0  0  0  0
   -5.6997    4.5539   -1.1038 H   0  0  0  0  0  0  0  0  0  0  0  0
   -6.3020    2.3007   -1.8999 H   0  0  0  0  0  0  0  0  0  0  0  0
   -6.4464   -2.7238   -0.2937 H   0  0  0  0  0  0  0  0  0  0  0  0
   -5.9128   -4.1686    1.6313 H   0  0  0  0  0  0  0  0  0  0  0  0
   -4.0647   -3.5523    3.1651 H   0  0  0  0  0  0  0  0  0  0  0  0
   -2.7767   -1.5185    2.8081 H   0  0  0  0  0  0  0  0  0  0  0  0
    2.6959   -2.4388   -1.6365 H   0  0  0  0  0  0  0  0  0  0  0  0
    2.5177   -1.2736   -2.9995 H   0  0  0  0  0  0  0  0  0  0  0  0
    0.4838   -2.5089   -3.3979 H   0  0  0  0  0  0  0  0  0  0  0  0
    0.4596   -3.0884   -1.7217 H   0  0  0  0  0  0  0  0  0  0  0  0
   -0.6252   -0.4388   -2.7458 H   0  0  0  0  0  0  0  0  0  0  0  0
   -1.1639   -1.4258   -1.3314 H   0  0  0  0  0  0  0  0  0  0  0  0
    4.1216    1.6021    1.5990 H   0  0  0  0  0  0  0  0  0  0  0  0
    6.5304    1.5935    1.9716 H   0  0  0  0  0  0  0  0  0  0  0  0
  1  2  1  0
  2  3  2  0
  3  4  1  0
  4  5  2  0
  5  6  1  0
  6  7  2  0
  7  8  1  0
  8  9  1  0
  9 10  1  0
 10 11  2  0
 10 12  1  0
 12 13  1  0
 13 14  2  0
 14 15  1  0
 15 16  2  0
 16 17  1  0
 17 18  2  0
 18 19  1  0
 19 20  1  0
 20 21  2  0
 21 22  1  0
 22 23  2  0
 23 24  1  0
 24 25  2  0
  8 26  2  0
 26 27  1  0
 27 28  1  0
 28 29  1  0
 29 30  1  0
  5 31  1  0
 31 32  2  0
 32  2  1  0
 27  6  1  0
 25 12  1  0
 30 26  1  0
 18 13  1  0
 25 20  1  0
  1 33  1  0
  1 34  1  0
  1 35  1  0
  3 36  1  0
  4 37  1  0
  7 38  1  0
  9 39  1  0
  9 40  1  0
 14 41  1  0
 15 42  1  0
 16 43  1  0
 17 44  1  0
 21 45  1  0
 22 46  1  0
 23 47  1  0
 24 48  1  0
 28 49  1  0
 28 50  1  0
 29 51  1  0
 29 52  1  0
 30 53  1  0
 30 54  1  0
 31 55  1  0
 32 56  1  0
M  CHG  1   8   1
M  END
$$$$
