
     RDKit          3D

 36 38  0  0  0  0  0  0  0  0999 V2000
   -5.7487    0.4300    0.0115 C   0  0  0  0  0  0  0  0  0  0  0  0
   -4.2705    0.6939   -0.0451 C   0  0  0  0  0  0  0  0  0  0  0  0
   -3.7973    2.0109   -0.1842 C   0  0  0  0  0  0  0  0  0  0  0  0
   -2.4288    2.2782   -0.2052 C   0  0  0  0  0  0  0  0  0  0  0  0
   -1.5474    1.2154   -0.0775 C   0  0  0  0  0  0  0  0  0  0  0  0
   -1.9896   -0.1156    0.0765 C   0  0  0  0  0  0  0  0  0  0  0  0
   -3.3586   -0.3676    0.0984 C   0  0  0  0  0  0  0  0  0  0  0  0
   -0.9420   -1.0573    0.1914 N   0  0  0  0  0  0  0  0  0  0  0  0
   -1.2694   -2.4269    0.5499 C   0  0  0  0  0  0  0  0  0  0  0  0
    0.3104   -0.4397    0.1891 C   0  0  0  0  0  0  0  0  0  0  0  0
    1.5040   -1.0472    0.3295 C   0  0  0  0  0  0  0  0  0  0  0  0
    2.8061   -0.3739    0.3220 C   0  0  0  0  0  0  0  0  0  0  0  0
    3.3743    0.0339    1.5348 C   0  0  0  0  0  0  0  0  0  0  0  0
    4.5985    0.6888    1.5434 C   0  0  0  0  0  0  0  0  0  0  0  0
    5.2409    0.9334    0.3404 C   0  0  0  0  0  0  0  0  0  0  0  0
    4.6511    0.5150   -0.8457 C   0  0  0  0  0  0  0  0  0  0  0  0
    3.4625   -0.1350   -0.8471 N   0  0  0  0  0  4  0  0  0  0  0  0
    2.8859   -0.5510   -2.1422 C   0  0  0  0  0  0  0  0  0  0  0  0
    0.2352    1.3327   -0.0541 S   0  0  0  0  0  0  0  0  0  0  0  0
   -5.9843   -0.5584   -0.3969 H   0  0  0  0  0  0  0  0  0  0  0  0
   -6.0970    0.4780    1.0478 H   0  0  0  0  0  0  0  0  0  0  0  0
   -6.3002    1.1662   -0.5826 H   0  0  0  0  0  0  0  0  0  0  0  0
   -4.5013    2.8368   -0.2744 H   0  0  0  0  0  0  0  0  0  0  0  0
   -2.0707    3.2971   -0.3111 H   0  0  0  0  0  0  0  0  0  0  0  0
   -3.7419   -1.3754    0.2232 H   0  0  0  0  0  0  0  0  0  0  0  0
   -0.3954   -3.0836    0.5095 H   0  0  0  0  0  0  0  0  0  0  0  0
   -1.6727   -2.4747    1.5674 H   0  0  0  0  0  0  0  0  0  0  0  0
   -2.0015   -2.8532   -0.1449 H   0  0  0  0  0  0  0  0  0  0  0  0
    1.5631   -2.1198    0.4809 H   0  0  0  0  0  0  0  0  0  0  0  0
    2.8564   -0.1461    2.4759 H   0  0  0  0  0  0  0  0  0  0  0  0
    5.0421    1.0146    2.4833 H   0  0  0  0  0  0  0  0  0  0  0  0
    6.1965    1.4539    0.3253 H   0  0  0  0  0  0  0  0  0  0  0  0
    5.1281    0.7007   -1.8044 H   0  0  0  0  0  0  0  0  0  0  0  0
    2.5671   -1.5937   -2.0691 H   0  0  0  0  0  0  0  0  0  0  0  0
    3.6445   -0.4735   -2.9257 H   0  0  0  0  0  0  0  0  0  0  0  0
    2.0505    0.1131   -2.3732 H   0  0  0  0  0  0  0  0  0  0  0  0
  1  2  1  0
  2  3  2  0
  3  4  1  0
  4  5  2  0
  5  6  1  0
  6  7  2  0
  6  8  1  0
  8  9  1  0
  8 10  1  0
 10 11  2  3
 11 12  1  0
 12 13  2  0
 13 14  1  0
 14 15  2  0
 15 16  1  0
 16 17  2  0
 17 18  1  0
 10 19  1  0
  7  2  1  0
 17 12  1  0
 19  5  1  0
  1 20  1  0
  1 21  1  0
  1 22  1  0
  3 23  1  0
  4 24  1  0
  7 25  1  0
  9 26  1  0
  9 27  1  0
  9 28  1  0
 11 29  1  0
 13 30  1  0
 14 31  1  0
 15 32  1  0
 16 33  1  0
 18 34  1  0
 18 35  1  0
 18 36  1  0
M  CHG  1  17   1
M  END
$$$$
