
     RDKit          3D

 46 48  0  0  0  0  0  0  0  0999 V2000
    9.0190   -0.9833    1.7413 C   0  0  0  0  0  0  0  0  0  0  0  0
    7.5592   -1.0126    2.1498 C   0  0  0  0  0  0  0  0  0  0  0  0
    6.7712   -0.6220    1.0186 O   0  0  0  0  0  0  0  0  0  0  0  0
    5.4354   -0.6074    1.2497 C   0  0  0  0  0  0  0  0  0  0  0  0
    4.8885   -0.8907    2.3042 O   0  0  0  0  0  0  0  0  0  0  0  0
    4.6930   -0.1932    0.0290 C   0  0  0  0  0  0  0  0  0  0  0  0
    5.3381    0.1299   -1.1693 C   0  0  0  0  0  0  0  0  0  0  0  0
    4.5861    0.5096   -2.2801 C   0  0  0  0  0  0  0  0  0  0  0  0
    3.1912    0.5701   -2.2012 C   0  0  0  0  0  0  0  0  0  0  0  0
    2.5324    0.2548   -1.0118 C   0  0  0  0  0  0  0  0  0  0  0  0
    1.1304    0.2857   -0.8535 N   0  0  0  0  0  0  0  0  0  0  0  0
    0.1910    0.7029   -1.7794 C   0  0  0  0  0  0  0  0  0  0  0  0
    0.4121    1.1885   -2.8823 O   0  0  0  0  0  0  0  0  0  0  0  0
   -1.2282    0.5747   -1.3399 C   0  0  0  0  0  0  0  0  0  0  0  0
   -2.1534    1.5237   -1.7841 C   0  0  0  0  0  0  0  0  0  0  0  0
   -3.4940    1.4363   -1.3947 C   0  0  0  0  0  0  0  0  0  0  0  0
   -3.9327    0.3969   -0.5635 C   0  0  0  0  0  0  0  0  0  0  0  0
   -5.3014    0.3868   -0.2205 N   0  0  0  0  0  0  0  0  0  0  0  0
   -5.9669   -0.5067    0.6109 C   0  0  0  0  0  0  0  0  0  0  0  0
   -5.4188   -1.4336    1.2003 O   0  0  0  0  0  0  0  0  0  0  0  0
   -7.3968   -0.2459    0.7387 C   0  0  0  0  0  0  0  0  0  0  0  0
   -8.2632    0.6715    0.1631 C   0  0  0  0  0  0  0  0  0  0  0  0
   -9.5523    0.4182    0.6966 C   0  0  0  0  0  0  0  0  0  0  0  0
   -9.4048   -0.6354    1.5635 C   0  0  0  0  0  0  0  0  0  0  0  0
   -8.1132   -1.0436    1.5963 O   0  0  0  0  0  0  0  0  0  0  0  0
   -3.0075   -0.5601   -0.1400 C   0  0  0  0  0  0  0  0  0  0  0  0
   -1.6632   -0.4776   -0.5281 C   0  0  0  0  0  0  0  0  0  0  0  0
    3.2923   -0.1300    0.1001 C   0  0  0  0  0  0  0  0  0  0  0  0
    9.3055    0.0193    1.4067 H   0  0  0  0  0  0  0  0  0  0  0  0
    9.6635   -1.2753    2.5751 H   0  0  0  0  0  0  0  0  0  0  0  0
    9.1978   -1.6624    0.9011 H   0  0  0  0  0  0  0  0  0  0  0  0
    7.2822   -2.0260    2.4614 H   0  0  0  0  0  0  0  0  0  0  0  0
    7.3919   -0.3129    2.9763 H   0  0  0  0  0  0  0  0  0  0  0  0
    6.4211    0.0901   -1.2544 H   0  0  0  0  0  0  0  0  0  0  0  0
    5.0826    0.7597   -3.2150 H   0  0  0  0  0  0  0  0  0  0  0  0
    2.6466    0.8646   -3.0935 H   0  0  0  0  0  0  0  0  0  0  0  0
    0.7890    0.0342    0.0657 H   0  0  0  0  0  0  0  0  0  0  0  0
   -1.8323    2.3356   -2.4344 H   0  0  0  0  0  0  0  0  0  0  0  0
   -4.1845    2.1946   -1.7555 H   0  0  0  0  0  0  0  0  0  0  0  0
   -5.8533    1.1320   -0.6179 H   0  0  0  0  0  0  0  0  0  0  0  0
   -8.0154    1.4351   -0.5596 H   0  0  0  0  0  0  0  0  0  0  0  0
  -10.4746    0.9371    0.4753 H   0  0  0  0  0  0  0  0  0  0  0  0
  -10.0840   -1.1856    2.2003 H   0  0  0  0  0  0  0  0  0  0  0  0
   -3.2974   -1.3994    0.4854 H   0  0  0  0  0  0  0  0  0  0  0  0
   -0.9841   -1.2642   -0.2095 H   0  0  0  0  0  0  0  0  0  0  0  0
    2.8017   -0.3838    1.0378 H   0  0  0  0  0  0  0  0  0  0  0  0
  1  2  1  0
  2  3  1  0
  3  4  1  0
  4  5  2  0
  4  6  1  0
  6  7  2  0
  7  8  1  0
  8  9  2  0
  9 10  1  0
 10 11  1  0
 11 12  1  0
 12 13  2  0
 12 14  1  0
 14 15  2  0
 15 16  1  0
 16 17  2  0
 17 18  1  0
 18 19  1  0
 19 20  2  0
 19 21  1  0
 21 22  2  0
 22 23  1  0
 23 24  2  0
 24 25  1  0
 17 26  1  0
 26 27  2  0
 10 28  2  0
 28  6  1  0
 27 14  1  0
 25 21  1  0
  1 29  1  0
  1 30  1  0
  1 31  1  0
  2 32  1  0
  2 33  1  0
  7 34  1  0
  8 35  1  0
  9 36  1  0
 11 37  1  0
 15 38  1  0
 16 39  1  0
 18 40  1  0
 22 41  1  0
 23 42  1  0
 24 43  1  0
 26 44  1  0
 27 45  1  0
 28 46  1  0
M  END
$$$$
