
     RDKit          3D

 50 53  0  0  0  0  0  0  0  0999 V2000
    8.9107   -0.1729    1.4798 C   0  0  0  0  0  0  0  0  0  0  0  0
    7.7171    0.2879    0.6629 C   0  0  0  0  0  0  0  0  0  0  0  0
    6.6882   -0.7036    0.7853 O   0  0  0  0  0  0  0  0  0  0  0  0
    5.5233   -0.2820    0.2070 C   0  0  0  0  0  0  0  0  0  0  0  0
    5.4078   -0.2943   -1.1834 C   0  0  0  0  0  0  0  0  0  0  0  0
    4.1971    0.0615   -1.7886 C   0  0  0  0  0  0  0  0  0  0  0  0
    3.0798    0.4085   -1.0116 C   0  0  0  0  0  0  0  0  0  0  0  0
    1.8203    0.7898   -1.7169 C   0  0  0  0  0  0  0  0  0  0  0  0
    1.9204    1.2967   -2.8282 O   0  0  0  0  0  0  0  0  0  0  0  0
    0.6492    0.4999   -1.0411 N   0  0  0  0  0  0  0  0  0  0  0  0
   -0.6676    0.8204   -1.4383 C   0  0  0  0  0  0  0  0  0  0  0  0
   -0.9812    1.5551   -2.5814 C   0  0  0  0  0  0  0  0  0  0  0  0
   -2.3112    1.8511   -2.8909 C   0  0  0  0  0  0  0  0  0  0  0  0
   -3.3407    1.4157   -2.0579 C   0  0  0  0  0  0  0  0  0  0  0  0
   -3.0499    0.6734   -0.9058 C   0  0  0  0  0  0  0  0  0  0  0  0
   -4.1324    0.2153   -0.0094 C   0  0  0  0  0  0  0  0  0  0  0  0
   -5.0952   -0.5775   -0.5095 C   0  0  0  0  0  0  0  0  0  0  0  0
   -6.1833   -1.0459    0.3322 C   0  0  0  0  0  0  0  0  0  0  0  0
   -7.1979   -1.8729   -0.1554 C   0  0  0  0  0  0  0  0  0  0  0  0
   -8.2303   -2.2878    0.6918 C   0  0  0  0  0  0  0  0  0  0  0  0
   -8.2533   -1.8780    2.0270 C   0  0  0  0  0  0  0  0  0  0  0  0
   -7.2423   -1.0551    2.5202 C   0  0  0  0  0  0  0  0  0  0  0  0
   -6.2200   -0.6520    1.6650 C   0  0  0  0  0  0  0  0  0  0  0  0
   -5.2136    0.1694    2.2004 O   0  0  0  0  0  0  0  0  0  0  0  0
   -4.1413    0.6094    1.4309 C   0  0  0  0  0  0  0  0  0  0  0  0
   -3.2480    1.2876    1.9282 O   0  0  0  0  0  0  0  0  0  0  0  0
   -1.7093    0.3823   -0.6072 C   0  0  0  0  0  0  0  0  0  0  0  0
    3.1868    0.4203    0.3833 C   0  0  0  0  0  0  0  0  0  0  0  0
    4.4084    0.0614    0.9755 C   0  0  0  0  0  0  0  0  0  0  0  0
    4.4843    0.0578    2.4245 N   0  0  0  0  0  4  0  0  0  0  0  0
    5.3901    0.7123    2.9575 O   0  0  0  0  0  0  0  0  0  0  0  0
    3.5915   -0.5574    3.0253 O   0  0  0  0  0  1  0  0  0  0  0  0
    9.7172    0.5617    1.4322 H   0  0  0  0  0  0  0  0  0  0  0  0
    8.6329   -0.3272    2.5278 H   0  0  0  0  0  0  0  0  0  0  0  0
    9.2838   -1.1344    1.1069 H   0  0  0  0  0  0  0  0  0  0  0  0
    8.0159    0.4005   -0.3862 H   0  0  0  0  0  0  0  0  0  0  0  0
    7.3663    1.2576    1.0422 H   0  0  0  0  0  0  0  0  0  0  0  0
    6.2507   -0.5909   -1.8035 H   0  0  0  0  0  0  0  0  0  0  0  0
    4.1231    0.0575   -2.8760 H   0  0  0  0  0  0  0  0  0  0  0  0
    0.7183   -0.0365   -0.1859 H   0  0  0  0  0  0  0  0  0  0  0  0
   -0.2120    1.9262   -3.2519 H   0  0  0  0  0  0  0  0  0  0  0  0
   -2.5394    2.4330   -3.7804 H   0  0  0  0  0  0  0  0  0  0  0  0
   -4.3669    1.6740   -2.3096 H   0  0  0  0  0  0  0  0  0  0  0  0
   -5.0920   -0.8917   -1.5486 H   0  0  0  0  0  0  0  0  0  0  0  0
   -7.1986   -2.2028   -1.1910 H   0  0  0  0  0  0  0  0  0  0  0  0
   -9.0196   -2.9319    0.3095 H   0  0  0  0  0  0  0  0  0  0  0  0
   -9.0585   -2.2014    2.6815 H   0  0  0  0  0  0  0  0  0  0  0  0
   -7.2509   -0.7322    3.5572 H   0  0  0  0  0  0  0  0  0  0  0  0
   -1.4816   -0.1838    0.2946 H   0  0  0  0  0  0  0  0  0  0  0  0
    2.3536    0.7258    1.0100 H   0  0  0  0  0  0  0  0  0  0  0  0
  1  2  1  0
  2  3  1  0
  3  4  1  0
  4  5  2  0
  5  6  1  0
  6  7  2  0
  7  8  1  0
  8  9  2  0
  8 10  1  0
 10 11  1  0
 11 12  2  0
 12 13  1  0
 13 14  2  0
 14 15  1  0
 15 16  1  0
 16 17  2  0
 17 18  1  0
 18 19  2  0
 19 20  1  0
 20 21  2  0
 21 22  1  0
 22 23  2  0
 23 24  1  0
 24 25  1  0
 25 26  2  0
 15 27  2  0
  7 28  1  0
 28 29  2  0
 29 30  1  0
 30 31  2  0
 30 32  1  0
 29  4  1  0
 27 11  1  0
 25 16  1  0
 23 18  1  0
  1 33  1  0
  1 34  1  0
  1 35  1  0
  2 36  1  0
  2 37  1  0
  5 38  1  0
  6 39  1  0
 10 40  1  0
 12 41  1  0
 13 42  1  0
 14 43  1  0
 17 44  1  0
 19 45  1  0
 20 46  1  0
 21 47  1  0
 22 48  1  0
 27 49  1  0
 28 50  1  0
M  CHG  2  30   1  32  -1
M  END
$$$$
