
     RDKit          3D

 59 62  0  0  0  0  0  0  0  0999 V2000
   -5.5437    2.7889   -3.1869 C   0  0  0  0  0  0  0  0  0  0  0  0
   -4.1566    2.9418   -2.9167 O   0  0  0  0  0  0  0  0  0  0  0  0
   -3.5394    1.9132   -2.2707 C   0  0  0  0  0  0  0  0  0  0  0  0
   -2.2069    2.1448   -1.9447 C   0  0  0  0  0  0  0  0  0  0  0  0
   -1.4641    1.1805   -1.2447 C   0  0  0  0  0  0  0  0  0  0  0  0
   -2.0570   -0.0258   -0.8686 C   0  0  0  0  0  0  0  0  0  0  0  0
   -1.2982   -1.0141   -0.1147 C   0  0  0  0  0  0  0  0  0  0  0  0
   -0.2193   -1.7766   -0.5126 C   0  0  0  0  0  0  0  0  0  0  0  0
    0.2469   -2.5521    0.5128 N   0  0  0  0  0  0  0  0  0  0  0  0
   -0.5325   -2.2791    1.5314 C   0  0  0  0  0  0  0  0  0  0  0  0
   -0.3271   -2.9489    3.1086 S   0  0  0  0  0  0  0  0  0  0  0  0
    1.4797   -3.0826    3.1597 C   0  0  0  0  0  0  0  0  0  0  0  0
    2.1179   -1.7007    3.0871 C   0  0  0  0  0  0  0  0  0  0  0  0
    2.1590   -0.9769    4.0755 O   0  0  0  0  0  0  0  0  0  0  0  0
    2.6094   -1.4158    1.8362 N   0  0  0  0  0  0  0  0  0  0  0  0
    3.2618   -0.2865    1.4258 C   0  0  0  0  0  0  0  0  0  0  0  0
    3.7279   -0.1928    0.2068 N   0  0  0  0  0  0  0  0  0  0  0  0
    4.3684    1.0258    0.0216 C   0  0  0  0  0  0  0  0  0  0  0  0
    4.9912    1.3518   -1.3303 C   0  0  0  0  0  0  0  0  0  0  0  0
    6.4527    1.7983   -1.1573 C   0  0  0  0  0  0  0  0  0  0  0  0
    4.9868    0.1282   -2.2736 C   0  0  0  0  0  0  0  0  0  0  0  0
    4.1969    2.4850   -2.0224 C   0  0  0  0  0  0  0  0  0  0  0  0
    4.3639    1.8339    1.1513 C   0  0  0  0  0  0  0  0  0  0  0  0
    3.4997    1.0768    2.4250 S   0  0  0  0  0  0  0  0  0  0  0  0
   -1.4939   -1.3549    1.2130 N   0  0  0  0  0  0  0  0  0  0  0  0
   -2.4432   -0.7384    2.1232 C   0  0  0  0  0  0  0  0  0  0  0  0
   -3.7407   -1.4624    2.1220 C   0  0  0  0  0  0  0  0  0  0  0  0
   -4.1377   -2.7328    2.5036 C   0  0  0  0  0  0  0  0  0  0  0  0
   -5.5359   -2.8054    2.2635 C   0  0  0  0  0  0  0  0  0  0  0  0
   -5.9053   -1.5688    1.7695 C   0  0  0  0  0  0  0  0  0  0  0  0
   -4.8263   -0.7471    1.6863 O   0  0  0  0  0  0  0  0  0  0  0  0
   -3.3848   -0.2727   -1.2369 C   0  0  0  0  0  0  0  0  0  0  0  0
   -4.1247    0.6961   -1.9251 C   0  0  0  0  0  0  0  0  0  0  0  0
   -5.7305    1.9368   -3.8508 H   0  0  0  0  0  0  0  0  0  0  0  0
   -5.8830    3.6846   -3.7050 H   0  0  0  0  0  0  0  0  0  0  0  0
   -6.1163    2.7021   -2.2609 H   0  0  0  0  0  0  0  0  0  0  0  0
   -1.7375    3.0857   -2.2228 H   0  0  0  0  0  0  0  0  0  0  0  0
   -0.4291    1.3925   -0.9881 H   0  0  0  0  0  0  0  0  0  0  0  0
    0.2453   -1.7922   -1.4917 H   0  0  0  0  0  0  0  0  0  0  0  0
    1.7860   -3.5472    4.0927 H   0  0  0  0  0  0  0  0  0  0  0  0
    1.8308   -3.7296    2.3545 H   0  0  0  0  0  0  0  0  0  0  0  0
    2.4078   -2.0570    1.0853 H   0  0  0  0  0  0  0  0  0  0  0  0
    6.9183    2.0029   -2.1218 H   0  0  0  0  0  0  0  0  0  0  0  0
    7.0455    1.0314   -0.6580 H   0  0  0  0  0  0  0  0  0  0  0  0
    6.5279    2.7187   -0.5658 H   0  0  0  0  0  0  0  0  0  0  0  0
    5.4634    0.3651   -3.2352 H   0  0  0  0  0  0  0  0  0  0  0  0
    5.5328   -0.7267   -1.8374 H   0  0  0  0  0  0  0  0  0  0  0  0
    3.9723   -0.2029   -2.4910 H   0  0  0  0  0  0  0  0  0  0  0  0
    4.6311    2.7422   -2.9987 H   0  0  0  0  0  0  0  0  0  0  0  0
    3.1585    2.1872   -2.1758 H   0  0  0  0  0  0  0  0  0  0  0  0
    4.1786    3.3970   -1.4301 H   0  0  0  0  0  0  0  0  0  0  0  0
    4.7883    2.8212    1.2808 H   0  0  0  0  0  0  0  0  0  0  0  0
   -2.0046   -0.7110    3.1210 H   0  0  0  0  0  0  0  0  0  0  0  0
   -2.5621    0.3081    1.8192 H   0  0  0  0  0  0  0  0  0  0  0  0
   -3.4975   -3.5036    2.8988 H   0  0  0  0  0  0  0  0  0  0  0  0
   -6.1939   -3.6484    2.4364 H   0  0  0  0  0  0  0  0  0  0  0  0
   -6.8454   -1.1362    1.4476 H   0  0  0  0  0  0  0  0  0  0  0  0
   -3.8590   -1.2172   -0.9806 H   0  0  0  0  0  0  0  0  0  0  0  0
   -5.1529    0.4656   -2.1698 H   0  0  0  0  0  0  0  0  0  0  0  0
  1  2  1  0
  2  3  1  0
  3  4  2  0
  4  5  1  0
  5  6  2  0
  6  7  1  0
  7  8  2  0
  8  9  1  0
  9 10  2  0
 10 11  1  0
 11 12  1  0
 12 13  1  0
 13 14  2  0
 13 15  1  0
 15 16  1  0
 16 17  2  0
 17 18  1  0
 18 19  1  0
 19 20  1  0
 19 21  1  0
 19 22  1  0
 18 23  2  0
 23 24  1  0
 10 25  1  0
 25 26  1  0
 26 27  1  0
 27 28  2  0
 28 29  1  0
 29 30  2  0
 30 31  1  0
  6 32  1  0
 32 33  2  0
 33  3  1  0
 25  7  1  0
 31 27  1  0
 24 16  1  0
  1 34  1  0
  1 35  1  0
  1 36  1  0
  4 37  1  0
  5 38  1  0
  8 39  1  0
 12 40  1  0
 12 41  1  0
 15 42  1  0
 20 43  1  0
 20 44  1  0
 20 45  1  0
 21 46  1  0
 21 47  1  0
 21 48  1  0
 22 49  1  0
 22 50  1  0
 22 51  1  0
 23 52  1  0
 26 53  1  0
 26 54  1  0
 28 55  1  0
 29 56  1  0
 30 57  1  0
 32 58  1  0
 33 59  1  0
M  END
$$$$
