
     RDKit          3D

 54 57  0  0  0  0  0  0  0  0999 V2000
   -6.0178   -0.6294   -1.6535 C   0  0  0  0  0  0  0  0  0  0  0  0
   -5.7808    0.7227   -1.2864 O   0  0  0  0  0  0  0  0  0  0  0  0
   -4.5133    1.0505   -0.8791 C   0  0  0  0  0  0  0  0  0  0  0  0
   -3.4032    0.1972   -0.9461 C   0  0  0  0  0  0  0  0  0  0  0  0
   -2.1236    0.5955   -0.4931 C   0  0  0  0  0  0  0  0  0  0  0  0
   -0.9817   -0.3390   -0.5657 C   0  0  0  0  0  0  0  0  0  0  0  0
    0.0241   -0.3752    0.3839 C   0  0  0  0  0  0  0  0  0  0  0  0
    1.0546   -1.3027    0.2264 C   0  0  0  0  0  0  0  0  0  0  0  0
    2.1236   -1.2711    1.2508 C   0  0  0  0  0  0  0  0  0  0  0  0
    1.7992   -1.4185    2.4215 O   0  0  0  0  0  0  0  0  0  0  0  0
    3.3818   -1.0137    0.7418 N   0  0  0  0  0  0  0  0  0  0  0  0
    4.5965   -0.9577    1.4553 C   0  0  0  0  0  0  0  0  0  0  0  0
    5.7513   -0.6303    0.7276 C   0  0  0  0  0  0  0  0  0  0  0  0
    6.9985   -0.5649    1.3567 C   0  0  0  0  0  0  0  0  0  0  0  0
    7.0900   -0.8319    2.7184 C   0  0  0  0  0  0  0  0  0  0  0  0
    8.2828   -0.7864    3.3750 O   0  0  0  0  0  0  0  0  0  0  0  0
    5.9570   -1.1579    3.4537 C   0  0  0  0  0  0  0  0  0  0  0  0
    4.7103   -1.2209    2.8231 C   0  0  0  0  0  0  0  0  0  0  0  0
    1.0606   -2.2174   -0.8490 C   0  0  0  0  0  0  0  0  0  0  0  0
    2.0252   -3.2393   -1.0492 C   0  0  0  0  0  0  0  0  0  0  0  0
    1.9524   -4.0910   -2.1500 C   0  0  0  0  0  0  0  0  0  0  0  0
    0.9153   -3.9429   -3.0591 C   0  0  0  0  0  0  0  0  0  0  0  0
   -0.0479   -2.9525   -2.8537 C   0  0  0  0  0  0  0  0  0  0  0  0
   -0.0011   -2.0938   -1.7631 C   0  0  0  0  0  0  0  0  0  0  0  0
   -0.9809   -1.1838   -1.6271 N   0  0  0  0  0  0  0  0  0  0  0  0
   -1.9863    1.8954    0.0228 C   0  0  0  0  0  0  0  0  0  0  0  0
   -3.0878    2.7481    0.1039 C   0  0  0  0  0  0  0  0  0  0  0  0
   -2.9100    4.0181    0.5900 O   0  0  0  0  0  0  0  0  0  0  0  0
   -3.0294    4.0065    2.0194 C   0  0  0  0  0  0  0  0  0  0  0  0
   -4.3385    2.3431   -0.3685 C   0  0  0  0  0  0  0  0  0  0  0  0
   -5.4046    3.2028   -0.2500 O   0  0  0  0  0  0  0  0  0  0  0  0
   -5.5767    3.9237   -1.4702 C   0  0  0  0  0  0  0  0  0  0  0  0
   -7.0875   -0.7372   -1.8466 H   0  0  0  0  0  0  0  0  0  0  0  0
   -5.4852   -0.8877   -2.5748 H   0  0  0  0  0  0  0  0  0  0  0  0
   -5.7597   -1.3165   -0.8422 H   0  0  0  0  0  0  0  0  0  0  0  0
   -3.5039   -0.8072   -1.3515 H   0  0  0  0  0  0  0  0  0  0  0  0
    0.0158    0.2856    1.2456 H   0  0  0  0  0  0  0  0  0  0  0  0
    3.4430   -0.8242   -0.2524 H   0  0  0  0  0  0  0  0  0  0  0  0
    5.6966   -0.4191   -0.3385 H   0  0  0  0  0  0  0  0  0  0  0  0
    7.8769   -0.3072    0.7716 H   0  0  0  0  0  0  0  0  0  0  0  0
    8.9777   -0.5347    2.7445 H   0  0  0  0  0  0  0  0  0  0  0  0
    6.0374   -1.3658    4.5185 H   0  0  0  0  0  0  0  0  0  0  0  0
    3.8491   -1.4843    3.4310 H   0  0  0  0  0  0  0  0  0  0  0  0
    2.8325   -3.3951   -0.3354 H   0  0  0  0  0  0  0  0  0  0  0  0
    2.6967   -4.8715   -2.2893 H   0  0  0  0  0  0  0  0  0  0  0  0
    0.8420   -4.6011   -3.9214 H   0  0  0  0  0  0  0  0  0  0  0  0
   -0.8658   -2.8523   -3.5646 H   0  0  0  0  0  0  0  0  0  0  0  0
   -1.0196    2.2668    0.3546 H   0  0  0  0  0  0  0  0  0  0  0  0
   -3.8861    3.4106    2.3687 H   0  0  0  0  0  0  0  0  0  0  0  0
   -3.1775    5.0396    2.3506 H   0  0  0  0  0  0  0  0  0  0  0  0
   -2.0958    3.6328    2.4716 H   0  0  0  0  0  0  0  0  0  0  0  0
   -4.6537    4.4275   -1.7792 H   0  0  0  0  0  0  0  0  0  0  0  0
   -6.3367    4.6920   -1.2990 H   0  0  0  0  0  0  0  0  0  0  0  0
   -5.9355    3.2647   -2.2679 H   0  0  0  0  0  0  0  0  0  0  0  0
  1  2  1  0
  2  3  1  0
  3  4  2  0
  4  5  1  0
  5  6  1  0
  6  7  2  0
  7  8  1  0
  8  9  1  0
  9 10  2  0
  9 11  1  0
 11 12  1  0
 12 13  2  0
 13 14  1  0
 14 15  2  0
 15 16  1  0
 15 17  1  0
 17 18  2  0
  8 19  2  0
 19 20  1  0
 20 21  2  0
 21 22  1  0
 22 23  2  0
 23 24  1  0
 24 25  2  0
  5 26  2  0
 26 27  1  0
 27 28  1  0
 28 29  1  0
 27 30  2  0
 30 31  1  0
 31 32  1  0
 30  3  1  0
 25  6  1  0
 18 12  1  0
 24 19  1  0
  1 33  1  0
  1 34  1  0
  1 35  1  0
  4 36  1  0
  7 37  1  0
 11 38  1  0
 13 39  1  0
 14 40  1  0
 16 41  1  0
 17 42  1  0
 18 43  1  0
 20 44  1  0
 21 45  1  0
 22 46  1  0
 23 47  1  0
 26 48  1  0
 29 49  1  0
 29 50  1  0
 29 51  1  0
 32 52  1  0
 32 53  1  0
 32 54  1  0
M  END
$$$$
