
     RDKit          3D

 47 50  0  0  0  0  0  0  0  0999 V2000
   -7.7637    0.7094   -2.7446 C   0  0  0  0  0  0  0  0  0  0  0  0
   -6.8297   -0.1287   -2.0613 O   0  0  0  0  0  0  0  0  0  0  0  0
   -5.8145    0.5431   -1.4657 C   0  0  0  0  0  0  0  0  0  0  0  0
   -5.6478    1.7514   -1.4867 O   0  0  0  0  0  0  0  0  0  0  0  0
   -4.9125   -0.3952   -0.7428 C   0  0  0  0  0  0  0  0  0  0  0  0
   -5.0579   -1.7833   -0.8256 C   0  0  0  0  0  0  0  0  0  0  0  0
   -4.1866   -2.6160   -0.1238 C   0  0  0  0  0  0  0  0  0  0  0  0
   -3.1708   -2.0739    0.6739 C   0  0  0  0  0  0  0  0  0  0  0  0
   -3.0090   -0.6867    0.7800 C   0  0  0  0  0  0  0  0  0  0  0  0
   -2.0052   -0.0759    1.5933 N   0  0  0  0  0  0  0  0  0  0  0  0
   -1.8480    1.2789    1.5633 N   0  0  0  0  0  0  0  0  0  0  0  0
   -0.8577    1.5735    2.3894 N   0  0  0  0  0  0  0  0  0  0  0  0
   -0.3591    0.4497    2.9725 N   0  0  0  0  0  0  0  0  0  0  0  0
   -1.0592   -0.5561    2.4964 C   0  0  0  0  0  0  0  0  0  0  0  0
   -0.8164   -2.1863    3.0250 S   0  0  0  0  0  0  0  0  0  0  0  0
    0.9565   -2.1546    3.4213 C   0  0  0  0  0  0  0  0  0  0  0  0
    1.7782   -1.9905    2.1506 C   0  0  0  0  0  0  0  0  0  0  0  0
    1.8948   -2.9299    1.3674 O   0  0  0  0  0  0  0  0  0  0  0  0
    2.3172   -0.7290    2.0228 N   0  0  0  0  0  0  0  0  0  0  0  0
    3.1180   -0.2653    1.0139 C   0  0  0  0  0  0  0  0  0  0  0  0
    3.5985    0.9599    1.0472 N   0  0  0  0  0  0  0  0  0  0  0  0
    4.3740    1.1739   -0.0730 C   0  0  0  0  0  0  0  0  0  0  0  0
    4.4460    0.1094   -0.9478 C   0  0  0  0  0  0  0  0  0  0  0  0
    3.5512   -1.2046   -0.3455 S   0  0  0  0  0  0  0  0  0  0  0  0
    5.2205    0.0898   -2.2217 C   0  0  0  0  0  0  0  0  0  0  0  0
    5.6152    1.5253   -2.6236 C   0  0  0  0  0  0  0  0  0  0  0  0
    6.1250    2.3457   -1.4219 C   0  0  0  0  0  0  0  0  0  0  0  0
    5.0528    2.4802   -0.3231 C   0  0  0  0  0  0  0  0  0  0  0  0
   -3.8860    0.1464    0.0520 C   0  0  0  0  0  0  0  0  0  0  0  0
   -7.3133    1.1023   -3.6611 H   0  0  0  0  0  0  0  0  0  0  0  0
   -8.6308    0.0960   -3.0162 H   0  0  0  0  0  0  0  0  0  0  0  0
   -8.1105    1.5241   -2.0970 H   0  0  0  0  0  0  0  0  0  0  0  0
   -5.8384   -2.2323   -1.4359 H   0  0  0  0  0  0  0  0  0  0  0  0
   -4.2969   -3.6978   -0.1961 H   0  0  0  0  0  0  0  0  0  0  0  0
   -2.5261   -2.7909    1.1677 H   0  0  0  0  0  0  0  0  0  0  0  0
    1.1810   -1.3751    4.1559 H   0  0  0  0  0  0  0  0  0  0  0  0
    1.2322   -3.1120    3.8769 H   0  0  0  0  0  0  0  0  0  0  0  0
    2.1030   -0.0113    2.7061 H   0  0  0  0  0  0  0  0  0  0  0  0
    6.1305   -0.5082   -2.0776 H   0  0  0  0  0  0  0  0  0  0  0  0
    4.6420   -0.3711   -3.0310 H   0  0  0  0  0  0  0  0  0  0  0  0
    4.7473    2.0373   -3.0600 H   0  0  0  0  0  0  0  0  0  0  0  0
    6.3840    1.4870   -3.4046 H   0  0  0  0  0  0  0  0  0  0  0  0
    7.0108    1.8492   -1.0036 H   0  0  0  0  0  0  0  0  0  0  0  0
    6.4410    3.3434   -1.7534 H   0  0  0  0  0  0  0  0  0  0  0  0
    5.5163    2.8528    0.5982 H   0  0  0  0  0  0  0  0  0  0  0  0
    4.2984    3.2137   -0.6362 H   0  0  0  0  0  0  0  0  0  0  0  0
   -3.7944    1.2325    0.1015 H   0  0  0  0  0  0  0  0  0  0  0  0
  1  2  1  0
  2  3  1  0
  3  4  2  0
  3  5  1  0
  5  6  2  0
  6  7  1  0
  7  8  2  0
  8  9  1  0
  9 10  1  0
 10 11  1  0
 11 12  2  0
 12 13  1  0
 13 14  2  0
 14 15  1  0
 15 16  1  0
 16 17  1  0
 17 18  2  0
 17 19  1  0
 19 20  1  0
 20 21  2  0
 21 22  1  0
 22 23  2  0
 23 24  1  0
 23 25  1  0
 25 26  1  0
 26 27  1  0
 27 28  1  0
  9 29  2  0
 29  5  1  0
 14 10  1  0
 24 20  1  0
 28 22  1  0
  1 30  1  0
  1 31  1  0
  1 32  1  0
  6 33  1  0
  7 34  1  0
  8 35  1  0
 16 36  1  0
 16 37  1  0
 19 38  1  0
 25 39  1  0
 25 40  1  0
 26 41  1  0
 26 42  1  0
 27 43  1  0
 27 44  1  0
 28 45  1  0
 28 46  1  0
 29 47  1  0
M  END
$$$$
