
     RDKit          3D

 58 62  0  0  0  0  0  0  0  0999 V2000
    7.2988   -0.1082    1.5672 C   0  0  0  0  0  0  0  0  0  0  0  0
    6.2763    0.9116    1.1464 C   0  0  0  0  0  0  0  0  0  0  0  0
    6.2743    2.1605    1.9849 C   0  0  0  0  0  0  0  0  0  0  0  0
    5.4352    0.7221    0.1141 C   0  0  0  0  0  0  0  0  0  0  0  0
    4.3186    1.6112   -0.4633 C   0  0  0  0  0  0  0  0  0  0  0  0
    4.9176    1.7290   -1.8872 C   0  0  0  0  0  0  0  0  0  0  0  0
    5.5528    0.3175   -2.1464 C   0  0  0  0  0  0  0  0  0  0  0  0
    5.2558   -0.4686   -0.8448 C   0  0  0  0  0  0  0  0  0  0  0  0
    3.7739   -0.6505   -0.7442 C   0  0  0  0  0  0  0  0  0  0  0  0
    3.2066    0.6138   -0.5133 C   0  0  0  0  0  0  0  0  0  0  0  0
    1.8557    0.4800   -0.4217 C   0  0  0  0  0  0  0  0  0  0  0  0
    0.9311    1.4197   -0.2133 O   0  0  0  0  0  0  0  0  0  0  0  0
    1.5592   -0.8996   -0.5910 N   0  0  0  0  0  0  0  0  0  0  0  0
    0.2419   -1.3994   -0.5486 C   0  0  0  0  0  0  0  0  0  0  0  0
   -0.7941   -0.6082   -0.3579 N   0  0  0  0  0  0  0  0  0  0  0  0
   -1.9563   -1.3660   -0.3430 C   0  0  0  0  0  0  0  0  0  0  0  0
   -3.2424   -0.7171   -0.1396 C   0  0  0  0  0  0  0  0  0  0  0  0
   -3.5618    0.4229   -0.8846 C   0  0  0  0  0  0  0  0  0  0  0  0
   -4.7867    1.0710   -0.7002 C   0  0  0  0  0  0  0  0  0  0  0  0
   -5.7131    0.5981    0.2400 C   0  0  0  0  0  0  0  0  0  0  0  0
   -7.0336    1.3241    0.4281 C   0  0  0  0  0  0  0  0  0  0  0  0
   -8.2269    0.4157    0.1214 C   0  0  0  0  0  0  0  0  0  0  0  0
   -7.1493    1.9211    1.8327 C   0  0  0  0  0  0  0  0  0  0  0  0
   -5.3804   -0.5359    0.9956 C   0  0  0  0  0  0  0  0  0  0  0  0
   -4.1554   -1.1853    0.8108 C   0  0  0  0  0  0  0  0  0  0  0  0
   -1.7773   -2.7230   -0.5684 C   0  0  0  0  0  0  0  0  0  0  0  0
   -2.7676   -3.8303   -0.6787 C   0  0  0  0  0  0  0  0  0  0  0  0
   -0.0969   -3.0510   -0.7406 S   0  0  0  0  0  0  0  0  0  0  0  0
    2.7850   -1.5886   -0.7990 C   0  0  0  0  0  0  0  0  0  0  0  0
    2.9227   -2.8967   -1.0085 O   0  0  0  0  0  0  0  0  0  0  0  0
    7.1111   -0.4270    2.5979 H   0  0  0  0  0  0  0  0  0  0  0  0
    8.3039    0.3237    1.5166 H   0  0  0  0  0  0  0  0  0  0  0  0
    7.2971   -1.0034    0.9407 H   0  0  0  0  0  0  0  0  0  0  0  0
    5.5363    2.8972    1.6586 H   0  0  0  0  0  0  0  0  0  0  0  0
    6.0535    1.9130    3.0286 H   0  0  0  0  0  0  0  0  0  0  0  0
    7.2568    2.6425    1.9447 H   0  0  0  0  0  0  0  0  0  0  0  0
    4.0945    2.5499    0.0391 H   0  0  0  0  0  0  0  0  0  0  0  0
    5.6951    2.5013   -1.9302 H   0  0  0  0  0  0  0  0  0  0  0  0
    4.1582    1.9622   -2.6421 H   0  0  0  0  0  0  0  0  0  0  0  0
    5.1107   -0.1556   -3.0305 H   0  0  0  0  0  0  0  0  0  0  0  0
    6.6321    0.4196   -2.3132 H   0  0  0  0  0  0  0  0  0  0  0  0
    5.8565   -1.3603   -0.6785 H   0  0  0  0  0  0  0  0  0  0  0  0
    0.0507    0.9832   -0.1758 H   0  0  0  0  0  0  0  0  0  0  0  0
   -2.8574    0.8147   -1.6155 H   0  0  0  0  0  0  0  0  0  0  0  0
   -5.0068    1.9543   -1.2961 H   0  0  0  0  0  0  0  0  0  0  0  0
   -7.0763    2.1602   -0.2825 H   0  0  0  0  0  0  0  0  0  0  0  0
   -8.1491   -0.0055   -0.8871 H   0  0  0  0  0  0  0  0  0  0  0  0
   -9.1641    0.9797    0.1777 H   0  0  0  0  0  0  0  0  0  0  0  0
   -8.2994   -0.4190    0.8270 H   0  0  0  0  0  0  0  0  0  0  0  0
   -6.3033    2.5834    2.0476 H   0  0  0  0  0  0  0  0  0  0  0  0
   -8.0679    2.5103    1.9261 H   0  0  0  0  0  0  0  0  0  0  0  0
   -7.1712    1.1463    2.6068 H   0  0  0  0  0  0  0  0  0  0  0  0
   -6.0690   -0.9198    1.7450 H   0  0  0  0  0  0  0  0  0  0  0  0
   -3.9193   -2.0459    1.4313 H   0  0  0  0  0  0  0  0  0  0  0  0
   -3.6871   -3.4871   -1.1634 H   0  0  0  0  0  0  0  0  0  0  0  0
   -3.0215   -4.2121    0.3153 H   0  0  0  0  0  0  0  0  0  0  0  0
   -2.3813   -4.6645   -1.2741 H   0  0  0  0  0  0  0  0  0  0  0  0
    2.0536   -3.3317   -0.9804 H   0  0  0  0  0  0  0  0  0  0  0  0
  1  2  1  0
  2  3  1  0
  2  4  2  3
  4  5  1  0
  5  6  1  0
  6  7  1  0
  7  8  1  0
  8  9  1  0
  9 10  1  0
 10 11  2  0
 11 12  1  0
 11 13  1  0
 13 14  1  0
 14 15  2  0
 15 16  1  0
 16 17  1  0
 17 18  2  0
 18 19  1  0
 19 20  2  0
 20 21  1  0
 21 22  1  0
 21 23  1  0
 20 24  1  0
 24 25  2  0
 16 26  2  0
 26 27  1  0
 26 28  1  0
 13 29  1  0
 29 30  1  0
  8  4  1  0
 29  9  2  0
 10  5  1  0
 28 14  1  0
 25 17  1  0
  1 31  1  0
  1 32  1  0
  1 33  1  0
  3 34  1  0
  3 35  1  0
  3 36  1  0
  5 37  1  0
  6 38  1  0
  6 39  1  0
  7 40  1  0
  7 41  1  0
  8 42  1  0
 12 43  1  0
 18 44  1  0
 19 45  1  0
 21 46  1  0
 22 47  1  0
 22 48  1  0
 22 49  1  0
 23 50  1  0
 23 51  1  0
 23 52  1  0
 24 53  1  0
 25 54  1  0
 27 55  1  0
 27 56  1  0
 27 57  1  0
 30 58  1  0
M  END
$$$$
