
     RDKit          3D

 38 39  0  0  0  0  0  0  0  0999 V2000
   -4.6110    1.9158    3.3844 C   0  0  0  0  0  0  0  0  0  0  0  0
   -3.4347    1.7291    2.7712 C   0  0  0  0  0  0  0  0  0  0  0  0
   -3.2143    1.8854    1.2933 C   0  0  0  0  0  0  0  0  0  0  0  0
   -2.7287    0.6082    0.6495 C   0  0  0  0  0  0  0  0  0  0  0  0
   -3.6404   -0.3807    0.2615 C   0  0  0  0  0  0  0  0  0  0  0  0
   -3.1897   -1.5661   -0.3165 C   0  0  0  0  0  0  0  0  0  0  0  0
   -1.8255   -1.7748   -0.5063 C   0  0  0  0  0  0  0  0  0  0  0  0
   -1.4776   -2.9697   -1.0767 O   0  0  0  0  0  0  0  0  0  0  0  0
   -0.8792   -0.8118   -0.1187 C   0  0  0  0  0  0  0  0  0  0  0  0
    0.5707   -1.0074   -0.2826 C   0  0  0  0  0  0  0  0  0  0  0  0
    1.2746   -0.2206   -1.2139 C   0  0  0  0  0  0  0  0  0  0  0  0
    2.6554   -0.3805   -1.4174 C   0  0  0  0  0  0  0  0  0  0  0  0
    3.3921    0.4861   -2.4115 C   0  0  0  0  0  0  0  0  0  0  0  0
    4.0458    1.6708   -1.7585 C   0  0  0  0  0  0  0  0  0  0  0  0
    5.3616    1.9207   -1.7892 C   0  0  0  0  0  0  0  0  0  0  0  0
    3.3456   -1.3373   -0.6637 C   0  0  0  0  0  0  0  0  0  0  0  0
    2.6674   -2.1264    0.2635 C   0  0  0  0  0  0  0  0  0  0  0  0
    1.2969   -1.9602    0.4507 C   0  0  0  0  0  0  0  0  0  0  0  0
    0.7167   -2.7810    1.3800 O   0  0  0  0  0  0  0  0  0  0  0  0
   -1.3554    0.3793    0.4613 C   0  0  0  0  0  0  0  0  0  0  0  0
   -4.7024    1.7878    4.4588 H   0  0  0  0  0  0  0  0  0  0  0  0
   -5.5049    2.1952    2.8354 H   0  0  0  0  0  0  0  0  0  0  0  0
   -2.5687    1.4514    3.3689 H   0  0  0  0  0  0  0  0  0  0  0  0
   -4.1305    2.2160    0.7873 H   0  0  0  0  0  0  0  0  0  0  0  0
   -2.4803    2.6840    1.1280 H   0  0  0  0  0  0  0  0  0  0  0  0
   -4.7079   -0.2333    0.4114 H   0  0  0  0  0  0  0  0  0  0  0  0
   -3.9017   -2.3297   -0.6188 H   0  0  0  0  0  0  0  0  0  0  0  0
   -0.5152   -2.9885   -1.2219 H   0  0  0  0  0  0  0  0  0  0  0  0
    0.7347    0.5260   -1.7959 H   0  0  0  0  0  0  0  0  0  0  0  0
    4.1268   -0.1288   -2.9469 H   0  0  0  0  0  0  0  0  0  0  0  0
    2.6931    0.8463   -3.1766 H   0  0  0  0  0  0  0  0  0  0  0  0
    3.3912    2.3644   -1.2346 H   0  0  0  0  0  0  0  0  0  0  0  0
    5.7710    2.7973   -1.2962 H   0  0  0  0  0  0  0  0  0  0  0  0
    6.0577    1.2617   -2.2988 H   0  0  0  0  0  0  0  0  0  0  0  0
    4.4179   -1.4690   -0.7922 H   0  0  0  0  0  0  0  0  0  0  0  0
    3.2076   -2.8677    0.8464 H   0  0  0  0  0  0  0  0  0  0  0  0
   -0.2172   -2.5300    1.4925 H   0  0  0  0  0  0  0  0  0  0  0  0
   -0.6416    1.1380    0.7813 H   0  0  0  0  0  0  0  0  0  0  0  0
  1  2  2  0
  2  3  1  0
  3  4  1  0
  4  5  2  0
  5  6  1  0
  6  7  2  0
  7  8  1  0
  7  9  1  0
  9 10  1  0
 10 11  2  0
 11 12  1  0
 12 13  1  0
 13 14  1  0
 14 15  2  0
 12 16  2  0
 16 17  1  0
 17 18  2  0
 18 19  1  0
  9 20  2  0
 20  4  1  0
 18 10  1  0
  1 21  1  0
  1 22  1  0
  2 23  1  0
  3 24  1  0
  3 25  1  0
  5 26  1  0
  6 27  1  0
  8 28  1  0
 11 29  1  0
 13 30  1  0
 13 31  1  0
 14 32  1  0
 15 33  1  0
 15 34  1  0
 16 35  1  0
 17 36  1  0
 19 37  1  0
 20 38  1  0
M  END
$$$$
