
     RDKit          3D

 57 60  0  0  0  0  0  0  0  0999 V2000
   -8.1441    0.6465    2.0831 C   0  0  0  0  0  0  0  0  0  0  0  0
   -7.0883    1.3136    1.4024 O   0  0  0  0  0  0  0  0  0  0  0  0
   -5.8126    0.9216    1.7045 C   0  0  0  0  0  0  0  0  0  0  0  0
   -5.4522   -0.0113    2.6759 C   0  0  0  0  0  0  0  0  0  0  0  0
   -4.1044   -0.3210    2.8934 C   0  0  0  0  0  0  0  0  0  0  0  0
   -3.1095    0.2978    2.1380 C   0  0  0  0  0  0  0  0  0  0  0  0
   -1.7294    0.0451    2.2934 N   0  0  0  0  0  0  0  0  0  0  0  0
   -1.1067   -0.8596    3.1297 C   0  0  0  0  0  0  0  0  0  0  0  0
   -1.6661   -1.6091    3.9282 O   0  0  0  0  0  0  0  0  0  0  0  0
    0.4099   -0.8287    3.0537 C   0  0  0  0  0  0  0  0  0  0  0  0
    0.9200   -0.8975    1.6905 N   0  0  0  0  0  0  0  0  0  0  0  0
    1.5564    0.1328    1.0510 C   0  0  0  0  0  0  0  0  0  0  0  0
    1.8399   -0.2825   -0.2344 C   0  0  0  0  0  0  0  0  0  0  0  0
    2.6483    0.6556   -1.4475 S   0  0  0  0  0  6  0  0  0  0  0  0
    1.8802    0.4118   -2.6525 O   0  0  0  0  0  0  0  0  0  0  0  0
    2.7628    1.9729   -0.8495 O   0  0  0  0  0  0  0  0  0  0  0  0
    4.2543   -0.1284   -1.5408 C   0  0  0  0  0  0  0  0  0  0  0  0
    5.0936    0.5842   -2.5681 C   0  0  0  0  0  0  0  0  0  0  0  0
    5.0730    0.1773   -3.9103 C   0  0  0  0  0  0  0  0  0  0  0  0
    5.8480    0.8407   -4.8626 C   0  0  0  0  0  0  0  0  0  0  0  0
    6.6478    1.9175   -4.4853 C   0  0  0  0  0  0  0  0  0  0  0  0
    6.6711    2.3349   -3.1561 C   0  0  0  0  0  0  0  0  0  0  0  0
    5.8974    1.6734   -2.2012 C   0  0  0  0  0  0  0  0  0  0  0  0
    1.3815   -1.6234   -0.3776 C   0  0  0  0  0  0  0  0  0  0  0  0
    1.3772   -2.5678   -1.4273 C   0  0  0  0  0  0  0  0  0  0  0  0
    0.8375   -3.8405   -1.2160 C   0  0  0  0  0  0  0  0  0  0  0  0
    0.3001   -4.1839    0.0193 C   0  0  0  0  0  0  0  0  0  0  0  0
    0.2810   -3.2684    1.0742 C   0  0  0  0  0  0  0  0  0  0  0  0
    0.8263   -1.9930    0.8547 C   0  0  0  0  0  0  0  0  0  0  0  0
   -3.4702    1.2380    1.1510 C   0  0  0  0  0  0  0  0  0  0  0  0
   -2.4180    1.7959    0.4603 O   0  0  0  0  0  0  0  0  0  0  0  0
   -2.7436    2.5942   -0.6726 C   0  0  0  0  0  0  0  0  0  0  0  0
   -4.8174    1.5463    0.9463 C   0  0  0  0  0  0  0  0  0  0  0  0
   -8.1034    0.8388    3.1606 H   0  0  0  0  0  0  0  0  0  0  0  0
   -8.1330   -0.4280    1.8711 H   0  0  0  0  0  0  0  0  0  0  0  0
   -9.0901    1.0498    1.7088 H   0  0  0  0  0  0  0  0  0  0  0  0
   -6.1909   -0.5155    3.2896 H   0  0  0  0  0  0  0  0  0  0  0  0
   -3.8662   -1.0486    3.6624 H   0  0  0  0  0  0  0  0  0  0  0  0
   -1.1589    0.5790    1.6401 H   0  0  0  0  0  0  0  0  0  0  0  0
    0.7732    0.0927    3.5212 H   0  0  0  0  0  0  0  0  0  0  0  0
    0.8288   -1.6825    3.5975 H   0  0  0  0  0  0  0  0  0  0  0  0
    1.7454    1.0818    1.5396 H   0  0  0  0  0  0  0  0  0  0  0  0
    4.7203   -0.0779   -0.5512 H   0  0  0  0  0  0  0  0  0  0  0  0
    4.1195   -1.1795   -1.8133 H   0  0  0  0  0  0  0  0  0  0  0  0
    4.4453   -0.6531   -4.2290 H   0  0  0  0  0  0  0  0  0  0  0  0
    5.8224    0.5212   -5.9017 H   0  0  0  0  0  0  0  0  0  0  0  0
    7.2471    2.4366   -5.2289 H   0  0  0  0  0  0  0  0  0  0  0  0
    7.2874    3.1815   -2.8638 H   0  0  0  0  0  0  0  0  0  0  0  0
    5.9202    2.0239   -1.1708 H   0  0  0  0  0  0  0  0  0  0  0  0
    1.7706   -2.3131   -2.4083 H   0  0  0  0  0  0  0  0  0  0  0  0
    0.8292   -4.5628   -2.0290 H   0  0  0  0  0  0  0  0  0  0  0  0
   -0.1237   -5.1751    0.1651 H   0  0  0  0  0  0  0  0  0  0  0  0
   -0.1576   -3.5471    2.0287 H   0  0  0  0  0  0  0  0  0  0  0  0
   -3.2404    3.5207   -0.3674 H   0  0  0  0  0  0  0  0  0  0  0  0
   -3.3520    2.0354   -1.3910 H   0  0  0  0  0  0  0  0  0  0  0  0
   -1.8081    2.8632   -1.1707 H   0  0  0  0  0  0  0  0  0  0  0  0
   -5.1289    2.2739    0.2045 H   0  0  0  0  0  0  0  0  0  0  0  0
  1  2  1  0
  2  3  1  0
  3  4  2  0
  4  5  1  0
  5  6  2  0
  6  7  1  0
  7  8  1  0
  8  9  2  0
  8 10  1  0
 10 11  1  0
 11 12  1  0
 12 13  2  0
 13 14  1  0
 14 15  2  0
 14 16  2  0
 14 17  1  0
 17 18  1  0
 18 19  2  0
 19 20  1  0
 20 21  2  0
 21 22  1  0
 22 23  2  0
 13 24  1  0
 24 25  2  0
 25 26  1  0
 26 27  2  0
 27 28  1  0
 28 29  2  0
  6 30  1  0
 30 31  1  0
 31 32  1  0
 30 33  2  0
 33  3  1  0
 29 11  1  0
 23 18  1  0
 29 24  1  0
  1 34  1  0
  1 35  1  0
  1 36  1  0
  4 37  1  0
  5 38  1  0
  7 39  1  0
 10 40  1  0
 10 41  1  0
 12 42  1  0
 17 43  1  0
 17 44  1  0
 19 45  1  0
 20 46  1  0
 21 47  1  0
 22 48  1  0
 23 49  1  0
 25 50  1  0
 26 51  1  0
 27 52  1  0
 28 53  1  0
 32 54  1  0
 32 55  1  0
 32 56  1  0
 33 57  1  0
M  END
$$$$
