
     RDKit          3D

 31 31  0  0  0  0  0  0  0  0999 V2000
    4.6569   -0.5956    2.2399 C   0  0  0  0  0  0  0  0  0  0  0  0
    3.2605   -0.3449    2.2731 O   0  0  0  0  0  0  0  0  0  0  0  0
    2.7744    0.0672    0.9965 C   0  0  0  0  0  0  0  0  0  0  0  0
    1.3664    0.2981    1.0705 O   0  0  0  0  0  0  0  0  0  0  0  0
    0.8325    0.6379   -0.1499 C   0  0  0  0  0  0  0  0  0  0  0  0
   -0.4461    0.4150   -0.4966 C   0  0  0  0  0  0  0  0  0  0  0  0
   -1.0044    0.7541   -1.7156 N   0  0  0  0  0  0  0  0  0  0  0  0
   -0.3872    1.3179   -2.8170 C   0  0  0  0  0  0  0  0  0  0  0  0
   -1.3464    1.5625   -3.9548 C   0  0  0  0  0  0  0  0  0  0  0  0
    0.8056    1.5808   -2.9300 O   0  0  0  0  0  0  0  0  0  0  0  0
   -1.3728   -0.2392    0.4530 C   0  0  0  0  0  0  0  0  0  0  0  0
   -1.7710    0.4083    1.6301 C   0  0  0  0  0  0  0  0  0  0  0  0
   -2.6705   -0.2046    2.5048 C   0  0  0  0  0  0  0  0  0  0  0  0
   -3.1808   -1.4679    2.2092 C   0  0  0  0  0  0  0  0  0  0  0  0
   -2.7906   -2.1220    1.0416 C   0  0  0  0  0  0  0  0  0  0  0  0
   -1.8908   -1.5106    0.1659 C   0  0  0  0  0  0  0  0  0  0  0  0
    4.9756   -0.9051    3.2389 H   0  0  0  0  0  0  0  0  0  0  0  0
    5.2041    0.3113    1.9651 H   0  0  0  0  0  0  0  0  0  0  0  0
    4.8862   -1.4016    1.5360 H   0  0  0  0  0  0  0  0  0  0  0  0
    3.2834    0.9948    0.7061 H   0  0  0  0  0  0  0  0  0  0  0  0
    2.9783   -0.7233    0.2630 H   0  0  0  0  0  0  0  0  0  0  0  0
    1.5430    1.1308   -0.7997 H   0  0  0  0  0  0  0  0  0  0  0  0
   -1.9956    0.5551   -1.7988 H   0  0  0  0  0  0  0  0  0  0  0  0
   -2.3382    1.8347   -3.5825 H   0  0  0  0  0  0  0  0  0  0  0  0
   -1.4194    0.6593   -4.5660 H   0  0  0  0  0  0  0  0  0  0  0  0
   -0.9770    2.3896   -4.5680 H   0  0  0  0  0  0  0  0  0  0  0  0
   -1.3721    1.3903    1.8750 H   0  0  0  0  0  0  0  0  0  0  0  0
   -2.9653    0.3018    3.4201 H   0  0  0  0  0  0  0  0  0  0  0  0
   -3.8755   -1.9464    2.8948 H   0  0  0  0  0  0  0  0  0  0  0  0
   -3.1800   -3.1115    0.8173 H   0  0  0  0  0  0  0  0  0  0  0  0
   -1.5832   -2.0370   -0.7346 H   0  0  0  0  0  0  0  0  0  0  0  0
  1  2  1  0
  2  3  1  0
  3  4  1  0
  4  5  1  0
  5  6  2  3
  6  7  1  0
  7  8  1  0
  8  9  1  0
  8 10  2  0
  6 11  1  0
 11 12  2  0
 12 13  1  0
 13 14  2  0
 14 15  1  0
 15 16  2  0
 16 11  1  0
  1 17  1  0
  1 18  1  0
  1 19  1  0
  3 20  1  0
  3 21  1  0
  5 22  1  0
  7 23  1  0
  9 24  1  0
  9 25  1  0
  9 26  1  0
 12 27  1  0
 13 28  1  0
 14 29  1  0
 15 30  1  0
 16 31  1  0
M  END
$$$$
