
     RDKit          3D

 48 49  0  0  0  0  0  0  0  0999 V2000
   -4.7274    1.9369    0.5813 C   0  0  0  0  0  0  0  0  0  0  0  0
   -4.9999    0.5629    1.1759 C   0  0  0  0  0  0  0  0  0  0  0  0
   -5.2501   -0.4715    0.1640 N   0  0  0  0  0  0  0  0  0  0  0  0
   -6.6429   -0.7762   -0.1663 C   0  0  0  0  0  0  0  0  0  0  0  0
   -7.2634    0.2029   -1.1493 C   0  0  0  0  0  0  0  0  0  0  0  0
   -4.2655   -0.9919   -0.6860 C   0  0  0  0  0  0  0  0  0  0  0  0
   -4.5161   -1.6007   -1.7257 O   0  0  0  0  0  0  0  0  0  0  0  0
   -2.8397   -0.8151   -0.3358 C   0  0  0  0  0  0  0  0  0  0  0  0
   -2.3270   -1.3401    0.8525 C   0  0  0  0  0  0  0  0  0  0  0  0
   -0.9719   -1.1770    1.1612 C   0  0  0  0  0  0  0  0  0  0  0  0
   -0.1192   -0.5132    0.2748 C   0  0  0  0  0  0  0  0  0  0  0  0
    1.2501   -0.3018    0.5187 N   0  0  0  0  0  0  0  0  0  0  0  0
    1.9664   -0.5910    1.6656 C   0  0  0  0  0  0  0  0  0  0  0  0
    1.5280   -1.0941    2.6964 O   0  0  0  0  0  0  0  0  0  0  0  0
    3.4519   -0.2373    1.5488 C   0  0  0  0  0  0  0  0  0  0  0  0
    3.7126    0.5376    0.3719 O   0  0  0  0  0  0  0  0  0  0  0  0
    5.0222    0.4336   -0.0202 C   0  0  0  0  0  0  0  0  0  0  0  0
    6.0422    0.9524    0.7822 C   0  0  0  0  0  0  0  0  0  0  0  0
    7.3703    0.8674    0.3581 C   0  0  0  0  0  0  0  0  0  0  0  0
    7.6678    0.2676   -0.8754 C   0  0  0  0  0  0  0  0  0  0  0  0
    9.0651    0.1728   -1.3176 N   0  0  0  0  0  4  0  0  0  0  0  0
    9.3003   -0.4786   -2.3450 O   0  0  0  0  0  0  0  0  0  0  0  0
    9.9227    0.7510   -0.6340 O   0  0  0  0  0  1  0  0  0  0  0  0
    6.6479   -0.2380   -1.6928 C   0  0  0  0  0  0  0  0  0  0  0  0
    5.3238   -0.1403   -1.2631 C   0  0  0  0  0  0  0  0  0  0  0  0
    4.0718   -0.7527   -2.2804 Cl  0  0  0  0  0  0  0  0  0  0  0  0
   -0.6361   -0.0295   -0.9363 C   0  0  0  0  0  0  0  0  0  0  0  0
   -1.9910   -0.1832   -1.2456 C   0  0  0  0  0  0  0  0  0  0  0  0
   -3.8786    1.9218   -0.1092 H   0  0  0  0  0  0  0  0  0  0  0  0
   -4.4989    2.6514    1.3788 H   0  0  0  0  0  0  0  0  0  0  0  0
   -5.5929    2.3154    0.0320 H   0  0  0  0  0  0  0  0  0  0  0  0
   -4.1486    0.2691    1.7935 H   0  0  0  0  0  0  0  0  0  0  0  0
   -5.8631    0.6138    1.8493 H   0  0  0  0  0  0  0  0  0  0  0  0
   -7.2252   -0.8114    0.7618 H   0  0  0  0  0  0  0  0  0  0  0  0
   -6.6868   -1.7825   -0.6005 H   0  0  0  0  0  0  0  0  0  0  0  0
   -6.6509    0.3082   -2.0502 H   0  0  0  0  0  0  0  0  0  0  0  0
   -7.3824    1.1925   -0.7017 H   0  0  0  0  0  0  0  0  0  0  0  0
   -8.2580   -0.1436   -1.4492 H   0  0  0  0  0  0  0  0  0  0  0  0
   -2.9733   -1.8807    1.5390 H   0  0  0  0  0  0  0  0  0  0  0  0
   -0.6114   -1.5946    2.0978 H   0  0  0  0  0  0  0  0  0  0  0  0
    1.7835    0.1567   -0.2158 H   0  0  0  0  0  0  0  0  0  0  0  0
    4.0058   -1.1862    1.5341 H   0  0  0  0  0  0  0  0  0  0  0  0
    3.7218    0.3498    2.4348 H   0  0  0  0  0  0  0  0  0  0  0  0
    5.8127    1.4348    1.7294 H   0  0  0  0  0  0  0  0  0  0  0  0
    8.1571    1.2721    0.9945 H   0  0  0  0  0  0  0  0  0  0  0  0
    6.8743   -0.7031   -2.6521 H   0  0  0  0  0  0  0  0  0  0  0  0
    0.0060    0.4745   -1.6549 H   0  0  0  0  0  0  0  0  0  0  0  0
   -2.3841    0.1887   -2.1892 H   0  0  0  0  0  0  0  0  0  0  0  0
  1  2  1  0
  2  3  1  0
  3  4  1  0
  4  5  1  0
  3  6  1  0
  6  7  2  0
  6  8  1  0
  8  9  2  0
  9 10  1  0
 10 11  2  0
 11 12  1  0
 12 13  1  0
 13 14  2  0
 13 15  1  0
 15 16  1  0
 16 17  1  0
 17 18  2  0
 18 19  1  0
 19 20  2  0
 20 21  1  0
 21 22  2  0
 21 23  1  0
 20 24  1  0
 24 25  2  0
 25 26  1  0
 11 27  1  0
 27 28  2  0
 28  8  1  0
 25 17  1  0
  1 29  1  0
  1 30  1  0
  1 31  1  0
  2 32  1  0
  2 33  1  0
  4 34  1  0
  4 35  1  0
  5 36  1  0
  5 37  1  0
  5 38  1  0
  9 39  1  0
 10 40  1  0
 12 41  1  0
 15 42  1  0
 15 43  1  0
 18 44  1  0
 19 45  1  0
 24 46  1  0
 27 47  1  0
 28 48  1  0
M  CHG  2  21   1  23  -1
M  END
$$$$
