
     RDKit          3D

 41 43  0  0  0  0  0  0  0  0999 V2000
   -3.4452    1.2644   -1.7575 C   0  0  0  0  0  0  0  0  0  0  0  0
   -2.6100    1.3039   -0.5842 N   0  0  0  0  0  0  0  0  0  0  0  0
   -1.5275    2.1093   -0.3673 C   0  0  0  0  0  0  0  0  0  0  0  0
   -0.8331    3.1547   -1.5536 S   0  0  0  0  0  0  0  0  0  0  0  0
    0.6349    3.7520   -0.6635 C   0  0  0  0  0  0  0  0  0  0  0  0
    1.7763    2.7537   -0.7637 C   0  0  0  0  0  0  0  0  0  0  0  0
    2.6981    2.9264   -1.5610 O   0  0  0  0  0  0  0  0  0  0  0  0
    1.6693    1.6886    0.1247 N   0  0  0  0  0  0  0  0  0  0  0  0
    2.6227    0.7313    0.3685 N   0  0  0  0  0  0  0  0  0  0  0  0
    3.4571    0.4069   -0.5672 C   0  0  0  0  0  0  0  0  0  0  0  0
    4.5129   -0.5607   -0.3490 C   0  0  0  0  0  0  0  0  0  0  0  0
    5.4600   -0.9819   -1.2650 C   0  0  0  0  0  0  0  0  0  0  0  0
    6.3557   -1.9486   -0.7151 C   0  0  0  0  0  0  0  0  0  0  0  0
    6.0511   -2.2245    0.6004 C   0  0  0  0  0  0  0  0  0  0  0  0
    6.7419   -3.1468    1.4642 N   0  0  0  0  0  4  0  0  0  0  0  0
    7.7194   -3.7284    0.9723 O   0  0  0  0  0  0  0  0  0  0  0  0
    6.3247   -3.3013    2.6188 O   0  0  0  0  0  1  0  0  0  0  0  0
    4.7186   -1.3381    1.1651 S   0  0  0  0  0  0  0  0  0  0  0  0
   -1.0886    1.9480    0.8573 N   0  0  0  0  0  0  0  0  0  0  0  0
   -1.8730    0.9974    1.4543 N   0  0  0  0  0  0  0  0  0  0  0  0
   -2.7685    0.5748    0.5773 C   0  0  0  0  0  0  0  0  0  0  0  0
   -3.7665   -0.4620    0.8300 C   0  0  0  0  0  0  0  0  0  0  0  0
   -4.5160   -0.4211    2.0146 C   0  0  0  0  0  0  0  0  0  0  0  0
   -5.4723   -1.4035    2.2873 C   0  0  0  0  0  0  0  0  0  0  0  0
   -5.6746   -2.4407    1.3806 C   0  0  0  0  0  0  0  0  0  0  0  0
   -6.8507   -3.6510    1.7119 Cl  0  0  0  0  0  0  0  0  0  0  0  0
   -4.9243   -2.5076    0.2083 C   0  0  0  0  0  0  0  0  0  0  0  0
   -3.9681   -1.5238   -0.0637 C   0  0  0  0  0  0  0  0  0  0  0  0
   -3.5261    2.2652   -2.1883 H   0  0  0  0  0  0  0  0  0  0  0  0
   -2.9959    0.5748   -2.4761 H   0  0  0  0  0  0  0  0  0  0  0  0
   -4.4506    0.9334   -1.4877 H   0  0  0  0  0  0  0  0  0  0  0  0
    0.4186    3.9888    0.3831 H   0  0  0  0  0  0  0  0  0  0  0  0
    0.9623    4.6847   -1.1354 H   0  0  0  0  0  0  0  0  0  0  0  0
    0.9196    1.7077    0.8231 H   0  0  0  0  0  0  0  0  0  0  0  0
    3.4005    0.8113   -1.5905 H   0  0  0  0  0  0  0  0  0  0  0  0
    5.5128   -0.6123   -2.2833 H   0  0  0  0  0  0  0  0  0  0  0  0
    7.1735   -2.4094   -1.2583 H   0  0  0  0  0  0  0  0  0  0  0  0
   -4.3536    0.3792    2.7355 H   0  0  0  0  0  0  0  0  0  0  0  0
   -6.0460   -1.3554    3.2092 H   0  0  0  0  0  0  0  0  0  0  0  0
   -5.0695   -3.3278   -0.4901 H   0  0  0  0  0  0  0  0  0  0  0  0
   -3.3700   -1.6118   -0.9676 H   0  0  0  0  0  0  0  0  0  0  0  0
  1  2  1  0
  2  3  1  0
  3  4  1  0
  4  5  1  0
  5  6  1  0
  6  7  2  0
  6  8  1  0
  8  9  1  0
  9 10  2  3
 10 11  1  0
 11 12  2  0
 12 13  1  0
 13 14  2  0
 14 15  1  0
 15 16  2  0
 15 17  1  0
 14 18  1  0
  3 19  2  0
 19 20  1  0
 20 21  2  0
 21 22  1  0
 22 23  2  0
 23 24  1  0
 24 25  2  0
 25 26  1  0
 25 27  1  0
 27 28  2  0
 21  2  1  0
 28 22  1  0
 18 11  1  0
  1 29  1  0
  1 30  1  0
  1 31  1  0
  5 32  1  0
  5 33  1  0
  8 34  1  0
 10 35  1  0
 12 36  1  0
 13 37  1  0
 23 38  1  0
 24 39  1  0
 27 40  1  0
 28 41  1  0
M  CHG  2  15   1  17  -1
M  END
$$$$
