
     RDKit          3D

 39 39  0  0  0  0  0  0  0  0999 V2000
   -4.9730    3.1077    0.1680 C   0  0  0  0  0  0  0  0  0  0  0  0
   -3.9835    2.0024   -0.0387 C   0  0  0  0  0  0  0  0  0  0  0  0
   -4.0298    1.1945   -0.9549 O   0  0  0  0  0  0  0  0  0  0  0  0
   -3.0311    2.0426    0.9340 O   0  0  0  0  0  0  0  0  0  0  0  0
   -2.0234    1.0176    0.8650 C   0  0  0  0  0  0  0  0  0  0  0  0
   -0.9263    1.4269   -0.1183 C   0  0  0  0  0  0  0  0  0  0  0  0
    0.3065    0.5073   -0.1294 C   0  0  0  0  0  0  0  0  0  0  0  0
    1.1325    0.7383    1.0788 N   0  0  0  0  0  0  0  0  0  0  0  0
    2.5256    1.6485    0.8787 S   0  0  0  0  0  6  0  0  0  0  0  0
    2.1448    2.8572    0.1887 O   0  0  0  0  0  0  0  0  0  0  0  0
    3.1597    1.6879    2.1757 O   0  0  0  0  0  0  0  0  0  0  0  0
    3.4324    0.7506   -0.1175 O   0  0  0  0  0  0  0  0  0  0  0  0
    4.0192   -0.4421    0.3992 C   0  0  0  0  0  0  0  0  0  0  0  0
    4.6299   -1.2994   -0.7172 C   0  0  0  0  0  0  0  0  0  0  0  0
    3.3880   -1.7540   -1.9235 Cl  0  0  0  0  0  0  0  0  0  0  0  0
    5.9466   -0.4125   -1.5460 Cl  0  0  0  0  0  0  0  0  0  0  0  0
    5.3132   -2.7987   -0.0099 Cl  0  0  0  0  0  0  0  0  0  0  0  0
   -0.0475   -0.9609   -0.3156 C   0  0  0  0  0  0  0  0  0  0  0  0
   -0.5156   -1.4024   -1.5650 C   0  0  0  0  0  0  0  0  0  0  0  0
   -0.8483   -2.7422   -1.7722 C   0  0  0  0  0  0  0  0  0  0  0  0
   -0.7197   -3.6615   -0.7348 C   0  0  0  0  0  0  0  0  0  0  0  0
   -0.2606   -3.2420    0.5108 C   0  0  0  0  0  0  0  0  0  0  0  0
    0.0717   -1.9018    0.7206 C   0  0  0  0  0  0  0  0  0  0  0  0
   -4.4695    4.0746    0.0917 H   0  0  0  0  0  0  0  0  0  0  0  0
   -5.4525    2.9987    1.1441 H   0  0  0  0  0  0  0  0  0  0  0  0
   -5.7442    3.0530   -0.6057 H   0  0  0  0  0  0  0  0  0  0  0  0
   -2.4798    0.0550    0.6078 H   0  0  0  0  0  0  0  0  0  0  0  0
   -1.6171    0.9196    1.8766 H   0  0  0  0  0  0  0  0  0  0  0  0
   -0.6232    2.4599    0.0956 H   0  0  0  0  0  0  0  0  0  0  0  0
   -1.3587    1.4610   -1.1265 H   0  0  0  0  0  0  0  0  0  0  0  0
    0.9093    0.7746   -1.0084 H   0  0  0  0  0  0  0  0  0  0  0  0
    0.6243    1.0625    1.8994 H   0  0  0  0  0  0  0  0  0  0  0  0
    3.2541   -1.0193    0.9332 H   0  0  0  0  0  0  0  0  0  0  0  0
    4.7918   -0.1613    1.1258 H   0  0  0  0  0  0  0  0  0  0  0  0
   -0.6239   -0.7038   -2.3931 H   0  0  0  0  0  0  0  0  0  0  0  0
   -1.2079   -3.0675   -2.7453 H   0  0  0  0  0  0  0  0  0  0  0  0
   -0.9783   -4.7045   -0.8978 H   0  0  0  0  0  0  0  0  0  0  0  0
   -0.1618   -3.9602    1.3210 H   0  0  0  0  0  0  0  0  0  0  0  0
    0.4259   -1.6065    1.7052 H   0  0  0  0  0  0  0  0  0  0  0  0
  1  2  1  0
  2  3  2  0
  2  4  1  0
  4  5  1  0
  5  6  1  0
  6  7  1  0
  7  8  1  0
  8  9  1  0
  9 10  2  0
  9 11  2  0
  9 12  1  0
 12 13  1  0
 13 14  1  0
 14 15  1  0
 14 16  1  0
 14 17  1  0
  7 18  1  0
 18 19  2  0
 19 20  1  0
 20 21  2  0
 21 22  1  0
 22 23  2  0
 23 18  1  0
  1 24  1  0
  1 25  1  0
  1 26  1  0
  5 27  1  0
  5 28  1  0
  6 29  1  0
  6 30  1  0
  7 31  1  0
  8 32  1  0
 13 33  1  0
 13 34  1  0
 19 35  1  0
 20 36  1  0
 21 37  1  0
 22 38  1  0
 23 39  1  0
M  END
$$$$
