
     RDKit          3D

 44 45  0  0  0  0  0  0  0  0999 V2000
   -6.8633   -1.8303    2.3769 C   0  0  0  0  0  0  0  0  0  0  0  0
   -5.9121   -1.1856    1.3847 C   0  0  0  0  0  0  0  0  0  0  0  0
   -5.0062   -0.1593    2.0558 C   0  0  0  0  0  0  0  0  0  0  0  0
   -4.1607    0.4641    1.0759 O   0  0  0  0  0  0  0  0  0  0  0  0
   -2.9968   -0.1768    0.8072 C   0  0  0  0  0  0  0  0  0  0  0  0
   -2.6165   -1.2207    1.3137 O   0  0  0  0  0  0  0  0  0  0  0  0
   -2.2120    0.5654   -0.2159 C   0  0  0  0  0  0  0  0  0  0  0  0
   -2.6643    1.7566   -0.7929 C   0  0  0  0  0  0  0  0  0  0  0  0
   -1.8821    2.4049   -1.7480 C   0  0  0  0  0  0  0  0  0  0  0  0
   -0.6479    1.8707   -2.1311 C   0  0  0  0  0  0  0  0  0  0  0  0
   -0.1825    0.6839   -1.5633 C   0  0  0  0  0  0  0  0  0  0  0  0
    1.0462    0.0827   -1.8940 N   0  0  0  0  0  0  0  0  0  0  0  0
    2.0177    0.5483   -2.7627 C   0  0  0  0  0  0  0  0  0  0  0  0
    1.9789    1.5813   -3.4241 O   0  0  0  0  0  0  0  0  0  0  0  0
    3.2152   -0.4039   -2.8686 C   0  0  0  0  0  0  0  0  0  0  0  0
    3.4186   -1.2283   -1.7259 O   0  0  0  0  0  0  0  0  0  0  0  0
    4.0647   -0.6868   -0.6485 C   0  0  0  0  0  0  0  0  0  0  0  0
    4.4245    0.6537   -0.4899 C   0  0  0  0  0  0  0  0  0  0  0  0
    5.0710    1.0765    0.6784 C   0  0  0  0  0  0  0  0  0  0  0  0
    5.3547    0.1515    1.6909 C   0  0  0  0  0  0  0  0  0  0  0  0
    6.0337    0.5940    2.9152 N   0  0  0  0  0  4  0  0  0  0  0  0
    6.2614   -0.2565    3.7873 O   0  0  0  0  0  0  0  0  0  0  0  0
    6.3398    1.7915    3.0036 O   0  0  0  0  0  1  0  0  0  0  0  0
    4.9936   -1.1916    1.5424 C   0  0  0  0  0  0  0  0  0  0  0  0
    4.3483   -1.6012    0.3725 C   0  0  0  0  0  0  0  0  0  0  0  0
   -0.9721    0.0353   -0.6060 C   0  0  0  0  0  0  0  0  0  0  0  0
   -7.5088   -1.0807    2.8455 H   0  0  0  0  0  0  0  0  0  0  0  0
   -7.5027   -2.5600    1.8703 H   0  0  0  0  0  0  0  0  0  0  0  0
   -6.3122   -2.3515    3.1661 H   0  0  0  0  0  0  0  0  0  0  0  0
   -5.3069   -1.9597    0.8989 H   0  0  0  0  0  0  0  0  0  0  0  0
   -6.4820   -0.7018    0.5824 H   0  0  0  0  0  0  0  0  0  0  0  0
   -5.6093    0.6372    2.5052 H   0  0  0  0  0  0  0  0  0  0  0  0
   -4.4126   -0.6047    2.8632 H   0  0  0  0  0  0  0  0  0  0  0  0
   -3.6203    2.1911   -0.5113 H   0  0  0  0  0  0  0  0  0  0  0  0
   -2.2309    3.3310   -2.1999 H   0  0  0  0  0  0  0  0  0  0  0  0
   -0.0748    2.4088   -2.8802 H   0  0  0  0  0  0  0  0  0  0  0  0
    1.2823   -0.7758   -1.4036 H   0  0  0  0  0  0  0  0  0  0  0  0
    4.1229    0.1530   -3.1286 H   0  0  0  0  0  0  0  0  0  0  0  0
    3.0052   -1.0735   -3.7106 H   0  0  0  0  0  0  0  0  0  0  0  0
    4.2149    1.4047   -1.2466 H   0  0  0  0  0  0  0  0  0  0  0  0
    5.3417    2.1261    0.7810 H   0  0  0  0  0  0  0  0  0  0  0  0
    5.2036   -1.9256    2.3177 H   0  0  0  0  0  0  0  0  0  0  0  0
    4.0674   -2.6463    0.2552 H   0  0  0  0  0  0  0  0  0  0  0  0
   -0.6293   -0.8920   -0.1507 H   0  0  0  0  0  0  0  0  0  0  0  0
  1  2  1  0
  2  3  1  0
  3  4  1  0
  4  5  1  0
  5  6  2  0
  5  7  1  0
  7  8  2  0
  8  9  1  0
  9 10  2  0
 10 11  1  0
 11 12  1  0
 12 13  1  0
 13 14  2  0
 13 15  1  0
 15 16  1  0
 16 17  1  0
 17 18  2  0
 18 19  1  0
 19 20  2  0
 20 21  1  0
 21 22  2  0
 21 23  1  0
 20 24  1  0
 24 25  2  0
 11 26  2  0
 26  7  1  0
 25 17  1  0
  1 27  1  0
  1 28  1  0
  1 29  1  0
  2 30  1  0
  2 31  1  0
  3 32  1  0
  3 33  1  0
  8 34  1  0
  9 35  1  0
 10 36  1  0
 12 37  1  0
 15 38  1  0
 15 39  1  0
 18 40  1  0
 19 41  1  0
 24 42  1  0
 25 43  1  0
 26 44  1  0
M  CHG  2  21   1  23  -1
M  END
$$$$
