
     RDKit          3D

 34 36  0  0  0  0  0  0  0  0999 V2000
    4.7223    1.9861    0.6571 C   0  0  0  0  0  0  0  0  0  0  0  0
    4.5410    0.5997    0.2833 N   0  0  0  0  0  0  0  0  0  0  0  0
    5.6144   -0.2195    0.3044 N   0  0  0  0  0  0  0  0  0  0  0  0
    5.1198   -1.3936   -0.0847 C   0  0  0  0  0  0  0  0  0  0  0  0
    3.7398   -1.3314   -0.3400 C   0  0  0  0  0  0  0  0  0  0  0  0
    2.8144   -2.6409   -0.8931 Cl  0  0  0  0  0  0  0  0  0  0  0  0
    3.3641   -0.0252   -0.0772 C   0  0  0  0  0  0  0  0  0  0  0  0
    2.0843    0.6552   -0.1615 C   0  0  0  0  0  0  0  0  0  0  0  0
    2.0358    1.8754   -0.2681 O   0  0  0  0  0  0  0  0  0  0  0  0
    0.9907   -0.1847   -0.0719 N   0  0  0  0  0  0  0  0  0  0  0  0
   -0.3563    0.1547   -0.1315 C   0  0  0  0  0  0  0  0  0  0  0  0
   -0.8548    1.7554   -0.4839 S   0  0  0  0  0  0  0  0  0  0  0  0
   -2.4559    1.3214   -0.3533 C   0  0  0  0  0  0  0  0  0  0  0  0
   -2.6598   -0.0024   -0.0778 C   0  0  0  0  0  0  0  0  0  0  0  0
   -1.4327   -0.7229    0.0586 C   0  0  0  0  0  0  0  0  0  0  0  0
   -1.2284   -2.1324    0.3849 C   0  0  0  0  0  0  0  0  0  0  0  0
   -2.3003   -2.9638    0.2423 N   0  0  0  0  0  0  0  0  0  0  0  0
   -0.1432   -2.5878    0.7364 O   0  0  0  0  0  0  0  0  0  0  0  0
   -4.1164   -0.2803    0.0545 C   0  0  0  0  0  0  0  0  0  0  0  0
   -4.7702    1.0160   -0.5183 C   0  0  0  0  0  0  0  0  0  0  0  0
   -3.6900    2.1325   -0.4556 C   0  0  0  0  0  0  0  0  0  0  0  0
    4.5732    2.6046   -0.2310 H   0  0  0  0  0  0  0  0  0  0  0  0
    4.0053    2.2354    1.4428 H   0  0  0  0  0  0  0  0  0  0  0  0
    5.7377    2.1286    1.0374 H   0  0  0  0  0  0  0  0  0  0  0  0
    5.7857   -2.2423   -0.1718 H   0  0  0  0  0  0  0  0  0  0  0  0
    1.1665   -1.1688    0.1287 H   0  0  0  0  0  0  0  0  0  0  0  0
   -2.0977   -3.9509    0.3299 H   0  0  0  0  0  0  0  0  0  0  0  0
   -3.0800   -2.7045   -0.3400 H   0  0  0  0  0  0  0  0  0  0  0  0
   -4.4483   -1.1491   -0.5181 H   0  0  0  0  0  0  0  0  0  0  0  0
   -4.3856   -0.4124    1.1077 H   0  0  0  0  0  0  0  0  0  0  0  0
   -5.0439    0.8428   -1.5676 H   0  0  0  0  0  0  0  0  0  0  0  0
   -5.6848    1.2905    0.0166 H   0  0  0  0  0  0  0  0  0  0  0  0
   -3.7206    2.7653   -1.3467 H   0  0  0  0  0  0  0  0  0  0  0  0
   -3.8261    2.7493    0.4386 H   0  0  0  0  0  0  0  0  0  0  0  0
  1  2  1  0
  2  3  1  0
  3  4  2  0
  4  5  1  0
  5  6  1  0
  5  7  2  0
  7  8  1  0
  8  9  2  0
  8 10  1  0
 10 11  1  0
 11 12  1  0
 12 13  1  0
 13 14  2  0
 14 15  1  0
 15 16  1  0
 16 17  1  0
 16 18  2  0
 14 19  1  0
 19 20  1  0
 20 21  1  0
  7  2  1  0
 15 11  2  0
 21 13  1  0
  1 22  1  0
  1 23  1  0
  1 24  1  0
  4 25  1  0
 10 26  1  0
 17 27  1  0
 17 28  1  0
 19 29  1  0
 19 30  1  0
 20 31  1  0
 20 32  1  0
 21 33  1  0
 21 34  1  0
M  END
$$$$
