
     RDKit          3D

 34 35  0  0  0  0  0  0  0  0999 V2000
   -3.0937    1.8636    0.6101 C   0  0  0  0  0  0  0  0  0  0  0  0
   -3.5437    0.5645   -0.0033 C   0  0  0  0  0  0  0  0  0  0  0  0
   -4.9039    0.4217   -0.3336 C   0  0  0  0  0  0  0  0  0  0  0  0
   -5.3819   -0.7570   -0.9009 C   0  0  0  0  0  0  0  0  0  0  0  0
   -4.5038   -1.8020   -1.1571 C   0  0  0  0  0  0  0  0  0  0  0  0
   -3.1496   -1.6736   -0.8375 C   0  0  0  0  0  0  0  0  0  0  0  0
   -2.6552   -0.5078   -0.2411 C   0  0  0  0  0  0  0  0  0  0  0  0
   -1.2809   -0.3369    0.0555 N   0  0  0  0  0  0  0  0  0  0  0  0
   -0.2821   -1.2634    0.3292 C   0  0  0  0  0  0  0  0  0  0  0  0
   -0.4724   -2.8550    0.8043 S   0  0  0  0  0  0  0  0  0  0  0  0
    0.9524   -0.6337    0.2246 N   0  0  0  0  0  0  0  0  0  0  0  0
    2.2460   -1.2789    0.3945 C   0  0  0  0  0  0  0  0  0  0  0  0
    3.3540   -0.2644    0.2895 C   0  0  0  0  0  0  0  0  0  0  0  0
    4.0428   -0.0808   -0.9176 C   0  0  0  0  0  0  0  0  0  0  0  0
    5.0501    0.8804   -1.0173 C   0  0  0  0  0  0  0  0  0  0  0  0
    5.3729    1.6707    0.0845 C   0  0  0  0  0  0  0  0  0  0  0  0
    4.6878    1.5035    1.2865 C   0  0  0  0  0  0  0  0  0  0  0  0
    3.6804    0.5432    1.3884 C   0  0  0  0  0  0  0  0  0  0  0  0
   -3.9360    2.5413    0.7861 H   0  0  0  0  0  0  0  0  0  0  0  0
   -2.6155    1.6828    1.5783 H   0  0  0  0  0  0  0  0  0  0  0  0
   -2.3930    2.3752   -0.0575 H   0  0  0  0  0  0  0  0  0  0  0  0
   -5.6040    1.2335   -0.1471 H   0  0  0  0  0  0  0  0  0  0  0  0
   -6.4350   -0.8556   -1.1499 H   0  0  0  0  0  0  0  0  0  0  0  0
   -4.8651   -2.7187   -1.6160 H   0  0  0  0  0  0  0  0  0  0  0  0
   -2.4938   -2.4953   -1.1048 H   0  0  0  0  0  0  0  0  0  0  0  0
   -1.0069    0.6042    0.2995 H   0  0  0  0  0  0  0  0  0  0  0  0
    0.9661    0.1772   -0.3793 H   0  0  0  0  0  0  0  0  0  0  0  0
    2.2822   -1.7775    1.3697 H   0  0  0  0  0  0  0  0  0  0  0  0
    2.3534   -2.0512   -0.3762 H   0  0  0  0  0  0  0  0  0  0  0  0
    3.8004   -0.6874   -1.7877 H   0  0  0  0  0  0  0  0  0  0  0  0
    5.5839    1.0127   -1.9550 H   0  0  0  0  0  0  0  0  0  0  0  0
    6.1585    2.4178    0.0061 H   0  0  0  0  0  0  0  0  0  0  0  0
    4.9378    2.1214    2.1451 H   0  0  0  0  0  0  0  0  0  0  0  0
    3.1478    0.4256    2.3301 H   0  0  0  0  0  0  0  0  0  0  0  0
  1  2  1  0
  2  3  2  0
  3  4  1  0
  4  5  2  0
  5  6  1  0
  6  7  2  0
  7  8  1  0
  8  9  1  0
  9 10  2  0
  9 11  1  0
 11 12  1  0
 12 13  1  0
 13 14  2  0
 14 15  1  0
 15 16  2  0
 16 17  1  0
 17 18  2  0
  7  2  1  0
 18 13  1  0
  1 19  1  0
  1 20  1  0
  1 21  1  0
  3 22  1  0
  4 23  1  0
  5 24  1  0
  6 25  1  0
  8 26  1  0
 11 27  1  0
 12 28  1  0
 12 29  1  0
 14 30  1  0
 15 31  1  0
 16 32  1  0
 17 33  1  0
 18 34  1  0
M  END
$$$$
