
     RDKit          3D

 46 48  0  0  0  0  0  0  0  0999 V2000
   -7.6454   -2.2456    1.3485 C   0  0  0  0  0  0  0  0  0  0  0  0
   -7.3721   -1.2215    0.4001 O   0  0  0  0  0  0  0  0  0  0  0  0
   -6.1376   -0.6334    0.4663 C   0  0  0  0  0  0  0  0  0  0  0  0
   -5.1660   -0.8812    1.4325 C   0  0  0  0  0  0  0  0  0  0  0  0
   -3.9444   -0.2039    1.3849 C   0  0  0  0  0  0  0  0  0  0  0  0
   -3.6741    0.7160    0.3631 C   0  0  0  0  0  0  0  0  0  0  0  0
   -2.3962    1.4451    0.3475 C   0  0  0  0  0  0  0  0  0  0  0  0
   -1.1650    0.9260    0.2296 C   0  0  0  0  0  0  0  0  0  0  0  0
    0.2549    1.9469    0.2031 S   0  0  0  0  0  0  0  0  0  0  0  0
    1.2921    0.5736    0.0121 C   0  0  0  0  0  0  0  0  0  0  0  0
    2.6224    0.6735   -0.0847 C   0  0  0  0  0  0  0  0  0  0  0  0
    3.4934   -0.5219   -0.2469 C   0  0  0  0  0  0  0  0  0  0  0  0
    3.0264   -1.6404   -0.4428 O   0  0  0  0  0  0  0  0  0  0  0  0
    4.9667   -0.3272   -0.1998 C   0  0  0  0  0  0  0  0  0  0  0  0
    5.5698    0.6686    0.5771 C   0  0  0  0  0  0  0  0  0  0  0  0
    6.9620    0.8011    0.5878 C   0  0  0  0  0  0  0  0  0  0  0  0
    7.7653   -0.0553   -0.1749 C   0  0  0  0  0  0  0  0  0  0  0  0
    9.2604    0.0673   -0.1329 C   0  0  0  0  0  0  0  0  0  0  0  0
    7.1598   -1.0701   -0.9244 C   0  0  0  0  0  0  0  0  0  0  0  0
    5.7696   -1.2059   -0.9369 C   0  0  0  0  0  0  0  0  0  0  0  0
    0.5843   -0.5869   -0.0220 N   0  0  0  0  0  0  0  0  0  0  0  0
   -0.7811   -0.5121    0.0821 C   0  0  0  0  0  0  0  0  0  0  0  0
   -1.5265   -1.4762    0.0610 O   0  0  0  0  0  0  0  0  0  0  0  0
   -4.6593    0.9784   -0.6081 C   0  0  0  0  0  0  0  0  0  0  0  0
   -4.3377    1.9139   -1.5615 O   0  0  0  0  0  0  0  0  0  0  0  0
   -5.2490    2.0835   -2.6395 C   0  0  0  0  0  0  0  0  0  0  0  0
   -5.8821    0.2997   -0.5452 C   0  0  0  0  0  0  0  0  0  0  0  0
   -6.9338   -3.0728    1.2552 H   0  0  0  0  0  0  0  0  0  0  0  0
   -7.6566   -1.8451    2.3675 H   0  0  0  0  0  0  0  0  0  0  0  0
   -8.6437   -2.6401    1.1355 H   0  0  0  0  0  0  0  0  0  0  0  0
   -5.3205   -1.5938    2.2354 H   0  0  0  0  0  0  0  0  0  0  0  0
   -3.1979   -0.4143    2.1475 H   0  0  0  0  0  0  0  0  0  0  0  0
   -2.5202    2.5252    0.4020 H   0  0  0  0  0  0  0  0  0  0  0  0
    3.0975    1.6466   -0.0667 H   0  0  0  0  0  0  0  0  0  0  0  0
    4.9837    1.3347    1.2035 H   0  0  0  0  0  0  0  0  0  0  0  0
    7.4186    1.5739    1.2036 H   0  0  0  0  0  0  0  0  0  0  0  0
    9.6635   -0.5468    0.6782 H   0  0  0  0  0  0  0  0  0  0  0  0
    9.7055   -0.2583   -1.0790 H   0  0  0  0  0  0  0  0  0  0  0  0
    9.5623    1.1078    0.0266 H   0  0  0  0  0  0  0  0  0  0  0  0
    7.7662   -1.7651   -1.5017 H   0  0  0  0  0  0  0  0  0  0  0  0
    5.3157   -2.0022   -1.5244 H   0  0  0  0  0  0  0  0  0  0  0  0
    1.0470   -1.4841   -0.1512 H   0  0  0  0  0  0  0  0  0  0  0  0
   -4.8087    2.8011   -3.3385 H   0  0  0  0  0  0  0  0  0  0  0  0
   -5.4039    1.1445   -3.1813 H   0  0  0  0  0  0  0  0  0  0  0  0
   -6.1981    2.5018   -2.2891 H   0  0  0  0  0  0  0  0  0  0  0  0
   -6.6670    0.4750   -1.2732 H   0  0  0  0  0  0  0  0  0  0  0  0
  1  2  1  0
  2  3  1  0
  3  4  2  0
  4  5  1  0
  5  6  2  0
  6  7  1  0
  7  8  2  3
  8  9  1  0
  9 10  1  0
 10 11  2  3
 11 12  1  0
 12 13  2  0
 12 14  1  0
 14 15  2  0
 15 16  1  0
 16 17  2  0
 17 18  1  0
 17 19  1  0
 19 20  2  0
 10 21  1  0
 21 22  1  0
 22 23  2  0
  6 24  1  0
 24 25  1  0
 25 26  1  0
 24 27  2  0
 27  3  1  0
 22  8  1  0
 20 14  1  0
  1 28  1  0
  1 29  1  0
  1 30  1  0
  4 31  1  0
  5 32  1  0
  7 33  1  0
 11 34  1  0
 15 35  1  0
 16 36  1  0
 18 37  1  0
 18 38  1  0
 18 39  1  0
 19 40  1  0
 20 41  1  0
 21 42  1  0
 26 43  1  0
 26 44  1  0
 26 45  1  0
 27 46  1  0
M  END
$$$$
