
     RDKit          3D

 59 64  0  0  0  0  0  0  0  0999 V2000
    3.5146    0.6326   -2.6085 O   0  0  0  0  0  0  0  0  0  0  0  0
    3.2534    0.4388   -1.4227 C   0  0  0  0  0  0  0  0  0  0  0  0
    4.2927    0.6476   -0.3796 C   0  0  0  0  0  0  0  0  0  0  0  0
    5.5867    0.6345   -0.7352 C   0  0  0  0  0  0  0  0  0  0  0  0
    6.6750    0.8452    0.1669 C   0  0  0  0  0  0  0  0  0  0  0  0
    8.0135    0.9774   -0.1747 C   0  0  0  0  0  0  0  0  0  0  0  0
    8.8710    1.1714    0.9464 C   0  0  0  0  0  0  0  0  0  0  0  0
    8.1703    1.1792    2.1280 C   0  0  0  0  0  0  0  0  0  0  0  0
    6.4978    0.9522    1.8796 S   0  0  0  0  0  0  0  0  0  0  0  0
    1.9988    0.0394   -0.9860 N   0  0  0  0  0  0  0  0  0  0  0  0
    1.6798   -0.4225    0.3656 C   0  0  0  0  0  0  0  0  0  0  0  0
    0.5694   -1.4688    0.3462 C   0  0  0  0  0  0  0  0  0  0  0  0
   -0.7543   -0.9536   -0.2993 C   0  0  0  0  0  0  0  0  0  0  0  0
   -0.4351    0.2027   -1.2868 C   0  0  0  0  0  0  0  0  0  0  0  0
    0.9166    0.0039   -1.9644 C   0  0  0  0  0  0  0  0  0  0  0  0
   -1.2933   -2.0051   -1.1468 O   0  0  0  0  0  0  0  0  0  0  0  0
   -1.8807   -3.0577   -0.5053 C   0  0  0  0  0  0  0  0  0  0  0  0
   -2.0368   -4.2244   -1.2555 C   0  0  0  0  0  0  0  0  0  0  0  0
   -2.6131   -5.3545   -0.6738 C   0  0  0  0  0  0  0  0  0  0  0  0
   -3.0343   -5.3072    0.6515 C   0  0  0  0  0  0  0  0  0  0  0  0
   -3.5860   -6.3940    1.2051 F   0  0  0  0  0  0  0  0  0  0  0  0
   -2.8991   -4.1486    1.4053 C   0  0  0  0  0  0  0  0  0  0  0  0
   -2.3274   -3.0186    0.8146 C   0  0  0  0  0  0  0  0  0  0  0  0
   -2.2110   -1.7591    1.5710 C   0  0  0  0  0  0  0  0  0  0  0  0
   -2.4735   -1.7486    2.7693 O   0  0  0  0  0  0  0  0  0  0  0  0
   -1.8121   -0.5301    0.7592 C   0  0  0  0  0  0  0  0  0  0  0  0
   -3.0901    0.0943    0.2127 C   0  0  0  0  0  0  0  0  0  0  0  0
   -2.8525    1.5132    0.5955 C   0  0  0  0  0  0  0  0  0  0  0  0
   -3.7198    2.6115    0.1086 C   0  0  0  0  0  0  0  0  0  0  0  0
   -4.8657    2.3560   -0.6534 C   0  0  0  0  0  0  0  0  0  0  0  0
   -5.6579    3.4163   -1.1018 C   0  0  0  0  0  0  0  0  0  0  0  0
   -5.3112    4.7306   -0.7910 C   0  0  0  0  0  0  0  0  0  0  0  0
   -4.1735    4.9898   -0.0290 C   0  0  0  0  0  0  0  0  0  0  0  0
   -3.3795    3.9336    0.4213 C   0  0  0  0  0  0  0  0  0  0  0  0
   -1.8382    1.7044    1.3766 N   0  0  0  0  0  0  0  0  0  0  0  0
   -1.2579    0.4459    1.6486 O   0  0  0  0  0  0  0  0  0  0  0  0
    3.9623    0.8494    0.6285 H   0  0  0  0  0  0  0  0  0  0  0  0
    5.8451    0.4620   -1.7795 H   0  0  0  0  0  0  0  0  0  0  0  0
    8.3654    0.9396   -1.1992 H   0  0  0  0  0  0  0  0  0  0  0  0
    9.9448    1.2985    0.8861 H   0  0  0  0  0  0  0  0  0  0  0  0
    8.5598    1.3064    3.1285 H   0  0  0  0  0  0  0  0  0  0  0  0
    1.3897    0.4532    0.9563 H   0  0  0  0  0  0  0  0  0  0  0  0
    2.5682   -0.8620    0.8294 H   0  0  0  0  0  0  0  0  0  0  0  0
    0.4036   -1.8206    1.3706 H   0  0  0  0  0  0  0  0  0  0  0  0
    0.9321   -2.3437   -0.2110 H   0  0  0  0  0  0  0  0  0  0  0  0
   -1.2065    0.2680   -2.0635 H   0  0  0  0  0  0  0  0  0  0  0  0
   -0.4050    1.1680   -0.7707 H   0  0  0  0  0  0  0  0  0  0  0  0
    1.0717    0.7878   -2.7144 H   0  0  0  0  0  0  0  0  0  0  0  0
    0.9634   -0.9611   -2.4827 H   0  0  0  0  0  0  0  0  0  0  0  0
   -1.6989   -4.2592   -2.2888 H   0  0  0  0  0  0  0  0  0  0  0  0
   -2.7333   -6.2717   -1.2430 H   0  0  0  0  0  0  0  0  0  0  0  0
   -3.2455   -4.1339    2.4350 H   0  0  0  0  0  0  0  0  0  0  0  0
   -3.2119   -0.0311   -0.8655 H   0  0  0  0  0  0  0  0  0  0  0  0
   -3.9952   -0.2590    0.7190 H   0  0  0  0  0  0  0  0  0  0  0  0
   -5.1691    1.3447   -0.9059 H   0  0  0  0  0  0  0  0  0  0  0  0
   -6.5494    3.2180   -1.6923 H   0  0  0  0  0  0  0  0  0  0  0  0
   -5.9297    5.5541   -1.1398 H   0  0  0  0  0  0  0  0  0  0  0  0
   -3.9035    6.0139    0.2172 H   0  0  0  0  0  0  0  0  0  0  0  0
   -2.4951    4.1509    1.0175 H   0  0  0  0  0  0  0  0  0  0  0  0
  1  2  2  0
  2  3  1  0
  3  4  2  3
  4  5  1  0
  5  6  2  0
  6  7  1  0
  7  8  2  0
  8  9  1  0
  2 10  1  0
 10 11  1  0
 11 12  1  0
 12 13  1  0
 13 14  1  0
 14 15  1  0
 13 16  1  0
 16 17  1  0
 17 18  2  0
 18 19  1  0
 19 20  2  0
 20 21  1  0
 20 22  1  0
 22 23  2  0
 23 24  1  0
 24 25  2  0
 24 26  1  0
 26 27  1  0
 27 28  1  0
 28 29  1  0
 29 30  2  0
 30 31  1  0
 31 32  2  0
 32 33  1  0
 33 34  2  0
 28 35  2  0
 35 36  1  0
  9  5  1  0
 15 10  1  0
 23 17  1  0
 36 26  1  0
 26 13  1  0
 34 29  1  0
  3 37  1  0
  4 38  1  0
  6 39  1  0
  7 40  1  0
  8 41  1  0
 11 42  1  0
 11 43  1  0
 12 44  1  0
 12 45  1  0
 14 46  1  0
 14 47  1  0
 15 48  1  0
 15 49  1  0
 18 50  1  0
 19 51  1  0
 22 52  1  0
 27 53  1  0
 27 54  1  0
 30 55  1  0
 31 56  1  0
 32 57  1  0
 33 58  1  0
 34 59  1  0
M  END
$$$$
