
     RDKit          3D

 39 41  0  0  0  0  0  0  0  0999 V2000
    4.6970    2.4991    0.2722 C   0  0  0  0  0  0  0  0  0  0  0  0
    4.3181    1.7348    1.5279 C   0  0  0  0  0  0  0  0  0  0  0  0
    3.8738    0.3857    1.2333 N   0  0  0  0  0  0  0  0  0  0  0  0
    4.6184   -0.7524    1.3214 C   0  0  0  0  0  0  0  0  0  0  0  0
    3.7847   -1.7790    0.9503 C   0  0  0  0  0  0  0  0  0  0  0  0
    2.5395   -1.1666    0.6551 C   0  0  0  0  0  0  0  0  0  0  0  0
    1.3004   -1.8351    0.2074 C   0  0  0  0  0  0  0  0  0  0  0  0
    1.2626   -3.0479    0.0425 O   0  0  0  0  0  0  0  0  0  0  0  0
    0.2845   -0.9186    0.0241 N   0  0  0  0  0  0  0  0  0  0  0  0
   -1.0194   -1.1350   -0.3813 C   0  0  0  0  0  0  0  0  0  0  0  0
   -1.5685   -2.7262   -0.7287 S   0  0  0  0  0  0  0  0  0  0  0  0
   -3.0879   -2.1590   -1.1013 C   0  0  0  0  0  0  0  0  0  0  0  0
   -3.2177   -0.8063   -0.9777 C   0  0  0  0  0  0  0  0  0  0  0  0
   -2.0145   -0.1677   -0.5583 C   0  0  0  0  0  0  0  0  0  0  0  0
   -1.8705    1.2738   -0.3563 C   0  0  0  0  0  0  0  0  0  0  0  0
   -2.7829    2.0705   -0.5463 O   0  0  0  0  0  0  0  0  0  0  0  0
   -0.6217    1.6397    0.0627 O   0  0  0  0  0  0  0  0  0  0  0  0
   -0.4565    3.0439    0.2600 C   0  0  0  0  0  0  0  0  0  0  0  0
   -4.5953   -0.3704   -1.3273 C   0  0  0  0  0  0  0  0  0  0  0  0
   -5.3762   -1.7222   -1.3496 C   0  0  0  0  0  0  0  0  0  0  0  0
   -4.3188   -2.8518   -1.5437 C   0  0  0  0  0  0  0  0  0  0  0  0
    2.6035    0.1711    0.8380 N   0  0  0  0  0  0  0  0  0  0  0  0
    5.5031    1.9928   -0.2693 H   0  0  0  0  0  0  0  0  0  0  0  0
    5.0371    3.5071    0.5286 H   0  0  0  0  0  0  0  0  0  0  0  0
    3.8437    2.5897   -0.4084 H   0  0  0  0  0  0  0  0  0  0  0  0
    3.5061    2.2407    2.0618 H   0  0  0  0  0  0  0  0  0  0  0  0
    5.1748    1.6643    2.2068 H   0  0  0  0  0  0  0  0  0  0  0  0
    5.6547   -0.7407    1.6287 H   0  0  0  0  0  0  0  0  0  0  0  0
    4.0222   -2.8327    0.8932 H   0  0  0  0  0  0  0  0  0  0  0  0
    0.5572    0.0450    0.2216 H   0  0  0  0  0  0  0  0  0  0  0  0
    0.5687    3.2193    0.5977 H   0  0  0  0  0  0  0  0  0  0  0  0
   -0.6085    3.5830   -0.6801 H   0  0  0  0  0  0  0  0  0  0  0  0
   -1.1420    3.4067    1.0320 H   0  0  0  0  0  0  0  0  0  0  0  0
   -4.6092    0.0966   -2.3175 H   0  0  0  0  0  0  0  0  0  0  0  0
   -5.0236    0.3174   -0.5932 H   0  0  0  0  0  0  0  0  0  0  0  0
   -6.1522   -1.7413   -2.1210 H   0  0  0  0  0  0  0  0  0  0  0  0
   -5.8727   -1.8623   -0.3801 H   0  0  0  0  0  0  0  0  0  0  0  0
   -4.2489   -3.1351   -2.5989 H   0  0  0  0  0  0  0  0  0  0  0  0
   -4.5631   -3.7311   -0.9416 H   0  0  0  0  0  0  0  0  0  0  0  0
  1  2  1  0
  2  3  1  0
  3  4  1  0
  4  5  2  0
  5  6  1  0
  6  7  1  0
  7  8  2  0
  7  9  1  0
  9 10  1  0
 10 11  1  0
 11 12  1  0
 12 13  2  0
 13 14  1  0
 14 15  1  0
 15 16  2  0
 15 17  1  0
 17 18  1  0
 13 19  1  0
 19 20  1  0
 20 21  1  0
  6 22  2  0
 22  3  1  0
 14 10  2  0
 21 12  1  0
  1 23  1  0
  1 24  1  0
  1 25  1  0
  2 26  1  0
  2 27  1  0
  4 28  1  0
  5 29  1  0
  9 30  1  0
 18 31  1  0
 18 32  1  0
 18 33  1  0
 19 34  1  0
 19 35  1  0
 20 36  1  0
 20 37  1  0
 21 38  1  0
 21 39  1  0
M  END
$$$$
