
     RDKit          3D

 45 47  0  0  0  0  0  0  0  0999 V2000
   -8.2459   -0.6502   -0.1297 C   0  0  0  0  0  0  0  0  0  0  0  0
   -6.8678   -0.6424   -0.7667 C   0  0  0  0  0  0  0  0  0  0  0  0
   -5.9008   -0.6555    0.2789 O   0  0  0  0  0  0  0  0  0  0  0  0
   -4.5738   -0.6465   -0.0721 C   0  0  0  0  0  0  0  0  0  0  0  0
   -4.1039   -0.6323   -1.3889 C   0  0  0  0  0  0  0  0  0  0  0  0
   -2.7308   -0.6225   -1.6497 C   0  0  0  0  0  0  0  0  0  0  0  0
   -1.8118   -0.6218   -0.5985 C   0  0  0  0  0  0  0  0  0  0  0  0
   -0.3767   -0.6340   -0.9037 C   0  0  0  0  0  0  0  0  0  0  0  0
    0.5108    0.3139   -0.5725 C   0  0  0  0  0  0  0  0  0  0  0  0
    0.2250    1.7935    0.2690 S   0  0  0  0  0  0  0  0  0  0  0  0
    1.9168    2.2822    0.1983 C   0  0  0  0  0  0  0  0  0  0  0  0
    2.4826    3.7277    0.8090 S   0  0  0  0  0  0  0  0  0  0  0  0
    2.6270    1.3016   -0.4626 N   0  0  0  0  0  0  0  0  0  0  0  0
    4.0269    1.3504   -0.6104 N   0  0  0  0  0  0  0  0  0  0  0  0
    4.7618    0.7265    0.3849 C   0  0  0  0  0  0  0  0  0  0  0  0
    4.2736    0.3183    1.4340 O   0  0  0  0  0  0  0  0  0  0  0  0
    6.2065    0.5285    0.1028 C   0  0  0  0  0  0  0  0  0  0  0  0
    6.8645   -0.5281    0.7327 C   0  0  0  0  0  0  0  0  0  0  0  0
    8.2085   -0.7060    0.4666 C   0  0  0  0  0  0  0  0  0  0  0  0
    8.9171    0.0905   -0.3621 N   0  0  0  0  0  0  0  0  0  0  0  0
    8.2614    1.1184   -0.9406 C   0  0  0  0  0  0  0  0  0  0  0  0
    6.9172    1.3805   -0.7438 C   0  0  0  0  0  0  0  0  0  0  0  0
    1.9468    0.1987   -0.9471 C   0  0  0  0  0  0  0  0  0  0  0  0
    2.4249   -0.7101   -1.6136 O   0  0  0  0  0  0  0  0  0  0  0  0
   -2.2776   -0.6502    0.7222 C   0  0  0  0  0  0  0  0  0  0  0  0
   -3.6517   -0.6527    0.9939 C   0  0  0  0  0  0  0  0  0  0  0  0
   -4.1908   -0.6747    2.2572 O   0  0  0  0  0  0  0  0  0  0  0  0
   -3.3014   -0.5300    3.3553 C   0  0  0  0  0  0  0  0  0  0  0  0
   -9.0286   -0.6408   -0.8934 H   0  0  0  0  0  0  0  0  0  0  0  0
   -8.3752   -1.5379    0.4984 H   0  0  0  0  0  0  0  0  0  0  0  0
   -8.3752    0.2216    0.5202 H   0  0  0  0  0  0  0  0  0  0  0  0
   -6.7605   -1.5334   -1.3959 H   0  0  0  0  0  0  0  0  0  0  0  0
   -6.7606    0.2639   -1.3737 H   0  0  0  0  0  0  0  0  0  0  0  0
   -4.7799   -0.6292   -2.2371 H   0  0  0  0  0  0  0  0  0  0  0  0
   -2.3898   -0.6122   -2.6827 H   0  0  0  0  0  0  0  0  0  0  0  0
   -0.0452   -1.5062   -1.4667 H   0  0  0  0  0  0  0  0  0  0  0  0
    4.3516    1.2762   -1.5695 H   0  0  0  0  0  0  0  0  0  0  0  0
    6.3436   -1.1967    1.4109 H   0  0  0  0  0  0  0  0  0  0  0  0
    8.7695   -1.5154    0.9258 H   0  0  0  0  0  0  0  0  0  0  0  0
    8.8697    1.7499   -1.5828 H   0  0  0  0  0  0  0  0  0  0  0  0
    6.4647    2.2427   -1.2188 H   0  0  0  0  0  0  0  0  0  0  0  0
   -1.5516   -0.6783    1.5282 H   0  0  0  0  0  0  0  0  0  0  0  0
   -2.7344    0.4045    3.2881 H   0  0  0  0  0  0  0  0  0  0  0  0
   -3.9023   -0.4886    4.2689 H   0  0  0  0  0  0  0  0  0  0  0  0
   -2.6341   -1.3941    3.4361 H   0  0  0  0  0  0  0  0  0  0  0  0
  1  2  1  0
  2  3  1  0
  3  4  1  0
  4  5  2  0
  5  6  1  0
  6  7  2  0
  7  8  1  0
  8  9  2  3
  9 10  1  0
 10 11  1  0
 11 12  2  0
 11 13  1  0
 13 14  1  0
 14 15  1  0
 15 16  2  0
 15 17  1  0
 17 18  2  0
 18 19  1  0
 19 20  2  0
 20 21  1  0
 21 22  2  0
 13 23  1  0
 23 24  2  0
  7 25  1  0
 25 26  2  0
 26 27  1  0
 27 28  1  0
 26  4  1  0
 23  9  1  0
 22 17  1  0
  1 29  1  0
  1 30  1  0
  1 31  1  0
  2 32  1  0
  2 33  1  0
  5 34  1  0
  6 35  1  0
  8 36  1  0
 14 37  1  0
 18 38  1  0
 19 39  1  0
 21 40  1  0
 22 41  1  0
 25 42  1  0
 28 43  1  0
 28 44  1  0
 28 45  1  0
M  END
$$$$
