
     RDKit          3D

 43 43  0  0  0  0  0  0  0  0999 V2000
   -6.2419    0.9891    0.0155 C   0  0  0  0  0  0  0  0  0  0  0  0
   -5.9248    0.6254    1.4325 C   0  0  0  0  0  0  0  0  0  0  0  0
   -7.1433    1.1242    2.5680 Cl  0  0  0  0  0  0  0  0  0  0  0  0
   -4.8390   -0.0080    1.9077 C   0  0  0  0  0  0  0  0  0  0  0  0
   -3.6862   -0.5501    1.1273 C   0  0  0  0  0  0  0  0  0  0  0  0
   -2.3600    0.2169    1.2743 N   0  0  0  0  0  4  0  0  0  0  0  0
   -1.8896    0.2076    2.7258 C   0  0  0  0  0  0  0  0  0  0  0  0
   -2.5251    1.6582    0.8011 C   0  0  0  0  0  0  0  0  0  0  0  0
   -1.3007   -0.5250    0.3682 C   0  0  0  0  0  0  0  0  0  0  0  0
    0.1199    0.0363    0.3275 C   0  0  0  0  0  0  0  0  0  0  0  0
    0.5035    1.0248    0.9348 O   0  0  0  0  0  0  0  0  0  0  0  0
    0.8887   -0.7340   -0.4900 O   0  0  0  0  0  0  0  0  0  0  0  0
    2.2573   -0.3005   -0.6093 C   0  0  0  0  0  0  0  0  0  0  0  0
    2.9861   -1.2555   -1.5513 C   0  0  0  0  0  0  0  0  0  0  0  0
    4.4299   -0.8734   -1.7322 C   0  0  0  0  0  0  0  0  0  0  0  0
    5.4121   -1.3788   -0.8696 C   0  0  0  0  0  0  0  0  0  0  0  0
    6.7481   -1.0060   -1.0247 C   0  0  0  0  0  0  0  0  0  0  0  0
    7.1138   -0.1237   -2.0391 C   0  0  0  0  0  0  0  0  0  0  0  0
    6.1446    0.3869   -2.8999 C   0  0  0  0  0  0  0  0  0  0  0  0
    4.8078    0.0159   -2.7473 C   0  0  0  0  0  0  0  0  0  0  0  0
   -5.4349    0.7377   -0.6770 H   0  0  0  0  0  0  0  0  0  0  0  0
   -6.4163    2.0669   -0.0733 H   0  0  0  0  0  0  0  0  0  0  0  0
   -7.1424    0.4643   -0.3206 H   0  0  0  0  0  0  0  0  0  0  0  0
   -4.8021   -0.2049    2.9790 H   0  0  0  0  0  0  0  0  0  0  0  0
   -3.9039   -0.5947    0.0553 H   0  0  0  0  0  0  0  0  0  0  0  0
   -3.4913   -1.5788    1.4554 H   0  0  0  0  0  0  0  0  0  0  0  0
   -1.7642   -0.8325    3.0396 H   0  0  0  0  0  0  0  0  0  0  0  0
   -0.9465    0.7495    2.8097 H   0  0  0  0  0  0  0  0  0  0  0  0
   -2.6405    0.7075    3.3434 H   0  0  0  0  0  0  0  0  0  0  0  0
   -1.5788    2.1900    0.9083 H   0  0  0  0  0  0  0  0  0  0  0  0
   -2.8398    1.6419   -0.2462 H   0  0  0  0  0  0  0  0  0  0  0  0
   -3.2793    2.1495    1.4217 H   0  0  0  0  0  0  0  0  0  0  0  0
   -1.2571   -1.5544    0.7406 H   0  0  0  0  0  0  0  0  0  0  0  0
   -1.7090   -0.5058   -0.6483 H   0  0  0  0  0  0  0  0  0  0  0  0
    2.7261   -0.3090    0.3823 H   0  0  0  0  0  0  0  0  0  0  0  0
    2.2787    0.7210   -1.0083 H   0  0  0  0  0  0  0  0  0  0  0  0
    2.4776   -1.2806   -2.5239 H   0  0  0  0  0  0  0  0  0  0  0  0
    2.9121   -2.2829   -1.1717 H   0  0  0  0  0  0  0  0  0  0  0  0
    5.1483   -2.0705   -0.0729 H   0  0  0  0  0  0  0  0  0  0  0  0
    7.5065   -1.4056   -0.3559 H   0  0  0  0  0  0  0  0  0  0  0  0
    8.1553    0.1638   -2.1607 H   0  0  0  0  0  0  0  0  0  0  0  0
    6.4326    1.0731   -3.6926 H   0  0  0  0  0  0  0  0  0  0  0  0
    4.0674    0.4242   -3.4313 H   0  0  0  0  0  0  0  0  0  0  0  0
  1  2  1  0
  2  3  1  0
  2  4  2  3
  4  5  1  0
  5  6  1  0
  6  7  1  0
  6  8  1  0
  6  9  1  0
  9 10  1  0
 10 11  2  0
 10 12  1  0
 12 13  1  0
 13 14  1  0
 14 15  1  0
 15 16  2  0
 16 17  1  0
 17 18  2  0
 18 19  1  0
 19 20  2  0
 20 15  1  0
  1 21  1  0
  1 22  1  0
  1 23  1  0
  4 24  1  0
  5 25  1  0
  5 26  1  0
  7 27  1  0
  7 28  1  0
  7 29  1  0
  8 30  1  0
  8 31  1  0
  8 32  1  0
  9 33  1  0
  9 34  1  0
 13 35  1  0
 13 36  1  0
 14 37  1  0
 14 38  1  0
 16 39  1  0
 17 40  1  0
 18 41  1  0
 19 42  1  0
 20 43  1  0
M  CHG  1   6   1
M  END
$$$$
