
     RDKit          3D

 39 41  0  0  0  0  0  0  0  0999 V2000
   -4.9583   -0.2649   -0.5586 C   0  0  0  0  0  0  0  0  0  0  0  0
   -3.8330    0.6694   -0.9815 C   0  0  0  0  0  0  0  0  0  0  0  0
   -2.6288    0.4636   -0.1807 N   0  0  0  0  0  0  0  0  0  0  0  0
   -2.5165    1.1904    0.9950 C   0  0  0  0  0  0  0  0  0  0  0  0
   -3.3691    1.9791    1.3979 O   0  0  0  0  0  0  0  0  0  0  0  0
   -1.2984    0.9807    1.7898 C   0  0  0  0  0  0  0  0  0  0  0  0
   -1.1085    1.7317    2.9616 C   0  0  0  0  0  0  0  0  0  0  0  0
    0.0357    1.5490    3.7307 C   0  0  0  0  0  0  0  0  0  0  0  0
    0.9849    0.6171    3.3293 C   0  0  0  0  0  0  0  0  0  0  0  0
    0.7895   -0.1307    2.1617 C   0  0  0  0  0  0  0  0  0  0  0  0
   -0.3578    0.0410    1.3702 C   0  0  0  0  0  0  0  0  0  0  0  0
   -0.5942   -0.7043    0.1799 N   0  0  0  0  0  0  0  0  0  0  0  0
    0.3636   -1.7189   -0.2743 C   0  0  0  0  0  0  0  0  0  0  0  0
    1.5864   -1.1454   -0.9687 C   0  0  0  0  0  0  0  0  0  0  0  0
    2.8715   -1.5827   -0.6061 C   0  0  0  0  0  0  0  0  0  0  0  0
    4.0058   -1.0792   -1.2490 C   0  0  0  0  0  0  0  0  0  0  0  0
    3.8576   -0.1389   -2.2755 C   0  0  0  0  0  0  0  0  0  0  0  0
    5.0464    0.3932   -2.9526 N   0  0  0  0  0  4  0  0  0  0  0  0
    4.8733    1.2172   -3.8619 O   0  0  0  0  0  0  0  0  0  0  0  0
    6.1549   -0.0118   -2.5732 O   0  0  0  0  0  1  0  0  0  0  0  0
    2.5848    0.2918   -2.6651 C   0  0  0  0  0  0  0  0  0  0  0  0
    1.4569   -0.2176   -2.0156 C   0  0  0  0  0  0  0  0  0  0  0  0
   -1.7305   -0.5080   -0.6015 C   0  0  0  0  0  0  0  0  0  0  0  0
   -1.9292   -1.1645   -1.6273 O   0  0  0  0  0  0  0  0  0  0  0  0
   -5.8477   -0.0899   -1.1718 H   0  0  0  0  0  0  0  0  0  0  0  0
   -5.2294   -0.1067    0.4903 H   0  0  0  0  0  0  0  0  0  0  0  0
   -4.6652   -1.3136   -0.6726 H   0  0  0  0  0  0  0  0  0  0  0  0
   -4.1671    1.7086   -0.8831 H   0  0  0  0  0  0  0  0  0  0  0  0
   -3.6040    0.5092   -2.0412 H   0  0  0  0  0  0  0  0  0  0  0  0
   -1.8541    2.4607    3.2743 H   0  0  0  0  0  0  0  0  0  0  0  0
    0.1844    2.1309    4.6369 H   0  0  0  0  0  0  0  0  0  0  0  0
    1.8835    0.4685    3.9244 H   0  0  0  0  0  0  0  0  0  0  0  0
    1.5669   -0.8408    1.9032 H   0  0  0  0  0  0  0  0  0  0  0  0
   -0.1126   -2.4144   -0.9762 H   0  0  0  0  0  0  0  0  0  0  0  0
    0.6457   -2.3409    0.5840 H   0  0  0  0  0  0  0  0  0  0  0  0
    3.0006   -2.3226    0.1822 H   0  0  0  0  0  0  0  0  0  0  0  0
    4.9892   -1.4312   -0.9432 H   0  0  0  0  0  0  0  0  0  0  0  0
    2.4514    1.0128   -3.4692 H   0  0  0  0  0  0  0  0  0  0  0  0
    0.4715    0.1119   -2.3417 H   0  0  0  0  0  0  0  0  0  0  0  0
  1  2  1  0
  2  3  1  0
  3  4  1  0
  4  5  2  0
  4  6  1  0
  6  7  2  0
  7  8  1  0
  8  9  2  0
  9 10  1  0
 10 11  2  0
 11 12  1  0
 12 13  1  0
 13 14  1  0
 14 15  2  0
 15 16  1  0
 16 17  2  0
 17 18  1  0
 18 19  2  0
 18 20  1  0
 17 21  1  0
 21 22  2  0
 12 23  1  0
 23 24  2  0
 23  3  1  0
 11  6  1  0
 22 14  1  0
  1 25  1  0
  1 26  1  0
  1 27  1  0
  2 28  1  0
  2 29  1  0
  7 30  1  0
  8 31  1  0
  9 32  1  0
 10 33  1  0
 13 34  1  0
 13 35  1  0
 15 36  1  0
 16 37  1  0
 21 38  1  0
 22 39  1  0
M  CHG  2  18   1  20  -1
M  END
$$$$
