
     RDKit          3D

 26 27  0  0  0  0  0  0  0  0999 V2000
   -1.0840   -0.9216   -2.4257 O   0  0  0  0  0  0  0  0  0  0  0  0
   -1.3150   -0.4697   -1.3051 C   0  0  0  0  0  0  0  0  0  0  0  0
   -0.2145   -0.2174   -0.2689 C   0  0  0  0  0  0  0  0  0  0  0  0
    1.0666   -0.5703   -0.7718 O   0  0  0  0  0  0  0  0  0  0  0  0
    2.1498   -0.3983    0.0499 C   0  0  0  0  0  0  0  0  0  0  0  0
    2.0858    0.1046    1.3548 C   0  0  0  0  0  0  0  0  0  0  0  0
    3.2491    0.2449    2.1200 C   0  0  0  0  0  0  0  0  0  0  0  0
    4.4866   -0.1146    1.5919 C   0  0  0  0  0  0  0  0  0  0  0  0
    4.5648   -0.6164    0.2948 C   0  0  0  0  0  0  0  0  0  0  0  0
    3.4041   -0.7576   -0.4719 C   0  0  0  0  0  0  0  0  0  0  0  0
    3.5685   -1.3865   -2.0749 Cl  0  0  0  0  0  0  0  0  0  0  0  0
   -2.6743   -0.1459   -0.9013 C   0  0  0  0  0  0  0  0  0  0  0  0
   -3.1880    0.3646    0.2792 C   0  0  0  0  0  0  0  0  0  0  0  0
   -4.5918    0.4845    0.1285 C   0  0  0  0  0  0  0  0  0  0  0  0
   -4.9061    0.0464   -1.1365 C   0  0  0  0  0  0  0  0  0  0  0  0
   -3.7440   -0.3321   -1.7516 N   0  0  0  0  0  0  0  0  0  0  0  0
   -0.2328    0.8513   -0.0241 H   0  0  0  0  0  0  0  0  0  0  0  0
   -0.4460   -0.8287    0.6115 H   0  0  0  0  0  0  0  0  0  0  0  0
    1.1475    0.3991    1.8128 H   0  0  0  0  0  0  0  0  0  0  0  0
    3.1873    0.6369    3.1329 H   0  0  0  0  0  0  0  0  0  0  0  0
    5.3888   -0.0046    2.1886 H   0  0  0  0  0  0  0  0  0  0  0  0
    5.5311   -0.8968   -0.1167 H   0  0  0  0  0  0  0  0  0  0  0  0
   -2.6247    0.6281    1.1653 H   0  0  0  0  0  0  0  0  0  0  0  0
   -5.2974    0.8509    0.8636 H   0  0  0  0  0  0  0  0  0  0  0  0
   -5.8546   -0.0288   -1.6520 H   0  0  0  0  0  0  0  0  0  0  0  0
   -3.6566   -0.6986   -2.6931 H   0  0  0  0  0  0  0  0  0  0  0  0
  1  2  2  0
  2  3  1  0
  3  4  1  0
  4  5  1  0
  5  6  2  0
  6  7  1  0
  7  8  2  0
  8  9  1  0
  9 10  2  0
 10 11  1  0
  2 12  1  0
 12 13  2  0
 13 14  1  0
 14 15  2  0
 15 16  1  0
 10  5  1  0
 16 12  1  0
  3 17  1  0
  3 18  1  0
  6 19  1  0
  7 20  1  0
  8 21  1  0
  9 22  1  0
 13 23  1  0
 14 24  1  0
 15 25  1  0
 16 26  1  0
M  END
$$$$
