
     RDKit          3D

 37 39  0  0  0  0  0  0  0  0999 V2000
    5.5328    0.4161   -2.2929 C   0  0  0  0  0  0  0  0  0  0  0  0
    4.3025   -0.0152   -1.5095 C   0  0  0  0  0  0  0  0  0  0  0  0
    4.2556    0.6504   -0.1337 C   0  0  0  0  0  0  0  0  0  0  0  0
    3.0708    0.2139    0.6684 C   0  0  0  0  0  0  0  0  0  0  0  0
    1.8850   -0.0896    0.1804 N   0  0  0  0  0  0  0  0  0  0  0  0
    0.9865   -0.4349    1.1708 N   0  0  0  0  0  0  0  0  0  0  0  0
    1.5181   -0.3501    2.3630 C   0  0  0  0  0  0  0  0  0  0  0  0
    0.9793   -0.5924    3.5905 N   0  0  0  0  0  0  0  0  0  0  0  0
   -0.3093   -0.9452    3.8556 C   0  0  0  0  0  0  0  0  0  0  0  0
   -0.5973   -1.2249    5.0257 O   0  0  0  0  0  0  0  0  0  0  0  0
   -1.3673   -1.0050    2.7585 C   0  0  0  0  0  0  0  0  0  0  0  0
   -1.6314    0.3167    2.2930 O   0  0  0  0  0  0  0  0  0  0  0  0
   -2.4026    0.3313    1.1606 C   0  0  0  0  0  0  0  0  0  0  0  0
   -1.9157    1.0893    0.0812 C   0  0  0  0  0  0  0  0  0  0  0  0
   -2.6444    1.1855   -1.1074 C   0  0  0  0  0  0  0  0  0  0  0  0
   -3.8551    0.5308   -1.1669 C   0  0  0  0  0  0  0  0  0  0  0  0
   -4.3408   -0.1922   -0.1015 C   0  0  0  0  0  0  0  0  0  0  0  0
   -3.6426   -0.3073    1.0824 C   0  0  0  0  0  0  0  0  0  0  0  0
   -5.5558   -0.7462   -0.3624 O   0  0  0  0  0  0  0  0  0  0  0  0
   -5.7746   -0.2951   -1.7153 C   0  0  0  0  0  0  0  0  0  0  0  0
   -4.6997    0.5161   -2.2322 O   0  0  0  0  0  0  0  0  0  0  0  0
    3.1604    0.1113    2.3857 S   0  0  0  0  0  0  0  0  0  0  0  0
    5.5466    1.5017   -2.4327 H   0  0  0  0  0  0  0  0  0  0  0  0
    6.4506    0.1255   -1.7721 H   0  0  0  0  0  0  0  0  0  0  0  0
    5.5403   -0.0542   -3.2812 H   0  0  0  0  0  0  0  0  0  0  0  0
    4.3080   -1.1062   -1.4002 H   0  0  0  0  0  0  0  0  0  0  0  0
    3.4055    0.2432   -2.0846 H   0  0  0  0  0  0  0  0  0  0  0  0
    4.2109    1.7399   -0.2516 H   0  0  0  0  0  0  0  0  0  0  0  0
    5.1828    0.4226    0.4056 H   0  0  0  0  0  0  0  0  0  0  0  0
    1.5902   -0.5339    4.3917 H   0  0  0  0  0  0  0  0  0  0  0  0
   -1.0348   -1.6772    1.9592 H   0  0  0  0  0  0  0  0  0  0  0  0
   -2.2709   -1.4282    3.2135 H   0  0  0  0  0  0  0  0  0  0  0  0
   -0.9533    1.5879    0.1670 H   0  0  0  0  0  0  0  0  0  0  0  0
   -2.2700    1.7536   -1.9508 H   0  0  0  0  0  0  0  0  0  0  0  0
   -4.0656   -0.8565    1.9139 H   0  0  0  0  0  0  0  0  0  0  0  0
   -6.7007    0.2904   -1.7431 H   0  0  0  0  0  0  0  0  0  0  0  0
   -5.8939   -1.1720   -2.3621 H   0  0  0  0  0  0  0  0  0  0  0  0
  1  2  1  0
  2  3  1  0
  3  4  1  0
  4  5  2  0
  5  6  1  0
  6  7  2  0
  7  8  1  0
  8  9  1  0
  9 10  2  0
  9 11  1  0
 11 12  1  0
 12 13  1  0
 13 14  2  0
 14 15  1  0
 15 16  2  0
 16 17  1  0
 17 18  2  0
 17 19  1  0
 19 20  1  0
 20 21  1  0
  7 22  1  0
 22  4  1  0
 18 13  1  0
 21 16  1  0
  1 23  1  0
  1 24  1  0
  1 25  1  0
  2 26  1  0
  2 27  1  0
  3 28  1  0
  3 29  1  0
  8 30  1  0
 11 31  1  0
 11 32  1  0
 14 33  1  0
 15 34  1  0
 18 35  1  0
 20 36  1  0
 20 37  1  0
M  END
$$$$
