
     RDKit          3D

 57 60  0  0  0  0  0  0  0  0999 V2000
    8.1946    2.6112   -1.3161 C   0  0  0  0  0  0  0  0  0  0  0  0
    6.7686    2.3400   -0.8598 C   0  0  0  0  0  0  0  0  0  0  0  0
    6.7468    1.0686   -0.2143 O   0  0  0  0  0  0  0  0  0  0  0  0
    5.5659    0.6829    0.3531 C   0  0  0  0  0  0  0  0  0  0  0  0
    4.3687    1.3940    0.3295 C   0  0  0  0  0  0  0  0  0  0  0  0
    3.2320    0.8782    0.9700 C   0  0  0  0  0  0  0  0  0  0  0  0
    3.2708   -0.3589    1.6270 C   0  0  0  0  0  0  0  0  0  0  0  0
    2.0841   -0.7940    2.2484 N   0  0  0  0  0  0  0  0  0  0  0  0
    1.8240   -2.0247    2.8272 C   0  0  0  0  0  0  0  0  0  0  0  0
    2.5865   -2.9875    2.8569 O   0  0  0  0  0  0  0  0  0  0  0  0
    0.4535   -2.1048    3.4838 C   0  0  0  0  0  0  0  0  0  0  0  0
   -0.8448   -2.4879    2.2718 S   0  0  0  0  0  0  0  0  0  0  0  0
   -1.1914   -0.9190    1.6179 C   0  0  0  0  0  0  0  0  0  0  0  0
   -0.5006    0.1582    1.9104 N   0  0  0  0  0  0  0  0  0  0  0  0
   -1.0937    1.2226    1.3032 N   0  0  0  0  0  0  0  0  0  0  0  0
   -2.1561    0.7852    0.6466 C   0  0  0  0  0  0  0  0  0  0  0  0
   -2.9885    1.6391   -0.2608 C   0  0  0  0  0  0  0  0  0  0  0  0
   -3.0048    1.1776   -1.6923 C   0  0  0  0  0  0  0  0  0  0  0  0
   -1.9910    0.6100   -2.4530 C   0  0  0  0  0  0  0  0  0  0  0  0
   -2.5096    0.3344   -3.7383 C   0  0  0  0  0  0  0  0  0  0  0  0
   -3.8128    0.7739   -3.7541 C   0  0  0  0  0  0  0  0  0  0  0  0
   -4.1047    1.2950   -2.5178 N   0  0  0  0  0  0  0  0  0  0  0  0
   -5.3803    1.8846   -2.1650 C   0  0  0  0  0  0  0  0  0  0  0  0
   -2.2910   -0.5860    0.8453 N   0  0  0  0  0  0  0  0  0  0  0  0
   -3.3326   -1.4282    0.3749 C   0  0  0  0  0  0  0  0  0  0  0  0
   -3.0330   -2.6600   -0.2254 C   0  0  0  0  0  0  0  0  0  0  0  0
   -4.0643   -3.4714   -0.7002 C   0  0  0  0  0  0  0  0  0  0  0  0
   -5.3848   -3.0574   -0.5659 C   0  0  0  0  0  0  0  0  0  0  0  0
   -6.3746   -3.8393   -1.0219 F   0  0  0  0  0  0  0  0  0  0  0  0
   -5.6988   -1.8442    0.0345 C   0  0  0  0  0  0  0  0  0  0  0  0
   -4.6704   -1.0220    0.5059 C   0  0  0  0  0  0  0  0  0  0  0  0
    4.4697   -1.0666    1.6444 C   0  0  0  0  0  0  0  0  0  0  0  0
    5.6080   -0.5454    1.0109 C   0  0  0  0  0  0  0  0  0  0  0  0
    8.5286    1.8468   -2.0252 H   0  0  0  0  0  0  0  0  0  0  0  0
    8.8869    2.5795   -0.4635 H   0  0  0  0  0  0  0  0  0  0  0  0
    8.2656    3.5932   -1.7883 H   0  0  0  0  0  0  0  0  0  0  0  0
    6.1053    2.3286   -1.7353 H   0  0  0  0  0  0  0  0  0  0  0  0
    6.4615    3.1329   -0.1621 H   0  0  0  0  0  0  0  0  0  0  0  0
    4.2792    2.3452   -0.1837 H   0  0  0  0  0  0  0  0  0  0  0  0
    2.3100    1.4541    0.9327 H   0  0  0  0  0  0  0  0  0  0  0  0
    1.2939   -0.1504    2.1879 H   0  0  0  0  0  0  0  0  0  0  0  0
    0.2366   -1.1874    4.0408 H   0  0  0  0  0  0  0  0  0  0  0  0
    0.4823   -2.9177    4.2187 H   0  0  0  0  0  0  0  0  0  0  0  0
   -2.5759    2.6583   -0.2493 H   0  0  0  0  0  0  0  0  0  0  0  0
   -3.9995    1.7271    0.1510 H   0  0  0  0  0  0  0  0  0  0  0  0
   -0.9840    0.3993   -2.1084 H   0  0  0  0  0  0  0  0  0  0  0  0
   -1.9862   -0.1225   -4.5704 H   0  0  0  0  0  0  0  0  0  0  0  0
   -4.5499    0.7588   -4.5504 H   0  0  0  0  0  0  0  0  0  0  0  0
   -5.2027    2.8982   -1.7935 H   0  0  0  0  0  0  0  0  0  0  0  0
   -5.8471    1.2617   -1.3962 H   0  0  0  0  0  0  0  0  0  0  0  0
   -6.0239    1.9238   -3.0484 H   0  0  0  0  0  0  0  0  0  0  0  0
   -2.0044   -2.9902   -0.3743 H   0  0  0  0  0  0  0  0  0  0  0  0
   -3.8424   -4.4205   -1.1809 H   0  0  0  0  0  0  0  0  0  0  0  0
   -6.7380   -1.5490    0.1444 H   0  0  0  0  0  0  0  0  0  0  0  0
   -4.9385   -0.0983    1.0104 H   0  0  0  0  0  0  0  0  0  0  0  0
    4.5607   -2.0201    2.1568 H   0  0  0  0  0  0  0  0  0  0  0  0
    6.5367   -1.1098    1.0392 H   0  0  0  0  0  0  0  0  0  0  0  0
  1  2  1  0
  2  3  1  0
  3  4  1  0
  4  5  2  0
  5  6  1  0
  6  7  2  0
  7  8  1  0
  8  9  1  0
  9 10  2  0
  9 11  1  0
 11 12  1  0
 12 13  1  0
 13 14  2  0
 14 15  1  0
 15 16  2  0
 16 17  1  0
 17 18  1  0
 18 19  2  0
 19 20  1  0
 20 21  2  0
 21 22  1  0
 22 23  1  0
 16 24  1  0
 24 25  1  0
 25 26  2  0
 26 27  1  0
 27 28  2  0
 28 29  1  0
 28 30  1  0
 30 31  2  0
  7 32  1  0
 32 33  2  0
 33  4  1  0
 24 13  1  0
 31 25  1  0
 22 18  1  0
  1 34  1  0
  1 35  1  0
  1 36  1  0
  2 37  1  0
  2 38  1  0
  5 39  1  0
  6 40  1  0
  8 41  1  0
 11 42  1  0
 11 43  1  0
 17 44  1  0
 17 45  1  0
 19 46  1  0
 20 47  1  0
 21 48  1  0
 23 49  1  0
 23 50  1  0
 23 51  1  0
 26 52  1  0
 27 53  1  0
 30 54  1  0
 31 55  1  0
 32 56  1  0
 33 57  1  0
M  END
$$$$
