
     RDKit          3D

 50 53  0  0  0  0  0  0  0  0999 V2000
   -4.8511   -0.6037    5.4600 C   0  0  0  0  0  0  0  0  0  0  0  0
   -4.1127   -0.6450    4.1552 C   0  0  0  0  0  0  0  0  0  0  0  0
   -2.7856   -1.0782    4.1053 C   0  0  0  0  0  0  0  0  0  0  0  0
   -2.1070   -1.1432    2.8846 C   0  0  0  0  0  0  0  0  0  0  0  0
   -2.7525   -0.8012    1.6844 C   0  0  0  0  0  0  0  0  0  0  0  0
   -2.0170   -0.8775    0.4606 N   0  0  0  0  0  0  0  0  0  0  0  0
   -0.6579   -0.9415    0.5222 N   0  0  0  0  0  0  0  0  0  0  0  0
   -0.2462   -0.7776   -0.7357 C   0  0  0  0  0  0  0  0  0  0  0  0
    1.1340   -0.6895   -1.1873 C   0  0  0  0  0  0  0  0  0  0  0  0
    2.1119   -0.7133   -0.4396 O   0  0  0  0  0  0  0  0  0  0  0  0
    1.2442   -0.5530   -2.5837 N   0  0  0  0  0  0  0  0  0  0  0  0
    2.5756   -0.4687   -3.1680 C   0  0  0  0  0  0  0  0  0  0  0  0
    3.1344    0.9409   -2.9918 C   0  0  0  0  0  0  0  0  0  0  0  0
    3.0009    1.8216   -3.8383 O   0  0  0  0  0  0  0  0  0  0  0  0
    3.7679    1.1529   -1.7835 N   0  0  0  0  0  0  0  0  0  0  0  0
    4.1765    2.4851   -1.4083 C   0  0  0  0  0  0  0  0  0  0  0  0
    5.0442    2.3906   -0.1971 C   0  0  0  0  0  0  0  0  0  0  0  0
    6.4026    2.1443   -0.1353 C   0  0  0  0  0  0  0  0  0  0  0  0
    6.8898    2.1211    1.2031 C   0  0  0  0  0  0  0  0  0  0  0  0
    5.8880    2.3495    2.1193 C   0  0  0  0  0  0  0  0  0  0  0  0
    4.3720    2.5909    1.3669 S   0  0  0  0  0  0  0  0  0  0  0  0
    0.1678   -0.5066   -3.4753 N   0  0  0  0  0  0  0  0  0  0  0  0
   -1.0630   -0.5745   -3.0492 C   0  0  0  0  0  0  0  0  0  0  0  0
   -2.1730   -0.5000   -4.0583 C   0  0  0  0  0  0  0  0  0  0  0  0
   -1.3150   -0.7249   -1.6361 C   0  0  0  0  0  0  0  0  0  0  0  0
   -2.4565   -0.8944   -0.8699 C   0  0  0  0  0  0  0  0  0  0  0  0
   -3.8627   -1.1188   -1.2940 C   0  0  0  0  0  0  0  0  0  0  0  0
   -4.0778   -0.3574    1.7386 C   0  0  0  0  0  0  0  0  0  0  0  0
   -4.7539   -0.2922    2.9636 C   0  0  0  0  0  0  0  0  0  0  0  0
   -4.1675   -0.3960    6.2899 H   0  0  0  0  0  0  0  0  0  0  0  0
   -5.6068    0.1889    5.4563 H   0  0  0  0  0  0  0  0  0  0  0  0
   -5.3454   -1.5632    5.6405 H   0  0  0  0  0  0  0  0  0  0  0  0
   -2.2639   -1.3651    5.0159 H   0  0  0  0  0  0  0  0  0  0  0  0
   -1.0705   -1.4786    2.8870 H   0  0  0  0  0  0  0  0  0  0  0  0
    2.5336   -0.7079   -4.2360 H   0  0  0  0  0  0  0  0  0  0  0  0
    3.2401   -1.1939   -2.6851 H   0  0  0  0  0  0  0  0  0  0  0  0
    3.5312    0.5141   -1.0228 H   0  0  0  0  0  0  0  0  0  0  0  0
    3.2763    3.0840   -1.2303 H   0  0  0  0  0  0  0  0  0  0  0  0
    4.7216    2.9435   -2.2414 H   0  0  0  0  0  0  0  0  0  0  0  0
    7.0169    1.9832   -1.0134 H   0  0  0  0  0  0  0  0  0  0  0  0
    7.9215    1.9429    1.4799 H   0  0  0  0  0  0  0  0  0  0  0  0
    5.9704    2.3848    3.1968 H   0  0  0  0  0  0  0  0  0  0  0  0
   -1.7848   -0.1683   -5.0260 H   0  0  0  0  0  0  0  0  0  0  0  0
   -2.6176   -1.4906   -4.1848 H   0  0  0  0  0  0  0  0  0  0  0  0
   -2.9374    0.2089   -3.7297 H   0  0  0  0  0  0  0  0  0  0  0  0
   -4.4038   -1.7628   -0.5946 H   0  0  0  0  0  0  0  0  0  0  0  0
   -3.9028   -1.6366   -2.2563 H   0  0  0  0  0  0  0  0  0  0  0  0
   -4.3920   -0.1677   -1.4032 H   0  0  0  0  0  0  0  0  0  0  0  0
   -4.6110   -0.0085    0.8629 H   0  0  0  0  0  0  0  0  0  0  0  0
   -5.7859    0.0532    2.9820 H   0  0  0  0  0  0  0  0  0  0  0  0
  1  2  1  0
  2  3  2  0
  3  4  1  0
  4  5  2  0
  5  6  1  0
  6  7  1  0
  7  8  2  0
  8  9  1  0
  9 10  2  0
  9 11  1  0
 11 12  1  0
 12 13  1  0
 13 14  2  0
 13 15  1  0
 15 16  1  0
 16 17  1  0
 17 18  2  0
 18 19  1  0
 19 20  2  0
 20 21  1  0
 11 22  1  0
 22 23  2  0
 23 24  1  0
 23 25  1  0
 25 26  2  0
 26 27  1  0
  5 28  1  0
 28 29  2  0
 29  2  1  0
 26  6  1  0
 25  8  1  0
 21 17  1  0
  1 30  1  0
  1 31  1  0
  1 32  1  0
  3 33  1  0
  4 34  1  0
 12 35  1  0
 12 36  1  0
 15 37  1  0
 16 38  1  0
 16 39  1  0
 18 40  1  0
 19 41  1  0
 20 42  1  0
 24 43  1  0
 24 44  1  0
 24 45  1  0
 27 46  1  0
 27 47  1  0
 27 48  1  0
 28 49  1  0
 29 50  1  0
M  END
$$$$
