
     RDKit          3D

 50 53  0  0  0  0  0  0  0  0999 V2000
    8.4551    0.2074    0.7935 C   0  0  0  0  0  0  0  0  0  0  0  0
    7.5514   -0.9407    1.2085 C   0  0  0  0  0  0  0  0  0  0  0  0
    6.4649   -1.0948    0.2959 O   0  0  0  0  0  0  0  0  0  0  0  0
    5.3467   -0.3237    0.4245 C   0  0  0  0  0  0  0  0  0  0  0  0
    5.1125    0.5874    1.4564 C   0  0  0  0  0  0  0  0  0  0  0  0
    3.9058    1.3009    1.5186 C   0  0  0  0  0  0  0  0  0  0  0  0
    2.9045    1.1093    0.5570 C   0  0  0  0  0  0  0  0  0  0  0  0
    1.6420    1.8924    0.6767 C   0  0  0  0  0  0  0  0  0  0  0  0
    1.7103    3.0148    1.1612 O   0  0  0  0  0  0  0  0  0  0  0  0
    0.5012    1.2338    0.2546 N   0  0  0  0  0  0  0  0  0  0  0  0
   -0.8112    1.7532    0.1989 C   0  0  0  0  0  0  0  0  0  0  0  0
   -1.1348    3.0825    0.4708 C   0  0  0  0  0  0  0  0  0  0  0  0
   -2.4574    3.5235    0.3759 C   0  0  0  0  0  0  0  0  0  0  0  0
   -3.4704    2.6382    0.0107 C   0  0  0  0  0  0  0  0  0  0  0  0
   -3.1697    1.3003   -0.2631 C   0  0  0  0  0  0  0  0  0  0  0  0
   -4.2431    0.3579   -0.6361 C   0  0  0  0  0  0  0  0  0  0  0  0
   -4.4971   -0.6809    0.1771 C   0  0  0  0  0  0  0  0  0  0  0  0
   -5.5500   -1.6307   -0.1411 C   0  0  0  0  0  0  0  0  0  0  0  0
   -5.8367   -2.7252    0.6778 C   0  0  0  0  0  0  0  0  0  0  0  0
   -6.8602   -3.6119    0.3279 C   0  0  0  0  0  0  0  0  0  0  0  0
   -7.6003   -3.4086   -0.8392 C   0  0  0  0  0  0  0  0  0  0  0  0
   -7.3197   -2.3180   -1.6597 C   0  0  0  0  0  0  0  0  0  0  0  0
   -6.2975   -1.4436   -1.2982 C   0  0  0  0  0  0  0  0  0  0  0  0
   -6.0452   -0.3545   -2.1499 O   0  0  0  0  0  0  0  0  0  0  0  0
   -5.0450    0.5739   -1.8765 C   0  0  0  0  0  0  0  0  0  0  0  0
   -4.8415    1.5194   -2.6312 O   0  0  0  0  0  0  0  0  0  0  0  0
   -1.8353    0.8687   -0.1708 C   0  0  0  0  0  0  0  0  0  0  0  0
    3.1284    0.2246   -0.4977 C   0  0  0  0  0  0  0  0  0  0  0  0
    4.3446   -0.4741   -0.5454 C   0  0  0  0  0  0  0  0  0  0  0  0
    4.5388   -1.3904   -1.6531 N   0  0  0  0  0  4  0  0  0  0  0  0
    3.7097   -2.3057   -1.7634 O   0  0  0  0  0  0  0  0  0  0  0  0
    5.4667   -1.1572   -2.4380 O   0  0  0  0  0  1  0  0  0  0  0  0
    9.3299    0.2657    1.4475 H   0  0  0  0  0  0  0  0  0  0  0  0
    7.9292    1.1659    0.8317 H   0  0  0  0  0  0  0  0  0  0  0  0
    8.7955    0.0731   -0.2386 H   0  0  0  0  0  0  0  0  0  0  0  0
    8.1303   -1.8700    1.1561 H   0  0  0  0  0  0  0  0  0  0  0  0
    7.2148   -0.8575    2.2472 H   0  0  0  0  0  0  0  0  0  0  0  0
    5.8427    0.7765    2.2373 H   0  0  0  0  0  0  0  0  0  0  0  0
    3.7473    2.0105    2.3310 H   0  0  0  0  0  0  0  0  0  0  0  0
    0.5890    0.2552    0.0146 H   0  0  0  0  0  0  0  0  0  0  0  0
   -0.3784    3.8104    0.7479 H   0  0  0  0  0  0  0  0  0  0  0  0
   -2.6940    4.5649    0.5810 H   0  0  0  0  0  0  0  0  0  0  0  0
   -4.4919    3.0055   -0.0658 H   0  0  0  0  0  0  0  0  0  0  0  0
   -3.9368   -0.8376    1.0940 H   0  0  0  0  0  0  0  0  0  0  0  0
   -5.2733   -2.9007    1.5910 H   0  0  0  0  0  0  0  0  0  0  0  0
   -7.0819   -4.4634    0.9673 H   0  0  0  0  0  0  0  0  0  0  0  0
   -8.3953   -4.1003   -1.1072 H   0  0  0  0  0  0  0  0  0  0  0  0
   -7.8902   -2.1510   -2.5688 H   0  0  0  0  0  0  0  0  0  0  0  0
   -1.6004   -0.1686   -0.3984 H   0  0  0  0  0  0  0  0  0  0  0  0
    2.3958    0.0934   -1.2901 H   0  0  0  0  0  0  0  0  0  0  0  0
  1  2  1  0
  2  3  1  0
  3  4  1  0
  4  5  2  0
  5  6  1  0
  6  7  2  0
  7  8  1  0
  8  9  2  0
  8 10  1  0
 10 11  1  0
 11 12  2  0
 12 13  1  0
 13 14  2  0
 14 15  1  0
 15 16  1  0
 16 17  2  0
 17 18  1  0
 18 19  2  0
 19 20  1  0
 20 21  2  0
 21 22  1  0
 22 23  2  0
 23 24  1  0
 24 25  1  0
 25 26  2  0
 15 27  2  0
  7 28  1  0
 28 29  2  0
 29 30  1  0
 30 31  2  0
 30 32  1  0
 29  4  1  0
 27 11  1  0
 25 16  1  0
 23 18  1  0
  1 33  1  0
  1 34  1  0
  1 35  1  0
  2 36  1  0
  2 37  1  0
  5 38  1  0
  6 39  1  0
 10 40  1  0
 12 41  1  0
 13 42  1  0
 14 43  1  0
 17 44  1  0
 19 45  1  0
 20 46  1  0
 21 47  1  0
 22 48  1  0
 27 49  1  0
 28 50  1  0
M  CHG  2  30   1  32  -1
M  END
$$$$
