
     RDKit          3D

 39 40  0  0  0  0  0  0  0  0999 V2000
   -1.1687    2.2801    1.0041 O   0  0  0  0  0  0  0  0  0  0  0  0
   -1.4823    1.7128    2.0465 C   0  0  0  0  0  0  0  0  0  0  0  0
   -2.9056    1.5254    2.4288 C   0  0  0  0  0  0  0  0  0  0  0  0
   -3.8459    1.0294    1.6109 C   0  0  0  0  0  0  0  0  0  0  0  0
   -3.6358    0.5429    0.2432 C   0  0  0  0  0  0  0  0  0  0  0  0
   -2.7966   -0.5496   -0.0181 C   0  0  0  0  0  0  0  0  0  0  0  0
   -2.6303   -1.0180   -1.3257 C   0  0  0  0  0  0  0  0  0  0  0  0
   -3.3159   -0.3977   -2.3656 C   0  0  0  0  0  0  0  0  0  0  0  0
   -3.1858   -0.8257   -3.6546 O   0  0  0  0  0  0  0  0  0  0  0  0
   -4.1628    0.6778   -2.1209 C   0  0  0  0  0  0  0  0  0  0  0  0
   -4.3246    1.1482   -0.8148 C   0  0  0  0  0  0  0  0  0  0  0  0
   -0.4491    1.1650    2.9850 C   0  0  0  0  0  0  0  0  0  0  0  0
    0.2056   -0.0706    2.4330 C   0  0  0  0  0  0  0  0  0  0  0  0
   -0.1213   -1.1927    2.8198 O   0  0  0  0  0  0  0  0  0  0  0  0
    1.2421    0.1166    1.3794 C   0  0  0  0  0  0  0  0  0  0  0  0
    2.0166   -0.9116    1.0049 C   0  0  0  0  0  0  0  0  0  0  0  0
    3.0364   -0.8332   -0.0501 C   0  0  0  0  0  0  0  0  0  0  0  0
    3.7939    0.3250   -0.2854 C   0  0  0  0  0  0  0  0  0  0  0  0
    4.7541    0.3546   -1.3011 C   0  0  0  0  0  0  0  0  0  0  0  0
    4.9721   -0.7823   -2.0718 C   0  0  0  0  0  0  0  0  0  0  0  0
    5.8941   -0.7970   -3.0760 O   0  0  0  0  0  0  0  0  0  0  0  0
    4.2508   -1.9462   -1.8395 C   0  0  0  0  0  0  0  0  0  0  0  0
    3.2893   -1.9730   -0.8268 C   0  0  0  0  0  0  0  0  0  0  0  0
   -3.1617    1.8020    3.4447 H   0  0  0  0  0  0  0  0  0  0  0  0
   -4.8704    0.9515    1.9682 H   0  0  0  0  0  0  0  0  0  0  0  0
   -2.2727   -1.0516    0.7905 H   0  0  0  0  0  0  0  0  0  0  0  0
   -1.9745   -1.8647   -1.5064 H   0  0  0  0  0  0  0  0  0  0  0  0
   -2.4692   -1.4801   -3.6880 H   0  0  0  0  0  0  0  0  0  0  0  0
   -4.6893    1.1515   -2.9443 H   0  0  0  0  0  0  0  0  0  0  0  0
   -4.9851    1.9921   -0.6340 H   0  0  0  0  0  0  0  0  0  0  0  0
    0.3002    1.9341    3.1874 H   0  0  0  0  0  0  0  0  0  0  0  0
   -0.9021    0.9176    3.9488 H   0  0  0  0  0  0  0  0  0  0  0  0
    1.3109    1.0991    0.9281 H   0  0  0  0  0  0  0  0  0  0  0  0
    1.8850   -1.8885    1.4646 H   0  0  0  0  0  0  0  0  0  0  0  0
    3.6466    1.2187    0.3167 H   0  0  0  0  0  0  0  0  0  0  0  0
    5.3173    1.2668   -1.4713 H   0  0  0  0  0  0  0  0  0  0  0  0
    6.2784    0.0893   -3.1562 H   0  0  0  0  0  0  0  0  0  0  0  0
    4.4318   -2.8289   -2.4442 H   0  0  0  0  0  0  0  0  0  0  0  0
    2.7246   -2.8890   -0.6675 H   0  0  0  0  0  0  0  0  0  0  0  0
  1  2  2  0
  2  3  1  0
  3  4  2  3
  4  5  1  0
  5  6  2  0
  6  7  1  0
  7  8  2  0
  8  9  1  0
  8 10  1  0
 10 11  2  0
  2 12  1  0
 12 13  1  0
 13 14  2  0
 13 15  1  0
 15 16  2  3
 16 17  1  0
 17 18  2  0
 18 19  1  0
 19 20  2  0
 20 21  1  0
 20 22  1  0
 22 23  2  0
 11  5  1  0
 23 17  1  0
  3 24  1  0
  4 25  1  0
  6 26  1  0
  7 27  1  0
  9 28  1  0
 10 29  1  0
 11 30  1  0
 12 31  1  0
 12 32  1  0
 15 33  1  0
 16 34  1  0
 18 35  1  0
 19 36  1  0
 21 37  1  0
 22 38  1  0
 23 39  1  0
M  END
$$$$
