
     RDKit          3D

 36 37  0  0  0  0  0  0  0  0999 V2000
   -3.1929   -2.8687    0.8760 C   0  0  0  0  0  0  0  0  0  0  0  0
   -2.0786   -2.5412   -0.0983 C   0  0  0  0  0  0  0  0  0  0  0  0
   -1.9821   -1.1152   -0.2028 O   0  0  0  0  0  0  0  0  0  0  0  0
   -0.9963   -0.6809   -1.0251 C   0  0  0  0  0  0  0  0  0  0  0  0
   -0.2263   -1.3927   -1.6544 O   0  0  0  0  0  0  0  0  0  0  0  0
   -0.9307    0.8055   -1.0419 C   0  0  0  0  0  0  0  0  0  0  0  0
   -1.9830    1.5766   -0.5200 C   0  0  0  0  0  0  0  0  0  0  0  0
   -1.9149    2.9709   -0.5402 C   0  0  0  0  0  0  0  0  0  0  0  0
   -0.8008    3.6058   -1.0826 C   0  0  0  0  0  0  0  0  0  0  0  0
    0.2486    2.8502   -1.6063 C   0  0  0  0  0  0  0  0  0  0  0  0
    0.1939    1.4528   -1.5911 C   0  0  0  0  0  0  0  0  0  0  0  0
    1.3157    0.7206   -2.1084 N   0  0  0  0  0  0  0  0  0  0  0  0
    2.7646    0.7338   -1.2242 S   0  0  0  0  0  6  0  0  0  0  0  0
    3.6234   -0.2493   -1.8546 O   0  0  0  0  0  0  0  0  0  0  0  0
    3.2209    2.0956   -1.0557 O   0  0  0  0  0  0  0  0  0  0  0  0
    2.2939    0.0759    0.3467 C   0  0  0  0  0  0  0  0  0  0  0  0
    2.3553   -1.3074    0.5601 C   0  0  0  0  0  0  0  0  0  0  0  0
    1.9958   -1.8337    1.8022 C   0  0  0  0  0  0  0  0  0  0  0  0
    1.5871   -0.9825    2.8292 C   0  0  0  0  0  0  0  0  0  0  0  0
    1.5407    0.3955    2.6151 C   0  0  0  0  0  0  0  0  0  0  0  0
    1.9000    0.9213    1.3756 C   0  0  0  0  0  0  0  0  0  0  0  0
    1.8171    2.2466    1.2086 F   0  0  0  0  0  0  0  0  0  0  0  0
   -3.3069   -3.9503    0.9895 H   0  0  0  0  0  0  0  0  0  0  0  0
   -2.9873   -2.4296    1.8579 H   0  0  0  0  0  0  0  0  0  0  0  0
   -4.1428   -2.4468    0.5313 H   0  0  0  0  0  0  0  0  0  0  0  0
   -1.1318   -2.9507    0.2716 H   0  0  0  0  0  0  0  0  0  0  0  0
   -2.3072   -2.9678   -1.0813 H   0  0  0  0  0  0  0  0  0  0  0  0
   -2.8665    1.1052   -0.0954 H   0  0  0  0  0  0  0  0  0  0  0  0
   -2.7315    3.5627   -0.1325 H   0  0  0  0  0  0  0  0  0  0  0  0
   -0.7427    4.6919   -1.0965 H   0  0  0  0  0  0  0  0  0  0  0  0
    1.1134    3.3617   -2.0250 H   0  0  0  0  0  0  0  0  0  0  0  0
    1.1001   -0.2443   -2.3972 H   0  0  0  0  0  0  0  0  0  0  0  0
    2.6748   -1.9793   -0.2348 H   0  0  0  0  0  0  0  0  0  0  0  0
    2.0397   -2.9078    1.9695 H   0  0  0  0  0  0  0  0  0  0  0  0
    1.3104   -1.3918    3.7981 H   0  0  0  0  0  0  0  0  0  0  0  0
    1.2270    1.0674    3.4089 H   0  0  0  0  0  0  0  0  0  0  0  0
  1  2  1  0
  2  3  1  0
  3  4  1  0
  4  5  2  0
  4  6  1  0
  6  7  2  0
  7  8  1  0
  8  9  2  0
  9 10  1  0
 10 11  2  0
 11 12  1  0
 12 13  1  0
 13 14  2  0
 13 15  2  0
 13 16  1  0
 16 17  2  0
 17 18  1  0
 18 19  2  0
 19 20  1  0
 20 21  2  0
 21 22  1  0
 11  6  1  0
 21 16  1  0
  1 23  1  0
  1 24  1  0
  1 25  1  0
  2 26  1  0
  2 27  1  0
  7 28  1  0
  8 29  1  0
  9 30  1  0
 10 31  1  0
 12 32  1  0
 17 33  1  0
 18 34  1  0
 19 35  1  0
 20 36  1  0
M  END
$$$$
