
     RDKit          3D

 33 33  0  0  0  0  0  0  0  0999 V2000
   -2.1392    1.9978   -2.0166 C   0  0  0  0  0  0  0  0  0  0  0  0
   -2.6228    1.1365   -0.8768 C   0  0  0  0  0  0  0  0  0  0  0  0
   -3.7388    0.6283   -0.9037 O   0  0  0  0  0  0  0  0  0  0  0  0
   -1.6703    0.9894    0.1091 N   0  0  0  0  0  0  0  0  0  0  0  0
   -1.7686    0.2627    1.3149 C   0  0  0  0  0  0  0  0  0  0  0  0
   -2.9270   -0.3940    1.7330 C   0  0  0  0  0  0  0  0  0  0  0  0
   -2.9531   -1.0808    2.9531 C   0  0  0  0  0  0  0  0  0  0  0  0
   -1.8255   -1.1107    3.7725 C   0  0  0  0  0  0  0  0  0  0  0  0
   -0.6620   -0.4607    3.3706 C   0  0  0  0  0  0  0  0  0  0  0  0
   -0.6330    0.2022    2.1414 C   0  0  0  0  0  0  0  0  0  0  0  0
    0.5205    0.8537    1.7796 O   0  0  0  0  0  0  0  0  0  0  0  0
    1.4391   -0.0375    1.1461 C   0  0  0  0  0  0  0  0  0  0  0  0
    1.5896    0.2950   -0.3405 C   0  0  0  0  0  0  0  0  0  0  0  0
    0.9671    1.1972   -0.8978 O   0  0  0  0  0  0  0  0  0  0  0  0
    2.4874   -0.5103   -1.0112 N   0  0  0  0  0  0  0  0  0  0  0  0
    2.6498   -0.3899   -2.4642 C   0  0  0  0  0  0  0  0  0  0  0  0
    3.8818   -1.0928   -3.0278 C   0  0  0  0  0  0  0  0  0  0  0  0
    3.8789   -2.4024   -2.6836 F   0  0  0  0  0  0  0  0  0  0  0  0
    3.9162   -1.0198   -4.3747 F   0  0  0  0  0  0  0  0  0  0  0  0
    5.0227   -0.5491   -2.5509 F   0  0  0  0  0  0  0  0  0  0  0  0
   -1.5522    1.3874   -2.7077 H   0  0  0  0  0  0  0  0  0  0  0  0
   -1.5292    2.8276   -1.6485 H   0  0  0  0  0  0  0  0  0  0  0  0
   -2.9999    2.4186   -2.5443 H   0  0  0  0  0  0  0  0  0  0  0  0
   -0.7615    1.4227   -0.0638 H   0  0  0  0  0  0  0  0  0  0  0  0
   -3.8340   -0.3830    1.1366 H   0  0  0  0  0  0  0  0  0  0  0  0
   -3.8663   -1.5821    3.2656 H   0  0  0  0  0  0  0  0  0  0  0  0
   -1.8600   -1.6311    4.7261 H   0  0  0  0  0  0  0  0  0  0  0  0
    0.2129   -0.4637    4.0137 H   0  0  0  0  0  0  0  0  0  0  0  0
    2.4148    0.1040    1.6237 H   0  0  0  0  0  0  0  0  0  0  0  0
    1.1585   -1.0947    1.2455 H   0  0  0  0  0  0  0  0  0  0  0  0
    2.7757   -1.3813   -0.5764 H   0  0  0  0  0  0  0  0  0  0  0  0
    2.6816    0.6737   -2.7246 H   0  0  0  0  0  0  0  0  0  0  0  0
    1.7467   -0.8127   -2.9183 H   0  0  0  0  0  0  0  0  0  0  0  0
  1  2  1  0
  2  3  2  0
  2  4  1  0
  4  5  1  0
  5  6  2  0
  6  7  1  0
  7  8  2  0
  8  9  1  0
  9 10  2  0
 10 11  1  0
 11 12  1  0
 12 13  1  0
 13 14  2  0
 13 15  1  0
 15 16  1  0
 16 17  1  0
 17 18  1  0
 17 19  1  0
 17 20  1  0
 10  5  1  0
  1 21  1  0
  1 22  1  0
  1 23  1  0
  4 24  1  0
  6 25  1  0
  7 26  1  0
  8 27  1  0
  9 28  1  0
 12 29  1  0
 12 30  1  0
 15 31  1  0
 16 32  1  0
 16 33  1  0
M  END
$$$$
