
     RDKit          3D

 39 40  0  0  0  0  0  0  0  0999 V2000
    6.5818    2.0029   -0.7504 C   0  0  0  0  0  0  0  0  0  0  0  0
    5.0798    1.8050   -0.8953 C   0  0  0  0  0  0  0  0  0  0  0  0
    4.6584    0.3259   -0.9618 C   0  0  0  0  0  0  0  0  0  0  0  0
    5.2364   -0.3836   -2.1877 C   0  0  0  0  0  0  0  0  0  0  0  0
    3.1264    0.2221   -0.9554 C   0  0  0  0  0  0  0  0  0  0  0  0
    2.5008   -0.1025   -1.9585 O   0  0  0  0  0  0  0  0  0  0  0  0
    2.5909    0.5420    0.2736 N   0  0  0  0  0  0  0  0  0  0  0  0
    1.2625    0.5675    0.6162 C   0  0  0  0  0  0  0  0  0  0  0  0
    0.8651    0.8711    1.8323 N   0  0  0  0  0  0  0  0  0  0  0  0
   -0.5093    0.8388    1.9564 N   0  0  0  0  0  0  0  0  0  0  0  0
   -1.0965    0.5122    0.8237 C   0  0  0  0  0  0  0  0  0  0  0  0
   -2.5718    0.3872    0.6358 C   0  0  0  0  0  0  0  0  0  0  0  0
   -3.0706   -0.9771    1.1140 C   0  0  0  0  0  0  0  0  0  0  0  0
   -4.5612   -1.1175    0.9295 C   0  0  0  0  0  0  0  0  0  0  0  0
   -5.0840   -1.6395   -0.2612 C   0  0  0  0  0  0  0  0  0  0  0  0
   -6.4641   -1.7480   -0.4387 C   0  0  0  0  0  0  0  0  0  0  0  0
   -7.3326   -1.3326    0.5688 C   0  0  0  0  0  0  0  0  0  0  0  0
   -6.8225   -0.8075    1.7545 C   0  0  0  0  0  0  0  0  0  0  0  0
   -5.4429   -0.6980    1.9345 C   0  0  0  0  0  0  0  0  0  0  0  0
   -0.0036    0.2216   -0.4682 S   0  0  0  0  0  0  0  0  0  0  0  0
    6.9679    1.4577    0.1165 H   0  0  0  0  0  0  0  0  0  0  0  0
    6.8079    3.0650   -0.6107 H   0  0  0  0  0  0  0  0  0  0  0  0
    7.1199    1.6668   -1.6413 H   0  0  0  0  0  0  0  0  0  0  0  0
    4.5912    2.2957   -0.0450 H   0  0  0  0  0  0  0  0  0  0  0  0
    4.7298    2.3330   -1.7913 H   0  0  0  0  0  0  0  0  0  0  0  0
    5.0241   -0.1985   -0.0690 H   0  0  0  0  0  0  0  0  0  0  0  0
    4.8461   -1.4044   -2.2671 H   0  0  0  0  0  0  0  0  0  0  0  0
    4.9770    0.1430   -3.1126 H   0  0  0  0  0  0  0  0  0  0  0  0
    6.3266   -0.4552   -2.1290 H   0  0  0  0  0  0  0  0  0  0  0  0
    3.2034    0.7743    1.0432 H   0  0  0  0  0  0  0  0  0  0  0  0
   -2.8423    0.5466   -0.4157 H   0  0  0  0  0  0  0  0  0  0  0  0
   -3.0659    1.1872    1.2020 H   0  0  0  0  0  0  0  0  0  0  0  0
   -2.5602   -1.7850    0.5731 H   0  0  0  0  0  0  0  0  0  0  0  0
   -2.8194   -1.1286    2.1723 H   0  0  0  0  0  0  0  0  0  0  0  0
   -4.4200   -1.9663   -1.0585 H   0  0  0  0  0  0  0  0  0  0  0  0
   -6.8620   -2.1565   -1.3640 H   0  0  0  0  0  0  0  0  0  0  0  0
   -8.4071   -1.4178    0.4298 H   0  0  0  0  0  0  0  0  0  0  0  0
   -7.4996   -0.4825    2.5401 H   0  0  0  0  0  0  0  0  0  0  0  0
   -5.0602   -0.2842    2.8650 H   0  0  0  0  0  0  0  0  0  0  0  0
  1  2  1  0
  2  3  1  0
  3  4  1  0
  3  5  1  0
  5  6  2  0
  5  7  1  0
  7  8  1  0
  8  9  2  0
  9 10  1  0
 10 11  2  0
 11 12  1  0
 12 13  1  0
 13 14  1  0
 14 15  2  0
 15 16  1  0
 16 17  2  0
 17 18  1  0
 18 19  2  0
 11 20  1  0
 20  8  1  0
 19 14  1  0
  1 21  1  0
  1 22  1  0
  1 23  1  0
  2 24  1  0
  2 25  1  0
  3 26  1  0
  4 27  1  0
  4 28  1  0
  4 29  1  0
  7 30  1  0
 12 31  1  0
 12 32  1  0
 13 33  1  0
 13 34  1  0
 15 35  1  0
 16 36  1  0
 17 37  1  0
 18 38  1  0
 19 39  1  0
M  END
$$$$
