
     RDKit          3D

 39 40  0  0  0  0  0  0  0  0999 V2000
   -1.4200   -2.3725    1.8900 C   0  0  0  0  0  0  0  0  0  0  0  0
   -1.3527   -1.6331    0.5587 C   0  0  0  0  0  0  0  0  0  0  0  0
   -1.8507   -0.2983    0.7661 O   0  0  0  0  0  0  0  0  0  0  0  0
   -2.9125   -0.0065   -0.0506 C   0  0  0  0  0  0  0  0  0  0  0  0
   -4.1656   -0.5581    0.2314 C   0  0  0  0  0  0  0  0  0  0  0  0
   -5.2653   -0.2329   -0.5663 C   0  0  0  0  0  0  0  0  0  0  0  0
   -5.1022    0.6547   -1.6398 C   0  0  0  0  0  0  0  0  0  0  0  0
   -6.2610    1.0099   -2.4687 N   0  0  0  0  0  4  0  0  0  0  0  0
   -6.1326    1.9606   -3.2540 O   0  0  0  0  0  0  0  0  0  0  0  0
   -7.2963    0.3406   -2.3283 O   0  0  0  0  0  1  0  0  0  0  0  0
   -3.8522    1.2226   -1.9184 C   0  0  0  0  0  0  0  0  0  0  0  0
   -2.7625    0.8992   -1.1090 C   0  0  0  0  0  0  0  0  0  0  0  0
   -1.2402    1.6385   -1.4423 Cl  0  0  0  0  0  0  0  0  0  0  0  0
    0.1136   -1.5967    0.0900 C   0  0  0  0  0  0  0  0  0  0  0  0
    0.5993   -2.5465   -0.5200 O   0  0  0  0  0  0  0  0  0  0  0  0
    0.7735   -0.4445    0.4817 N   0  0  0  0  0  0  0  0  0  0  0  0
    2.1223   -0.1047    0.2726 C   0  0  0  0  0  0  0  0  0  0  0  0
    2.5233    1.1812    0.6504 C   0  0  0  0  0  0  0  0  0  0  0  0
    3.8517    1.5958    0.4902 C   0  0  0  0  0  0  0  0  0  0  0  0
    4.7966    0.7217   -0.0516 C   0  0  0  0  0  0  0  0  0  0  0  0
    6.2208    1.1101   -0.2422 C   0  0  0  0  0  0  0  0  0  0  0  0
    6.7105    2.1143    0.5510 N   0  0  0  0  0  0  0  0  0  0  0  0
    6.9454    0.5314   -1.0420 O   0  0  0  0  0  0  0  0  0  0  0  0
    4.3964   -0.5589   -0.4439 C   0  0  0  0  0  0  0  0  0  0  0  0
    3.0682   -0.9713   -0.2763 C   0  0  0  0  0  0  0  0  0  0  0  0
   -0.8727   -1.8316    2.6700 H   0  0  0  0  0  0  0  0  0  0  0  0
   -2.4560   -2.4588    2.2334 H   0  0  0  0  0  0  0  0  0  0  0  0
   -0.9949   -3.3787    1.8083 H   0  0  0  0  0  0  0  0  0  0  0  0
   -1.9233   -2.1762   -0.2070 H   0  0  0  0  0  0  0  0  0  0  0  0
   -4.2959   -1.2295    1.0765 H   0  0  0  0  0  0  0  0  0  0  0  0
   -6.2370   -0.6656   -0.3328 H   0  0  0  0  0  0  0  0  0  0  0  0
   -3.7230    1.9101   -2.7530 H   0  0  0  0  0  0  0  0  0  0  0  0
    0.1735    0.2730    0.8805 H   0  0  0  0  0  0  0  0  0  0  0  0
    1.8064    1.8849    1.0636 H   0  0  0  0  0  0  0  0  0  0  0  0
    4.1220    2.6118    0.7685 H   0  0  0  0  0  0  0  0  0  0  0  0
    7.7116    2.2595    0.4985 H   0  0  0  0  0  0  0  0  0  0  0  0
    6.2556    2.3728    1.4153 H   0  0  0  0  0  0  0  0  0  0  0  0
    5.1167   -1.2486   -0.8747 H   0  0  0  0  0  0  0  0  0  0  0  0
    2.8095   -1.9800   -0.5836 H   0  0  0  0  0  0  0  0  0  0  0  0
  1  2  1  0
  2  3  1  0
  3  4  1  0
  4  5  2  0
  5  6  1  0
  6  7  2  0
  7  8  1  0
  8  9  2  0
  8 10  1  0
  7 11  1  0
 11 12  2  0
 12 13  1  0
  2 14  1  0
 14 15  2  0
 14 16  1  0
 16 17  1  0
 17 18  2  0
 18 19  1  0
 19 20  2  0
 20 21  1  0
 21 22  1  0
 21 23  2  0
 20 24  1  0
 24 25  2  0
 12  4  1  0
 25 17  1  0
  1 26  1  0
  1 27  1  0
  1 28  1  0
  2 29  1  0
  5 30  1  0
  6 31  1  0
 11 32  1  0
 16 33  1  0
 18 34  1  0
 19 35  1  0
 22 36  1  0
 22 37  1  0
 24 38  1  0
 25 39  1  0
M  CHG  2   8   1  10  -1
M  END
$$$$
