
     RDKit          3D

 46 48  0  0  0  0  0  0  0  0999 V2000
    1.6998    2.3934    0.2018 C   0  0  0  0  0  0  0  0  0  0  0  0
    0.6413    2.5027   -0.8729 C   0  0  0  0  0  0  0  0  0  0  0  0
    1.0726    2.8863   -2.2433 C   0  0  0  0  0  0  0  0  0  0  0  0
    1.9642    2.2020   -2.9762 C   0  0  0  0  0  0  0  0  0  0  0  0
    2.6418    0.9604   -2.5875 C   0  0  0  0  0  0  0  0  0  0  0  0
    1.9210   -0.1716   -2.1864 C   0  0  0  0  0  0  0  0  0  0  0  0
    2.5900   -1.3438   -1.8281 C   0  0  0  0  0  0  0  0  0  0  0  0
    3.9811   -1.3984   -1.8819 C   0  0  0  0  0  0  0  0  0  0  0  0
    4.7050   -0.2825   -2.2982 C   0  0  0  0  0  0  0  0  0  0  0  0
    4.0377    0.8919   -2.6542 C   0  0  0  0  0  0  0  0  0  0  0  0
   -0.6320    2.3087   -0.6830 N   0  0  0  0  0  0  0  0  0  0  0  0
   -1.0563    1.9105    0.5495 N   0  0  0  0  0  0  0  0  0  0  0  0
   -2.3863    1.5922    0.7484 C   0  0  0  0  0  0  0  0  0  0  0  0
   -3.2908    1.7337   -0.0663 O   0  0  0  0  0  0  0  0  0  0  0  0
   -2.7289    1.0521    2.0954 C   0  0  0  0  0  0  0  0  0  0  0  0
   -1.7571    0.5230    3.1143 C   0  0  0  0  0  0  0  0  0  0  0  0
   -2.6613   -0.4506    2.3762 C   0  0  0  0  0  0  0  0  0  0  0  0
   -3.8182   -1.0539    3.1393 C   0  0  0  0  0  0  0  0  0  0  0  0
   -2.0022   -1.4097    1.3876 C   0  0  0  0  0  0  0  0  0  0  0  0
   -2.4801   -1.5602    0.0750 C   0  0  0  0  0  0  0  0  0  0  0  0
   -1.8851   -2.4494   -0.8243 C   0  0  0  0  0  0  0  0  0  0  0  0
   -0.8028   -3.2256   -0.4233 C   0  0  0  0  0  0  0  0  0  0  0  0
   -0.3161   -3.1103    0.8747 C   0  0  0  0  0  0  0  0  0  0  0  0
   -0.9124   -2.2148    1.7672 C   0  0  0  0  0  0  0  0  0  0  0  0
    2.6771    2.7192   -0.1646 H   0  0  0  0  0  0  0  0  0  0  0  0
    1.7751    1.3576    0.5444 H   0  0  0  0  0  0  0  0  0  0  0  0
    1.4311    3.0362    1.0452 H   0  0  0  0  0  0  0  0  0  0  0  0
    0.5621    3.7497   -2.6577 H   0  0  0  0  0  0  0  0  0  0  0  0
    2.2072    2.5625   -3.9740 H   0  0  0  0  0  0  0  0  0  0  0  0
    0.8332   -0.1518   -2.1496 H   0  0  0  0  0  0  0  0  0  0  0  0
    2.0213   -2.2139   -1.5115 H   0  0  0  0  0  0  0  0  0  0  0  0
    4.5001   -2.3128   -1.6064 H   0  0  0  0  0  0  0  0  0  0  0  0
    5.7896   -0.3278   -2.3484 H   0  0  0  0  0  0  0  0  0  0  0  0
    4.6172    1.7530   -2.9773 H   0  0  0  0  0  0  0  0  0  0  0  0
   -0.3765    1.6814    1.2587 H   0  0  0  0  0  0  0  0  0  0  0  0
   -3.5880    1.5784    2.5073 H   0  0  0  0  0  0  0  0  0  0  0  0
   -1.9685    0.7254    4.1600 H   0  0  0  0  0  0  0  0  0  0  0  0
   -0.6950    0.4911    2.9077 H   0  0  0  0  0  0  0  0  0  0  0  0
   -4.2283   -0.3555    3.8777 H   0  0  0  0  0  0  0  0  0  0  0  0
   -4.6274   -1.3280    2.4541 H   0  0  0  0  0  0  0  0  0  0  0  0
   -3.4989   -1.9541    3.6763 H   0  0  0  0  0  0  0  0  0  0  0  0
   -3.3316   -0.9688   -0.2608 H   0  0  0  0  0  0  0  0  0  0  0  0
   -2.2746   -2.5322   -1.8358 H   0  0  0  0  0  0  0  0  0  0  0  0
   -0.3456   -3.9223   -1.1201 H   0  0  0  0  0  0  0  0  0  0  0  0
    0.5220   -3.7216    1.1981 H   0  0  0  0  0  0  0  0  0  0  0  0
   -0.5267   -2.1518    2.7825 H   0  0  0  0  0  0  0  0  0  0  0  0
  1  2  1  0
  2  3  1  0
  3  4  2  3
  4  5  1  0
  5  6  2  0
  6  7  1  0
  7  8  2  0
  8  9  1  0
  9 10  2  0
  2 11  2  3
 11 12  1  0
 12 13  1  0
 13 14  2  0
 13 15  1  0
 15 16  1  0
 16 17  1  0
 17 18  1  0
 17 19  1  0
 19 20  2  0
 20 21  1  0
 21 22  2  0
 22 23  1  0
 23 24  2  0
 10  5  1  0
 17 15  1  0
 24 19  1  0
  1 25  1  0
  1 26  1  0
  1 27  1  0
  3 28  1  0
  4 29  1  0
  6 30  1  0
  7 31  1  0
  8 32  1  0
  9 33  1  0
 10 34  1  0
 12 35  1  0
 15 36  1  0
 16 37  1  0
 16 38  1  0
 18 39  1  0
 18 40  1  0
 18 41  1  0
 20 42  1  0
 21 43  1  0
 22 44  1  0
 23 45  1  0
 24 46  1  0
M  END
$$$$
