
     RDKit          3D

 41 43  0  0  0  0  0  0  0  0999 V2000
   -1.7961   -0.7862   -2.6295 O   0  0  0  0  0  0  0  0  0  0  0  0
   -1.5923   -0.4583   -1.4674 C   0  0  0  0  0  0  0  0  0  0  0  0
   -2.5430   -0.2175   -0.4952 N   0  0  0  0  0  0  0  0  0  0  0  0
   -3.9534   -0.2109   -0.6217 C   0  0  0  0  0  0  0  0  0  0  0  0
   -4.5819   -0.3460   -1.8674 C   0  0  0  0  0  0  0  0  0  0  0  0
   -5.9755   -0.3323   -1.9780 C   0  0  0  0  0  0  0  0  0  0  0  0
   -6.7576   -0.1815   -0.8449 C   0  0  0  0  0  0  0  0  0  0  0  0
   -8.1108   -0.1752   -1.0005 O   0  0  0  0  0  0  0  0  0  0  0  0
   -6.1684   -0.0402    0.4036 C   0  0  0  0  0  0  0  0  0  0  0  0
   -4.7652   -0.0506    0.5267 C   0  0  0  0  0  0  0  0  0  0  0  0
   -4.2533    0.1078    1.9173 C   0  0  0  0  0  0  0  0  0  0  0  0
   -4.9438    0.2043    2.9167 O   0  0  0  0  0  0  0  0  0  0  0  0
   -2.9097    0.1458    2.0255 O   0  0  0  0  0  0  0  0  0  0  0  0
   -0.1802   -0.3354   -1.0046 C   0  0  0  0  0  0  0  0  0  0  0  0
    0.2095    0.6284   -0.0687 C   0  0  0  0  0  0  0  0  0  0  0  0
    1.5483    0.7123    0.3309 C   0  0  0  0  0  0  0  0  0  0  0  0
    2.5127   -0.1557   -0.1994 C   0  0  0  0  0  0  0  0  0  0  0  0
    3.8330   -0.0008    0.2593 N   0  0  0  0  0  0  0  0  0  0  0  0
    4.9583   -0.7259   -0.0931 C   0  0  0  0  0  0  0  0  0  0  0  0
    4.9844   -1.6620   -0.8847 O   0  0  0  0  0  0  0  0  0  0  0  0
    6.1537   -0.2614    0.5899 C   0  0  0  0  0  0  0  0  0  0  0  0
    7.4649   -0.6938    0.5254 C   0  0  0  0  0  0  0  0  0  0  0  0
    8.2093    0.1249    1.4076 C   0  0  0  0  0  0  0  0  0  0  0  0
    7.3120    1.0084    1.9587 C   0  0  0  0  0  0  0  0  0  0  0  0
    6.0629    0.7864    1.4733 O   0  0  0  0  0  0  0  0  0  0  0  0
    2.1191   -1.1052   -1.1441 C   0  0  0  0  0  0  0  0  0  0  0  0
    0.7817   -1.1910   -1.5500 C   0  0  0  0  0  0  0  0  0  0  0  0
   -2.2106   -0.1016    0.4611 H   0  0  0  0  0  0  0  0  0  0  0  0
   -4.0129   -0.4598   -2.7855 H   0  0  0  0  0  0  0  0  0  0  0  0
   -6.4425   -0.4398   -2.9538 H   0  0  0  0  0  0  0  0  0  0  0  0
   -8.5326   -0.0815   -0.1301 H   0  0  0  0  0  0  0  0  0  0  0  0
   -6.7882    0.0793    1.2889 H   0  0  0  0  0  0  0  0  0  0  0  0
   -2.7784    0.2344    2.9968 H   0  0  0  0  0  0  0  0  0  0  0  0
   -0.5062    1.3380    0.3374 H   0  0  0  0  0  0  0  0  0  0  0  0
    1.8274    1.4732    1.0561 H   0  0  0  0  0  0  0  0  0  0  0  0
    4.0067    0.7345    0.9364 H   0  0  0  0  0  0  0  0  0  0  0  0
    7.8264   -1.5058   -0.0918 H   0  0  0  0  0  0  0  0  0  0  0  0
    9.2693    0.0774    1.6154 H   0  0  0  0  0  0  0  0  0  0  0  0
    7.4003    1.8145    2.6742 H   0  0  0  0  0  0  0  0  0  0  0  0
    2.8270   -1.7940   -1.5955 H   0  0  0  0  0  0  0  0  0  0  0  0
    0.4956   -1.9315   -2.2952 H   0  0  0  0  0  0  0  0  0  0  0  0
  1  2  2  0
  2  3  1  0
  3  4  1  0
  4  5  2  0
  5  6  1  0
  6  7  2  0
  7  8  1  0
  7  9  1  0
  9 10  2  0
 10 11  1  0
 11 12  2  0
 11 13  1  0
  2 14  1  0
 14 15  2  0
 15 16  1  0
 16 17  2  0
 17 18  1  0
 18 19  1  0
 19 20  2  0
 19 21  1  0
 21 22  2  0
 22 23  1  0
 23 24  2  0
 24 25  1  0
 17 26  1  0
 26 27  2  0
 10  4  1  0
 27 14  1  0
 25 21  1  0
  3 28  1  0
  5 29  1  0
  6 30  1  0
  8 31  1  0
  9 32  1  0
 13 33  1  0
 15 34  1  0
 16 35  1  0
 18 36  1  0
 22 37  1  0
 23 38  1  0
 24 39  1  0
 26 40  1  0
 27 41  1  0
M  END
$$$$
