
     RDKit          3D

 57 59  0  0  0  0  0  0  0  0999 V2000
   -0.8853   -3.0963   -0.5507 C   0  0  0  0  0  0  0  0  0  0  0  0
   -1.3888   -1.9136   -1.3723 C   0  0  0  0  0  0  0  0  0  0  0  0
   -2.5210   -1.2001   -0.7448 N   0  0  0  0  0  0  0  0  0  0  0  0
   -3.7355   -2.0422   -0.7023 C   0  0  0  0  0  0  0  0  0  0  0  0
   -4.7829   -1.5249    0.2816 C   0  0  0  0  0  0  0  0  0  0  0  0
   -2.7957    0.0722   -1.4594 C   0  0  0  0  0  0  0  0  0  0  0  0
   -1.7488    1.1901   -1.2787 C   0  0  0  0  0  0  0  0  0  0  0  0
   -1.6790    1.5664    0.1030 O   0  0  0  0  0  0  0  0  0  0  0  0
   -1.0526    2.7595    0.3697 C   0  0  0  0  0  0  0  0  0  0  0  0
   -1.3284    3.9294   -0.2510 C   0  0  0  0  0  0  0  0  0  0  0  0
   -0.6846    5.1837    0.2675 C   0  0  2  0  0  0  0  0  0  0  0  0
   -0.5626    6.2262   -0.6879 O   0  0  0  0  0  0  0  0  0  0  0  0
    0.3318    7.1246   -0.1494 C   0  0  0  0  0  0  0  0  0  0  0  0
    0.5258    8.2370   -0.6103 O   0  0  0  0  0  0  0  0  0  0  0  0
    1.2451    6.5005    1.2469 S   0  0  0  0  0  0  0  0  0  0  0  0
    0.7324    4.8691    0.7517 C   0  0  1  0  0  0  0  0  0  0  0  0
    0.7264    3.7607    1.7443 C   0  0  0  0  0  0  0  0  0  0  0  0
   -0.1249    2.7356    1.5118 C   0  0  0  0  0  0  0  0  0  0  0  0
   -0.0653    1.5884    2.4565 C   0  0  0  0  0  0  0  0  0  0  0  0
   -0.5917    1.6524    3.5630 O   0  0  0  0  0  0  0  0  0  0  0  0
    0.7135    0.3787    2.0676 C   0  0  0  0  0  0  0  0  0  0  0  0
    1.4415    0.2498    0.9460 C   0  0  0  0  0  0  0  0  0  0  0  0
    2.2542   -0.9264    0.5791 C   0  0  0  0  0  0  0  0  0  0  0  0
    3.1773   -0.8003   -0.4691 C   0  0  0  0  0  0  0  0  0  0  0  0
    3.9666   -1.8860   -0.8665 C   0  0  0  0  0  0  0  0  0  0  0  0
    3.8502   -3.1211   -0.2279 C   0  0  0  0  0  0  0  0  0  0  0  0
    4.6742   -4.0955   -0.7140 O   0  0  0  0  0  0  0  0  0  0  0  0
    4.5646   -5.3835   -0.1199 C   0  0  0  0  0  0  0  0  0  0  0  0
    2.9378   -3.2586    0.8150 C   0  0  0  0  0  0  0  0  0  0  0  0
    2.1422   -2.1723    1.2083 C   0  0  0  0  0  0  0  0  0  0  0  0
    0.0648   -3.4554   -0.9571 H   0  0  0  0  0  0  0  0  0  0  0  0
   -1.5794   -3.9424   -0.5732 H   0  0  0  0  0  0  0  0  0  0  0  0
   -0.7181   -2.8109    0.4925 H   0  0  0  0  0  0  0  0  0  0  0  0
   -0.5341   -1.2362   -1.4730 H   0  0  0  0  0  0  0  0  0  0  0  0
   -1.6492   -2.2511   -2.3817 H   0  0  0  0  0  0  0  0  0  0  0  0
   -3.4923   -3.0526   -0.3607 H   0  0  0  0  0  0  0  0  0  0  0  0
   -4.1764   -2.1460   -1.7023 H   0  0  0  0  0  0  0  0  0  0  0  0
   -5.2274   -0.5797   -0.0425 H   0  0  0  0  0  0  0  0  0  0  0  0
   -5.5983   -2.2532    0.3733 H   0  0  0  0  0  0  0  0  0  0  0  0
   -4.3491   -1.3819    1.2781 H   0  0  0  0  0  0  0  0  0  0  0  0
   -2.9284   -0.1227   -2.5323 H   0  0  0  0  0  0  0  0  0  0  0  0
   -3.7369    0.4960   -1.0983 H   0  0  0  0  0  0  0  0  0  0  0  0
   -0.7554    0.8775   -1.6159 H   0  0  0  0  0  0  0  0  0  0  0  0
   -2.0640    2.0308   -1.9088 H   0  0  0  0  0  0  0  0  0  0  0  0
   -2.0945    4.0216   -1.0154 H   0  0  0  0  0  0  0  0  0  0  0  0
   -1.3458    5.5497    1.0697 H   0  0  0  0  0  0  0  0  0  0  0  0
    1.3889    4.5833   -0.0831 H   0  0  0  0  0  0  0  0  0  0  0  0
    1.4221    3.7528    2.5806 H   0  0  0  0  0  0  0  0  0  0  0  0
    0.6603   -0.4035    2.8173 H   0  0  0  0  0  0  0  0  0  0  0  0
    1.4838    1.0667    0.2301 H   0  0  0  0  0  0  0  0  0  0  0  0
    3.3035    0.1457   -0.9911 H   0  0  0  0  0  0  0  0  0  0  0  0
    4.6830   -1.7633   -1.6771 H   0  0  0  0  0  0  0  0  0  0  0  0
    3.5733   -5.8138   -0.2990 H   0  0  0  0  0  0  0  0  0  0  0  0
    5.3063   -6.0360   -0.5957 H   0  0  0  0  0  0  0  0  0  0  0  0
    4.7868   -5.3487    0.9524 H   0  0  0  0  0  0  0  0  0  0  0  0
    2.8085   -4.1975    1.3473 H   0  0  0  0  0  0  0  0  0  0  0  0
    1.4316   -2.3328    2.0136 H   0  0  0  0  0  0  0  0  0  0  0  0
  1  2  1  0
  2  3  1  0
  3  4  1  0
  4  5  1  0
  3  6  1  0
  6  7  1  0
  7  8  1  0
  8  9  1  0
  9 10  2  0
 10 11  1  0
 11 12  1  0
 12 13  1  0
 13 14  2  0
 13 15  1  0
 15 16  1  0
 16 17  1  0
 17 18  2  0
 18 19  1  0
 19 20  2  0
 19 21  1  0
 21 22  2  0
 22 23  1  0
 23 24  2  0
 24 25  1  0
 25 26  2  0
 26 27  1  0
 27 28  1  0
 26 29  1  0
 29 30  2  0
 18  9  1  0
 30 23  1  0
 16 11  1  0
  1 31  1  0
  1 32  1  0
  1 33  1  0
  2 34  1  0
  2 35  1  0
  4 36  1  0
  4 37  1  0
  5 38  1  0
  5 39  1  0
  5 40  1  0
  6 41  1  0
  6 42  1  0
  7 43  1  0
  7 44  1  0
 10 45  1  0
 11 46  1  1
 16 47  1  6
 17 48  1  0
 21 49  1  0
 22 50  1  0
 24 51  1  0
 25 52  1  0
 28 53  1  0
 28 54  1  0
 28 55  1  0
 29 56  1  0
 30 57  1  0
M  END
$$$$
