
     RDKit          3D

 58 60  0  0  0  0  0  0  0  0999 V2000
    0.2846   -2.5894   -0.2197 C   0  0  0  0  0  0  0  0  0  0  0  0
   -1.0877   -2.0326    0.0562 C   0  0  0  0  0  0  0  0  0  0  0  0
   -2.1970   -2.6916   -0.5061 C   0  0  0  0  0  0  0  0  0  0  0  0
   -3.4905   -2.2193   -0.2966 C   0  0  0  0  0  0  0  0  0  0  0  0
   -3.6811   -1.0831    0.4859 C   0  0  0  0  0  0  0  0  0  0  0  0
   -5.3297   -0.5038    0.7976 S   0  0  0  0  0  6  0  0  0  0  0  0
   -6.2274   -1.6271    0.6241 O   0  0  0  0  0  0  0  0  0  0  0  0
   -5.3342    0.2589    2.0277 O   0  0  0  0  0  0  0  0  0  0  0  0
   -5.6047    0.5822   -0.4915 N   0  0  0  0  0  0  0  0  0  0  0  0
   -4.6626    1.7507   -0.5590 C   0  0  0  0  0  0  0  0  0  0  0  0
   -5.2501    2.8639   -1.4330 C   0  0  0  0  0  0  0  0  0  0  0  0
   -6.4764    3.4022   -0.9196 O   0  0  0  0  0  0  0  0  0  0  0  0
   -7.2223    2.4584   -0.1366 C   0  0  0  0  0  0  0  0  0  0  0  0
   -7.0388    1.0153   -0.6132 C   0  0  0  0  0  0  0  0  0  0  0  0
   -2.5941   -0.4224    1.0661 C   0  0  0  0  0  0  0  0  0  0  0  0
   -1.2893   -0.8681    0.8310 C   0  0  0  0  0  0  0  0  0  0  0  0
   -0.1691   -0.1977    1.3705 N   0  0  0  0  0  0  0  0  0  0  0  0
   -0.1342    1.0842    1.8957 C   0  0  0  0  0  0  0  0  0  0  0  0
   -1.0491    1.9030    1.8645 O   0  0  0  0  0  0  0  0  0  0  0  0
    1.2225    1.4380    2.5159 C   0  0  0  0  0  0  0  0  0  0  0  0
    2.1406    2.0196    1.5911 O   0  0  0  0  0  0  0  0  0  0  0  0
    2.7270    1.1440    0.7291 C   0  0  0  0  0  0  0  0  0  0  0  0
    2.4596   -0.0524    0.6683 O   0  0  0  0  0  0  0  0  0  0  0  0
    3.6936    1.8792   -0.1919 C   0  0  0  0  0  0  0  0  0  0  0  0
    4.5748    0.9474   -0.8778 N   0  0  0  0  0  0  0  0  0  0  0  0
    5.7089    0.4878   -0.2382 C   0  0  0  0  0  0  0  0  0  0  0  0
    6.0666    0.8989    0.8598 O   0  0  0  0  0  0  0  0  0  0  0  0
    6.4662   -0.5913   -0.9295 C   0  0  0  0  0  0  0  0  0  0  0  0
    6.4559   -0.7256   -2.3241 C   0  0  0  0  0  0  0  0  0  0  0  0
    7.1857   -1.7505   -2.9312 C   0  0  0  0  0  0  0  0  0  0  0  0
    7.9293   -2.6372   -2.1516 C   0  0  0  0  0  0  0  0  0  0  0  0
    7.9524   -2.4987   -0.7644 C   0  0  0  0  0  0  0  0  0  0  0  0
    7.2268   -1.4749   -0.1536 C   0  0  0  0  0  0  0  0  0  0  0  0
    0.2324   -3.5441   -0.7551 H   0  0  0  0  0  0  0  0  0  0  0  0
    0.8576   -1.8925   -0.8394 H   0  0  0  0  0  0  0  0  0  0  0  0
    0.8185   -2.7776    0.7174 H   0  0  0  0  0  0  0  0  0  0  0  0
   -2.0577   -3.5837   -1.1139 H   0  0  0  0  0  0  0  0  0  0  0  0
   -4.3375   -2.7424   -0.7355 H   0  0  0  0  0  0  0  0  0  0  0  0
   -3.7170    1.4169   -0.9966 H   0  0  0  0  0  0  0  0  0  0  0  0
   -4.4767    2.1451    0.4459 H   0  0  0  0  0  0  0  0  0  0  0  0
   -4.5400    3.6923   -1.5168 H   0  0  0  0  0  0  0  0  0  0  0  0
   -5.4444    2.4958   -2.4468 H   0  0  0  0  0  0  0  0  0  0  0  0
   -6.9155    2.5684    0.9099 H   0  0  0  0  0  0  0  0  0  0  0  0
   -8.2769    2.7447   -0.2004 H   0  0  0  0  0  0  0  0  0  0  0  0
   -7.3108    0.9276   -1.6719 H   0  0  0  0  0  0  0  0  0  0  0  0
   -7.7074    0.3536   -0.0540 H   0  0  0  0  0  0  0  0  0  0  0  0
   -2.7880    0.4331    1.7065 H   0  0  0  0  0  0  0  0  0  0  0  0
    0.7459   -0.6170    1.2023 H   0  0  0  0  0  0  0  0  0  0  0  0
    1.0429    2.1713    3.3099 H   0  0  0  0  0  0  0  0  0  0  0  0
    1.6645    0.5612    3.0056 H   0  0  0  0  0  0  0  0  0  0  0  0
    4.2916    2.5856    0.3920 H   0  0  0  0  0  0  0  0  0  0  0  0
    3.1171    2.4122   -0.9525 H   0  0  0  0  0  0  0  0  0  0  0  0
    4.1548    0.3433   -1.5727 H   0  0  0  0  0  0  0  0  0  0  0  0
    5.9111   -0.0264   -2.9519 H   0  0  0  0  0  0  0  0  0  0  0  0
    7.1856   -1.8520   -4.0136 H   0  0  0  0  0  0  0  0  0  0  0  0
    8.5007   -3.4315   -2.6264 H   0  0  0  0  0  0  0  0  0  0  0  0
    8.5394   -3.1843   -0.1579 H   0  0  0  0  0  0  0  0  0  0  0  0
    7.2534   -1.3676    0.9289 H   0  0  0  0  0  0  0  0  0  0  0  0
  1  2  1  0
  2  3  2  0
  3  4  1  0
  4  5  2  0
  5  6  1  0
  6  7  2  0
  6  8  2  0
  6  9  1  0
  9 10  1  0
 10 11  1  0
 11 12  1  0
 12 13  1  0
 13 14  1  0
  5 15  1  0
 15 16  2  0
 16 17  1  0
 17 18  1  0
 18 19  2  0
 18 20  1  0
 20 21  1  0
 21 22  1  0
 22 23  2  0
 22 24  1  0
 24 25  1  0
 25 26  1  0
 26 27  2  0
 26 28  1  0
 28 29  2  0
 29 30  1  0
 30 31  2  0
 31 32  1  0
 32 33  2  0
 16  2  1  0
 33 28  1  0
 14  9  1  0
  1 34  1  0
  1 35  1  0
  1 36  1  0
  3 37  1  0
  4 38  1  0
 10 39  1  0
 10 40  1  0
 11 41  1  0
 11 42  1  0
 13 43  1  0
 13 44  1  0
 14 45  1  0
 14 46  1  0
 15 47  1  0
 17 48  1  0
 20 49  1  0
 20 50  1  0
 24 51  1  0
 24 52  1  0
 25 53  1  0
 29 54  1  0
 30 55  1  0
 31 56  1  0
 32 57  1  0
 33 58  1  0
M  END
$$$$
