
     RDKit          3D

 52 51  0  0  0  0  0  0  0  0999 V2000
   -2.4642    2.0519   -2.4643 C   0  0  0  0  0  0  0  0  0  0  0  0
   -3.0326    1.0920   -2.0117 C   0  0  0  0  0  0  0  0  0  0  0  0
   -3.7346   -0.0702   -1.4560 C   0  0  0  0  0  0  0  0  0  0  0  0
   -4.2851    0.2061   -0.0468 N   0  0  0  0  0  4  0  0  0  0  0  0
   -4.9316   -1.0776    0.4724 C   0  0  0  0  0  0  0  0  0  0  0  0
   -5.3959    1.2666   -0.1584 C   0  0  0  0  0  0  0  0  0  0  0  0
   -3.2426    0.7447    0.9503 C   0  0  0  0  0  0  0  0  0  0  0  0
   -2.1399   -0.2243    1.3945 C   0  0  0  0  0  0  0  0  0  0  0  0
   -0.9426   -0.3366    0.4457 C   0  0  0  0  0  0  0  0  0  0  0  0
    0.2156   -1.1564    1.0331 C   0  0  0  0  0  0  0  0  0  0  0  0
    0.8966   -0.5653    2.2744 C   0  0  0  0  0  0  0  0  0  0  0  0
    1.4259    0.8642    2.1260 C   0  0  0  0  0  0  0  0  0  0  0  0
    2.4459    1.1083    1.0039 C   0  0  0  0  0  0  0  0  0  0  0  0
    3.8273    0.4838    1.2417 C   0  0  0  0  0  0  0  0  0  0  0  0
    4.0402   -0.9287    0.6855 C   0  0  0  0  0  0  0  0  0  0  0  0
    3.8899   -1.0861   -0.8308 C   0  0  0  0  0  0  0  0  0  0  0  0
    4.8616   -0.2263   -1.6370 C   0  0  0  0  0  0  0  0  0  0  0  0
    4.7377   -0.5046   -3.1276 C   0  0  0  0  0  0  0  0  0  0  0  0
   -1.9351    2.8897   -2.8657 H   0  0  0  0  0  0  0  0  0  0  0  0
   -3.0906   -0.9522   -1.3976 H   0  0  0  0  0  0  0  0  0  0  0  0
   -4.5906   -0.3350   -2.0860 H   0  0  0  0  0  0  0  0  0  0  0  0
   -5.8033   -1.3034   -0.1506 H   0  0  0  0  0  0  0  0  0  0  0  0
   -4.2067   -1.8953    0.3987 H   0  0  0  0  0  0  0  0  0  0  0  0
   -5.2378   -0.9193    1.5110 H   0  0  0  0  0  0  0  0  0  0  0  0
   -4.9489    2.2276   -0.4307 H   0  0  0  0  0  0  0  0  0  0  0  0
   -6.1141    0.9444   -0.9176 H   0  0  0  0  0  0  0  0  0  0  0  0
   -5.8921    1.3475    0.8147 H   0  0  0  0  0  0  0  0  0  0  0  0
   -2.8218    1.6700    0.5435 H   0  0  0  0  0  0  0  0  0  0  0  0
   -3.8168    1.0238    1.8431 H   0  0  0  0  0  0  0  0  0  0  0  0
   -1.7722    0.1713    2.3509 H   0  0  0  0  0  0  0  0  0  0  0  0
   -2.5349   -1.2194    1.6246 H   0  0  0  0  0  0  0  0  0  0  0  0
   -1.2431   -0.8381   -0.4789 H   0  0  0  0  0  0  0  0  0  0  0  0
   -0.5897    0.6628    0.1584 H   0  0  0  0  0  0  0  0  0  0  0  0
   -0.1518   -2.1608    1.2853 H   0  0  0  0  0  0  0  0  0  0  0  0
    0.9641   -1.3015    0.2462 H   0  0  0  0  0  0  0  0  0  0  0  0
    0.1913   -0.5844    3.1158 H   0  0  0  0  0  0  0  0  0  0  0  0
    1.7138   -1.2283    2.5782 H   0  0  0  0  0  0  0  0  0  0  0  0
    1.8691    1.1694    3.0841 H   0  0  0  0  0  0  0  0  0  0  0  0
    0.5781    1.5438    1.9700 H   0  0  0  0  0  0  0  0  0  0  0  0
    2.5912    2.1973    0.9547 H   0  0  0  0  0  0  0  0  0  0  0  0
    2.0347    0.8256    0.0314 H   0  0  0  0  0  0  0  0  0  0  0  0
    4.0436    0.4746    2.3168 H   0  0  0  0  0  0  0  0  0  0  0  0
    4.5820    1.1439    0.7981 H   0  0  0  0  0  0  0  0  0  0  0  0
    5.0505   -1.2545    0.9659 H   0  0  0  0  0  0  0  0  0  0  0  0
    3.3570   -1.6282    1.1747 H   0  0  0  0  0  0  0  0  0  0  0  0
    2.8622   -0.8649   -1.1381 H   0  0  0  0  0  0  0  0  0  0  0  0
    4.0604   -2.1425   -1.0768 H   0  0  0  0  0  0  0  0  0  0  0  0
    4.6639    0.8375   -1.4646 H   0  0  0  0  0  0  0  0  0  0  0  0
    5.8921   -0.4275   -1.3193 H   0  0  0  0  0  0  0  0  0  0  0  0
    3.7240   -0.2908   -3.4816 H   0  0  0  0  0  0  0  0  0  0  0  0
    5.4313    0.1254   -3.6890 H   0  0  0  0  0  0  0  0  0  0  0  0
    4.9688   -1.5500   -3.3525 H   0  0  0  0  0  0  0  0  0  0  0  0
  1  2  3  0
  2  3  1  0
  3  4  1  0
  4  5  1  0
  4  6  1  0
  4  7  1  0
  7  8  1  0
  8  9  1  0
  9 10  1  0
 10 11  1  0
 11 12  1  0
 12 13  1  0
 13 14  1  0
 14 15  1  0
 15 16  1  0
 16 17  1  0
 17 18  1  0
  1 19  1  0
  3 20  1  0
  3 21  1  0
  5 22  1  0
  5 23  1  0
  5 24  1  0
  6 25  1  0
  6 26  1  0
  6 27  1  0
  7 28  1  0
  7 29  1  0
  8 30  1  0
  8 31  1  0
  9 32  1  0
  9 33  1  0
 10 34  1  0
 10 35  1  0
 11 36  1  0
 11 37  1  0
 12 38  1  0
 12 39  1  0
 13 40  1  0
 13 41  1  0
 14 42  1  0
 14 43  1  0
 15 44  1  0
 15 45  1  0
 16 46  1  0
 16 47  1  0
 17 48  1  0
 17 49  1  0
 18 50  1  0
 18 51  1  0
 18 52  1  0
M  CHG  1   4   1
M  END
$$$$
