
     RDKit          3D

 55 58  0  0  0  0  0  0  0  0999 V2000
    7.6548    3.0495   -0.2431 C   0  0  0  0  0  0  0  0  0  0  0  0
    7.3571    1.6649   -0.3533 O   0  0  0  0  0  0  0  0  0  0  0  0
    6.0486    1.2803   -0.1992 C   0  0  0  0  0  0  0  0  0  0  0  0
    4.9886    2.1618    0.0338 C   0  0  0  0  0  0  0  0  0  0  0  0
    3.6864    1.6764    0.1731 C   0  0  0  0  0  0  0  0  0  0  0  0
    3.4292    0.3061    0.0697 C   0  0  0  0  0  0  0  0  0  0  0  0
    2.0224   -0.1639    0.2202 C   0  0  0  0  0  0  0  0  0  0  0  0
    1.6012   -1.3220   -0.6322 C   0  0  0  0  0  0  0  0  0  0  0  0
    0.3301   -1.7444   -0.4840 C   0  0  0  0  0  0  0  0  0  0  0  0
   -0.2626   -2.8621   -1.2523 C   0  0  0  0  0  0  0  0  0  0  0  0
   -1.3234   -2.4781   -2.0053 F   0  0  0  0  0  0  0  0  0  0  0  0
   -0.6642   -3.8898   -0.4648 F   0  0  0  0  0  0  0  0  0  0  0  0
    0.6395   -3.3949   -2.1254 F   0  0  0  0  0  0  0  0  0  0  0  0
   -0.5071   -1.1019    0.4202 N   0  0  0  0  0  0  0  0  0  0  0  0
   -1.8006   -1.3772    0.7084 N   0  0  0  0  0  0  0  0  0  0  0  0
   -2.1784   -0.4651    1.6200 C   0  0  0  0  0  0  0  0  0  0  0  0
   -3.5108   -0.4129    2.2611 C   0  0  0  0  0  0  0  0  0  0  0  0
   -3.6152    0.1256    3.3664 O   0  0  0  0  0  0  0  0  0  0  0  0
   -4.6351   -0.9739    1.6310 N   0  0  0  0  0  0  0  0  0  0  0  0
   -5.8815   -0.9182    2.3773 C   0  0  0  0  0  0  0  0  0  0  0  0
   -4.7578   -1.1851    0.1858 C   0  0  0  0  0  0  0  0  0  0  0  0
   -5.1571    0.0686   -0.5616 C   0  0  0  0  0  0  0  0  0  0  0  0
   -4.1830    0.9469   -1.0582 C   0  0  0  0  0  0  0  0  0  0  0  0
   -4.5531    2.1114   -1.7329 C   0  0  0  0  0  0  0  0  0  0  0  0
   -5.9006    2.4115   -1.9201 C   0  0  0  0  0  0  0  0  0  0  0  0
   -6.8793    1.5470   -1.4342 C   0  0  0  0  0  0  0  0  0  0  0  0
   -6.5107    0.3820   -0.7589 C   0  0  0  0  0  0  0  0  0  0  0  0
   -1.0958    0.3918    1.9404 C   0  0  0  0  0  0  0  0  0  0  0  0
   -0.0430   -0.0142    1.1600 C   0  0  0  0  0  0  0  0  0  0  0  0
    1.2323    0.4575    1.0493 N   0  0  0  0  0  0  0  0  0  0  0  0
    4.4882   -0.5859   -0.1427 C   0  0  0  0  0  0  0  0  0  0  0  0
    5.7968   -0.1056   -0.2815 C   0  0  0  0  0  0  0  0  0  0  0  0
    6.8940   -0.9020   -0.5025 O   0  0  0  0  0  0  0  0  0  0  0  0
    6.7122   -2.3116   -0.4781 C   0  0  0  0  0  0  0  0  0  0  0  0
    7.1513    3.6247   -1.0274 H   0  0  0  0  0  0  0  0  0  0  0  0
    7.4023    3.4298    0.7519 H   0  0  0  0  0  0  0  0  0  0  0  0
    8.7334    3.1724   -0.3818 H   0  0  0  0  0  0  0  0  0  0  0  0
    5.1400    3.2332    0.1150 H   0  0  0  0  0  0  0  0  0  0  0  0
    2.8738    2.3766    0.3596 H   0  0  0  0  0  0  0  0  0  0  0  0
    2.2856   -1.7608   -1.3471 H   0  0  0  0  0  0  0  0  0  0  0  0
   -5.7019   -1.0627    3.4474 H   0  0  0  0  0  0  0  0  0  0  0  0
   -6.3481    0.0594    2.2293 H   0  0  0  0  0  0  0  0  0  0  0  0
   -6.5542   -1.7103    2.0360 H   0  0  0  0  0  0  0  0  0  0  0  0
   -5.5108   -1.9673    0.0218 H   0  0  0  0  0  0  0  0  0  0  0  0
   -3.8479   -1.5906   -0.2536 H   0  0  0  0  0  0  0  0  0  0  0  0
   -3.1263    0.7273   -0.9286 H   0  0  0  0  0  0  0  0  0  0  0  0
   -3.7889    2.7850   -2.1126 H   0  0  0  0  0  0  0  0  0  0  0  0
   -6.1879    3.3196   -2.4442 H   0  0  0  0  0  0  0  0  0  0  0  0
   -7.9308    1.7810   -1.5798 H   0  0  0  0  0  0  0  0  0  0  0  0
   -7.2885   -0.2800   -0.3849 H   0  0  0  0  0  0  0  0  0  0  0  0
   -1.0926    1.2022    2.6559 H   0  0  0  0  0  0  0  0  0  0  0  0
    4.2886   -1.6500   -0.1750 H   0  0  0  0  0  0  0  0  0  0  0  0
    7.6916   -2.7788   -0.6232 H   0  0  0  0  0  0  0  0  0  0  0  0
    6.0633   -2.6389   -1.2982 H   0  0  0  0  0  0  0  0  0  0  0  0
    6.3257   -2.6442    0.4918 H   0  0  0  0  0  0  0  0  0  0  0  0
  1  2  1  0
  2  3  1  0
  3  4  2  0
  4  5  1  0
  5  6  2  0
  6  7  1  0
  7  8  1  0
  8  9  2  0
  9 10  1  0
 10 11  1  0
 10 12  1  0
 10 13  1  0
  9 14  1  0
 14 15  1  0
 15 16  2  0
 16 17  1  0
 17 18  2  0
 17 19  1  0
 19 20  1  0
 19 21  1  0
 21 22  1  0
 22 23  2  0
 23 24  1  0
 24 25  2  0
 25 26  1  0
 26 27  2  0
 16 28  1  0
 28 29  2  0
 29 30  1  0
  6 31  1  0
 31 32  2  0
 32 33  1  0
 33 34  1  0
 32  3  1  0
 30  7  2  0
 29 14  1  0
 27 22  1  0
  1 35  1  0
  1 36  1  0
  1 37  1  0
  4 38  1  0
  5 39  1  0
  8 40  1  0
 20 41  1  0
 20 42  1  0
 20 43  1  0
 21 44  1  0
 21 45  1  0
 23 46  1  0
 24 47  1  0
 25 48  1  0
 26 49  1  0
 27 50  1  0
 28 51  1  0
 31 52  1  0
 34 53  1  0
 34 54  1  0
 34 55  1  0
M  END
$$$$
