
     RDKit          3D

 56 61  0  0  0  0  0  0  0  0999 V2000
    8.3609    1.6169   -0.6390 C   0  0  0  0  0  0  0  0  0  0  0  0
    6.9123    1.2423   -0.5094 C   0  0  0  0  0  0  0  0  0  0  0  0
    6.4097    0.1075   -1.1555 C   0  0  0  0  0  0  0  0  0  0  0  0
    5.0578   -0.2339   -1.0492 C   0  0  0  0  0  0  0  0  0  0  0  0
    4.1879    0.5665   -0.3067 C   0  0  0  0  0  0  0  0  0  0  0  0
    2.6715    0.1829   -0.1662 C   0  0  0  0  0  0  0  0  0  0  0  0
    1.6767    0.9474    0.4331 C   0  0  0  0  0  0  0  0  0  0  0  0
    0.4625    0.2632    0.3451 N   0  0  0  0  0  4  0  0  0  0  0  0
   -0.8574    0.7305    0.8201 C   0  0  0  0  0  0  0  0  0  0  0  0
   -1.9207    0.6538   -0.2998 C   0  0  0  0  0  0  0  0  0  0  0  0
   -1.5339    0.6819   -1.4715 O   0  0  0  0  0  0  0  0  0  0  0  0
   -3.2394    0.3853    0.1164 N   0  0  0  0  0  0  0  0  0  0  0  0
   -4.1721   -0.2923   -0.7542 C   0  0  0  0  0  0  0  0  0  0  0  0
   -4.1519   -0.0829   -2.1450 C   0  0  0  0  0  0  0  0  0  0  0  0
   -5.0470   -0.7383   -2.9966 C   0  0  0  0  0  0  0  0  0  0  0  0
   -5.9859   -1.6210   -2.4758 C   0  0  0  0  0  0  0  0  0  0  0  0
   -6.0239   -1.8531   -1.1033 C   0  0  0  0  0  0  0  0  0  0  0  0
   -5.1274   -1.1969   -0.2459 C   0  0  0  0  0  0  0  0  0  0  0  0
   -5.1826   -1.6275    1.4788 S   0  0  0  0  0  0  0  0  0  0  0  0
   -4.6039   -0.0919    2.1446 C   0  0  0  0  0  0  0  0  0  0  0  0
   -5.0279    0.2742    3.4292 C   0  0  0  0  0  0  0  0  0  0  0  0
   -4.6148    1.4771    3.9958 C   0  0  0  0  0  0  0  0  0  0  0  0
   -3.7868    2.3297    3.2749 C   0  0  0  0  0  0  0  0  0  0  0  0
   -3.3516    1.9635    1.9995 C   0  0  0  0  0  0  0  0  0  0  0  0
   -3.7243    0.7324    1.4258 C   0  0  0  0  0  0  0  0  0  0  0  0
    0.6956   -0.8779   -0.2979 C   0  0  0  0  0  0  0  0  0  0  0  0
    1.9958   -0.9518   -0.5770 N   0  0  0  0  0  0  0  0  0  0  0  0
    2.3379   -2.2090   -1.2276 C   0  0  0  0  0  0  0  0  0  0  0  0
    1.0739   -3.0865   -1.0007 C   0  0  0  0  0  0  0  0  0  0  0  0
   -0.0624   -2.0802   -0.7260 C   0  0  0  0  0  0  0  0  0  0  0  0
    4.6785    1.7189    0.3153 C   0  0  0  0  0  0  0  0  0  0  0  0
    6.0323    2.0544    0.2113 C   0  0  0  0  0  0  0  0  0  0  0  0
    8.9848    0.7260   -0.7613 H   0  0  0  0  0  0  0  0  0  0  0  0
    8.7100    2.1361    0.2579 H   0  0  0  0  0  0  0  0  0  0  0  0
    8.5057    2.2728   -1.5051 H   0  0  0  0  0  0  0  0  0  0  0  0
    7.0726   -0.5208   -1.7480 H   0  0  0  0  0  0  0  0  0  0  0  0
    4.7195   -1.1171   -1.5774 H   0  0  0  0  0  0  0  0  0  0  0  0
    1.6784    1.9137    0.9082 H   0  0  0  0  0  0  0  0  0  0  0  0
   -0.7478    1.7710    1.1477 H   0  0  0  0  0  0  0  0  0  0  0  0
   -1.1236    0.0876    1.6628 H   0  0  0  0  0  0  0  0  0  0  0  0
   -3.4678    0.6248   -2.6068 H   0  0  0  0  0  0  0  0  0  0  0  0
   -5.0124   -0.5512   -4.0680 H   0  0  0  0  0  0  0  0  0  0  0  0
   -6.6853   -2.1292   -3.1349 H   0  0  0  0  0  0  0  0  0  0  0  0
   -6.7554   -2.5581   -0.7081 H   0  0  0  0  0  0  0  0  0  0  0  0
   -5.6966   -0.3734    3.9957 H   0  0  0  0  0  0  0  0  0  0  0  0
   -4.9622    1.7603    4.9873 H   0  0  0  0  0  0  0  0  0  0  0  0
   -3.4997    3.2906    3.6998 H   0  0  0  0  0  0  0  0  0  0  0  0
   -2.7754    2.6958    1.4402 H   0  0  0  0  0  0  0  0  0  0  0  0
    3.2227   -2.6634   -0.7702 H   0  0  0  0  0  0  0  0  0  0  0  0
    2.5005   -2.0212   -2.2932 H   0  0  0  0  0  0  0  0  0  0  0  0
    0.8613   -3.7528   -1.8401 H   0  0  0  0  0  0  0  0  0  0  0  0
    1.2288   -3.7061   -0.1067 H   0  0  0  0  0  0  0  0  0  0  0  0
   -0.6059   -1.8113   -1.6345 H   0  0  0  0  0  0  0  0  0  0  0  0
   -0.7322   -2.3873    0.0793 H   0  0  0  0  0  0  0  0  0  0  0  0
    4.0407    2.3758    0.8995 H   0  0  0  0  0  0  0  0  0  0  0  0
    6.3999    2.9525    0.7036 H   0  0  0  0  0  0  0  0  0  0  0  0
  1  2  1  0
  2  3  2  0
  3  4  1  0
  4  5  2  0
  5  6  1  0
  6  7  2  0
  7  8  1  0
  8  9  1  0
  9 10  1  0
 10 11  2  0
 10 12  1  0
 12 13  1  0
 13 14  2  0
 14 15  1  0
 15 16  2  0
 16 17  1  0
 17 18  2  0
 18 19  1  0
 19 20  1  0
 20 21  2  0
 21 22  1  0
 22 23  2  0
 23 24  1  0
 24 25  2  0
  8 26  2  0
 26 27  1  0
 27 28  1  0
 28 29  1  0
 29 30  1  0
  5 31  1  0
 31 32  2  0
 32  2  1  0
 27  6  1  0
 25 12  1  0
 30 26  1  0
 18 13  1  0
 25 20  1  0
  1 33  1  0
  1 34  1  0
  1 35  1  0
  3 36  1  0
  4 37  1  0
  7 38  1  0
  9 39  1  0
  9 40  1  0
 14 41  1  0
 15 42  1  0
 16 43  1  0
 17 44  1  0
 21 45  1  0
 22 46  1  0
 23 47  1  0
 24 48  1  0
 28 49  1  0
 28 50  1  0
 29 51  1  0
 29 52  1  0
 30 53  1  0
 30 54  1  0
 31 55  1  0
 32 56  1  0
M  CHG  1   8   1
M  END
$$$$
