
     RDKit          3D

 53 55  0  0  0  0  0  0  0  0999 V2000
   -8.0430   -3.8041    2.1376 C   0  0  0  0  0  0  0  0  0  0  0  0
   -7.0029   -3.2686    2.9460 O   0  0  0  0  0  0  0  0  0  0  0  0
   -6.0480   -2.5212    2.3136 C   0  0  0  0  0  0  0  0  0  0  0  0
   -5.9759   -2.2742    0.9402 C   0  0  0  0  0  0  0  0  0  0  0  0
   -4.9403   -1.4913    0.4190 C   0  0  0  0  0  0  0  0  0  0  0  0
   -3.9755   -0.9617    1.2788 C   0  0  0  0  0  0  0  0  0  0  0  0
   -2.6521    0.0316    0.6344 S   0  0  0  0  0  6  0  0  0  0  0  0
   -2.5139    1.1794    1.5021 O   0  0  0  0  0  0  0  0  0  0  0  0
   -2.8483    0.1810   -0.7914 O   0  0  0  0  0  0  0  0  0  0  0  0
   -1.3103   -0.9676    0.8677 N   0  0  0  0  0  0  0  0  0  0  0  0
   -1.2901   -2.2483    0.1480 C   0  0  0  0  0  0  0  0  0  0  0  0
    0.1712   -2.6168    0.2321 C   0  0  0  0  0  0  0  0  0  0  0  0
    0.8685   -1.3774    0.0915 O   0  0  0  0  0  0  0  0  0  0  0  0
   -0.0166   -0.3211    0.5429 C   0  0  0  0  0  0  0  0  0  0  0  0
    0.6056    0.3407    1.7919 C   0  0  0  0  0  0  0  0  0  0  0  0
    1.9581    0.8276    1.5759 N   0  0  0  0  0  0  0  0  0  0  0  0
    2.2106    1.9054    0.7603 C   0  0  0  0  0  0  0  0  0  0  0  0
    1.3694    2.6407    0.2636 O   0  0  0  0  0  0  0  0  0  0  0  0
    3.7106    2.1263    0.4609 C   0  0  0  0  0  0  0  0  0  0  0  0
    4.5464    1.3505    0.9025 O   0  0  0  0  0  0  0  0  0  0  0  0
    3.9513    3.2249   -0.3289 N   0  0  0  0  0  0  0  0  0  0  0  0
    5.2524    3.5138   -0.8706 C   0  0  0  0  0  0  0  0  0  0  0  0
    5.4042    2.9248   -2.2501 C   0  0  0  0  0  0  0  0  0  0  0  0
    5.8507    1.6024   -2.4090 C   0  0  0  0  0  0  0  0  0  0  0  0
    5.9705    1.0451   -3.6827 C   0  0  0  0  0  0  0  0  0  0  0  0
    5.6375    1.8056   -4.7966 C   0  0  0  0  0  0  0  0  0  0  0  0
    5.7528    1.2706   -6.0194 F   0  0  0  0  0  0  0  0  0  0  0  0
    5.1829    3.1121   -4.6615 C   0  0  0  0  0  0  0  0  0  0  0  0
    5.0619    3.6720   -3.3885 C   0  0  0  0  0  0  0  0  0  0  0  0
   -4.0427   -1.1930    2.6535 C   0  0  0  0  0  0  0  0  0  0  0  0
   -5.0787   -1.9768    3.1634 C   0  0  0  0  0  0  0  0  0  0  0  0
   -8.6139   -3.0077    1.6491 H   0  0  0  0  0  0  0  0  0  0  0  0
   -7.6460   -4.5137    1.4043 H   0  0  0  0  0  0  0  0  0  0  0  0
   -8.7279   -4.3509    2.7928 H   0  0  0  0  0  0  0  0  0  0  0  0
   -6.7115   -2.6731    0.2489 H   0  0  0  0  0  0  0  0  0  0  0  0
   -4.8991   -1.2994   -0.6511 H   0  0  0  0  0  0  0  0  0  0  0  0
   -1.5829   -2.1140   -0.8985 H   0  0  0  0  0  0  0  0  0  0  0  0
   -1.9234   -3.0037    0.6181 H   0  0  0  0  0  0  0  0  0  0  0  0
    0.4244   -3.0404    1.2105 H   0  0  0  0  0  0  0  0  0  0  0  0
    0.4816   -3.3157   -0.5490 H   0  0  0  0  0  0  0  0  0  0  0  0
   -0.1046    0.3870   -0.2878 H   0  0  0  0  0  0  0  0  0  0  0  0
   -0.0070    1.1816    2.1305 H   0  0  0  0  0  0  0  0  0  0  0  0
    0.6717   -0.3845    2.6109 H   0  0  0  0  0  0  0  0  0  0  0  0
    2.7446    0.2044    1.7402 H   0  0  0  0  0  0  0  0  0  0  0  0
    3.1318    3.6900   -0.7093 H   0  0  0  0  0  0  0  0  0  0  0  0
    5.3612    4.6034   -0.9073 H   0  0  0  0  0  0  0  0  0  0  0  0
    6.0347    3.1308   -0.2050 H   0  0  0  0  0  0  0  0  0  0  0  0
    6.1010    1.0007   -1.5363 H   0  0  0  0  0  0  0  0  0  0  0  0
    6.3164    0.0247   -3.8109 H   0  0  0  0  0  0  0  0  0  0  0  0
    4.9230    3.6837   -5.5467 H   0  0  0  0  0  0  0  0  0  0  0  0
    4.6984    4.6925   -3.2900 H   0  0  0  0  0  0  0  0  0  0  0  0
   -3.3012   -0.7681    3.3259 H   0  0  0  0  0  0  0  0  0  0  0  0
   -5.1377   -2.1620    4.2337 H   0  0  0  0  0  0  0  0  0  0  0  0
  1  2  1  0
  2  3  1  0
  3  4  2  0
  4  5  1  0
  5  6  2  0
  6  7  1  0
  7  8  2  0
  7  9  2  0
  7 10  1  0
 10 11  1  0
 11 12  1  0
 12 13  1  0
 13 14  1  0
 14 15  1  0
 15 16  1  0
 16 17  1  0
 17 18  2  0
 17 19  1  0
 19 20  2  0
 19 21  1  0
 21 22  1  0
 22 23  1  0
 23 24  2  0
 24 25  1  0
 25 26  2  0
 26 27  1  0
 26 28  1  0
 28 29  2  0
  6 30  1  0
 30 31  2  0
 31  3  1  0
 14 10  1  0
 29 23  1  0
  1 32  1  0
  1 33  1  0
  1 34  1  0
  4 35  1  0
  5 36  1  0
 11 37  1  0
 11 38  1  0
 12 39  1  0
 12 40  1  0
 14 41  1  0
 15 42  1  0
 15 43  1  0
 16 44  1  0
 21 45  1  0
 22 46  1  0
 22 47  1  0
 24 48  1  0
 25 49  1  0
 28 50  1  0
 29 51  1  0
 30 52  1  0
 31 53  1  0
M  END
$$$$
