
     RDKit          3D

 50 52  0  0  0  0  0  0  0  0999 V2000
    2.4265   -3.0691   -0.1403 C   0  0  0  0  0  0  0  0  0  0  0  0
    1.4839   -1.8753   -0.1877 C   0  0  0  0  0  0  0  0  0  0  0  0
    1.9448   -0.8673   -1.1554 N   0  0  0  0  0  4  0  0  0  0  0  0
    1.4864   -0.7701   -2.3989 C   0  0  0  0  0  0  0  0  0  0  0  0
    0.4223   -1.4817   -3.0143 C   0  0  0  0  0  0  0  0  0  0  0  0
   -0.8593   -1.3907   -2.6146 C   0  0  0  0  0  0  0  0  0  0  0  0
   -1.3345   -0.5826   -1.5113 C   0  0  0  0  0  0  0  0  0  0  0  0
   -2.5163   -0.7544   -0.9007 C   0  0  0  0  0  0  0  0  0  0  0  0
   -2.9225   -0.0950    0.2691 N   0  0  0  0  0  0  0  0  0  0  0  0
   -1.9626    0.4993    1.1220 C   0  0  0  0  0  0  0  0  0  0  0  0
   -2.4305    1.6448    1.9965 C   0  0  0  0  0  0  0  0  0  0  0  0
   -0.7654    0.1783    1.1460 O   0  0  0  0  0  0  0  0  0  0  0  0
   -4.3021   -0.2065    0.6768 C   0  0  0  0  0  0  0  0  0  0  0  0
   -5.3299   -0.1237   -0.2771 C   0  0  0  0  0  0  0  0  0  0  0  0
   -6.6696   -0.2425    0.1029 C   0  0  0  0  0  0  0  0  0  0  0  0
   -6.9997   -0.4620    1.4372 C   0  0  0  0  0  0  0  0  0  0  0  0
   -5.9925   -0.5648    2.3925 C   0  0  0  0  0  0  0  0  0  0  0  0
   -4.6528   -0.4397    2.0150 C   0  0  0  0  0  0  0  0  0  0  0  0
    2.3653    0.4093   -3.2862 S   0  0  0  0  0  0  0  0  0  0  0  0
    3.2963    0.8505   -1.9113 C   0  0  0  0  0  0  0  0  0  0  0  0
    4.2896    1.8356   -1.8038 C   0  0  0  0  0  0  0  0  0  0  0  0
    4.9333    2.0155   -0.5748 C   0  0  0  0  0  0  0  0  0  0  0  0
    5.8823    2.9982   -0.5821 O   0  0  0  0  0  0  0  0  0  0  0  0
    6.6914    3.1412    0.5807 C   0  0  0  0  0  0  0  0  0  0  0  0
    4.5789    1.2328    0.5202 C   0  0  0  0  0  0  0  0  0  0  0  0
    3.5827    0.2489    0.4081 C   0  0  0  0  0  0  0  0  0  0  0  0
    2.9343    0.0560   -0.8291 C   0  0  0  0  0  0  0  0  0  0  0  0
    2.4795   -3.5589   -1.1179 H   0  0  0  0  0  0  0  0  0  0  0  0
    3.4414   -2.7663    0.1348 H   0  0  0  0  0  0  0  0  0  0  0  0
    2.0774   -3.8020    0.5932 H   0  0  0  0  0  0  0  0  0  0  0  0
    0.4846   -2.2389   -0.4322 H   0  0  0  0  0  0  0  0  0  0  0  0
    1.4010   -1.4165    0.8027 H   0  0  0  0  0  0  0  0  0  0  0  0
    0.6560   -2.0857   -3.8900 H   0  0  0  0  0  0  0  0  0  0  0  0
   -1.6089   -1.9768   -3.1480 H   0  0  0  0  0  0  0  0  0  0  0  0
   -0.6634    0.1910   -1.1495 H   0  0  0  0  0  0  0  0  0  0  0  0
   -3.2300   -1.4760   -1.2954 H   0  0  0  0  0  0  0  0  0  0  0  0
   -1.6686    2.4308    1.9692 H   0  0  0  0  0  0  0  0  0  0  0  0
   -2.5451    1.3052    3.0281 H   0  0  0  0  0  0  0  0  0  0  0  0
   -3.3597    2.0924    1.6367 H   0  0  0  0  0  0  0  0  0  0  0  0
   -5.1085    0.0728   -1.3232 H   0  0  0  0  0  0  0  0  0  0  0  0
   -7.4573   -0.1581   -0.6420 H   0  0  0  0  0  0  0  0  0  0  0  0
   -8.0427   -0.5565    1.7319 H   0  0  0  0  0  0  0  0  0  0  0  0
   -6.2502   -0.7519    3.4324 H   0  0  0  0  0  0  0  0  0  0  0  0
   -3.8965   -0.5737    2.7839 H   0  0  0  0  0  0  0  0  0  0  0  0
    4.5641    2.4511   -2.6580 H   0  0  0  0  0  0  0  0  0  0  0  0
    6.0932    3.4665    1.4384 H   0  0  0  0  0  0  0  0  0  0  0  0
    7.2285    2.2140    0.8038 H   0  0  0  0  0  0  0  0  0  0  0  0
    7.4358    3.9172    0.3770 H   0  0  0  0  0  0  0  0  0  0  0  0
    5.0570    1.3668    1.4882 H   0  0  0  0  0  0  0  0  0  0  0  0
    3.3319   -0.3316    1.2915 H   0  0  0  0  0  0  0  0  0  0  0  0
  1  2  1  0
  2  3  1  0
  3  4  2  0
  4  5  1  0
  5  6  2  3
  6  7  1  0
  7  8  2  3
  8  9  1  0
  9 10  1  0
 10 11  1  0
 10 12  2  0
  9 13  1  0
 13 14  2  0
 14 15  1  0
 15 16  2  0
 16 17  1  0
 17 18  2  0
  4 19  1  0
 19 20  1  0
 20 21  2  0
 21 22  1  0
 22 23  1  0
 23 24  1  0
 22 25  2  0
 25 26  1  0
 26 27  2  0
 27  3  1  0
 18 13  1  0
 27 20  1  0
  1 28  1  0
  1 29  1  0
  1 30  1  0
  2 31  1  0
  2 32  1  0
  5 33  1  0
  6 34  1  0
  7 35  1  0
  8 36  1  0
 11 37  1  0
 11 38  1  0
 11 39  1  0
 14 40  1  0
 15 41  1  0
 16 42  1  0
 17 43  1  0
 18 44  1  0
 21 45  1  0
 24 46  1  0
 24 47  1  0
 24 48  1  0
 25 49  1  0
 26 50  1  0
M  CHG  1   3   1
M  END
$$$$
