
     RDKit          3D

 46 49  0  0  0  0  0  0  0  0999 V2000
   -4.2620   -3.4792   -1.8323 C   0  0  0  0  0  0  0  0  0  0  0  0
   -3.0197   -2.8037   -1.6800 O   0  0  0  0  0  0  0  0  0  0  0  0
   -3.0518   -1.5692   -1.0953 C   0  0  0  0  0  0  0  0  0  0  0  0
   -4.1855   -0.9013   -0.6495 C   0  0  0  0  0  0  0  0  0  0  0  0
   -4.0706    0.3635   -0.0612 C   0  0  0  0  0  0  0  0  0  0  0  0
   -2.8202    0.9805    0.0861 C   0  0  0  0  0  0  0  0  0  0  0  0
   -2.6434    2.2007    0.6899 O   0  0  0  0  0  0  0  0  0  0  0  0
   -3.7898    2.8666    1.2025 C   0  0  0  0  0  0  0  0  0  0  0  0
   -1.6577    0.3244   -0.3759 C   0  0  0  0  0  0  0  0  0  0  0  0
   -0.3104    0.9098   -0.2724 C   0  0  0  0  0  0  0  0  0  0  0  0
   -0.1579    2.2174   -0.5754 N   0  0  0  0  0  0  0  0  0  0  0  0
    1.0988    2.7158   -0.4906 C   0  0  0  0  0  0  0  0  0  0  0  0
    1.2684    4.1611   -0.8038 C   0  0  0  0  0  0  0  0  0  0  0  0
    0.1176    4.8322   -1.1174 N   0  0  0  0  0  0  0  0  0  0  0  0
    2.3597    4.7164   -0.7798 O   0  0  0  0  0  0  0  0  0  0  0  0
    2.1609    1.9388   -0.1390 C   0  0  0  0  0  0  0  0  0  0  0  0
    3.5136    2.2029   -0.0022 N   0  0  0  0  0  0  0  0  0  0  0  0
    4.1653    1.0193    0.3677 C   0  0  0  0  0  0  0  0  0  0  0  0
    5.3681    0.9545    0.5616 O   0  0  0  0  0  0  0  0  0  0  0  0
    3.1566    0.0104    0.4609 N   0  0  0  0  0  0  0  0  0  0  0  0
    3.3428   -1.3586    0.7993 C   0  0  0  0  0  0  0  0  0  0  0  0
    2.2730   -2.2447    1.0204 C   0  0  0  0  0  0  0  0  0  0  0  0
    2.4868   -3.5904    1.3498 C   0  0  0  0  0  0  0  0  0  0  0  0
    3.7791   -4.0727    1.4663 C   0  0  0  0  0  0  0  0  0  0  0  0
    3.9842   -5.3581    1.7803 F   0  0  0  0  0  0  0  0  0  0  0  0
    4.8597   -3.2328    1.2619 C   0  0  0  0  0  0  0  0  0  0  0  0
    4.6404   -1.8885    0.9332 C   0  0  0  0  0  0  0  0  0  0  0  0
    1.9142    0.6162    0.1377 C   0  0  0  0  0  0  0  0  0  0  0  0
    0.6956    0.0717    0.0680 N   0  0  0  0  0  0  0  0  0  0  0  0
   -1.8054   -0.9557   -0.9549 C   0  0  0  0  0  0  0  0  0  0  0  0
   -4.0612   -4.4465   -2.3029 H   0  0  0  0  0  0  0  0  0  0  0  0
   -4.7285   -3.6715   -0.8605 H   0  0  0  0  0  0  0  0  0  0  0  0
   -4.9356   -2.9214   -2.4912 H   0  0  0  0  0  0  0  0  0  0  0  0
   -5.1765   -1.3346   -0.7378 H   0  0  0  0  0  0  0  0  0  0  0  0
   -4.9852    0.8387    0.2790 H   0  0  0  0  0  0  0  0  0  0  0  0
   -3.4559    3.8071    1.6511 H   0  0  0  0  0  0  0  0  0  0  0  0
   -4.4940    3.1129    0.4013 H   0  0  0  0  0  0  0  0  0  0  0  0
   -4.2716    2.2762    1.9887 H   0  0  0  0  0  0  0  0  0  0  0  0
   -0.7724    4.3436   -1.1048 H   0  0  0  0  0  0  0  0  0  0  0  0
    0.1531    5.8197   -1.3256 H   0  0  0  0  0  0  0  0  0  0  0  0
    3.9622    3.0991   -0.1522 H   0  0  0  0  0  0  0  0  0  0  0  0
    1.2380   -1.9271    0.9652 H   0  0  0  0  0  0  0  0  0  0  0  0
    1.6463   -4.2564    1.5178 H   0  0  0  0  0  0  0  0  0  0  0  0
    5.8698   -3.6193    1.3550 H   0  0  0  0  0  0  0  0  0  0  0  0
    5.5254   -1.2791    0.7738 H   0  0  0  0  0  0  0  0  0  0  0  0
   -0.9244   -1.4887   -1.3127 H   0  0  0  0  0  0  0  0  0  0  0  0
  1  2  1  0
  2  3  1  0
  3  4  2  0
  4  5  1  0
  5  6  2  0
  6  7  1  0
  7  8  1  0
  6  9  1  0
  9 10  1  0
 10 11  2  0
 11 12  1  0
 12 13  1  0
 13 14  1  0
 13 15  2  0
 12 16  2  0
 16 17  1  0
 17 18  1  0
 18 19  2  0
 18 20  1  0
 20 21  1  0
 21 22  2  0
 22 23  1  0
 23 24  2  0
 24 25  1  0
 24 26  1  0
 26 27  2  0
 20 28  1  0
 28 29  2  0
  9 30  2  0
 30  3  1  0
 29 10  1  0
 28 16  1  0
 27 21  1  0
  1 31  1  0
  1 32  1  0
  1 33  1  0
  4 34  1  0
  5 35  1  0
  8 36  1  0
  8 37  1  0
  8 38  1  0
 14 39  1  0
 14 40  1  0
 17 41  1  0
 22 42  1  0
 23 43  1  0
 26 44  1  0
 27 45  1  0
 30 46  1  0
M  END
$$$$
