
     RDKit          3D

 57 60  0  0  0  0  0  0  0  0999 V2000
   -3.9270   -3.2216    0.2985 C   0  0  0  0  0  0  0  0  0  0  0  0
   -4.7597   -2.0518    0.8185 C   0  0  0  0  0  0  0  0  0  0  0  0
   -6.2095   -2.5034    1.0153 C   0  0  0  0  0  0  0  0  0  0  0  0
   -4.6912   -0.8690   -0.1541 C   0  0  0  0  0  0  0  0  0  0  0  0
   -5.6546   -0.5870   -0.8704 O   0  0  0  0  0  0  0  0  0  0  0  0
   -3.5076   -0.1491   -0.2387 N   0  0  0  0  0  0  0  0  0  0  0  0
   -3.4132    0.9104   -1.2520 C   0  0  0  0  0  0  0  0  0  0  0  0
   -1.9645    1.2097   -1.6725 C   0  0  0  0  0  0  0  0  0  0  0  0
   -1.0667    1.4922   -0.5222 N   0  0  0  0  0  0  0  0  0  0  0  0
   -0.5742    2.8270   -0.4756 C   0  0  0  0  0  0  0  0  0  0  0  0
   -1.4194    3.9453   -0.5275 C   0  0  0  0  0  0  0  0  0  0  0  0
   -0.8939    5.2360   -0.4446 C   0  0  0  0  0  0  0  0  0  0  0  0
    0.4800    5.4230   -0.3057 C   0  0  0  0  0  0  0  0  0  0  0  0
    1.3384    4.3231   -0.2493 C   0  0  0  0  0  0  0  0  0  0  0  0
    0.8213    3.0303   -0.3323 C   0  0  0  0  0  0  0  0  0  0  0  0
    1.6102    1.8612   -0.3105 N   0  0  0  0  0  0  0  0  0  0  0  0
    2.9657    1.7471   -0.1004 C   0  0  0  0  0  0  0  0  0  0  0  0
    3.7410    2.6514    0.1861 O   0  0  0  0  0  0  0  0  0  0  0  0
    3.4988    0.3582   -0.2001 C   0  0  0  0  0  0  0  0  0  0  0  0
    2.9653   -0.5749   -1.1023 C   0  0  0  0  0  0  0  0  0  0  0  0
    3.5005   -1.8637   -1.1727 C   0  0  0  0  0  0  0  0  0  0  0  0
    4.5709   -2.2175   -0.3535 C   0  0  0  0  0  0  0  0  0  0  0  0
    5.0962   -1.2930    0.5556 C   0  0  0  0  0  0  0  0  0  0  0  0
    4.5766   -0.0018    0.6187 C   0  0  0  0  0  0  0  0  0  0  0  0
    6.1300   -1.5836    1.4085 O   0  0  0  0  0  0  0  0  0  0  0  0
    6.3611   -2.9944    1.4929 C   0  0  0  0  0  0  0  0  0  0  0  0
    6.3503   -3.6241    0.1101 C   0  0  0  0  0  0  0  0  0  0  0  0
    5.0579   -3.4915   -0.4947 O   0  0  0  0  0  0  0  0  0  0  0  0
   -1.5998    1.0903    0.8040 C   0  0  0  0  0  0  0  0  0  0  0  0
   -2.3809   -0.2340    0.7035 C   0  0  0  0  0  0  0  0  0  0  0  0
   -4.0104   -4.0863    0.9656 H   0  0  0  0  0  0  0  0  0  0  0  0
   -2.8667   -2.9670    0.2216 H   0  0  0  0  0  0  0  0  0  0  0  0
   -4.2596   -3.5287   -0.6996 H   0  0  0  0  0  0  0  0  0  0  0  0
   -4.3923   -1.7377    1.7991 H   0  0  0  0  0  0  0  0  0  0  0  0
   -6.6486   -2.8662    0.0795 H   0  0  0  0  0  0  0  0  0  0  0  0
   -6.2683   -3.3114    1.7523 H   0  0  0  0  0  0  0  0  0  0  0  0
   -6.8298   -1.6748    1.3740 H   0  0  0  0  0  0  0  0  0  0  0  0
   -3.8791    1.8043   -0.8201 H   0  0  0  0  0  0  0  0  0  0  0  0
   -3.9973    0.6319   -2.1361 H   0  0  0  0  0  0  0  0  0  0  0  0
   -1.5604    0.3189   -2.1705 H   0  0  0  0  0  0  0  0  0  0  0  0
   -1.9472    2.0100   -2.4227 H   0  0  0  0  0  0  0  0  0  0  0  0
   -2.4942    3.8254   -0.6196 H   0  0  0  0  0  0  0  0  0  0  0  0
   -1.5567    6.0966   -0.4850 H   0  0  0  0  0  0  0  0  0  0  0  0
    0.8898    6.4281   -0.2418 H   0  0  0  0  0  0  0  0  0  0  0  0
    2.4043    4.5030   -0.1497 H   0  0  0  0  0  0  0  0  0  0  0  0
    1.0429    1.0254   -0.4146 H   0  0  0  0  0  0  0  0  0  0  0  0
    2.1588   -0.3044   -1.7788 H   0  0  0  0  0  0  0  0  0  0  0  0
    3.0991   -2.5838   -1.8808 H   0  0  0  0  0  0  0  0  0  0  0  0
    5.0028    0.7191    1.3129 H   0  0  0  0  0  0  0  0  0  0  0  0
    5.5926   -3.4349    2.1401 H   0  0  0  0  0  0  0  0  0  0  0  0
    7.3353   -3.1429    1.9690 H   0  0  0  0  0  0  0  0  0  0  0  0
    7.0937   -3.1588   -0.5492 H   0  0  0  0  0  0  0  0  0  0  0  0
    6.5766   -4.6929    0.1784 H   0  0  0  0  0  0  0  0  0  0  0  0
   -2.2683    1.8614    1.2102 H   0  0  0  0  0  0  0  0  0  0  0  0
   -0.7679    0.9616    1.5070 H   0  0  0  0  0  0  0  0  0  0  0  0
   -2.7355   -0.5172    1.6967 H   0  0  0  0  0  0  0  0  0  0  0  0
   -1.7155   -1.0233    0.3362 H   0  0  0  0  0  0  0  0  0  0  0  0
  1  2  1  0
  2  3  1  0
  2  4  1  0
  4  5  2  0
  4  6  1  0
  6  7  1  0
  7  8  1  0
  8  9  1  0
  9 10  1  0
 10 11  2  0
 11 12  1  0
 12 13  2  0
 13 14  1  0
 14 15  2  0
 15 16  1  0
 16 17  1  0
 17 18  2  0
 17 19  1  0
 19 20  2  0
 20 21  1  0
 21 22  2  0
 22 23  1  0
 23 24  2  0
 23 25  1  0
 25 26  1  0
 26 27  1  0
 27 28  1  0
  9 29  1  0
 29 30  1  0
 30  6  1  0
 15 10  1  0
 24 19  1  0
 28 22  1  0
  1 31  1  0
  1 32  1  0
  1 33  1  0
  2 34  1  0
  3 35  1  0
  3 36  1  0
  3 37  1  0
  7 38  1  0
  7 39  1  0
  8 40  1  0
  8 41  1  0
 11 42  1  0
 12 43  1  0
 13 44  1  0
 14 45  1  0
 16 46  1  0
 20 47  1  0
 21 48  1  0
 24 49  1  0
 26 50  1  0
 26 51  1  0
 27 52  1  0
 27 53  1  0
 29 54  1  0
 29 55  1  0
 30 56  1  0
 30 57  1  0
M  END
$$$$
