
     RDKit          3D

 43 46  0  0  0  0  0  0  0  0999 V2000
    6.5646    1.0124   -1.4300 C   0  0  0  0  0  0  0  0  0  0  0  0
    5.1075    0.8981   -1.0874 C   0  0  0  0  0  0  0  0  0  0  0  0
    4.6973    0.1722    0.0348 C   0  0  0  0  0  0  0  0  0  0  0  0
    3.3430    0.0890    0.3745 C   0  0  0  0  0  0  0  0  0  0  0  0
    2.3837    0.7431   -0.3990 C   0  0  0  0  0  0  0  0  0  0  0  0
    0.8590    0.6559   -0.0312 C   0  0  0  0  0  0  0  0  0  0  0  0
   -0.1960    1.1986   -0.7559 C   0  0  0  0  0  0  0  0  0  0  0  0
   -1.3977    0.8711   -0.1258 N   0  0  0  0  0  4  0  0  0  0  0  0
   -2.7424    1.2412   -0.5607 C   0  0  0  0  0  0  0  0  0  0  0  0
   -3.5571   -0.0043   -0.7964 C   0  0  0  0  0  0  0  0  0  0  0  0
   -4.8033   -0.1693   -0.1716 C   0  0  0  0  0  0  0  0  0  0  0  0
   -5.5597   -1.3237   -0.3891 C   0  0  0  0  0  0  0  0  0  0  0  0
   -5.0839   -2.3240   -1.2361 C   0  0  0  0  0  0  0  0  0  0  0  0
   -3.8553   -2.1638   -1.8695 C   0  0  0  0  0  0  0  0  0  0  0  0
   -3.2593   -3.3935   -2.9123 Cl  0  0  0  0  0  0  0  0  0  0  0  0
   -3.0962   -1.0121   -1.6600 C   0  0  0  0  0  0  0  0  0  0  0  0
   -1.0937    0.1698    0.9618 C   0  0  0  0  0  0  0  0  0  0  0  0
    0.2283    0.0498    1.0405 N   0  0  0  0  0  0  0  0  0  0  0  0
    0.6359   -0.6946    2.2237 C   0  0  0  0  0  0  0  0  0  0  0  0
   -0.6616   -0.7595    3.0760 C   0  0  0  0  0  0  0  0  0  0  0  0
   -1.8077   -0.4852    2.0824 C   0  0  0  0  0  0  0  0  0  0  0  0
    2.7900    1.4794   -1.5179 C   0  0  0  0  0  0  0  0  0  0  0  0
    4.1447    1.5606   -1.8539 C   0  0  0  0  0  0  0  0  0  0  0  0
    7.0011    1.8781   -0.9225 H   0  0  0  0  0  0  0  0  0  0  0  0
    7.1088    0.1119   -1.1265 H   0  0  0  0  0  0  0  0  0  0  0  0
    6.7038    1.1271   -2.5101 H   0  0  0  0  0  0  0  0  0  0  0  0
    5.4356   -0.3393    0.6510 H   0  0  0  0  0  0  0  0  0  0  0  0
    3.0804   -0.5034    1.2408 H   0  0  0  0  0  0  0  0  0  0  0  0
   -0.2462    1.7718   -1.6662 H   0  0  0  0  0  0  0  0  0  0  0  0
   -2.6896    1.8311   -1.4821 H   0  0  0  0  0  0  0  0  0  0  0  0
   -3.1813    1.8693    0.2225 H   0  0  0  0  0  0  0  0  0  0  0  0
   -5.2066    0.5987    0.4874 H   0  0  0  0  0  0  0  0  0  0  0  0
   -6.5271   -1.4434    0.0959 H   0  0  0  0  0  0  0  0  0  0  0  0
   -5.6787   -3.2192   -1.4035 H   0  0  0  0  0  0  0  0  0  0  0  0
   -2.1426   -0.9056   -2.1726 H   0  0  0  0  0  0  0  0  0  0  0  0
    0.9585   -1.6940    1.9178 H   0  0  0  0  0  0  0  0  0  0  0  0
    1.4310   -0.1733    2.7613 H   0  0  0  0  0  0  0  0  0  0  0  0
   -0.7740   -1.7093    3.6056 H   0  0  0  0  0  0  0  0  0  0  0  0
   -0.6361    0.0421    3.8236 H   0  0  0  0  0  0  0  0  0  0  0  0
   -2.2422   -1.4050    1.6855 H   0  0  0  0  0  0  0  0  0  0  0  0
   -2.5661    0.1959    2.4698 H   0  0  0  0  0  0  0  0  0  0  0  0
    2.0837    2.0102   -2.1490 H   0  0  0  0  0  0  0  0  0  0  0  0
    4.4473    2.1452   -2.7216 H   0  0  0  0  0  0  0  0  0  0  0  0
  1  2  1  0
  2  3  2  0
  3  4  1  0
  4  5  2  0
  5  6  1  0
  6  7  2  0
  7  8  1  0
  8  9  1  0
  9 10  1  0
 10 11  2  0
 11 12  1  0
 12 13  2  0
 13 14  1  0
 14 15  1  0
 14 16  2  0
  8 17  2  0
 17 18  1  0
 18 19  1  0
 19 20  1  0
 20 21  1  0
  5 22  1  0
 22 23  2  0
 23  2  1  0
 18  6  1  0
 16 10  1  0
 21 17  1  0
  1 24  1  0
  1 25  1  0
  1 26  1  0
  3 27  1  0
  4 28  1  0
  7 29  1  0
  9 30  1  0
  9 31  1  0
 11 32  1  0
 12 33  1  0
 13 34  1  0
 16 35  1  0
 19 36  1  0
 19 37  1  0
 20 38  1  0
 20 39  1  0
 21 40  1  0
 21 41  1  0
 22 42  1  0
 23 43  1  0
M  CHG  1   8   1
M  END
$$$$
