
     RDKit          3D

 56 60  0  0  0  0  0  0  0  0999 V2000
   -6.1321   -0.8963    0.6258 C   0  0  0  0  0  0  0  0  0  0  0  0
   -5.3749    0.3116    0.3585 N   0  0  0  0  0  0  0  0  0  0  0  0
   -4.6454    1.0414    1.2538 C   0  0  0  0  0  0  0  0  0  0  0  0
   -4.5891    0.7204    2.9477 S   0  0  0  0  0  0  0  0  0  0  0  0
   -2.8804    1.2213    3.2972 C   0  0  0  0  0  0  0  0  0  0  0  0
   -1.8523    0.2759    2.6804 C   0  0  0  0  0  0  0  0  0  0  0  0
   -2.1497   -0.8217    2.2196 O   0  0  0  0  0  0  0  0  0  0  0  0
   -0.5650    0.8000    2.7590 N   0  0  0  0  0  0  0  0  0  0  0  0
    0.6358    0.2063    2.3067 C   0  0  0  0  0  0  0  0  0  0  0  0
    1.8195    0.8997    2.5746 C   0  0  0  0  0  0  0  0  0  0  0  0
    3.0677    0.3973    2.1749 C   0  0  0  0  0  0  0  0  0  0  0  0
    3.1357   -0.8255    1.4840 C   0  0  0  0  0  0  0  0  0  0  0  0
    4.2932   -1.4385    1.0230 N   0  0  0  0  0  0  0  0  0  0  0  0
    3.9799   -2.5575    0.4094 C   0  0  0  0  0  0  0  0  0  0  0  0
    5.1881   -3.5953   -0.3162 S   0  0  0  0  0  0  0  0  0  0  0  0
    6.7238   -2.7583    0.1181 C   0  0  0  0  0  0  0  0  0  0  0  0
    6.9487   -1.5384   -0.7506 C   0  0  0  0  0  0  0  0  0  0  0  0
    7.4532   -1.6074   -1.8750 O   0  0  0  0  0  0  0  0  0  0  0  0
    6.5655   -0.3473   -0.1436 N   0  0  0  0  0  0  0  0  0  0  0  0
    6.6878    0.9159   -0.8084 C   0  0  0  0  0  0  0  0  0  0  0  0
    6.7036    2.1874   -0.0055 C   0  0  0  0  0  0  0  0  0  0  0  0
    7.9529    1.7264   -0.6920 C   0  0  0  0  0  0  0  0  0  0  0  0
    2.3148   -2.9489    0.3533 S   0  0  0  0  0  0  0  0  0  0  0  0
    1.9484   -1.5047    1.2144 C   0  0  0  0  0  0  0  0  0  0  0  0
    0.6915   -1.0100    1.6161 C   0  0  0  0  0  0  0  0  0  0  0  0
   -4.0302    2.0228    0.6376 N   0  0  0  0  0  0  0  0  0  0  0  0
   -4.3775    1.9497   -0.6910 N   0  0  0  0  0  0  0  0  0  0  0  0
   -5.1818    0.9194   -0.8601 C   0  0  0  0  0  0  0  0  0  0  0  0
   -5.7882    0.4969   -2.1149 C   0  0  0  0  0  0  0  0  0  0  0  0
   -5.1134   -0.3998   -2.9615 C   0  0  0  0  0  0  0  0  0  0  0  0
   -5.7115   -0.8249   -4.1540 C   0  0  0  0  0  0  0  0  0  0  0  0
   -6.9765   -0.3541   -4.5114 C   0  0  0  0  0  0  0  0  0  0  0  0
   -7.6433    0.5543   -3.6830 C   0  0  0  0  0  0  0  0  0  0  0  0
   -7.0481    0.9797   -2.4888 C   0  0  0  0  0  0  0  0  0  0  0  0
   -5.5046   -1.6082    1.1701 H   0  0  0  0  0  0  0  0  0  0  0  0
   -6.4498   -1.3623   -0.3138 H   0  0  0  0  0  0  0  0  0  0  0  0
   -7.0069   -0.6283    1.2243 H   0  0  0  0  0  0  0  0  0  0  0  0
   -2.7366    1.2149    4.3779 H   0  0  0  0  0  0  0  0  0  0  0  0
   -2.7085    2.2386    2.9379 H   0  0  0  0  0  0  0  0  0  0  0  0
   -0.4717    1.7115    3.1920 H   0  0  0  0  0  0  0  0  0  0  0  0
    1.7958    1.8446    3.1141 H   0  0  0  0  0  0  0  0  0  0  0  0
    3.9729    0.9498    2.3958 H   0  0  0  0  0  0  0  0  0  0  0  0
    7.5621   -3.4494   -0.0495 H   0  0  0  0  0  0  0  0  0  0  0  0
    6.7404   -2.4952    1.1742 H   0  0  0  0  0  0  0  0  0  0  0  0
    5.8222   -0.4280    0.5618 H   0  0  0  0  0  0  0  0  0  0  0  0
    6.1740    0.9514   -1.7704 H   0  0  0  0  0  0  0  0  0  0  0  0
    6.6706    2.1157    1.0801 H   0  0  0  0  0  0  0  0  0  0  0  0
    6.1843    3.0481   -0.4122 H   0  0  0  0  0  0  0  0  0  0  0  0
    8.7542    1.3272   -0.0904 H   0  0  0  0  0  0  0  0  0  0  0  0
    8.2877    2.2744   -1.5707 H   0  0  0  0  0  0  0  0  0  0  0  0
   -0.1992   -1.5758    1.3695 H   0  0  0  0  0  0  0  0  0  0  0  0
   -4.1233   -0.7615   -2.6956 H   0  0  0  0  0  0  0  0  0  0  0  0
   -5.1913   -1.5193   -4.8101 H   0  0  0  0  0  0  0  0  0  0  0  0
   -7.4376   -0.6826   -5.4433 H   0  0  0  0  0  0  0  0  0  0  0  0
   -8.6214    0.9352   -3.9730 H   0  0  0  0  0  0  0  0  0  0  0  0
   -7.5641    1.7012   -1.8531 H   0  0  0  0  0  0  0  0  0  0  0  0
  1  2  1  0
  2  3  1  0
  3  4  1  0
  4  5  1  0
  5  6  1  0
  6  7  2  0
  6  8  1  0
  8  9  1  0
  9 10  2  0
 10 11  1  0
 11 12  2  0
 12 13  1  0
 13 14  2  0
 14 15  1  0
 15 16  1  0
 16 17  1  0
 17 18  2  0
 17 19  1  0
 19 20  1  0
 20 21  1  0
 21 22  1  0
 14 23  1  0
 23 24  1  0
 24 25  2  0
  3 26  2  0
 26 27  1  0
 27 28  2  0
 28 29  1  0
 29 30  2  0
 30 31  1  0
 31 32  2  0
 32 33  1  0
 33 34  2  0
 28  2  1  0
 34 29  1  0
 25  9  1  0
 24 12  1  0
 22 20  1  0
  1 35  1  0
  1 36  1  0
  1 37  1  0
  5 38  1  0
  5 39  1  0
  8 40  1  0
 10 41  1  0
 11 42  1  0
 16 43  1  0
 16 44  1  0
 19 45  1  0
 20 46  1  0
 21 47  1  0
 21 48  1  0
 22 49  1  0
 22 50  1  0
 25 51  1  0
 30 52  1  0
 31 53  1  0
 32 54  1  0
 33 55  1  0
 34 56  1  0
M  END
$$$$
