
     RDKit          3D

 59 62  0  0  0  0  0  0  0  0999 V2000
   -8.3313    3.0260    2.6562 C   0  0  0  0  0  0  0  0  0  0  0  0
   -7.5274    2.1004    1.7894 C   0  0  0  0  0  0  0  0  0  0  0  0
   -7.7284    0.7142    1.8560 C   0  0  0  0  0  0  0  0  0  0  0  0
   -7.0067   -0.1459    1.0258 C   0  0  0  0  0  0  0  0  0  0  0  0
   -6.0746    0.3791    0.1281 C   0  0  0  0  0  0  0  0  0  0  0  0
   -5.3311   -0.5441   -0.7582 C   0  0  0  0  0  0  0  0  0  0  0  0
   -5.9802   -1.3439   -1.4275 O   0  0  0  0  0  0  0  0  0  0  0  0
   -3.9388   -0.4450   -0.8103 N   0  0  0  0  0  0  0  0  0  0  0  0
   -3.2492   -1.3825   -1.7038 C   0  0  0  0  0  0  0  0  0  0  0  0
   -1.8351   -0.9087   -2.0831 C   0  0  0  0  0  0  0  0  0  0  0  0
   -1.0505   -0.5832   -0.8707 N   0  0  0  0  0  0  0  0  0  0  0  0
    0.3263   -0.3572   -1.0217 C   0  0  0  0  0  0  0  0  0  0  0  0
    1.1602   -0.4176    0.1048 C   0  0  0  0  0  0  0  0  0  0  0  0
    2.5424   -0.2136    0.0107 C   0  0  0  0  0  0  0  0  0  0  0  0
    3.1386    0.0549   -1.2227 C   0  0  0  0  0  0  0  0  0  0  0  0
    4.5335    0.2409   -1.2358 N   0  0  0  0  0  0  0  0  0  0  0  0
    5.3466    0.5479   -2.3084 C   0  0  0  0  0  0  0  0  0  0  0  0
    4.9684    0.7245   -3.4654 O   0  0  0  0  0  0  0  0  0  0  0  0
    6.8404    0.5758   -1.9969 C   0  0  0  0  0  0  0  0  0  0  0  0
    7.2379    1.1764   -0.3143 S   0  0  0  0  0  0  0  0  0  0  0  0
    7.3757   -0.3466    0.6063 C   0  0  0  0  0  0  0  0  0  0  0  0
    8.1812   -1.4085    0.1823 C   0  0  0  0  0  0  0  0  0  0  0  0
    8.2635   -2.5804    0.9415 C   0  0  0  0  0  0  0  0  0  0  0  0
    7.5515   -2.6861    2.1343 C   0  0  0  0  0  0  0  0  0  0  0  0
    7.6541   -4.1266    3.0678 Cl  0  0  0  0  0  0  0  0  0  0  0  0
    6.7654   -1.6263    2.5798 C   0  0  0  0  0  0  0  0  0  0  0  0
    6.6844   -0.4556    1.8202 C   0  0  0  0  0  0  0  0  0  0  0  0
    2.3293    0.1065   -2.3536 C   0  0  0  0  0  0  0  0  0  0  0  0
    0.9441   -0.1018   -2.2518 C   0  0  0  0  0  0  0  0  0  0  0  0
   -1.7247    0.4277   -0.0201 C   0  0  0  0  0  0  0  0  0  0  0  0
   -3.1417   -0.0413    0.3590 C   0  0  0  0  0  0  0  0  0  0  0  0
   -5.8950    1.7622    0.0242 C   0  0  0  0  0  0  0  0  0  0  0  0
   -6.6192    2.6185    0.8559 C   0  0  0  0  0  0  0  0  0  0  0  0
   -9.2411    3.3341    2.1311 H   0  0  0  0  0  0  0  0  0  0  0  0
   -8.6124    2.5376    3.5957 H   0  0  0  0  0  0  0  0  0  0  0  0
   -7.7510    3.9181    2.9154 H   0  0  0  0  0  0  0  0  0  0  0  0
   -8.4545    0.2964    2.5502 H   0  0  0  0  0  0  0  0  0  0  0  0
   -7.1751   -1.2194    1.0729 H   0  0  0  0  0  0  0  0  0  0  0  0
   -3.1992   -2.3485   -1.1850 H   0  0  0  0  0  0  0  0  0  0  0  0
   -3.8393   -1.5277   -2.6157 H   0  0  0  0  0  0  0  0  0  0  0  0
   -1.3482   -1.7085   -2.6537 H   0  0  0  0  0  0  0  0  0  0  0  0
   -1.9182   -0.0218   -2.7242 H   0  0  0  0  0  0  0  0  0  0  0  0
    0.7365   -0.6587    1.0768 H   0  0  0  0  0  0  0  0  0  0  0  0
    3.1371   -0.2815    0.9172 H   0  0  0  0  0  0  0  0  0  0  0  0
    4.9968    0.1932   -0.3369 H   0  0  0  0  0  0  0  0  0  0  0  0
    7.3047    1.2828   -2.6929 H   0  0  0  0  0  0  0  0  0  0  0  0
    7.2564   -0.4142   -2.1992 H   0  0  0  0  0  0  0  0  0  0  0  0
    8.7694   -1.3369   -0.7294 H   0  0  0  0  0  0  0  0  0  0  0  0
    8.8903   -3.4009    0.6004 H   0  0  0  0  0  0  0  0  0  0  0  0
    6.2212   -1.7007    3.5181 H   0  0  0  0  0  0  0  0  0  0  0  0
    6.0811    0.3708    2.1915 H   0  0  0  0  0  0  0  0  0  0  0  0
    2.7374    0.3036   -3.3396 H   0  0  0  0  0  0  0  0  0  0  0  0
    0.3664   -0.0419   -3.1690 H   0  0  0  0  0  0  0  0  0  0  0  0
   -1.7892    1.3767   -0.5682 H   0  0  0  0  0  0  0  0  0  0  0  0
   -1.1748    0.6173    0.9080 H   0  0  0  0  0  0  0  0  0  0  0  0
   -3.6398    0.7437    0.9318 H   0  0  0  0  0  0  0  0  0  0  0  0
   -3.0803   -0.9203    1.0135 H   0  0  0  0  0  0  0  0  0  0  0  0
   -5.2053    2.1728   -0.7084 H   0  0  0  0  0  0  0  0  0  0  0  0
   -6.4788    3.6938    0.7662 H   0  0  0  0  0  0  0  0  0  0  0  0
  1  2  1  0
  2  3  2  0
  3  4  1  0
  4  5  2  0
  5  6  1  0
  6  7  2  0
  6  8  1  0
  8  9  1  0
  9 10  1  0
 10 11  1  0
 11 12  1  0
 12 13  2  0
 13 14  1  0
 14 15  2  0
 15 16  1  0
 16 17  1  0
 17 18  2  0
 17 19  1  0
 19 20  1  0
 20 21  1  0
 21 22  2  0
 22 23  1  0
 23 24  2  0
 24 25  1  0
 24 26  1  0
 26 27  2  0
 15 28  1  0
 28 29  2  0
 11 30  1  0
 30 31  1  0
  5 32  1  0
 32 33  2  0
 33  2  1  0
 31  8  1  0
 29 12  1  0
 27 21  1  0
  1 34  1  0
  1 35  1  0
  1 36  1  0
  3 37  1  0
  4 38  1  0
  9 39  1  0
  9 40  1  0
 10 41  1  0
 10 42  1  0
 13 43  1  0
 14 44  1  0
 16 45  1  0
 19 46  1  0
 19 47  1  0
 22 48  1  0
 23 49  1  0
 26 50  1  0
 27 51  1  0
 28 52  1  0
 29 53  1  0
 30 54  1  0
 30 55  1  0
 31 56  1  0
 31 57  1  0
 32 58  1  0
 33 59  1  0
M  END
$$$$
