
     RDKit          3D

 57 60  0  0  0  0  0  0  0  0999 V2000
   -6.1470    0.4752    3.2227 C   0  0  0  0  0  0  0  0  0  0  0  0
   -6.3889    0.5023    1.8222 O   0  0  0  0  0  0  0  0  0  0  0  0
   -5.2976    0.4930    0.9972 C   0  0  0  0  0  0  0  0  0  0  0  0
   -5.6023    0.5355   -0.3641 C   0  0  0  0  0  0  0  0  0  0  0  0
   -4.5899    0.5360   -1.3269 C   0  0  0  0  0  0  0  0  0  0  0  0
   -3.2546    0.4905   -0.9329 C   0  0  0  0  0  0  0  0  0  0  0  0
   -2.1674    0.4903   -1.8354 N   0  0  0  0  0  0  0  0  0  0  0  0
   -2.1928    0.4366   -3.2142 C   0  0  0  0  0  0  0  0  0  0  0  0
   -3.2120    0.4041   -3.9039 O   0  0  0  0  0  0  0  0  0  0  0  0
   -0.8371    0.4942   -3.9030 C   0  0  0  0  0  0  0  0  0  0  0  0
    0.2783   -0.0158   -3.1148 N   0  0  0  0  0  0  0  0  0  0  0  0
    1.2577    0.7691   -2.5674 C   0  0  0  0  0  0  0  0  0  0  0  0
    2.1193   -0.0558   -1.8734 C   0  0  0  0  0  0  0  0  0  0  0  0
    3.4875    0.4646   -0.9440 S   0  0  0  0  0  6  0  0  0  0  0  0
    3.6356    1.8645   -1.2942 O   0  0  0  0  0  0  0  0  0  0  0  0
    4.5091   -0.5251   -1.2206 O   0  0  0  0  0  0  0  0  0  0  0  0
    2.8820    0.3043    0.7322 C   0  0  0  0  0  0  0  0  0  0  0  0
    3.9471    0.7565    1.6945 C   0  0  0  0  0  0  0  0  0  0  0  0
    4.8631   -0.1624    2.2261 C   0  0  0  0  0  0  0  0  0  0  0  0
    5.8509    0.2591    3.1175 C   0  0  0  0  0  0  0  0  0  0  0  0
    5.9359    1.6007    3.4831 C   0  0  0  0  0  0  0  0  0  0  0  0
    5.0359    2.5238    2.9553 C   0  0  0  0  0  0  0  0  0  0  0  0
    4.0463    2.1055    2.0648 C   0  0  0  0  0  0  0  0  0  0  0  0
    1.6547   -1.3953   -2.0094 C   0  0  0  0  0  0  0  0  0  0  0  0
    2.0958   -2.6542   -1.5470 C   0  0  0  0  0  0  0  0  0  0  0  0
    1.3665   -3.8054   -1.8610 C   0  0  0  0  0  0  0  0  0  0  0  0
    0.2093   -3.7220   -2.6266 C   0  0  0  0  0  0  0  0  0  0  0  0
   -0.2483   -2.4922   -3.1055 C   0  0  0  0  0  0  0  0  0  0  0  0
    0.4906   -1.3411   -2.7879 C   0  0  0  0  0  0  0  0  0  0  0  0
   -2.9379    0.4417    0.4430 C   0  0  0  0  0  0  0  0  0  0  0  0
   -1.5900    0.3970    0.7333 O   0  0  0  0  0  0  0  0  0  0  0  0
   -1.2326    0.1492    2.0883 C   0  0  0  0  0  0  0  0  0  0  0  0
   -3.9615    0.4477    1.4007 C   0  0  0  0  0  0  0  0  0  0  0  0
   -7.1162    0.4899    3.7303 H   0  0  0  0  0  0  0  0  0  0  0  0
   -5.5897    1.3614    3.5439 H   0  0  0  0  0  0  0  0  0  0  0  0
   -5.6310   -0.4450    3.5169 H   0  0  0  0  0  0  0  0  0  0  0  0
   -6.6416    0.5717   -0.6837 H   0  0  0  0  0  0  0  0  0  0  0  0
   -4.8813    0.5776   -2.3710 H   0  0  0  0  0  0  0  0  0  0  0  0
   -1.2697    0.4578   -1.3602 H   0  0  0  0  0  0  0  0  0  0  0  0
   -0.6248    1.5357   -4.1660 H   0  0  0  0  0  0  0  0  0  0  0  0
   -0.8714   -0.0988   -4.8231 H   0  0  0  0  0  0  0  0  0  0  0  0
    1.2743    1.8442   -2.7060 H   0  0  0  0  0  0  0  0  0  0  0  0
    1.9819    0.9195    0.8326 H   0  0  0  0  0  0  0  0  0  0  0  0
    2.6146   -0.7417    0.9106 H   0  0  0  0  0  0  0  0  0  0  0  0
    4.8239   -1.2124    1.9436 H   0  0  0  0  0  0  0  0  0  0  0  0
    6.5603   -0.4585    3.5214 H   0  0  0  0  0  0  0  0  0  0  0  0
    6.7101    1.9284    4.1721 H   0  0  0  0  0  0  0  0  0  0  0  0
    5.1104    3.5727    3.2304 H   0  0  0  0  0  0  0  0  0  0  0  0
    3.3640    2.8459    1.6511 H   0  0  0  0  0  0  0  0  0  0  0  0
    3.0089   -2.7454   -0.9637 H   0  0  0  0  0  0  0  0  0  0  0  0
    1.7139   -4.7742   -1.5096 H   0  0  0  0  0  0  0  0  0  0  0  0
   -0.3453   -4.6274   -2.8638 H   0  0  0  0  0  0  0  0  0  0  0  0
   -1.1520   -2.4451   -3.7070 H   0  0  0  0  0  0  0  0  0  0  0  0
   -1.5112    0.9931    2.7274 H   0  0  0  0  0  0  0  0  0  0  0  0
   -1.6697   -0.7871    2.4508 H   0  0  0  0  0  0  0  0  0  0  0  0
   -0.1445    0.0449    2.1319 H   0  0  0  0  0  0  0  0  0  0  0  0
   -3.7197    0.4207    2.4543 H   0  0  0  0  0  0  0  0  0  0  0  0
  1  2  1  0
  2  3  1  0
  3  4  2  0
  4  5  1  0
  5  6  2  0
  6  7  1  0
  7  8  1  0
  8  9  2  0
  8 10  1  0
 10 11  1  0
 11 12  1  0
 12 13  2  0
 13 14  1  0
 14 15  2  0
 14 16  2  0
 14 17  1  0
 17 18  1  0
 18 19  2  0
 19 20  1  0
 20 21  2  0
 21 22  1  0
 22 23  2  0
 13 24  1  0
 24 25  2  0
 25 26  1  0
 26 27  2  0
 27 28  1  0
 28 29  2  0
  6 30  1  0
 30 31  1  0
 31 32  1  0
 30 33  2  0
 33  3  1  0
 29 11  1  0
 23 18  1  0
 29 24  1  0
  1 34  1  0
  1 35  1  0
  1 36  1  0
  4 37  1  0
  5 38  1  0
  7 39  1  0
 10 40  1  0
 10 41  1  0
 12 42  1  0
 17 43  1  0
 17 44  1  0
 19 45  1  0
 20 46  1  0
 21 47  1  0
 22 48  1  0
 23 49  1  0
 25 50  1  0
 26 51  1  0
 27 52  1  0
 28 53  1  0
 32 54  1  0
 32 55  1  0
 32 56  1  0
 33 57  1  0
M  END
$$$$
