
     RDKit          3D

 47 50  0  0  0  0  0  0  0  0999 V2000
    0.7033   -0.3849    3.1552 C   0  0  0  0  0  0  0  0  0  0  0  0
    0.3773   -1.0800    1.8641 C   0  0  0  0  0  0  0  0  0  0  0  0
    1.1512   -2.0557    1.4732 N   0  0  0  0  0  0  0  0  0  0  0  0
    0.8971   -2.7453    0.2768 N   0  0  0  0  0  0  0  0  0  0  0  0
    1.8636   -3.7810   -0.0911 C   0  0  0  0  0  0  0  0  0  0  0  0
    3.0870   -3.1983   -0.8039 C   0  0  0  0  0  0  0  0  0  0  0  0
    3.8947   -3.9023   -1.4056 O   0  0  0  0  0  0  0  0  0  0  0  0
    3.2643   -1.8453   -0.6285 N   0  0  0  0  0  0  0  0  0  0  0  0
    4.4525   -1.1696   -1.0806 C   0  0  0  0  0  0  0  0  0  0  0  0
    4.2025    0.3002   -0.9829 C   0  0  0  0  0  0  0  0  0  0  0  0
    3.6203    1.1305   -1.9214 C   0  0  0  0  0  0  0  0  0  0  0  0
    3.5334    2.4798   -1.4731 C   0  0  0  0  0  0  0  0  0  0  0  0
    4.0497    2.6357   -0.2065 C   0  0  0  0  0  0  0  0  0  0  0  0
    4.6271    1.1609    0.4378 S   0  0  0  0  0  0  0  0  0  0  0  0
   -0.1341   -2.4358   -0.6342 C   0  0  0  0  0  0  0  0  0  0  0  0
   -0.2918   -3.0175   -1.7044 O   0  0  0  0  0  0  0  0  0  0  0  0
   -0.9871   -1.3508   -0.1671 C   0  0  0  0  0  0  0  0  0  0  0  0
   -2.0704   -0.8755   -0.7830 N   0  0  0  0  0  0  0  0  0  0  0  0
   -2.4832    0.1733   -0.0203 N   0  0  0  0  0  0  0  0  0  0  0  0
   -3.5080    1.0284   -0.5340 C   0  0  0  0  0  0  0  0  0  0  0  0
   -4.2855    0.5783   -1.6160 C   0  0  0  0  0  0  0  0  0  0  0  0
   -5.2941    1.3819   -2.1530 C   0  0  0  0  0  0  0  0  0  0  0  0
   -5.5287    2.6488   -1.6274 C   0  0  0  0  0  0  0  0  0  0  0  0
   -4.7472    3.1168   -0.5737 C   0  0  0  0  0  0  0  0  0  0  0  0
   -3.7359    2.3152   -0.0316 C   0  0  0  0  0  0  0  0  0  0  0  0
   -1.7766    0.2177    1.1888 C   0  0  0  0  0  0  0  0  0  0  0  0
   -2.1539    1.0515    2.3594 C   0  0  0  0  0  0  0  0  0  0  0  0
   -0.7471   -0.6981    1.0463 C   0  0  0  0  0  0  0  0  0  0  0  0
    1.7049   -0.6657    3.4948 H   0  0  0  0  0  0  0  0  0  0  0  0
    0.6745    0.6994    3.0199 H   0  0  0  0  0  0  0  0  0  0  0  0
   -0.0179   -0.6816    3.9211 H   0  0  0  0  0  0  0  0  0  0  0  0
    1.3932   -4.5121   -0.7560 H   0  0  0  0  0  0  0  0  0  0  0  0
    2.1976   -4.2884    0.8199 H   0  0  0  0  0  0  0  0  0  0  0  0
    2.7290   -1.4300    0.1286 H   0  0  0  0  0  0  0  0  0  0  0  0
    4.6668   -1.4668   -2.1131 H   0  0  0  0  0  0  0  0  0  0  0  0
    5.2935   -1.4922   -0.4571 H   0  0  0  0  0  0  0  0  0  0  0  0
    3.2698    0.7817   -2.8864 H   0  0  0  0  0  0  0  0  0  0  0  0
    3.1146    3.2937   -2.0524 H   0  0  0  0  0  0  0  0  0  0  0  0
    4.1162    3.5457    0.3738 H   0  0  0  0  0  0  0  0  0  0  0  0
   -4.1245   -0.4083   -2.0492 H   0  0  0  0  0  0  0  0  0  0  0  0
   -5.8917    1.0158   -2.9841 H   0  0  0  0  0  0  0  0  0  0  0  0
   -6.3109    3.2755   -2.0478 H   0  0  0  0  0  0  0  0  0  0  0  0
   -4.9157    4.1166   -0.1806 H   0  0  0  0  0  0  0  0  0  0  0  0
   -3.1228    2.7537    0.7459 H   0  0  0  0  0  0  0  0  0  0  0  0
   -1.8704    0.5622    3.2955 H   0  0  0  0  0  0  0  0  0  0  0  0
   -1.6507    2.0222    2.3233 H   0  0  0  0  0  0  0  0  0  0  0  0
   -3.2358    1.1998    2.4248 H   0  0  0  0  0  0  0  0  0  0  0  0
  1  2  1  0
  2  3  2  0
  3  4  1  0
  4  5  1  0
  5  6  1  0
  6  7  2  0
  6  8  1  0
  8  9  1  0
  9 10  1  0
 10 11  2  0
 11 12  1  0
 12 13  2  0
 13 14  1  0
  4 15  1  0
 15 16  2  0
 15 17  1  0
 17 18  2  0
 18 19  1  0
 19 20  1  0
 20 21  2  0
 21 22  1  0
 22 23  2  0
 23 24  1  0
 24 25  2  0
 19 26  1  0
 26 27  1  0
 26 28  2  0
 28  2  1  0
 14 10  1  0
 28 17  1  0
 25 20  1  0
  1 29  1  0
  1 30  1  0
  1 31  1  0
  5 32  1  0
  5 33  1  0
  8 34  1  0
  9 35  1  0
  9 36  1  0
 11 37  1  0
 12 38  1  0
 13 39  1  0
 21 40  1  0
 22 41  1  0
 23 42  1  0
 24 43  1  0
 25 44  1  0
 27 45  1  0
 27 46  1  0
 27 47  1  0
M  END
$$$$
