
     RDKit          3D

 44 44  0  0  0  0  0  0  0  0999 V2000
   -5.2351   -0.3156    0.4885 C   0  0  0  0  0  0  0  0  0  0  0  0
   -3.9966    0.3410    1.0820 C   0  0  0  0  0  0  0  0  0  0  0  0
   -2.9776    0.5844    0.0516 N   0  0  0  0  0  0  0  0  0  0  0  0
   -3.0723    1.8739   -0.6463 C   0  0  0  0  0  0  0  0  0  0  0  0
   -2.1663    2.9095    0.0054 C   0  0  0  0  0  0  0  0  0  0  0  0
   -2.0418   -0.3828   -0.3077 C   0  0  0  0  0  0  0  0  0  0  0  0
   -2.0589   -1.6849    0.2297 C   0  0  0  0  0  0  0  0  0  0  0  0
   -1.1213   -2.6668   -0.1293 C   0  0  0  0  0  0  0  0  0  0  0  0
   -0.1150   -2.3702   -1.0361 C   0  0  0  0  0  0  0  0  0  0  0  0
   -0.0501   -1.0897   -1.5606 C   0  0  0  0  0  0  0  0  0  0  0  0
    0.9429   -0.7851   -2.4546 O   0  0  0  0  0  0  0  0  0  0  0  0
    2.0146   -0.1075   -1.7992 C   0  0  0  0  0  0  0  0  0  0  0  0
    3.0883   -1.0362   -1.1969 C   0  0  0  0  0  0  0  0  0  0  0  0
    3.1595   -2.2237   -1.5217 O   0  0  0  0  0  0  0  0  0  0  0  0
    3.9964   -0.4735   -0.2905 N   0  0  0  0  0  0  0  0  0  0  0  0
    4.9903   -1.3631    0.3024 C   0  0  0  0  0  0  0  0  0  0  0  0
    3.8541    0.8617    0.3078 C   0  0  0  0  0  0  0  0  0  0  0  0
    2.9144    0.9073    1.5167 C   0  0  0  0  0  0  0  0  0  0  0  0
    3.5910    0.4603    2.7399 C   0  0  0  0  0  0  0  0  0  0  0  0
    4.1415    0.1221    3.7035 N   0  0  0  0  0  0  0  0  0  0  0  0
   -1.0082   -0.1234   -1.2255 C   0  0  0  0  0  0  0  0  0  0  0  0
   -5.6826    0.3164   -0.2845 H   0  0  0  0  0  0  0  0  0  0  0  0
   -5.9864   -0.4793    1.2671 H   0  0  0  0  0  0  0  0  0  0  0  0
   -5.0047   -1.2826    0.0322 H   0  0  0  0  0  0  0  0  0  0  0  0
   -4.2939    1.2957    1.5358 H   0  0  0  0  0  0  0  0  0  0  0  0
   -3.5997   -0.2503    1.9151 H   0  0  0  0  0  0  0  0  0  0  0  0
   -2.8543    1.7772   -1.7162 H   0  0  0  0  0  0  0  0  0  0  0  0
   -4.1049    2.2450   -0.6038 H   0  0  0  0  0  0  0  0  0  0  0  0
   -2.4336    3.0583    1.0572 H   0  0  0  0  0  0  0  0  0  0  0  0
   -1.1149    2.6092   -0.0293 H   0  0  0  0  0  0  0  0  0  0  0  0
   -2.2617    3.8713   -0.5078 H   0  0  0  0  0  0  0  0  0  0  0  0
   -2.8241   -1.9881    0.9377 H   0  0  0  0  0  0  0  0  0  0  0  0
   -1.1877   -3.6629    0.3009 H   0  0  0  0  0  0  0  0  0  0  0  0
    0.6126   -3.1242   -1.3248 H   0  0  0  0  0  0  0  0  0  0  0  0
    2.5179    0.4967   -2.5633 H   0  0  0  0  0  0  0  0  0  0  0  0
    1.6262    0.5847   -1.0449 H   0  0  0  0  0  0  0  0  0  0  0  0
    4.5865   -1.7773    1.2305 H   0  0  0  0  0  0  0  0  0  0  0  0
    5.2356   -2.1888   -0.3718 H   0  0  0  0  0  0  0  0  0  0  0  0
    5.9082   -0.8044    0.5084 H   0  0  0  0  0  0  0  0  0  0  0  0
    4.8543    1.2364    0.5612 H   0  0  0  0  0  0  0  0  0  0  0  0
    3.4683    1.5361   -0.4633 H   0  0  0  0  0  0  0  0  0  0  0  0
    2.5866    1.9436    1.6666 H   0  0  0  0  0  0  0  0  0  0  0  0
    2.0159    0.3048    1.3401 H   0  0  0  0  0  0  0  0  0  0  0  0
   -0.9136    0.8450   -1.7024 H   0  0  0  0  0  0  0  0  0  0  0  0
  1  2  1  0
  2  3  1  0
  3  4  1  0
  4  5  1  0
  3  6  1  0
  6  7  2  0
  7  8  1  0
  8  9  2  0
  9 10  1  0
 10 11  1  0
 11 12  1  0
 12 13  1  0
 13 14  2  0
 13 15  1  0
 15 16  1  0
 15 17  1  0
 17 18  1  0
 18 19  1  0
 19 20  3  0
 10 21  2  0
 21  6  1  0
  1 22  1  0
  1 23  1  0
  1 24  1  0
  2 25  1  0
  2 26  1  0
  4 27  1  0
  4 28  1  0
  5 29  1  0
  5 30  1  0
  5 31  1  0
  7 32  1  0
  8 33  1  0
  9 34  1  0
 12 35  1  0
 12 36  1  0
 16 37  1  0
 16 38  1  0
 16 39  1  0
 17 40  1  0
 17 41  1  0
 18 42  1  0
 18 43  1  0
 21 44  1  0
M  END
$$$$
