
     RDKit          3D

 54 57  0  0  0  0  0  0  0  0999 V2000
    7.2599    2.0245    2.0421 C   0  0  0  0  0  0  0  0  0  0  0  0
    7.0094    1.5520    0.6816 N   0  0  0  0  0  0  0  0  0  0  0  0
    7.6985    2.3046   -0.3697 C   0  0  0  0  0  0  0  0  0  0  0  0
    5.7392    1.0522    0.3586 C   0  0  0  0  0  0  0  0  0  0  0  0
    4.6701    1.0396    1.2726 C   0  0  0  0  0  0  0  0  0  0  0  0
    3.4089    0.5271    0.9365 C   0  0  0  0  0  0  0  0  0  0  0  0
    3.1903   -0.0038   -0.3319 C   0  0  0  0  0  0  0  0  0  0  0  0
    1.8732   -0.5477   -0.7206 C   0  0  0  0  0  0  0  0  0  0  0  0
    0.8636   -0.5282    0.0920 N   0  0  0  0  0  0  0  0  0  0  0  0
   -0.3214   -1.0853   -0.3223 N   0  0  0  0  0  0  0  0  0  0  0  0
   -0.4613   -2.2061   -1.1413 C   0  0  0  0  0  0  0  0  0  0  0  0
    0.4678   -2.8098   -1.6700 O   0  0  0  0  0  0  0  0  0  0  0  0
   -1.8481   -2.6492   -1.3101 C   0  0  0  0  0  0  0  0  0  0  0  0
   -2.1528   -3.9566   -1.5705 N   0  0  0  0  0  0  0  0  0  0  0  0
   -3.4668   -4.0757   -1.6370 N   0  0  0  0  0  0  0  0  0  0  0  0
   -4.0389   -2.8602   -1.4126 N   0  0  0  0  0  0  0  0  0  0  0  0
   -5.4470   -2.7197   -1.3218 C   0  0  0  0  0  0  0  0  0  0  0  0
   -6.0075   -1.5523   -1.0047 N   0  0  0  0  0  0  0  0  0  0  0  0
   -7.3747   -1.8253   -0.9862 O   0  0  0  0  0  0  0  0  0  0  0  0
   -7.6274   -3.1569   -1.2947 N   0  0  0  0  0  0  0  0  0  0  0  0
   -6.4331   -3.7091   -1.5024 C   0  0  0  0  0  0  0  0  0  0  0  0
   -6.2392   -4.9997   -1.8343 N   0  0  0  0  0  0  0  0  0  0  0  0
   -3.0259   -1.9115   -1.2876 C   0  0  0  0  0  0  0  0  0  0  0  0
   -3.2336   -0.4483   -1.1665 C   0  0  0  0  0  0  0  0  0  0  0  0
   -3.1300   -0.1760    0.2269 O   0  0  0  0  0  0  0  0  0  0  0  0
   -3.2248    1.1318    0.6169 C   0  0  0  0  0  0  0  0  0  0  0  0
   -3.4470    2.2270   -0.2222 C   0  0  0  0  0  0  0  0  0  0  0  0
   -3.5118    3.5163    0.3150 C   0  0  0  0  0  0  0  0  0  0  0  0
   -3.3552    3.7037    1.6833 C   0  0  0  0  0  0  0  0  0  0  0  0
   -3.4161    4.9405    2.1918 F   0  0  0  0  0  0  0  0  0  0  0  0
   -3.1360    2.6251    2.5288 C   0  0  0  0  0  0  0  0  0  0  0  0
   -3.0720    1.3380    1.9932 C   0  0  0  0  0  0  0  0  0  0  0  0
    4.2308   -0.0311   -1.2556 C   0  0  0  0  0  0  0  0  0  0  0  0
    5.4852    0.4879   -0.9061 C   0  0  0  0  0  0  0  0  0  0  0  0
    7.0075    1.2585    2.7837 H   0  0  0  0  0  0  0  0  0  0  0  0
    6.6983    2.9416    2.2533 H   0  0  0  0  0  0  0  0  0  0  0  0
    8.3245    2.2433    2.1825 H   0  0  0  0  0  0  0  0  0  0  0  0
    8.6358    2.7319    0.0053 H   0  0  0  0  0  0  0  0  0  0  0  0
    7.0783    3.1338   -0.7306 H   0  0  0  0  0  0  0  0  0  0  0  0
    7.9761    1.6637   -1.2128 H   0  0  0  0  0  0  0  0  0  0  0  0
    4.7834    1.4441    2.2742 H   0  0  0  0  0  0  0  0  0  0  0  0
    2.6097    0.5472    1.6738 H   0  0  0  0  0  0  0  0  0  0  0  0
    1.8037   -0.9330   -1.7516 H   0  0  0  0  0  0  0  0  0  0  0  0
   -1.1010   -0.8533    0.2909 H   0  0  0  0  0  0  0  0  0  0  0  0
   -5.3133   -5.4238   -1.7870 H   0  0  0  0  0  0  0  0  0  0  0  0
   -7.0065   -5.6564   -1.7362 H   0  0  0  0  0  0  0  0  0  0  0  0
   -4.1870   -0.1116   -1.5786 H   0  0  0  0  0  0  0  0  0  0  0  0
   -2.4359    0.0713   -1.7125 H   0  0  0  0  0  0  0  0  0  0  0  0
   -3.5749    2.1198   -1.2942 H   0  0  0  0  0  0  0  0  0  0  0  0
   -3.6817    4.3760   -0.3262 H   0  0  0  0  0  0  0  0  0  0  0  0
   -3.0150    2.7902    3.5946 H   0  0  0  0  0  0  0  0  0  0  0  0
   -2.8986    0.4916    2.6543 H   0  0  0  0  0  0  0  0  0  0  0  0
    4.0917   -0.4645   -2.2426 H   0  0  0  0  0  0  0  0  0  0  0  0
    6.2783    0.4112   -1.6439 H   0  0  0  0  0  0  0  0  0  0  0  0
  1  2  1  0
  2  3  1  0
  2  4  1  0
  4  5  2  0
  5  6  1  0
  6  7  2  0
  7  8  1  0
  8  9  2  3
  9 10  1  0
 10 11  1  0
 11 12  2  0
 11 13  1  0
 13 14  1  0
 14 15  2  0
 15 16  1  0
 16 17  1  0
 17 18  2  0
 18 19  1  0
 19 20  1  0
 20 21  2  0
 21 22  1  0
 16 23  1  0
 23 24  1  0
 24 25  1  0
 25 26  1  0
 26 27  2  0
 27 28  1  0
 28 29  2  0
 29 30  1  0
 29 31  1  0
 31 32  2  0
  7 33  1  0
 33 34  2  0
 34  4  1  0
 23 13  2  0
 32 26  1  0
 21 17  1  0
  1 35  1  0
  1 36  1  0
  1 37  1  0
  3 38  1  0
  3 39  1  0
  3 40  1  0
  5 41  1  0
  6 42  1  0
  8 43  1  0
 10 44  1  0
 22 45  1  0
 22 46  1  0
 24 47  1  0
 24 48  1  0
 27 49  1  0
 28 50  1  0
 31 51  1  0
 32 52  1  0
 33 53  1  0
 34 54  1  0
M  END
$$$$
