
     RDKit          3D

 96101  0  0  0  0  0  0  0  0999 V2000
   -4.8355    2.3262   -1.7483 C   0  0  0  0  0  0  0  0  0  0  0  0
   -4.6113    2.4644   -0.2655 C   0  0  0  0  0  0  0  0  0  0  0  0
   -4.6098    1.4339    0.6043 C   0  0  0  0  0  0  0  0  0  0  0  0
   -4.6458   -0.0319    0.2664 C   0  0  0  0  0  0  0  0  0  0  0  0
   -3.5216   -0.8290    0.9599 C   0  0  2  0  0  0  0  0  0  0  0  0
   -2.1360   -0.2154    0.7445 C   0  0  0  0  0  0  0  0  0  0  0  0
   -1.0785   -1.1153    1.3733 C   0  0  1  0  0  0  0  0  0  0  0  0
   -1.1914   -2.5435    0.8474 C   0  0  0  0  0  0  0  0  0  0  0  0
   -2.6242   -3.0650    1.0358 C   0  0  1  0  0  0  0  0  0  0  0  0
   -2.7574   -4.4268    0.3367 C   0  0  0  0  0  0  0  0  0  0  0  0
   -4.1135   -5.0656    0.6182 C   0  0  0  0  0  0  0  0  0  0  0  0
   -4.3678   -5.1336    2.1294 C   0  0  2  0  0  0  0  0  0  0  0  0
   -5.7590   -5.7069    2.3985 C   0  0  0  0  0  0  0  0  0  0  0  0
   -4.1652   -3.7405    2.7532 C   0  0  1  0  0  0  0  0  0  0  0  0
   -4.2630   -3.7576    4.2755 C   0  0  0  0  0  0  0  0  0  0  0  0
   -2.8625   -3.2261    2.4391 O   0  0  0  0  0  0  0  0  0  0  0  0
   -3.5599   -2.1628    0.4347 O   0  0  0  0  0  0  0  0  0  0  0  0
    0.2531   -0.5594    1.2829 O   0  0  0  0  0  0  0  0  0  0  0  0
    0.8520   -0.3634    0.0752 C   0  0  0  0  0  0  0  0  0  0  0  0
    0.3503   -0.6201   -1.0102 O   0  0  0  0  0  0  0  0  0  0  0  0
    2.2673    0.1728    0.2939 C   0  0  0  0  0  0  0  0  0  0  0  0
    3.2074   -0.7136   -0.4905 C   0  0  0  0  0  0  0  0  0  0  0  0
    4.1026   -0.2777   -1.3922 C   0  0  0  0  0  0  0  0  0  0  0  0
    5.0368   -1.2347   -2.0913 C   0  0  0  0  0  0  0  0  0  0  0  0
    6.3807   -0.8205   -1.8303 O   0  0  0  0  0  0  0  0  0  0  0  0
    7.3218   -1.6574   -2.3461 C   0  0  0  0  0  0  0  0  0  0  0  0
    7.0901   -2.7246   -2.8983 O   0  0  0  0  0  0  0  0  0  0  0  0
    8.6306   -1.0869   -2.1337 C   0  0  0  0  0  0  0  0  0  0  0  0
    9.8708   -1.6318   -2.4185 C   0  0  0  0  0  0  0  0  0  0  0  0
   10.8623   -0.6966   -2.0369 C   0  0  0  0  0  0  0  0  0  0  0  0
   10.2095    0.4064   -1.5364 C   0  0  0  0  0  0  0  0  0  0  0  0
    8.8645    0.1640   -1.6013 N   0  0  0  0  0  0  0  0  0  0  0  0
    4.2542    1.1821   -1.7139 C   0  0  1  0  0  0  0  0  0  0  0  0
    4.4238    1.3194   -3.1291 O   0  0  0  0  0  0  0  0  0  0  0  0
    3.1010    2.1112   -1.2567 C   0  0  1  0  0  0  0  0  0  0  0  0
    3.6436    3.5669   -1.2787 C   0  0  0  0  0  0  0  0  0  0  0  0
    2.0169    2.0466   -2.2200 O   0  0  0  0  0  0  0  0  0  0  0  0
    0.8431    2.5551   -1.5572 C   0  0  0  0  0  0  0  0  0  0  0  0
    1.1164    2.4595   -0.0757 C   0  0  0  0  0  0  0  0  0  0  0  0
    0.3958    3.0456    0.9000 C   0  0  0  0  0  0  0  0  0  0  0  0
   -0.7461    3.9180    0.7129 C   0  0  0  0  0  0  0  0  0  0  0  0
   -1.8260    3.6282   -0.0305 C   0  0  0  0  0  0  0  0  0  0  0  0
   -3.0394    4.5034   -0.2992 C   0  0  2  0  0  0  0  0  0  0  0  0
   -2.9224    5.9412    0.2255 C   0  0  0  0  0  0  0  0  0  0  0  0
   -4.3539    3.8747    0.2338 C   0  0  0  0  0  0  0  0  0  0  0  0
    2.4302    1.7077    0.0803 C   0  0  1  0  0  0  0  0  0  0  0  0
    3.2140    2.2205    1.1702 O   0  0  0  0  0  0  0  0  0  0  0  0
   -3.8831    2.3319   -2.2848 H   0  0  0  0  0  0  0  0  0  0  0  0
   -5.4441    3.1595   -2.1171 H   0  0  0  0  0  0  0  0  0  0  0  0
   -5.3770    1.4135   -2.0096 H   0  0  0  0  0  0  0  0  0  0  0  0
   -4.4802    1.6521    1.6644 H   0  0  0  0  0  0  0  0  0  0  0  0
   -4.5795   -0.2068   -0.8133 H   0  0  0  0  0  0  0  0  0  0  0  0
   -5.6138   -0.4436    0.5739 H   0  0  0  0  0  0  0  0  0  0  0  0
   -3.7428   -0.8610    2.0346 H   0  0  0  0  0  0  0  0  0  0  0  0
   -1.9514   -0.0950   -0.3295 H   0  0  0  0  0  0  0  0  0  0  0  0
   -2.0640    0.7818    1.1913 H   0  0  0  0  0  0  0  0  0  0  0  0
   -1.2730   -1.1443    2.4528 H   0  0  0  0  0  0  0  0  0  0  0  0
   -0.4660   -3.1775    1.3712 H   0  0  0  0  0  0  0  0  0  0  0  0
   -0.9283   -2.5670   -0.2144 H   0  0  0  0  0  0  0  0  0  0  0  0
   -1.9765   -5.1102    0.6960 H   0  0  0  0  0  0  0  0  0  0  0  0
   -2.6401   -4.3168   -0.7471 H   0  0  0  0  0  0  0  0  0  0  0  0
   -4.1427   -6.0723    0.1848 H   0  0  0  0  0  0  0  0  0  0  0  0
   -4.9055   -4.4854    0.1301 H   0  0  0  0  0  0  0  0  0  0  0  0
   -3.6224   -5.8185    2.5567 H   0  0  0  0  0  0  0  0  0  0  0  0
   -5.9099   -5.9120    3.4627 H   0  0  0  0  0  0  0  0  0  0  0  0
   -6.5421   -5.0135    2.0726 H   0  0  0  0  0  0  0  0  0  0  0  0
   -5.8994   -6.6501    1.8611 H   0  0  0  0  0  0  0  0  0  0  0  0
   -4.9251   -3.0439    2.3798 H   0  0  0  0  0  0  0  0  0  0  0  0
   -4.0200   -2.7712    4.6859 H   0  0  0  0  0  0  0  0  0  0  0  0
   -3.5422   -4.4621    4.7033 H   0  0  0  0  0  0  0  0  0  0  0  0
   -5.2651   -4.0276    4.6177 H   0  0  0  0  0  0  0  0  0  0  0  0
    2.5163   -0.0383    1.3480 H   0  0  0  0  0  0  0  0  0  0  0  0
    3.1307   -1.7799   -0.2892 H   0  0  0  0  0  0  0  0  0  0  0  0
    4.8906   -2.2586   -1.7235 H   0  0  0  0  0  0  0  0  0  0  0  0
    4.8470   -1.2236   -3.1707 H   0  0  0  0  0  0  0  0  0  0  0  0
   10.0383   -2.6101   -2.8548 H   0  0  0  0  0  0  0  0  0  0  0  0
   11.9350   -0.8172   -2.1248 H   0  0  0  0  0  0  0  0  0  0  0  0
   10.5881    1.3444   -1.1497 H   0  0  0  0  0  0  0  0  0  0  0  0
    8.1312    0.7991   -1.3112 H   0  0  0  0  0  0  0  0  0  0  0  0
    5.1907    1.5108   -1.2480 H   0  0  0  0  0  0  0  0  0  0  0  0
    3.5231    1.4823   -3.4807 H   0  0  0  0  0  0  0  0  0  0  0  0
    3.9454    3.8534   -2.2942 H   0  0  0  0  0  0  0  0  0  0  0  0
    2.8897    4.3023   -0.9748 H   0  0  0  0  0  0  0  0  0  0  0  0
    4.5069    3.6807   -0.6151 H   0  0  0  0  0  0  0  0  0  0  0  0
   -0.0039    1.9375   -1.8640 H   0  0  0  0  0  0  0  0  0  0  0  0
    0.6878    3.5899   -1.8785 H   0  0  0  0  0  0  0  0  0  0  0  0
    0.7089    2.9436    1.9388 H   0  0  0  0  0  0  0  0  0  0  0  0
   -0.6889    4.8592    1.2587 H   0  0  0  0  0  0  0  0  0  0  0  0
   -1.8623    2.6610   -0.5337 H   0  0  0  0  0  0  0  0  0  0  0  0
   -3.1192    4.5809   -1.3927 H   0  0  0  0  0  0  0  0  0  0  0  0
   -2.8798    5.9663    1.3201 H   0  0  0  0  0  0  0  0  0  0  0  0
   -2.0283    6.4365   -0.1702 H   0  0  0  0  0  0  0  0  0  0  0  0
   -3.7919    6.5301   -0.0822 H   0  0  0  0  0  0  0  0  0  0  0  0
   -5.2065    4.5034   -0.0600 H   0  0  0  0  0  0  0  0  0  0  0  0
   -4.3328    3.8937    1.3329 H   0  0  0  0  0  0  0  0  0  0  0  0
    2.8297    3.0516    1.4914 H   0  0  0  0  0  0  0  0  0  0  0  0
  1  2  1  0
  2  3  2  0
  3  4  1  0
  4  5  1  0
  5  6  1  0
  6  7  1  0
  7  8  1  0
  8  9  1  0
  9 10  1  0
 10 11  1  0
 11 12  1  0
 12 13  1  0
 12 14  1  0
 14 15  1  0
 14 16  1  0
  9 17  1  6
  7 18  1  0
 18 19  1  0
 19 20  2  0
 19 21  1  0
 21 22  1  0
 22 23  2  0
 23 24  1  0
 24 25  1  0
 25 26  1  0
 26 27  2  0
 26 28  1  0
 28 29  2  0
 29 30  1  0
 30 31  2  0
 31 32  1  0
 23 33  1  0
 33 34  1  0
 33 35  1  0
 35 36  1  1
 35 37  1  0
 37 38  1  0
 38 39  1  0
 39 40  2  0
 40 41  1  0
 41 42  2  0
 42 43  1  0
 43 44  1  0
 43 45  1  0
 39 46  1  0
 46 47  1  1
 45  2  1  0
 17  5  1  0
 46 21  1  0
 16  9  1  0
 32 28  1  0
 46 35  1  0
  1 48  1  0
  1 49  1  0
  1 50  1  0
  3 51  1  0
  4 52  1  0
  4 53  1  0
  5 54  1  1
  6 55  1  0
  6 56  1  0
  7 57  1  1
  8 58  1  0
  8 59  1  0
 10 60  1  0
 10 61  1  0
 11 62  1  0
 11 63  1  0
 12 64  1  1
 13 65  1  0
 13 66  1  0
 13 67  1  0
 14 68  1  6
 15 69  1  0
 15 70  1  0
 15 71  1  0
 21 72  1  0
 22 73  1  0
 24 74  1  0
 24 75  1  0
 29 76  1  0
 30 77  1  0
 31 78  1  0
 32 79  1  0
 33 80  1  1
 34 81  1  0
 36 82  1  0
 36 83  1  0
 36 84  1  0
 38 85  1  0
 38 86  1  0
 40 87  1  0
 41 88  1  0
 42 89  1  0
 43 90  1  6
 44 91  1  0
 44 92  1  0
 44 93  1  0
 45 94  1  0
 45 95  1  0
 47 96  1  0
M  END
$$$$
