
     RDKit          3D

 39 41  0  0  0  0  0  0  0  0999 V2000
   -1.9753    0.3484    4.4767 C   0  0  0  0  0  0  0  0  0  0  0  0
   -2.9122    0.6279    3.4435 O   0  0  0  0  0  0  0  0  0  0  0  0
   -2.4060    0.8361    2.1903 C   0  0  0  0  0  0  0  0  0  0  0  0
   -1.0539    0.8350    1.8412 C   0  0  0  0  0  0  0  0  0  0  0  0
   -0.6707    1.0600    0.5157 C   0  0  0  0  0  0  0  0  0  0  0  0
   -1.6451    1.2676   -0.4640 C   0  0  0  0  0  0  0  0  0  0  0  0
   -1.1563    1.5447   -2.1523 S   0  0  0  0  0  6  0  0  0  0  0  0
    0.1886    2.0799   -2.1497 O   0  0  0  0  0  0  0  0  0  0  0  0
   -2.2377    2.2508   -2.8081 O   0  0  0  0  0  0  0  0  0  0  0  0
   -1.1525   -0.0150   -2.8118 N   0  0  0  0  0  0  0  0  0  0  0  0
   -0.3792   -1.0283   -2.1787 C   0  0  0  0  0  0  0  0  0  0  0  0
   -1.0332   -2.0765   -1.5300 C   0  0  0  0  0  0  0  0  0  0  0  0
   -0.2908   -3.0389   -0.8465 C   0  0  0  0  0  0  0  0  0  0  0  0
    1.0978   -2.9419   -0.8090 C   0  0  0  0  0  0  0  0  0  0  0  0
    1.7649   -3.9126   -0.1122 O   0  0  0  0  0  0  0  0  0  0  0  0
    1.7683   -1.8940   -1.4527 C   0  0  0  0  0  0  0  0  0  0  0  0
    3.5516   -1.7881   -1.3993 S   0  0  0  0  0  0  0  0  0  0  0  0
    3.7983   -0.1504   -0.8490 C   0  0  0  0  0  0  0  0  0  0  0  0
    3.0209    0.4574    0.1023 N   0  0  0  0  0  0  0  0  0  0  0  0
    3.5159    1.6718    0.1543 C   0  0  0  0  0  0  0  0  0  0  0  0
    4.5550    1.7757   -0.7146 N   0  0  0  0  0  0  0  0  0  0  0  0
    4.7727    0.6146   -1.3508 N   0  0  0  0  0  0  0  0  0  0  0  0
    1.0140   -0.9454   -2.1551 C   0  0  0  0  0  0  0  0  0  0  0  0
   -2.9983    1.2912   -0.1230 C   0  0  0  0  0  0  0  0  0  0  0  0
   -3.3712    1.0715    1.2045 C   0  0  0  0  0  0  0  0  0  0  0  0
   -2.5365    0.1907    5.4028 H   0  0  0  0  0  0  0  0  0  0  0  0
   -1.3006    1.1958    4.6365 H   0  0  0  0  0  0  0  0  0  0  0  0
   -1.4162   -0.5692    4.2657 H   0  0  0  0  0  0  0  0  0  0  0  0
   -0.2711    0.6611    2.5728 H   0  0  0  0  0  0  0  0  0  0  0  0
    0.3860    1.0551    0.2566 H   0  0  0  0  0  0  0  0  0  0  0  0
   -2.0717   -0.2723   -3.1682 H   0  0  0  0  0  0  0  0  0  0  0  0
   -2.1170   -2.1482   -1.5332 H   0  0  0  0  0  0  0  0  0  0  0  0
   -0.7909   -3.8566   -0.3345 H   0  0  0  0  0  0  0  0  0  0  0  0
    2.7149   -3.6980   -0.1644 H   0  0  0  0  0  0  0  0  0  0  0  0
    3.1732    2.4890    0.7727 H   0  0  0  0  0  0  0  0  0  0  0  0
    5.1413    2.5766   -0.9220 H   0  0  0  0  0  0  0  0  0  0  0  0
    1.5108   -0.1305   -2.6774 H   0  0  0  0  0  0  0  0  0  0  0  0
   -3.7635    1.4799   -0.8720 H   0  0  0  0  0  0  0  0  0  0  0  0
   -4.4241    1.0848    1.4780 H   0  0  0  0  0  0  0  0  0  0  0  0
  1  2  1  0
  2  3  1  0
  3  4  2  0
  4  5  1  0
  5  6  2  0
  6  7  1  0
  7  8  2  0
  7  9  2  0
  7 10  1  0
 10 11  1  0
 11 12  2  0
 12 13  1  0
 13 14  2  0
 14 15  1  0
 14 16  1  0
 16 17  1  0
 17 18  1  0
 18 19  1  0
 19 20  2  0
 20 21  1  0
 21 22  1  0
 16 23  2  0
  6 24  1  0
 24 25  2  0
 25  3  1  0
 23 11  1  0
 22 18  2  0
  1 26  1  0
  1 27  1  0
  1 28  1  0
  4 29  1  0
  5 30  1  0
 10 31  1  0
 12 32  1  0
 13 33  1  0
 15 34  1  0
 20 35  1  0
 21 36  1  0
 23 37  1  0
 24 38  1  0
 25 39  1  0
M  END
$$$$
