
     RDKit          3D

 27 27  0  0  0  0  0  0  0  0999 V2000
   -2.3543    0.1073   -1.6781 C   0  0  0  0  0  0  0  0  0  0  0  0
   -1.3368    0.2995   -0.5383 C   0  0  0  0  0  0  0  0  0  0  0  0
   -2.0892    0.2795    0.8003 C   0  0  0  0  0  0  0  0  0  0  0  0
   -0.6500    1.6560   -0.7145 C   0  0  0  0  0  0  0  0  0  0  0  0
   -0.1436   -1.0733   -0.6328 S   0  0  0  0  0  6  0  0  0  0  0  0
   -0.8232   -2.3071   -0.2836 O   0  0  0  0  0  0  0  0  0  0  0  0
    0.6396   -0.9881   -1.8477 O   0  0  0  0  0  0  0  0  0  0  0  0
    0.9990   -0.8744    0.6679 C   0  0  0  0  0  0  0  0  0  0  0  0
    0.7129   -1.3230    2.0008 C   0  0  0  0  0  0  0  0  0  0  0  0
    1.7793   -1.1508    2.8521 C   0  0  0  0  0  0  0  0  0  0  0  0
    3.1318   -0.4901    2.0496 S   0  0  0  0  0  0  0  0  0  0  0  0
    2.2925   -0.3942    0.5529 C   0  0  0  0  0  0  0  0  0  0  0  0
    3.0161    0.1280   -0.5757 C   0  0  0  0  0  0  0  0  0  0  0  0
    4.1513   -0.1401   -0.9395 O   0  0  0  0  0  0  0  0  0  0  0  0
    2.3137    1.0926   -1.2046 O   0  0  0  0  0  0  0  0  0  0  0  0
   -1.8607    0.1123   -2.6564 H   0  0  0  0  0  0  0  0  0  0  0  0
   -3.1059    0.9047   -1.6794 H   0  0  0  0  0  0  0  0  0  0  0  0
   -2.8820   -0.8485   -1.5832 H   0  0  0  0  0  0  0  0  0  0  0  0
   -2.5578   -0.6928    0.9864 H   0  0  0  0  0  0  0  0  0  0  0  0
   -1.4236    0.4961    1.6412 H   0  0  0  0  0  0  0  0  0  0  0  0
   -2.8822    1.0362    0.8161 H   0  0  0  0  0  0  0  0  0  0  0  0
    0.0848    1.8415    0.0749 H   0  0  0  0  0  0  0  0  0  0  0  0
   -0.1399    1.7217   -1.6809 H   0  0  0  0  0  0  0  0  0  0  0  0
   -1.3794    2.4735   -0.6768 H   0  0  0  0  0  0  0  0  0  0  0  0
   -0.2226   -1.7760    2.3115 H   0  0  0  0  0  0  0  0  0  0  0  0
    1.8388   -1.4069    3.9018 H   0  0  0  0  0  0  0  0  0  0  0  0
    2.8914    1.3162   -1.9641 H   0  0  0  0  0  0  0  0  0  0  0  0
  1  2  1  0
  2  3  1  0
  2  4  1  0
  2  5  1  0
  5  6  2  0
  5  7  2  0
  5  8  1  0
  8  9  1  0
  9 10  2  0
 10 11  1  0
 11 12  1  0
 12 13  1  0
 13 14  2  0
 13 15  1  0
 12  8  2  0
  1 16  1  0
  1 17  1  0
  1 18  1  0
  3 19  1  0
  3 20  1  0
  3 21  1  0
  4 22  1  0
  4 23  1  0
  4 24  1  0
  9 25  1  0
 10 26  1  0
 15 27  1  0
M  END
$$$$
