
     RDKit          3D

 37 39  0  0  0  0  0  0  0  0999 V2000
    7.9391   -0.3048    0.5908 C   0  0  0  0  0  0  0  0  0  0  0  0
    6.4410   -0.5497    0.5046 C   0  0  0  0  0  0  0  0  0  0  0  0
    5.7406    0.5463   -0.2986 C   0  0  0  0  0  0  0  0  0  0  0  0
    4.2734    0.2895   -0.4056 C   0  0  0  0  0  0  0  0  0  0  0  0
    3.7091   -0.4645   -1.3262 N   0  0  0  0  0  0  0  0  0  0  0  0
    2.3376   -0.5181   -1.1774 N   0  0  0  0  0  0  0  0  0  0  0  0
    1.9198    0.1947   -0.1547 C   0  0  0  0  0  0  0  0  0  0  0  0
    0.5949    0.2869    0.1781 N   0  0  0  0  0  0  0  0  0  0  0  0
    0.0355    0.9957    1.2150 C   0  0  0  0  0  0  0  0  0  0  0  0
    0.6258    1.6807    2.0454 O   0  0  0  0  0  0  0  0  0  0  0  0
   -1.4902    0.8645    1.2677 C   0  0  0  0  0  0  0  0  0  0  0  0
   -1.9717    0.0230    0.2218 O   0  0  0  0  0  0  0  0  0  0  0  0
   -3.3265   -0.1609    0.1507 C   0  0  0  0  0  0  0  0  0  0  0  0
   -3.7459   -0.9823   -0.9160 C   0  0  0  0  0  0  0  0  0  0  0  0
   -5.1001   -1.2638   -1.1230 C   0  0  0  0  0  0  0  0  0  0  0  0
   -6.0053   -0.7101   -0.2473 C   0  0  0  0  0  0  0  0  0  0  0  0
   -5.6016    0.0901    0.7950 C   0  0  0  0  0  0  0  0  0  0  0  0
   -4.2717    0.3853    1.0231 C   0  0  0  0  0  0  0  0  0  0  0  0
   -6.6488    0.5346    1.5416 O   0  0  0  0  0  0  0  0  0  0  0  0
   -7.7567   -0.0793    0.8492 C   0  0  0  0  0  0  0  0  0  0  0  0
   -7.3542   -0.8697   -0.2883 O   0  0  0  0  0  0  0  0  0  0  0  0
    3.1612    0.9833    0.7038 S   0  0  0  0  0  0  0  0  0  0  0  0
    8.4214   -1.1027    1.1640 H   0  0  0  0  0  0  0  0  0  0  0  0
    8.1529    0.6472    1.0872 H   0  0  0  0  0  0  0  0  0  0  0  0
    8.3908   -0.2818   -0.4060 H   0  0  0  0  0  0  0  0  0  0  0  0
    6.0265   -0.5994    1.5189 H   0  0  0  0  0  0  0  0  0  0  0  0
    6.2625   -1.5282    0.0418 H   0  0  0  0  0  0  0  0  0  0  0  0
    6.1628    0.5891   -1.3104 H   0  0  0  0  0  0  0  0  0  0  0  0
    5.9278    1.5259    0.1582 H   0  0  0  0  0  0  0  0  0  0  0  0
   -0.0301   -0.2357   -0.4260 H   0  0  0  0  0  0  0  0  0  0  0  0
   -1.7418    0.4345    2.2440 H   0  0  0  0  0  0  0  0  0  0  0  0
   -1.9020    1.8746    1.1605 H   0  0  0  0  0  0  0  0  0  0  0  0
   -3.0063   -1.4060   -1.5921 H   0  0  0  0  0  0  0  0  0  0  0  0
   -5.4257   -1.8942   -1.9425 H   0  0  0  0  0  0  0  0  0  0  0  0
   -4.0135    1.0210    1.8601 H   0  0  0  0  0  0  0  0  0  0  0  0
   -8.4358    0.7097    0.5061 H   0  0  0  0  0  0  0  0  0  0  0  0
   -8.2947   -0.7253    1.5526 H   0  0  0  0  0  0  0  0  0  0  0  0
  1  2  1  0
  2  3  1  0
  3  4  1  0
  4  5  2  0
  5  6  1  0
  6  7  2  0
  7  8  1  0
  8  9  1  0
  9 10  2  0
  9 11  1  0
 11 12  1  0
 12 13  1  0
 13 14  2  0
 14 15  1  0
 15 16  2  0
 16 17  1  0
 17 18  2  0
 17 19  1  0
 19 20  1  0
 20 21  1  0
  7 22  1  0
 22  4  1  0
 18 13  1  0
 21 16  1  0
  1 23  1  0
  1 24  1  0
  1 25  1  0
  2 26  1  0
  2 27  1  0
  3 28  1  0
  3 29  1  0
  8 30  1  0
 11 31  1  0
 11 32  1  0
 14 33  1  0
 15 34  1  0
 18 35  1  0
 20 36  1  0
 20 37  1  0
M  END
$$$$
