
     RDKit          3D

 42 44  0  0  0  0  0  0  0  0999 V2000
   -5.9176    1.9238   -1.8794 C   0  0  0  0  0  0  0  0  0  0  0  0
   -5.8119    1.7117   -0.4752 O   0  0  0  0  0  0  0  0  0  0  0  0
   -4.6448    1.1539   -0.0242 C   0  0  0  0  0  0  0  0  0  0  0  0
   -4.4338    1.2668    1.3503 C   0  0  0  0  0  0  0  0  0  0  0  0
   -3.2860    0.7341    1.9270 C   0  0  0  0  0  0  0  0  0  0  0  0
   -3.1712    0.8758    3.2874 O   0  0  0  0  0  0  0  0  0  0  0  0
   -2.3151    0.0944    1.1407 C   0  0  0  0  0  0  0  0  0  0  0  0
   -1.0962   -0.4114    1.8207 C   0  0  0  0  0  0  0  0  0  0  0  0
   -1.1875   -0.8248    2.9767 O   0  0  0  0  0  0  0  0  0  0  0  0
    0.2138   -0.2803    1.1358 C   0  0  0  0  0  0  0  0  0  0  0  0
    1.2716   -0.9729    1.5806 C   0  0  0  0  0  0  0  0  0  0  0  0
    2.5964   -0.9112    0.9867 C   0  0  0  0  0  0  0  0  0  0  0  0
    3.2108    0.2898    0.8297 C   0  0  0  0  0  0  0  0  0  0  0  0
    4.6319    0.2981    0.3706 C   0  0  2  0  0  0  0  0  0  0  0  0
    5.1052    1.4384   -0.3313 O   0  0  0  0  0  0  0  0  0  0  0  0
    6.2659    0.8913   -1.0062 C   0  0  0  0  0  0  0  0  0  0  0  0
    6.2086   -0.5575   -1.0108 O   0  0  0  0  0  0  0  0  0  0  0  0
    4.8508   -0.7846   -0.6670 C   0  0  1  0  0  0  0  0  0  0  0  0
    4.4811   -2.1051   -0.0766 C   0  0  0  0  0  0  0  0  0  0  0  0
    3.3813   -2.1361    0.7062 C   0  0  0  0  0  0  0  0  0  0  0  0
   -2.5515   -0.0752   -0.2365 C   0  0  0  0  0  0  0  0  0  0  0  0
   -1.6240   -0.7870   -0.9533 O   0  0  0  0  0  0  0  0  0  0  0  0
   -2.0197   -1.2917   -2.2230 C   0  0  0  0  0  0  0  0  0  0  0  0
   -3.7115    0.4737   -0.8114 C   0  0  0  0  0  0  0  0  0  0  0  0
   -6.0302    0.9731   -2.4085 H   0  0  0  0  0  0  0  0  0  0  0  0
   -5.0620    2.4870   -2.2651 H   0  0  0  0  0  0  0  0  0  0  0  0
   -6.8140    2.5229   -2.0582 H   0  0  0  0  0  0  0  0  0  0  0  0
   -5.1681    1.7674    1.9763 H   0  0  0  0  0  0  0  0  0  0  0  0
   -2.4712    0.2587    3.5988 H   0  0  0  0  0  0  0  0  0  0  0  0
    0.2795    0.3772    0.2778 H   0  0  0  0  0  0  0  0  0  0  0  0
    1.1615   -1.6588    2.4190 H   0  0  0  0  0  0  0  0  0  0  0  0
    2.7500    1.2340    1.1028 H   0  0  0  0  0  0  0  0  0  0  0  0
    5.2825    0.1856    1.2532 H   0  0  0  0  0  0  0  0  0  0  0  0
    7.1744    1.2111   -0.4895 H   0  0  0  0  0  0  0  0  0  0  0  0
    6.2803    1.2609   -2.0364 H   0  0  0  0  0  0  0  0  0  0  0  0
    4.2586   -0.6233   -1.5814 H   0  0  0  0  0  0  0  0  0  0  0  0
    5.0544   -2.9923   -0.3098 H   0  0  0  0  0  0  0  0  0  0  0  0
    3.0407   -3.0713    1.1458 H   0  0  0  0  0  0  0  0  0  0  0  0
   -2.0654   -0.4849   -2.9581 H   0  0  0  0  0  0  0  0  0  0  0  0
   -2.9708   -1.8268   -2.1627 H   0  0  0  0  0  0  0  0  0  0  0  0
   -1.2561   -2.0016   -2.5520 H   0  0  0  0  0  0  0  0  0  0  0  0
   -3.8906    0.3671   -1.8737 H   0  0  0  0  0  0  0  0  0  0  0  0
  1  2  1  0
  2  3  1  0
  3  4  2  0
  4  5  1  0
  5  6  1  0
  5  7  2  0
  7  8  1  0
  8  9  2  0
  8 10  1  0
 10 11  2  0
 11 12  1  0
 12 13  2  0
 13 14  1  0
 14 15  1  0
 15 16  1  0
 16 17  1  0
 17 18  1  0
 18 19  1  0
 19 20  2  0
  7 21  1  0
 21 22  1  0
 22 23  1  0
 21 24  2  0
 24  3  1  0
 20 12  1  0
 18 14  1  0
  1 25  1  0
  1 26  1  0
  1 27  1  0
  4 28  1  0
  6 29  1  0
 10 30  1  0
 11 31  1  0
 13 32  1  0
 14 33  1  1
 16 34  1  0
 16 35  1  0
 18 36  1  6
 19 37  1  0
 20 38  1  0
 23 39  1  0
 23 40  1  0
 23 41  1  0
 24 42  1  0
M  END
$$$$
