
     RDKit          3D

 41 43  0  0  0  0  0  0  0  0999 V2000
   -5.9489    1.2457    0.4787 C   0  0  0  0  0  0  0  0  0  0  0  0
   -4.9598    0.1245    0.6018 C   0  0  0  0  0  0  0  0  0  0  0  0
   -5.3199   -1.0752    1.2196 C   0  0  0  0  0  0  0  0  0  0  0  0
   -4.3927   -2.1124    1.3533 C   0  0  0  0  0  0  0  0  0  0  0  0
   -3.0735   -1.9728    0.8920 C   0  0  0  0  0  0  0  0  0  0  0  0
   -2.1362   -3.1384    1.0417 C   0  0  0  0  0  0  0  0  0  0  0  0
   -2.7101   -0.7559    0.2848 C   0  0  0  0  0  0  0  0  0  0  0  0
   -1.0589   -0.4715   -0.3394 S   0  0  0  0  0  6  0  0  0  0  0  0
   -0.6481   -1.6435   -1.0796 O   0  0  0  0  0  0  0  0  0  0  0  0
   -1.0263    0.8495   -0.9342 O   0  0  0  0  0  0  0  0  0  0  0  0
   -0.1813   -0.3540    1.1219 N   0  0  0  0  0  0  0  0  0  0  0  0
    1.2414   -0.3259    0.9456 C   0  0  0  0  0  0  0  0  0  0  0  0
    1.9349   -1.5208    0.7679 C   0  0  0  0  0  0  0  0  0  0  0  0
    3.3128   -1.4967    0.5613 C   0  0  0  0  0  0  0  0  0  0  0  0
    3.9874   -0.2778    0.5114 C   0  0  0  0  0  0  0  0  0  0  0  0
    5.3353   -0.3503    0.2898 O   0  0  0  0  0  0  0  0  0  0  0  0
    3.3014    0.9345    0.6771 C   0  0  0  0  0  0  0  0  0  0  0  0
    4.1003    2.5330    0.7159 S   0  0  0  0  0  0  0  0  0  0  0  0
    4.7068    2.6738   -0.9078 C   0  0  0  0  0  0  0  0  0  0  0  0
    5.5950    1.7724   -1.4381 N   0  0  0  0  0  0  0  0  0  0  0  0
    5.7942    2.2395   -2.6492 C   0  0  0  0  0  0  0  0  0  0  0  0
    5.0688    3.3762   -2.8235 N   0  0  0  0  0  0  0  0  0  0  0  0
    4.3776    3.6844   -1.7152 N   0  0  0  0  0  0  0  0  0  0  0  0
    1.9155    0.8969    0.8916 C   0  0  0  0  0  0  0  0  0  0  0  0
   -3.6471    0.2823    0.1440 C   0  0  0  0  0  0  0  0  0  0  0  0
   -5.8854    1.8984    1.3549 H   0  0  0  0  0  0  0  0  0  0  0  0
   -5.7556    1.8395   -0.4208 H   0  0  0  0  0  0  0  0  0  0  0  0
   -6.9705    0.8592    0.3988 H   0  0  0  0  0  0  0  0  0  0  0  0
   -6.3313   -1.2174    1.5955 H   0  0  0  0  0  0  0  0  0  0  0  0
   -4.7143   -3.0401    1.8243 H   0  0  0  0  0  0  0  0  0  0  0  0
   -1.1930   -2.8339    1.5019 H   0  0  0  0  0  0  0  0  0  0  0  0
   -1.9460   -3.6018    0.0692 H   0  0  0  0  0  0  0  0  0  0  0  0
   -2.5634   -3.9093    1.6930 H   0  0  0  0  0  0  0  0  0  0  0  0
   -0.5161    0.4749    1.6160 H   0  0  0  0  0  0  0  0  0  0  0  0
    1.4102   -2.4722    0.7860 H   0  0  0  0  0  0  0  0  0  0  0  0
    3.8604   -2.4254    0.4249 H   0  0  0  0  0  0  0  0  0  0  0  0
    5.6072    0.4742   -0.1667 H   0  0  0  0  0  0  0  0  0  0  0  0
    6.4280    1.8147   -3.4149 H   0  0  0  0  0  0  0  0  0  0  0  0
    4.9993    3.9764   -3.6382 H   0  0  0  0  0  0  0  0  0  0  0  0
    1.3627    1.8255    1.0105 H   0  0  0  0  0  0  0  0  0  0  0  0
   -3.3609    1.2196   -0.3312 H   0  0  0  0  0  0  0  0  0  0  0  0
  1  2  1  0
  2  3  2  0
  3  4  1  0
  4  5  2  0
  5  6  1  0
  5  7  1  0
  7  8  1  0
  8  9  2  0
  8 10  2  0
  8 11  1  0
 11 12  1  0
 12 13  2  0
 13 14  1  0
 14 15  2  0
 15 16  1  0
 15 17  1  0
 17 18  1  0
 18 19  1  0
 19 20  1  0
 20 21  2  0
 21 22  1  0
 22 23  1  0
 17 24  2  0
  7 25  2  0
 25  2  1  0
 24 12  1  0
 23 19  2  0
  1 26  1  0
  1 27  1  0
  1 28  1  0
  3 29  1  0
  4 30  1  0
  6 31  1  0
  6 32  1  0
  6 33  1  0
 11 34  1  0
 13 35  1  0
 14 36  1  0
 16 37  1  0
 21 38  1  0
 22 39  1  0
 24 40  1  0
 25 41  1  0
M  END
$$$$
