
     RDKit          3D

 44 46  0  0  0  0  0  0  0  0999 V2000
   -4.2013   -1.5519    4.6160 C   0  0  0  0  0  0  0  0  0  0  0  0
   -3.4735   -0.8933    3.4750 C   0  0  0  0  0  0  0  0  0  0  0  0
   -3.6167   -1.4161    2.1777 C   0  0  0  0  0  0  0  0  0  0  0  0
   -2.9676   -0.8446    1.0697 C   0  0  0  0  0  0  0  0  0  0  0  0
   -3.1966   -1.4518   -0.2865 C   0  0  0  0  0  0  0  0  0  0  0  0
   -2.1667    0.2889    1.2867 C   0  0  0  0  0  0  0  0  0  0  0  0
   -1.2974    1.0996   -0.0494 S   0  0  0  0  0  6  0  0  0  0  0  0
   -2.2052    1.2266   -1.1674 O   0  0  0  0  0  0  0  0  0  0  0  0
   -0.6044    2.2472    0.5002 O   0  0  0  0  0  0  0  0  0  0  0  0
   -0.0930   -0.0622   -0.3939 N   0  0  0  0  0  0  0  0  0  0  0  0
    0.6917    0.2338   -1.5566 C   0  0  0  0  0  0  0  0  0  0  0  0
    0.1813   -0.0451   -2.8225 C   0  0  0  0  0  0  0  0  0  0  0  0
    0.9302    0.2687   -3.9554 C   0  0  0  0  0  0  0  0  0  0  0  0
    2.1839    0.8625   -3.8184 C   0  0  0  0  0  0  0  0  0  0  0  0
    2.8520    1.1230   -4.9838 O   0  0  0  0  0  0  0  0  0  0  0  0
    2.7005    1.1702   -2.5508 C   0  0  0  0  0  0  0  0  0  0  0  0
    4.2543    2.0150   -2.2948 S   0  0  0  0  0  0  0  0  0  0  0  0
    5.3944    0.8542   -2.9102 C   0  0  0  0  0  0  0  0  0  0  0  0
    6.2071    0.0941   -2.1183 N   0  0  0  0  0  0  0  0  0  0  0  0
    6.8875   -0.6139   -2.9888 C   0  0  0  0  0  0  0  0  0  0  0  0
    6.4952   -0.2859   -4.2482 N   0  0  0  0  0  0  0  0  0  0  0  0
    5.5356    0.6563   -4.2274 N   0  0  0  0  0  0  0  0  0  0  0  0
    1.9338    0.8583   -1.4185 C   0  0  0  0  0  0  0  0  0  0  0  0
   -2.0296    0.8295    2.5753 C   0  0  0  0  0  0  0  0  0  0  0  0
   -2.6803    0.2503    3.6744 C   0  0  0  0  0  0  0  0  0  0  0  0
   -2.5069    0.8600    5.0389 C   0  0  0  0  0  0  0  0  0  0  0  0
   -4.6620   -2.4966    4.3072 H   0  0  0  0  0  0  0  0  0  0  0  0
   -3.5081   -1.7829    5.4312 H   0  0  0  0  0  0  0  0  0  0  0  0
   -4.9956   -0.8954    4.9857 H   0  0  0  0  0  0  0  0  0  0  0  0
   -4.2526   -2.2886    2.0287 H   0  0  0  0  0  0  0  0  0  0  0  0
   -2.2523   -1.6336   -0.8057 H   0  0  0  0  0  0  0  0  0  0  0  0
   -3.8369   -0.8024   -0.8909 H   0  0  0  0  0  0  0  0  0  0  0  0
   -3.6974   -2.4232   -0.2068 H   0  0  0  0  0  0  0  0  0  0  0  0
    0.4858   -0.1666    0.4407 H   0  0  0  0  0  0  0  0  0  0  0  0
   -0.7989   -0.5008   -2.9348 H   0  0  0  0  0  0  0  0  0  0  0  0
    0.5368    0.0538   -4.9455 H   0  0  0  0  0  0  0  0  0  0  0  0
    3.7980    1.2693   -4.7691 H   0  0  0  0  0  0  0  0  0  0  0  0
    7.6485   -1.3507   -2.7739 H   0  0  0  0  0  0  0  0  0  0  0  0
    6.8237   -0.6479   -5.1373 H   0  0  0  0  0  0  0  0  0  0  0  0
    2.3040    1.1149   -0.4290 H   0  0  0  0  0  0  0  0  0  0  0  0
   -1.4170    1.7170    2.7298 H   0  0  0  0  0  0  0  0  0  0  0  0
   -1.9580    0.1744    5.6921 H   0  0  0  0  0  0  0  0  0  0  0  0
   -3.4813    1.0873    5.4832 H   0  0  0  0  0  0  0  0  0  0  0  0
   -1.9447    1.7987    4.9920 H   0  0  0  0  0  0  0  0  0  0  0  0
  1  2  1  0
  2  3  2  0
  3  4  1  0
  4  5  1  0
  4  6  2  0
  6  7  1  0
  7  8  2  0
  7  9  2  0
  7 10  1  0
 10 11  1  0
 11 12  2  0
 12 13  1  0
 13 14  2  0
 14 15  1  0
 14 16  1  0
 16 17  1  0
 17 18  1  0
 18 19  1  0
 19 20  2  0
 20 21  1  0
 21 22  1  0
 16 23  2  0
  6 24  1  0
 24 25  2  0
 25 26  1  0
 25  2  1  0
 23 11  1  0
 22 18  2  0
  1 27  1  0
  1 28  1  0
  1 29  1  0
  3 30  1  0
  5 31  1  0
  5 32  1  0
  5 33  1  0
 10 34  1  0
 12 35  1  0
 13 36  1  0
 15 37  1  0
 20 38  1  0
 21 39  1  0
 23 40  1  0
 24 41  1  0
 26 42  1  0
 26 43  1  0
 26 44  1  0
M  END
$$$$
