
     RDKit          3D

 39 41  0  0  0  0  0  0  0  0999 V2000
    3.7045   -2.5847   -1.0308 O   0  0  0  0  0  0  0  0  0  0  0  0
    3.3524   -1.4938   -0.6100 C   0  0  0  0  0  0  0  0  0  0  0  0
    2.0733   -1.0917   -0.4286 O   0  0  0  0  0  0  0  0  0  0  0  0
    1.1023   -2.0793   -0.7801 C   0  0  0  0  0  0  0  0  0  0  0  0
   -0.2622   -1.4939   -0.5252 C   0  0  0  0  0  0  0  0  0  0  0  0
   -0.8989   -1.6791    0.7071 C   0  0  0  0  0  0  0  0  0  0  0  0
   -2.1573   -1.1176    0.9475 C   0  0  0  0  0  0  0  0  0  0  0  0
   -2.8079   -0.3489   -0.0304 C   0  0  0  0  0  0  0  0  0  0  0  0
   -4.1313    0.2429    0.2257 C   0  0  0  0  0  0  0  0  0  0  0  0
   -5.2100   -0.5515    0.6490 C   0  0  0  0  0  0  0  0  0  0  0  0
   -6.4669    0.0093    0.8918 C   0  0  0  0  0  0  0  0  0  0  0  0
   -6.6660    1.3763    0.7165 C   0  0  0  0  0  0  0  0  0  0  0  0
   -5.6102    2.1822    0.2984 C   0  0  0  0  0  0  0  0  0  0  0  0
   -4.3543    1.6195    0.0548 C   0  0  0  0  0  0  0  0  0  0  0  0
   -2.1545   -0.1577   -1.2580 C   0  0  0  0  0  0  0  0  0  0  0  0
   -0.8969   -0.7188   -1.5027 C   0  0  0  0  0  0  0  0  0  0  0  0
    4.3025   -0.4162   -0.2247 C   0  0  0  0  0  0  0  0  0  0  0  0
    5.6766   -0.6691   -0.3518 C   0  0  0  0  0  0  0  0  0  0  0  0
    6.6100    0.3102   -0.0035 C   0  0  0  0  0  0  0  0  0  0  0  0
    6.1776    1.5473    0.4734 C   0  0  0  0  0  0  0  0  0  0  0  0
    4.8132    1.7939    0.5978 C   0  0  0  0  0  0  0  0  0  0  0  0
    4.3500    2.9905    1.0599 O   0  0  0  0  0  0  0  0  0  0  0  0
    3.8729    0.8271    0.2545 C   0  0  0  0  0  0  0  0  0  0  0  0
    1.2003   -2.3496   -1.8389 H   0  0  0  0  0  0  0  0  0  0  0  0
    1.2434   -2.9830   -0.1743 H   0  0  0  0  0  0  0  0  0  0  0  0
   -0.4176   -2.2568    1.4932 H   0  0  0  0  0  0  0  0  0  0  0  0
   -2.6237   -1.2714    1.9187 H   0  0  0  0  0  0  0  0  0  0  0  0
   -5.0785   -1.6236    0.7813 H   0  0  0  0  0  0  0  0  0  0  0  0
   -7.2892   -0.6235    1.2152 H   0  0  0  0  0  0  0  0  0  0  0  0
   -7.6429    1.8132    0.9057 H   0  0  0  0  0  0  0  0  0  0  0  0
   -5.7606    3.2501    0.1637 H   0  0  0  0  0  0  0  0  0  0  0  0
   -3.5396    2.2687   -0.2598 H   0  0  0  0  0  0  0  0  0  0  0  0
   -2.6289    0.4290   -2.0424 H   0  0  0  0  0  0  0  0  0  0  0  0
   -0.4156   -0.5441   -2.4625 H   0  0  0  0  0  0  0  0  0  0  0  0
    6.0247   -1.6316   -0.7232 H   0  0  0  0  0  0  0  0  0  0  0  0
    7.6731    0.1056   -0.1051 H   0  0  0  0  0  0  0  0  0  0  0  0
    6.9128    2.3002    0.7407 H   0  0  0  0  0  0  0  0  0  0  0  0
    5.1073    3.5641    1.2626 H   0  0  0  0  0  0  0  0  0  0  0  0
    2.8162    1.0558    0.3655 H   0  0  0  0  0  0  0  0  0  0  0  0
  1  2  2  0
  2  3  1  0
  3  4  1  0
  4  5  1  0
  5  6  2  0
  6  7  1  0
  7  8  2  0
  8  9  1  0
  9 10  2  0
 10 11  1  0
 11 12  2  0
 12 13  1  0
 13 14  2  0
  8 15  1  0
 15 16  2  0
  2 17  1  0
 17 18  2  0
 18 19  1  0
 19 20  2  0
 20 21  1  0
 21 22  1  0
 21 23  2  0
 16  5  1  0
 23 17  1  0
 14  9  1  0
  4 24  1  0
  4 25  1  0
  6 26  1  0
  7 27  1  0
 10 28  1  0
 11 29  1  0
 12 30  1  0
 13 31  1  0
 14 32  1  0
 15 33  1  0
 16 34  1  0
 18 35  1  0
 19 36  1  0
 20 37  1  0
 22 38  1  0
 23 39  1  0
M  END
$$$$
