
     RDKit          3D

 51 55  0  0  0  0  0  0  0  0999 V2000
    1.7621    2.1252   -2.0236 O   0  0  0  0  0  0  0  0  0  0  0  0
    1.3632    0.9707   -1.8864 C   0  0  0  0  0  0  0  0  0  0  0  0
    0.0924    0.4921   -2.6001 C   0  0  0  0  0  0  0  0  0  0  0  0
   -1.0396    0.3341   -1.6794 N   0  0  0  0  0  0  0  0  0  0  0  0
   -1.0849   -0.8152   -0.8979 C   0  0  0  0  0  0  0  0  0  0  0  0
   -0.2419   -1.7120   -1.0062 O   0  0  0  0  0  0  0  0  0  0  0  0
   -2.1470   -0.8984    0.1697 C   0  0  0  0  0  0  0  0  0  0  0  0
   -3.4407   -1.4697   -0.3841 C   0  0  0  0  0  0  0  0  0  0  0  0
   -4.5274   -1.4813    0.6439 C   0  0  0  0  0  0  0  0  0  0  0  0
   -5.4412   -2.4402    1.0348 C   0  0  0  0  0  0  0  0  0  0  0  0
   -6.2161   -1.8593    2.0671 C   0  0  0  0  0  0  0  0  0  0  0  0
   -5.7301   -0.5855    2.2408 C   0  0  0  0  0  0  0  0  0  0  0  0
   -4.7067   -0.3459    1.3829 O   0  0  0  0  0  0  0  0  0  0  0  0
   -4.0525   -0.6725   -1.9160 S   0  0  0  0  0  0  0  0  0  0  0  0
   -3.4407    0.9971   -1.6997 C   0  0  0  0  0  0  0  0  0  0  0  0
   -4.4041    2.0171   -1.6971 C   0  0  0  0  0  0  0  0  0  0  0  0
   -4.0226    3.3575   -1.6855 C   0  0  0  0  0  0  0  0  0  0  0  0
   -2.6736    3.6911   -1.7016 C   0  0  0  0  0  0  0  0  0  0  0  0
   -1.7039    2.6858   -1.7146 C   0  0  0  0  0  0  0  0  0  0  0  0
   -2.0677    1.3289   -1.6931 C   0  0  0  0  0  0  0  0  0  0  0  0
    1.9512   -0.0164   -1.1132 N   0  0  0  0  0  0  0  0  0  0  0  0
    3.1237    0.0695   -0.3385 C   0  0  0  0  0  0  0  0  0  0  0  0
    3.9330    1.2062   -0.2682 C   0  0  0  0  0  0  0  0  0  0  0  0
    5.0897    1.2070    0.5198 C   0  0  0  0  0  0  0  0  0  0  0  0
    5.4446    0.0701    1.2384 C   0  0  0  0  0  0  0  0  0  0  0  0
    4.6277   -1.0611    1.1944 C   0  0  0  0  0  0  0  0  0  0  0  0
    3.4820   -1.0667    0.3980 C   0  0  0  0  0  0  0  0  0  0  0  0
    4.8926   -2.2069    1.9015 O   0  0  0  0  0  0  0  0  0  0  0  0
    5.8718   -1.9753    2.9213 C   0  0  0  0  0  0  0  0  0  0  0  0
    7.0366   -1.1672    2.3738 C   0  0  0  0  0  0  0  0  0  0  0  0
    6.6018    0.1361    1.9703 O   0  0  0  0  0  0  0  0  0  0  0  0
    0.3051   -0.4703   -3.0822 H   0  0  0  0  0  0  0  0  0  0  0  0
   -0.1549    1.1913   -3.4075 H   0  0  0  0  0  0  0  0  0  0  0  0
   -2.2723    0.0794    0.6504 H   0  0  0  0  0  0  0  0  0  0  0  0
   -1.7658   -1.5504    0.9676 H   0  0  0  0  0  0  0  0  0  0  0  0
   -3.2506   -2.5117   -0.6720 H   0  0  0  0  0  0  0  0  0  0  0  0
   -5.5377   -3.4342    0.6208 H   0  0  0  0  0  0  0  0  0  0  0  0
   -7.0300   -2.3110    2.6161 H   0  0  0  0  0  0  0  0  0  0  0  0
   -5.9908    0.2330    2.8980 H   0  0  0  0  0  0  0  0  0  0  0  0
   -5.4642    1.7722   -1.7189 H   0  0  0  0  0  0  0  0  0  0  0  0
   -4.7798    4.1374   -1.6800 H   0  0  0  0  0  0  0  0  0  0  0  0
   -2.3705    4.7356   -1.6994 H   0  0  0  0  0  0  0  0  0  0  0  0
   -0.6601    2.9904   -1.7015 H   0  0  0  0  0  0  0  0  0  0  0  0
    1.4471   -0.9041   -1.0676 H   0  0  0  0  0  0  0  0  0  0  0  0
    3.6974    2.1102   -0.8206 H   0  0  0  0  0  0  0  0  0  0  0  0
    5.7165    2.0941    0.5597 H   0  0  0  0  0  0  0  0  0  0  0  0
    2.8694   -1.9637    0.3701 H   0  0  0  0  0  0  0  0  0  0  0  0
    6.2205   -2.9512    3.2739 H   0  0  0  0  0  0  0  0  0  0  0  0
    5.3860   -1.4619    3.7607 H   0  0  0  0  0  0  0  0  0  0  0  0
    7.4999   -1.6627    1.5116 H   0  0  0  0  0  0  0  0  0  0  0  0
    7.8028   -1.0370    3.1448 H   0  0  0  0  0  0  0  0  0  0  0  0
  1  2  2  0
  2  3  1  0
  3  4  1  0
  4  5  1  0
  5  6  2  0
  5  7  1  0
  7  8  1  0
  8  9  1  0
  9 10  2  0
 10 11  1  0
 11 12  2  0
 12 13  1  0
  8 14  1  0
 14 15  1  0
 15 16  2  0
 16 17  1  0
 17 18  2  0
 18 19  1  0
 19 20  2  0
  2 21  1  0
 21 22  1  0
 22 23  2  0
 23 24  1  0
 24 25  2  0
 25 26  1  0
 26 27  2  0
 26 28  1  0
 28 29  1  0
 29 30  1  0
 30 31  1  0
 20  4  1  0
 27 22  1  0
 13  9  1  0
 20 15  1  0
 31 25  1  0
  3 32  1  0
  3 33  1  0
  7 34  1  0
  7 35  1  0
  8 36  1  0
 10 37  1  0
 11 38  1  0
 12 39  1  0
 16 40  1  0
 17 41  1  0
 18 42  1  0
 19 43  1  0
 21 44  1  0
 23 45  1  0
 24 46  1  0
 27 47  1  0
 29 48  1  0
 29 49  1  0
 30 50  1  0
 30 51  1  0
M  END
$$$$
