
     RDKit          3D

 46 48  0  0  0  0  0  0  0  0999 V2000
    1.4499    2.4429   -0.5360 O   0  0  0  0  0  0  0  0  0  0  0  0
    1.2954    1.5805    0.3275 C   0  0  0  0  0  0  0  0  0  0  0  0
   -0.0275    0.8926    0.6606 C   0  0  0  0  0  0  0  0  0  0  0  0
   -1.0717    1.3714   -0.1728 O   0  0  0  0  0  0  0  0  0  0  0  0
   -2.3162    0.8403    0.0175 C   0  0  0  0  0  0  0  0  0  0  0  0
   -3.3019    1.3508   -0.8275 C   0  0  0  0  0  0  0  0  0  0  0  0
   -4.6220    0.8973   -0.7416 C   0  0  0  0  0  0  0  0  0  0  0  0
   -4.9878   -0.0814    0.1936 C   0  0  0  0  0  0  0  0  0  0  0  0
   -6.3760   -0.5616    0.2888 C   0  0  0  0  0  0  0  0  0  0  0  0
   -6.6754   -1.9322    0.2124 C   0  0  0  0  0  0  0  0  0  0  0  0
   -7.9934   -2.3886    0.3028 C   0  0  0  0  0  0  0  0  0  0  0  0
   -9.0354   -1.4807    0.4725 C   0  0  0  0  0  0  0  0  0  0  0  0
   -8.7610   -0.1179    0.5509 C   0  0  0  0  0  0  0  0  0  0  0  0
   -7.4426    0.3369    0.4591 C   0  0  0  0  0  0  0  0  0  0  0  0
   -3.9859   -0.5874    1.0372 C   0  0  0  0  0  0  0  0  0  0  0  0
   -2.6629   -0.1326    0.9528 C   0  0  0  0  0  0  0  0  0  0  0  0
    2.3518    1.1419    1.1162 N   0  0  0  0  0  0  0  0  0  0  0  0
    3.6491    1.5309    0.6842 N   0  0  0  0  0  0  0  0  0  0  0  0
    4.5397    0.4874    0.4630 C   0  0  0  0  0  0  0  0  0  0  0  0
    4.2683   -0.6622    0.7974 O   0  0  0  0  0  0  0  0  0  0  0  0
    5.7009    0.9308   -0.1228 N   0  0  0  0  0  0  0  0  0  0  0  0
    6.8134    0.1640   -0.5255 C   0  0  0  0  0  0  0  0  0  0  0  0
    6.8675   -1.2306   -0.4760 C   0  0  0  0  0  0  0  0  0  0  0  0
    8.0187   -1.9013   -0.9045 C   0  0  0  0  0  0  0  0  0  0  0  0
    9.1080   -1.1786   -1.3819 C   0  0  0  0  0  0  0  0  0  0  0  0
   10.2040   -1.8308   -1.7894 F   0  0  0  0  0  0  0  0  0  0  0  0
    9.0747    0.2057   -1.4431 C   0  0  0  0  0  0  0  0  0  0  0  0
    7.9276    0.8629   -1.0154 C   0  0  0  0  0  0  0  0  0  0  0  0
    7.8893    2.2041   -1.0731 F   0  0  0  0  0  0  0  0  0  0  0  0
    0.1148   -0.1839    0.5066 H   0  0  0  0  0  0  0  0  0  0  0  0
   -0.2527    1.1078    1.7121 H   0  0  0  0  0  0  0  0  0  0  0  0
   -3.0411    2.1083   -1.5632 H   0  0  0  0  0  0  0  0  0  0  0  0
   -5.3633    1.3090   -1.4234 H   0  0  0  0  0  0  0  0  0  0  0  0
   -5.8778   -2.6580    0.0672 H   0  0  0  0  0  0  0  0  0  0  0  0
   -8.2042   -3.4527    0.2370 H   0  0  0  0  0  0  0  0  0  0  0  0
  -10.0605   -1.8348    0.5427 H   0  0  0  0  0  0  0  0  0  0  0  0
   -9.5714    0.5937    0.6854 H   0  0  0  0  0  0  0  0  0  0  0  0
   -7.2497    1.4053    0.5332 H   0  0  0  0  0  0  0  0  0  0  0  0
   -4.2349   -1.3396    1.7838 H   0  0  0  0  0  0  0  0  0  0  0  0
   -1.9376   -0.5609    1.6357 H   0  0  0  0  0  0  0  0  0  0  0  0
    2.3206    0.2024    1.5161 H   0  0  0  0  0  0  0  0  0  0  0  0
    3.6188    2.2614   -0.0284 H   0  0  0  0  0  0  0  0  0  0  0  0
    5.8136    1.9349   -0.1994 H   0  0  0  0  0  0  0  0  0  0  0  0
    6.0336   -1.8243   -0.1140 H   0  0  0  0  0  0  0  0  0  0  0  0
    8.0685   -2.9859   -0.8682 H   0  0  0  0  0  0  0  0  0  0  0  0
    9.9249    0.7629   -1.8170 H   0  0  0  0  0  0  0  0  0  0  0  0
  1  2  2  0
  2  3  1  0
  3  4  1  0
  4  5  1  0
  5  6  2  0
  6  7  1  0
  7  8  2  0
  8  9  1  0
  9 10  2  0
 10 11  1  0
 11 12  2  0
 12 13  1  0
 13 14  2  0
  8 15  1  0
 15 16  2  0
  2 17  1  0
 17 18  1  0
 18 19  1  0
 19 20  2  0
 19 21  1  0
 21 22  1  0
 22 23  2  0
 23 24  1  0
 24 25  2  0
 25 26  1  0
 25 27  1  0
 27 28  2  0
 28 29  1  0
 16  5  1  0
 28 22  1  0
 14  9  1  0
  3 30  1  0
  3 31  1  0
  6 32  1  0
  7 33  1  0
 10 34  1  0
 11 35  1  0
 12 36  1  0
 13 37  1  0
 14 38  1  0
 15 39  1  0
 16 40  1  0
 17 41  1  0
 18 42  1  0
 21 43  1  0
 23 44  1  0
 24 45  1  0
 27 46  1  0
M  END
$$$$
