
     RDKit          3D

 51 55  0  0  0  0  0  0  0  0999 V2000
    6.8322    2.4781    0.3648 C   0  0  0  0  0  0  0  0  0  0  0  0
    6.9373    1.1228    0.6723 C   0  0  0  0  0  0  0  0  0  0  0  0
    5.9348    0.2361    0.2766 C   0  0  0  0  0  0  0  0  0  0  0  0
    4.8191    0.6981   -0.4346 C   0  0  0  0  0  0  0  0  0  0  0  0
    3.7235   -0.2577   -0.8461 C   0  0  0  0  0  0  0  0  0  0  0  0
    2.5882   -0.2965    0.1906 C   0  0  0  0  0  0  0  0  0  0  0  0
    1.5634   -1.3196   -0.0988 N   0  0  0  0  0  0  0  0  0  0  0  0
    0.7798   -0.9893   -1.3163 C   0  0  0  0  0  0  0  0  0  0  0  0
   -0.3719   -1.9892   -1.5731 C   0  0  0  0  0  0  0  0  0  0  0  0
   -1.2678   -2.1015   -0.4039 N   0  0  0  0  0  0  0  0  0  0  0  0
   -2.3190   -1.1939   -0.2784 C   0  0  0  0  0  0  0  0  0  0  0  0
   -2.2748   -0.0649   -0.9404 N   0  0  0  0  0  0  0  0  0  0  0  0
   -3.3050    0.8869   -0.8080 C   0  0  0  0  0  0  0  0  0  0  0  0
   -3.2015    2.0799   -1.5260 C   0  0  0  0  0  0  0  0  0  0  0  0
   -4.1908    3.0621   -1.4246 C   0  0  0  0  0  0  0  0  0  0  0  0
   -5.2972    2.8591   -0.5989 C   0  0  0  0  0  0  0  0  0  0  0  0
   -5.4214    1.6747    0.1282 C   0  0  0  0  0  0  0  0  0  0  0  0
   -4.4239    0.7015    0.0163 C   0  0  0  0  0  0  0  0  0  0  0  0
   -4.4765   -0.5241    0.6994 N   0  0  0  0  0  0  0  0  0  0  0  0
   -5.4391   -1.0121    1.5513 C   0  0  0  0  0  0  0  0  0  0  0  0
   -5.0826   -2.2928    1.9150 C   0  0  0  0  0  0  0  0  0  0  0  0
   -3.8562   -2.5837    1.2741 C   0  0  0  0  0  0  0  0  0  0  0  0
   -3.4789   -1.4618    0.5575 C   0  0  0  0  0  0  0  0  0  0  0  0
   -0.4988   -2.4567    0.8048 C   0  0  0  0  0  0  0  0  0  0  0  0
    0.6331   -1.4341    1.0520 C   0  0  0  0  0  0  0  0  0  0  0  0
    4.7203    2.0636   -0.7344 C   0  0  0  0  0  0  0  0  0  0  0  0
    5.7241    2.9486   -0.3375 C   0  0  0  0  0  0  0  0  0  0  0  0
    7.6139    3.1675    0.6730 H   0  0  0  0  0  0  0  0  0  0  0  0
    7.8005    0.7556    1.2211 H   0  0  0  0  0  0  0  0  0  0  0  0
    6.0291   -0.8184    0.5265 H   0  0  0  0  0  0  0  0  0  0  0  0
    4.1471   -1.2617   -0.9792 H   0  0  0  0  0  0  0  0  0  0  0  0
    3.3489    0.0478   -1.8302 H   0  0  0  0  0  0  0  0  0  0  0  0
    3.0373   -0.5225    1.1673 H   0  0  0  0  0  0  0  0  0  0  0  0
    2.1288    0.6970    0.2838 H   0  0  0  0  0  0  0  0  0  0  0  0
    1.4327   -1.0178   -2.1951 H   0  0  0  0  0  0  0  0  0  0  0  0
    0.3773    0.0284   -1.2407 H   0  0  0  0  0  0  0  0  0  0  0  0
   -0.9336   -1.7004   -2.4697 H   0  0  0  0  0  0  0  0  0  0  0  0
    0.0494   -2.9807   -1.7836 H   0  0  0  0  0  0  0  0  0  0  0  0
   -2.3409    2.2414   -2.1692 H   0  0  0  0  0  0  0  0  0  0  0  0
   -4.0963    3.9849   -1.9915 H   0  0  0  0  0  0  0  0  0  0  0  0
   -6.0650    3.6258   -0.5244 H   0  0  0  0  0  0  0  0  0  0  0  0
   -6.2920    1.5375    0.7606 H   0  0  0  0  0  0  0  0  0  0  0  0
   -6.3085   -0.4311    1.8217 H   0  0  0  0  0  0  0  0  0  0  0  0
   -5.6513   -2.9486    2.5617 H   0  0  0  0  0  0  0  0  0  0  0  0
   -3.3053   -3.5135    1.3261 H   0  0  0  0  0  0  0  0  0  0  0  0
   -0.0719   -3.4588    0.6723 H   0  0  0  0  0  0  0  0  0  0  0  0
   -1.1350   -2.5033    1.6938 H   0  0  0  0  0  0  0  0  0  0  0  0
    1.1924   -1.7586    1.9378 H   0  0  0  0  0  0  0  0  0  0  0  0
    0.1904   -0.4555    1.2818 H   0  0  0  0  0  0  0  0  0  0  0  0
    3.8602    2.4459   -1.2798 H   0  0  0  0  0  0  0  0  0  0  0  0
    5.6413    4.0057   -0.5760 H   0  0  0  0  0  0  0  0  0  0  0  0
  1  2  2  0
  2  3  1  0
  3  4  2  0
  4  5  1  0
  5  6  1  0
  6  7  1  0
  7  8  1  0
  8  9  1  0
  9 10  1  0
 10 11  1  0
 11 12  2  0
 12 13  1  0
 13 14  2  0
 14 15  1  0
 15 16  2  0
 16 17  1  0
 17 18  2  0
 18 19  1  0
 19 20  1  0
 20 21  2  0
 21 22  1  0
 22 23  2  0
 10 24  1  0
 24 25  1  0
  4 26  1  0
 26 27  2  0
 27  1  1  0
 25  7  1  0
 23 11  1  0
 18 13  1  0
 23 19  1  0
  1 28  1  0
  2 29  1  0
  3 30  1  0
  5 31  1  0
  5 32  1  0
  6 33  1  0
  6 34  1  0
  8 35  1  0
  8 36  1  0
  9 37  1  0
  9 38  1  0
 14 39  1  0
 15 40  1  0
 16 41  1  0
 17 42  1  0
 20 43  1  0
 21 44  1  0
 22 45  1  0
 24 46  1  0
 24 47  1  0
 25 48  1  0
 25 49  1  0
 26 50  1  0
 27 51  1  0
M  END
$$$$
