
     RDKit          3D

 49 53  0  0  0  0  0  0  0  0999 V2000
    3.1603    2.5738    3.1025 C   0  0  0  0  0  0  0  0  0  0  0  0
    2.6497    1.2272    2.6851 C   0  0  0  0  0  0  0  0  0  0  0  0
    2.2790    0.0718    3.8796 S   0  0  0  0  0  0  0  0  0  0  0  0
    1.8856   -1.1098    2.7174 C   0  0  0  0  0  0  0  0  0  0  0  0
    1.5320   -2.3483    3.1166 N   0  0  0  0  0  0  0  0  0  0  0  0
    1.2850   -3.1639    2.0976 C   0  0  0  0  0  0  0  0  0  0  0  0
    1.3283   -2.8701    0.7924 N   0  0  0  0  0  0  0  0  0  0  0  0
    1.6618   -1.6091    0.4351 C   0  0  0  0  0  0  0  0  0  0  0  0
    1.7297   -1.2712   -1.2998 S   0  0  0  0  0  0  0  0  0  0  0  0
    0.1181   -2.0100   -1.8098 C   0  0  0  0  0  0  0  0  0  0  0  0
    0.3699   -3.0323   -2.9214 C   0  0  0  0  0  0  0  0  0  0  0  0
   -0.8052   -0.8619   -2.2726 C   0  0  0  0  0  0  0  0  0  0  0  0
   -1.0173   -0.6312   -3.4701 O   0  0  0  0  0  0  0  0  0  0  0  0
   -1.3122   -0.0810   -1.2118 N   0  0  0  0  0  0  0  0  0  0  0  0
   -2.1742   -0.6906   -0.2252 C   0  0  0  0  0  0  0  0  0  0  0  0
   -2.8337   -1.9018   -0.5376 C   0  0  0  0  0  0  0  0  0  0  0  0
   -3.6779   -2.5479    0.3757 C   0  0  0  0  0  0  0  0  0  0  0  0
   -3.8940   -1.9921    1.6287 C   0  0  0  0  0  0  0  0  0  0  0  0
   -3.2824   -0.7808    1.9491 C   0  0  0  0  0  0  0  0  0  0  0  0
   -2.4396   -0.1230    1.0290 C   0  0  0  0  0  0  0  0  0  0  0  0
   -1.7394    1.4110    1.5513 S   0  0  0  0  0  0  0  0  0  0  0  0
   -1.3058    2.1137   -0.0205 C   0  0  0  0  0  0  0  0  0  0  0  0
   -1.0774    3.5023   -0.0271 C   0  0  0  0  0  0  0  0  0  0  0  0
   -0.6146    4.1479   -1.1694 C   0  0  0  0  0  0  0  0  0  0  0  0
   -0.3543    3.4006   -2.3054 C   0  0  0  0  0  0  0  0  0  0  0  0
   -0.5848    2.0228   -2.3063 C   0  0  0  0  0  0  0  0  0  0  0  0
   -1.0896    1.3437   -1.1757 C   0  0  0  0  0  0  0  0  0  0  0  0
    1.9878   -0.6460    1.4091 C   0  0  0  0  0  0  0  0  0  0  0  0
    2.4363    0.7458    1.3957 C   0  0  0  0  0  0  0  0  0  0  0  0
    2.6842    1.5627    0.1592 C   0  0  0  0  0  0  0  0  0  0  0  0
    3.2848    2.6568    4.1935 H   0  0  0  0  0  0  0  0  0  0  0  0
    4.1407    2.7626    2.6487 H   0  0  0  0  0  0  0  0  0  0  0  0
    2.4647    3.3608    2.7801 H   0  0  0  0  0  0  0  0  0  0  0  0
    1.0166   -4.1858    2.3528 H   0  0  0  0  0  0  0  0  0  0  0  0
   -0.3448   -2.5413   -0.9732 H   0  0  0  0  0  0  0  0  0  0  0  0
   -0.5804   -3.4579   -3.2694 H   0  0  0  0  0  0  0  0  0  0  0  0
    0.8669   -2.5922   -3.7985 H   0  0  0  0  0  0  0  0  0  0  0  0
    0.9804   -3.8579   -2.5508 H   0  0  0  0  0  0  0  0  0  0  0  0
   -2.7388   -2.3502   -1.5272 H   0  0  0  0  0  0  0  0  0  0  0  0
   -4.1748   -3.4763    0.0967 H   0  0  0  0  0  0  0  0  0  0  0  0
   -4.5496   -2.4825    2.3476 H   0  0  0  0  0  0  0  0  0  0  0  0
   -3.4750   -0.3435    2.9286 H   0  0  0  0  0  0  0  0  0  0  0  0
   -1.2530    4.0939    0.8703 H   0  0  0  0  0  0  0  0  0  0  0  0
   -0.4425    5.2217   -1.1619 H   0  0  0  0  0  0  0  0  0  0  0  0
    0.0210    3.8853   -3.2033 H   0  0  0  0  0  0  0  0  0  0  0  0
   -0.3657    1.5027   -3.2347 H   0  0  0  0  0  0  0  0  0  0  0  0
    2.9836    2.5908    0.3985 H   0  0  0  0  0  0  0  0  0  0  0  0
    1.7718    1.6353   -0.4460 H   0  0  0  0  0  0  0  0  0  0  0  0
    3.4890    1.1252   -0.4387 H   0  0  0  0  0  0  0  0  0  0  0  0
  1  2  1  0
  2  3  1  0
  3  4  1  0
  4  5  2  0
  5  6  1  0
  6  7  2  0
  7  8  1  0
  8  9  1  0
  9 10  1  0
 10 11  1  0
 10 12  1  0
 12 13  2  0
 12 14  1  0
 14 15  1  0
 15 16  2  0
 16 17  1  0
 17 18  2  0
 18 19  1  0
 19 20  2  0
 20 21  1  0
 21 22  1  0
 22 23  2  0
 23 24  1  0
 24 25  2  0
 25 26  1  0
 26 27  2  0
  8 28  2  0
 28 29  1  0
 29 30  1  0
 29  2  2  0
 28  4  1  0
 27 14  1  0
 20 15  1  0
 27 22  1  0
  1 31  1  0
  1 32  1  0
  1 33  1  0
  6 34  1  0
 10 35  1  0
 11 36  1  0
 11 37  1  0
 11 38  1  0
 16 39  1  0
 17 40  1  0
 18 41  1  0
 19 42  1  0
 23 43  1  0
 24 44  1  0
 25 45  1  0
 26 46  1  0
 30 47  1  0
 30 48  1  0
 30 49  1  0
M  END
$$$$
