
     RDKit          3D

 49 53  0  0  0  0  0  0  0  0999 V2000
    5.9547   -1.2871    1.8212 C   0  0  0  0  0  0  0  0  0  0  0  0
    4.9221   -0.2296    1.5942 C   0  0  0  0  0  0  0  0  0  0  0  0
    5.3320    1.1501    0.6795 S   0  0  0  0  0  0  0  0  0  0  0  0
    3.7786    1.8111    0.8490 C   0  0  0  0  0  0  0  0  0  0  0  0
    3.5007    3.0002    0.2870 N   0  0  0  0  0  0  0  0  0  0  0  0
    2.2504    3.3952    0.5087 C   0  0  0  0  0  0  0  0  0  0  0  0
    1.3025    2.7390    1.1854 N   0  0  0  0  0  0  0  0  0  0  0  0
    1.6253    1.5489    1.7394 C   0  0  0  0  0  0  0  0  0  0  0  0
    0.3700    0.7457    2.6912 S   0  0  0  0  0  0  0  0  0  0  0  0
   -0.9829    0.7159    1.4477 C   0  0  0  0  0  0  0  0  0  0  0  0
   -2.2647    0.3057    2.1718 C   0  0  0  0  0  0  0  0  0  0  0  0
   -0.6653   -0.2708    0.2992 C   0  0  0  0  0  0  0  0  0  0  0  0
    0.3393   -0.9832    0.2666 O   0  0  0  0  0  0  0  0  0  0  0  0
   -1.6661   -0.3114   -0.6871 N   0  0  0  0  0  0  0  0  0  0  0  0
   -2.4187   -1.5232   -0.9004 C   0  0  0  0  0  0  0  0  0  0  0  0
   -2.0431   -2.7141   -0.2406 C   0  0  0  0  0  0  0  0  0  0  0  0
   -2.7457   -3.9119   -0.4096 C   0  0  0  0  0  0  0  0  0  0  0  0
   -3.8580   -3.9505   -1.2339 C   0  0  0  0  0  0  0  0  0  0  0  0
   -4.2686   -2.7868   -1.8754 C   0  0  0  0  0  0  0  0  0  0  0  0
   -3.5645   -1.5784   -1.7110 C   0  0  0  0  0  0  0  0  0  0  0  0
   -4.2776   -0.1583   -2.4943 S   0  0  0  0  0  0  0  0  0  0  0  0
   -2.9114    0.9620   -2.4458 C   0  0  0  0  0  0  0  0  0  0  0  0
   -2.9893    2.0753   -3.3036 C   0  0  0  0  0  0  0  0  0  0  0  0
   -1.9702    3.0220   -3.3478 C   0  0  0  0  0  0  0  0  0  0  0  0
   -0.8576    2.8590   -2.5388 C   0  0  0  0  0  0  0  0  0  0  0  0
   -0.7783    1.7591   -1.6801 C   0  0  0  0  0  0  0  0  0  0  0  0
   -1.8088    0.7966   -1.5964 C   0  0  0  0  0  0  0  0  0  0  0  0
    2.9192    1.0142    1.5942 C   0  0  0  0  0  0  0  0  0  0  0  0
    3.6037   -0.1984    2.0344 C   0  0  0  0  0  0  0  0  0  0  0  0
    2.9783   -1.2895    2.8497 C   0  0  0  0  0  0  0  0  0  0  0  0
    6.1280   -1.4215    2.8941 H   0  0  0  0  0  0  0  0  0  0  0  0
    6.9158   -1.0425    1.3572 H   0  0  0  0  0  0  0  0  0  0  0  0
    5.6165   -2.2410    1.4029 H   0  0  0  0  0  0  0  0  0  0  0  0
    1.9669    4.3559    0.0904 H   0  0  0  0  0  0  0  0  0  0  0  0
   -1.1170    1.7263    1.0528 H   0  0  0  0  0  0  0  0  0  0  0  0
   -2.4774    0.9656    3.0205 H   0  0  0  0  0  0  0  0  0  0  0  0
   -3.1286    0.3646    1.5006 H   0  0  0  0  0  0  0  0  0  0  0  0
   -2.2116   -0.7266    2.5371 H   0  0  0  0  0  0  0  0  0  0  0  0
   -1.1742   -2.7562    0.4116 H   0  0  0  0  0  0  0  0  0  0  0  0
   -2.4137   -4.8112    0.1038 H   0  0  0  0  0  0  0  0  0  0  0  0
   -4.4101   -4.8764   -1.3709 H   0  0  0  0  0  0  0  0  0  0  0  0
   -5.1578   -2.8238   -2.5026 H   0  0  0  0  0  0  0  0  0  0  0  0
   -3.8528    2.2084   -3.9534 H   0  0  0  0  0  0  0  0  0  0  0  0
   -2.0417    3.8723   -4.0210 H   0  0  0  0  0  0  0  0  0  0  0  0
   -0.0413    3.5761   -2.5803 H   0  0  0  0  0  0  0  0  0  0  0  0
    0.1383    1.6557   -1.1043 H   0  0  0  0  0  0  0  0  0  0  0  0
    2.6526   -0.9036    3.8204 H   0  0  0  0  0  0  0  0  0  0  0  0
    3.6791   -2.1064    3.0482 H   0  0  0  0  0  0  0  0  0  0  0  0
    2.1229   -1.7228    2.3233 H   0  0  0  0  0  0  0  0  0  0  0  0
  1  2  1  0
  2  3  1  0
  3  4  1  0
  4  5  2  0
  5  6  1  0
  6  7  2  0
  7  8  1  0
  8  9  1  0
  9 10  1  0
 10 11  1  0
 10 12  1  0
 12 13  2  0
 12 14  1  0
 14 15  1  0
 15 16  2  0
 16 17  1  0
 17 18  2  0
 18 19  1  0
 19 20  2  0
 20 21  1  0
 21 22  1  0
 22 23  2  0
 23 24  1  0
 24 25  2  0
 25 26  1  0
 26 27  2  0
  8 28  2  0
 28 29  1  0
 29 30  1  0
 29  2  2  0
 28  4  1  0
 27 14  1  0
 20 15  1  0
 27 22  1  0
  1 31  1  0
  1 32  1  0
  1 33  1  0
  6 34  1  0
 10 35  1  0
 11 36  1  0
 11 37  1  0
 11 38  1  0
 16 39  1  0
 17 40  1  0
 18 41  1  0
 19 42  1  0
 23 43  1  0
 24 44  1  0
 25 45  1  0
 26 46  1  0
 30 47  1  0
 30 48  1  0
 30 49  1  0
M  END
$$$$
