
     RDKit          3D

 55 60  0  0  0  0  0  0  0  0999 V2000
    4.8169   -2.3039   -0.5383 O   0  0  0  0  0  0  0  0  0  0  0  0
    4.2621   -1.5563    0.2647 C   0  0  0  0  0  0  0  0  0  0  0  0
    4.8967   -1.2358    1.5352 C   0  0  0  0  0  0  0  0  0  0  0  0
    4.3363   -0.9350    2.8127 C   0  0  0  0  0  0  0  0  0  0  0  0
    5.3926   -0.7501    3.6733 C   0  0  0  0  0  0  0  0  0  0  0  0
    6.5686   -0.9374    3.0241 O   0  0  0  0  0  0  0  0  0  0  0  0
    6.2629   -1.2497    1.7394 C   0  0  0  0  0  0  0  0  0  0  0  0
    2.9801   -1.0292    0.0255 N   0  0  0  0  0  0  0  0  0  0  0  0
    2.7106    0.3827    0.2964 C   0  0  0  0  0  0  0  0  0  0  0  0
    1.2122    0.6429    0.4344 C   0  0  0  0  0  0  0  0  0  0  0  0
    0.4179    0.1429   -0.8019 C   0  0  0  0  0  0  0  0  0  0  0  0
    0.7852   -1.3387   -1.0571 C   0  0  0  0  0  0  0  0  0  0  0  0
    2.2941   -1.5518   -1.1501 C   0  0  0  0  0  0  0  0  0  0  0  0
    0.9328    0.9488   -1.8943 O   0  0  0  0  0  0  0  0  0  0  0  0
    0.1828    1.0431   -3.0278 C   0  0  0  0  0  0  0  0  0  0  0  0
    0.8226    1.5922   -4.1407 C   0  0  0  0  0  0  0  0  0  0  0  0
    0.1394    1.7086   -5.3525 C   0  0  0  0  0  0  0  0  0  0  0  0
   -1.1803    1.2776   -5.4418 C   0  0  0  0  0  0  0  0  0  0  0  0
   -1.8306    1.3866   -6.6070 F   0  0  0  0  0  0  0  0  0  0  0  0
   -1.8332    0.7395   -4.3411 C   0  0  0  0  0  0  0  0  0  0  0  0
   -1.1440    0.6363   -3.1300 C   0  0  0  0  0  0  0  0  0  0  0  0
   -1.8068    0.0891   -1.9395 C   0  0  0  0  0  0  0  0  0  0  0  0
   -2.8529   -0.5428   -2.0619 O   0  0  0  0  0  0  0  0  0  0  0  0
   -1.1113    0.3485   -0.6075 C   0  0  0  0  0  0  0  0  0  0  0  0
   -1.7486   -0.4711    0.5067 C   0  0  0  0  0  0  0  0  0  0  0  0
   -2.6915    0.5551    1.0369 C   0  0  0  0  0  0  0  0  0  0  0  0
   -3.7822    0.2127    1.9807 C   0  0  0  0  0  0  0  0  0  0  0  0
   -3.9440   -1.0867    2.4762 C   0  0  0  0  0  0  0  0  0  0  0  0
   -4.9831   -1.3716    3.3689 C   0  0  0  0  0  0  0  0  0  0  0  0
   -5.8574   -0.3612    3.7665 C   0  0  0  0  0  0  0  0  0  0  0  0
   -7.1314   -0.7176    4.8652 Cl  0  0  0  0  0  0  0  0  0  0  0  0
   -5.7034    0.9346    3.2799 C   0  0  0  0  0  0  0  0  0  0  0  0
   -4.6663    1.2216    2.3880 C   0  0  0  0  0  0  0  0  0  0  0  0
   -2.4580    1.7645    0.6375 N   0  0  0  0  0  0  0  0  0  0  0  0
   -1.3672    1.7189   -0.2562 O   0  0  0  0  0  0  0  0  0  0  0  0
    3.2895   -0.8733    3.0743 H   0  0  0  0  0  0  0  0  0  0  0  0
    5.4725   -0.5078    4.7242 H   0  0  0  0  0  0  0  0  0  0  0  0
    7.1062   -1.4531    1.0927 H   0  0  0  0  0  0  0  0  0  0  0  0
    3.2216    0.7288    1.1963 H   0  0  0  0  0  0  0  0  0  0  0  0
    3.1386    0.9632   -0.5307 H   0  0  0  0  0  0  0  0  0  0  0  0
    1.0708    1.7224    0.5673 H   0  0  0  0  0  0  0  0  0  0  0  0
    0.8639    0.1510    1.3484 H   0  0  0  0  0  0  0  0  0  0  0  0
    0.3956   -1.9650   -0.2453 H   0  0  0  0  0  0  0  0  0  0  0  0
    0.3355   -1.7013   -1.9884 H   0  0  0  0  0  0  0  0  0  0  0  0
    2.7132   -1.0647   -2.0391 H   0  0  0  0  0  0  0  0  0  0  0  0
    2.4949   -2.6257   -1.2440 H   0  0  0  0  0  0  0  0  0  0  0  0
    1.8556    1.9243   -4.0680 H   0  0  0  0  0  0  0  0  0  0  0  0
    0.6271    2.1306   -6.2262 H   0  0  0  0  0  0  0  0  0  0  0  0
   -2.8666    0.4177   -4.4319 H   0  0  0  0  0  0  0  0  0  0  0  0
   -1.0582   -0.7374    1.3105 H   0  0  0  0  0  0  0  0  0  0  0  0
   -2.2560   -1.3749    0.1618 H   0  0  0  0  0  0  0  0  0  0  0  0
   -3.2792   -1.8948    2.1863 H   0  0  0  0  0  0  0  0  0  0  0  0
   -5.1059   -2.3829    3.7490 H   0  0  0  0  0  0  0  0  0  0  0  0
   -6.3838    1.7249    3.5866 H   0  0  0  0  0  0  0  0  0  0  0  0
   -4.5565    2.2374    2.0119 H   0  0  0  0  0  0  0  0  0  0  0  0
  1  2  2  0
  2  3  1  0
  3  4  1  0
  4  5  2  0
  5  6  1  0
  6  7  1  0
  2  8  1  0
  8  9  1  0
  9 10  1  0
 10 11  1  0
 11 12  1  0
 12 13  1  0
 11 14  1  0
 14 15  1  0
 15 16  2  0
 16 17  1  0
 17 18  2  0
 18 19  1  0
 18 20  1  0
 20 21  2  0
 21 22  1  0
 22 23  2  0
 22 24  1  0
 24 25  1  0
 25 26  1  0
 26 27  1  0
 27 28  2  0
 28 29  1  0
 29 30  2  0
 30 31  1  0
 30 32  1  0
 32 33  2  0
 26 34  2  0
 34 35  1  0
  7  3  2  0
 13  8  1  0
 21 15  1  0
 35 24  1  0
 24 11  1  0
 33 27  1  0
  4 36  1  0
  5 37  1  0
  7 38  1  0
  9 39  1  0
  9 40  1  0
 10 41  1  0
 10 42  1  0
 12 43  1  0
 12 44  1  0
 13 45  1  0
 13 46  1  0
 16 47  1  0
 17 48  1  0
 20 49  1  0
 25 50  1  0
 25 51  1  0
 28 52  1  0
 29 53  1  0
 32 54  1  0
 33 55  1  0
M  END
$$$$
