
     RDKit          3D

 57 60  0  0  0  0  0  0  0  0999 V2000
    7.7259    2.9428   -1.5378 C   0  0  0  0  0  0  0  0  0  0  0  0
    6.3720    2.6049   -0.9382 C   0  0  0  0  0  0  0  0  0  0  0  0
    6.4318    1.2736   -0.4323 O   0  0  0  0  0  0  0  0  0  0  0  0
    5.2954    0.7767    0.1440 C   0  0  0  0  0  0  0  0  0  0  0  0
    4.1068    1.4735    0.3516 C   0  0  0  0  0  0  0  0  0  0  0  0
    3.0183    0.8385    0.9631 C   0  0  0  0  0  0  0  0  0  0  0  0
    3.1004   -0.4992    1.3689 C   0  0  0  0  0  0  0  0  0  0  0  0
    1.9591   -1.0524    1.9793 N   0  0  0  0  0  0  0  0  0  0  0  0
    1.7369   -2.3747    2.3255 C   0  0  0  0  0  0  0  0  0  0  0  0
    2.5043   -3.3135    2.1292 O   0  0  0  0  0  0  0  0  0  0  0  0
    0.3920   -2.5982    3.0048 C   0  0  0  0  0  0  0  0  0  0  0  0
   -0.9165   -2.8921    1.7776 S   0  0  0  0  0  0  0  0  0  0  0  0
   -1.1999   -1.2858    1.1842 C   0  0  0  0  0  0  0  0  0  0  0  0
   -0.6938   -0.2050    1.7353 N   0  0  0  0  0  0  0  0  0  0  0  0
   -0.9649    0.8508    0.9181 N   0  0  0  0  0  0  0  0  0  0  0  0
   -1.6803    0.4118   -0.1035 C   0  0  0  0  0  0  0  0  0  0  0  0
   -2.3593    1.3045   -1.0924 C   0  0  0  0  0  0  0  0  0  0  0  0
   -3.8401    1.3932   -0.8640 C   0  0  0  0  0  0  0  0  0  0  0  0
   -4.8736    0.8779   -1.6288 C   0  0  0  0  0  0  0  0  0  0  0  0
   -6.0924    1.2133   -0.9979 C   0  0  0  0  0  0  0  0  0  0  0  0
   -5.7812    1.9312    0.1336 C   0  0  0  0  0  0  0  0  0  0  0  0
   -4.4166    2.0455    0.2079 N   0  0  0  0  0  0  0  0  0  0  0  0
   -3.7228    2.7400    1.2729 C   0  0  0  0  0  0  0  0  0  0  0  0
   -1.8315   -0.9691   -0.0076 N   0  0  0  0  0  0  0  0  0  0  0  0
   -2.4777   -1.8378   -0.9246 C   0  0  0  0  0  0  0  0  0  0  0  0
   -2.2108   -1.7293   -2.2969 C   0  0  0  0  0  0  0  0  0  0  0  0
   -2.8467   -2.5864   -3.1978 C   0  0  0  0  0  0  0  0  0  0  0  0
   -3.7419   -3.5399   -2.7271 C   0  0  0  0  0  0  0  0  0  0  0  0
   -4.3503   -4.3582   -3.5953 F   0  0  0  0  0  0  0  0  0  0  0  0
   -4.0121   -3.6581   -1.3693 C   0  0  0  0  0  0  0  0  0  0  0  0
   -3.3773   -2.8086   -0.4605 C   0  0  0  0  0  0  0  0  0  0  0  0
    4.2909   -1.1924    1.1611 C   0  0  0  0  0  0  0  0  0  0  0  0
    5.3799   -0.5553    0.5538 C   0  0  0  0  0  0  0  0  0  0  0  0
    7.9798    2.2436   -2.3428 H   0  0  0  0  0  0  0  0  0  0  0  0
    8.5143    2.8628   -0.7821 H   0  0  0  0  0  0  0  0  0  0  0  0
    7.7277    3.9585   -1.9435 H   0  0  0  0  0  0  0  0  0  0  0  0
    6.1557    3.3117   -0.1288 H   0  0  0  0  0  0  0  0  0  0  0  0
    5.6054    2.6776   -1.7176 H   0  0  0  0  0  0  0  0  0  0  0  0
    3.9897    2.5100    0.0548 H   0  0  0  0  0  0  0  0  0  0  0  0
    2.1010    1.4052    1.1118 H   0  0  0  0  0  0  0  0  0  0  0  0
    1.1589   -0.4237    2.0647 H   0  0  0  0  0  0  0  0  0  0  0  0
    0.1452   -1.7619    3.6676 H   0  0  0  0  0  0  0  0  0  0  0  0
    0.4791   -3.4873    3.6388 H   0  0  0  0  0  0  0  0  0  0  0  0
   -2.1542    0.9887   -2.1191 H   0  0  0  0  0  0  0  0  0  0  0  0
   -1.9267    2.3103   -1.0174 H   0  0  0  0  0  0  0  0  0  0  0  0
   -4.7628    0.3120   -2.5455 H   0  0  0  0  0  0  0  0  0  0  0  0
   -7.0901    0.9600   -1.3317 H   0  0  0  0  0  0  0  0  0  0  0  0
   -6.4227    2.3689    0.8883 H   0  0  0  0  0  0  0  0  0  0  0  0
   -3.3118    1.9947    1.9579 H   0  0  0  0  0  0  0  0  0  0  0  0
   -4.4291    3.3827    1.8061 H   0  0  0  0  0  0  0  0  0  0  0  0
   -2.9317    3.3579    0.8413 H   0  0  0  0  0  0  0  0  0  0  0  0
   -1.4782   -1.0259   -2.6841 H   0  0  0  0  0  0  0  0  0  0  0  0
   -2.6405   -2.5265   -4.2618 H   0  0  0  0  0  0  0  0  0  0  0  0
   -4.7187   -4.4078   -1.0264 H   0  0  0  0  0  0  0  0  0  0  0  0
   -3.6297   -2.8981    0.5937 H   0  0  0  0  0  0  0  0  0  0  0  0
    4.4119   -2.2269    1.4658 H   0  0  0  0  0  0  0  0  0  0  0  0
    6.3038   -1.1085    0.4015 H   0  0  0  0  0  0  0  0  0  0  0  0
  1  2  1  0
  2  3  1  0
  3  4  1  0
  4  5  2  0
  5  6  1  0
  6  7  2  0
  7  8  1  0
  8  9  1  0
  9 10  2  0
  9 11  1  0
 11 12  1  0
 12 13  1  0
 13 14  2  0
 14 15  1  0
 15 16  2  0
 16 17  1  0
 17 18  1  0
 18 19  2  0
 19 20  1  0
 20 21  2  0
 21 22  1  0
 22 23  1  0
 16 24  1  0
 24 25  1  0
 25 26  2  0
 26 27  1  0
 27 28  2  0
 28 29  1  0
 28 30  1  0
 30 31  2  0
  7 32  1  0
 32 33  2  0
 33  4  1  0
 24 13  1  0
 31 25  1  0
 22 18  1  0
  1 34  1  0
  1 35  1  0
  1 36  1  0
  2 37  1  0
  2 38  1  0
  5 39  1  0
  6 40  1  0
  8 41  1  0
 11 42  1  0
 11 43  1  0
 17 44  1  0
 17 45  1  0
 19 46  1  0
 20 47  1  0
 21 48  1  0
 23 49  1  0
 23 50  1  0
 23 51  1  0
 26 52  1  0
 27 53  1  0
 30 54  1  0
 31 55  1  0
 32 56  1  0
 33 57  1  0
M  END
$$$$
