
     RDKit          3D

 58 59  0  0  0  0  0  0  0  0999 V2000
    7.7816   -1.1434   -2.7311 C   0  0  0  0  0  0  0  0  0  0  0  0
    8.4906    0.0106   -2.0411 C   0  0  0  0  0  0  0  0  0  0  0  0
    7.5773    1.1818   -1.6624 C   0  0  0  0  0  0  0  0  0  0  0  0
    6.5311    0.8474   -0.5983 C   0  0  0  0  0  0  0  0  0  0  0  0
    5.4769    0.0951   -1.1950 O   0  0  0  0  0  0  0  0  0  0  0  0
    4.4629   -0.3225   -0.3794 C   0  0  0  0  0  0  0  0  0  0  0  0
    4.3247   -0.0263    0.9777 C   0  0  0  0  0  0  0  0  0  0  0  0
    3.2296   -0.5189    1.6992 C   0  0  0  0  0  0  0  0  0  0  0  0
    2.2632   -1.3067    1.0622 C   0  0  0  0  0  0  0  0  0  0  0  0
    1.0852   -1.8500    1.7909 C   0  0  0  0  0  0  0  0  0  0  0  0
    0.5603   -2.8956    1.4283 O   0  0  0  0  0  0  0  0  0  0  0  0
    0.6182   -1.0908    2.8456 N   0  0  0  0  0  0  0  0  0  0  0  0
   -0.6710   -1.4083    3.4467 C   0  0  0  0  0  0  0  0  0  0  0  0
   -1.8388   -0.6431    2.8281 C   0  0  0  0  0  0  0  0  0  0  0  0
   -3.0172   -0.8795    3.0688 O   0  0  0  0  0  0  0  0  0  0  0  0
   -1.4115    0.4015    2.0582 O   0  0  0  0  0  0  0  0  0  0  0  0
   -2.4703    1.1302    1.4273 C   0  0  0  0  0  0  0  0  0  0  0  0
   -3.0850    0.3516    0.2643 C   0  0  0  0  0  0  0  0  0  0  0  0
   -2.4394   -0.5059   -0.3487 O   0  0  0  0  0  0  0  0  0  0  0  0
   -4.5089    0.6288   -0.1070 C   0  0  0  0  0  0  0  0  0  0  0  0
   -5.3080   -0.3817   -0.5165 C   0  0  0  0  0  0  0  0  0  0  0  0
   -4.8469   -1.6903   -0.6232 N   0  0  0  0  0  0  0  0  0  0  0  0
   -6.6397   -0.1113   -0.8213 N   0  0  0  0  0  0  0  0  0  0  0  0
   -7.5338   -1.2179   -1.1613 C   0  0  0  0  0  0  0  0  0  0  0  0
   -7.1994    1.1630   -0.7833 C   0  0  0  0  0  0  0  0  0  0  0  0
   -8.3819    1.3783   -1.0572 O   0  0  0  0  0  0  0  0  0  0  0  0
   -6.3488    2.1909   -0.4132 N   0  0  0  0  0  0  0  0  0  0  0  0
   -6.9116    3.5282   -0.3563 C   0  0  0  0  0  0  0  0  0  0  0  0
   -5.0464    2.0011   -0.0148 C   0  0  0  0  0  0  0  0  0  0  0  0
   -4.3238    2.9119    0.3892 O   0  0  0  0  0  0  0  0  0  0  0  0
    2.4089   -1.6144   -0.2934 C   0  0  0  0  0  0  0  0  0  0  0  0
    3.5014   -1.1179   -1.0083 C   0  0  0  0  0  0  0  0  0  0  0  0
    7.1896   -0.7925   -3.5820 H   0  0  0  0  0  0  0  0  0  0  0  0
    7.1227   -1.6786   -2.0417 H   0  0  0  0  0  0  0  0  0  0  0  0
    8.5164   -1.8641   -3.1044 H   0  0  0  0  0  0  0  0  0  0  0  0
    9.0061   -0.3621   -1.1483 H   0  0  0  0  0  0  0  0  0  0  0  0
    9.2675    0.3898   -2.7162 H   0  0  0  0  0  0  0  0  0  0  0  0
    7.0824    1.5589   -2.5656 H   0  0  0  0  0  0  0  0  0  0  0  0
    8.2137    1.9875   -1.2767 H   0  0  0  0  0  0  0  0  0  0  0  0
    6.1244    1.7888   -0.2094 H   0  0  0  0  0  0  0  0  0  0  0  0
    6.9987    0.2834    0.2177 H   0  0  0  0  0  0  0  0  0  0  0  0
    5.0534    0.5793    1.5063 H   0  0  0  0  0  0  0  0  0  0  0  0
    3.1607   -0.3012    2.7613 H   0  0  0  0  0  0  0  0  0  0  0  0
    0.8944   -0.1178    2.8708 H   0  0  0  0  0  0  0  0  0  0  0  0
   -0.8717   -2.4803    3.3637 H   0  0  0  0  0  0  0  0  0  0  0  0
   -0.6057   -1.1226    4.5005 H   0  0  0  0  0  0  0  0  0  0  0  0
   -2.0243    2.0448    1.0248 H   0  0  0  0  0  0  0  0  0  0  0  0
   -3.2256    1.4075    2.1707 H   0  0  0  0  0  0  0  0  0  0  0  0
   -3.8198   -1.7512   -0.5965 H   0  0  0  0  0  0  0  0  0  0  0  0
   -5.1835   -2.1559   -1.4601 H   0  0  0  0  0  0  0  0  0  0  0  0
   -7.4621   -1.9994   -0.3977 H   0  0  0  0  0  0  0  0  0  0  0  0
   -8.5807   -0.9071   -1.2168 H   0  0  0  0  0  0  0  0  0  0  0  0
   -7.2477   -1.6185   -2.1390 H   0  0  0  0  0  0  0  0  0  0  0  0
   -6.1393    4.2971   -0.2710 H   0  0  0  0  0  0  0  0  0  0  0  0
   -7.5732    3.5882    0.5139 H   0  0  0  0  0  0  0  0  0  0  0  0
   -7.5022    3.7224   -1.2574 H   0  0  0  0  0  0  0  0  0  0  0  0
    1.6710   -2.2354   -0.7975 H   0  0  0  0  0  0  0  0  0  0  0  0
    3.6054   -1.3569   -2.0643 H   0  0  0  0  0  0  0  0  0  0  0  0
  1  2  1  0
  2  3  1  0
  3  4  1  0
  4  5  1  0
  5  6  1  0
  6  7  2  0
  7  8  1  0
  8  9  2  0
  9 10  1  0
 10 11  2  0
 10 12  1  0
 12 13  1  0
 13 14  1  0
 14 15  2  0
 14 16  1  0
 16 17  1  0
 17 18  1  0
 18 19  2  0
 18 20  1  0
 20 21  2  0
 21 22  1  0
 21 23  1  0
 23 24  1  0
 23 25  1  0
 25 26  2  0
 25 27  1  0
 27 28  1  0
 27 29  1  0
 29 30  2  0
  9 31  1  0
 31 32  2  0
 32  6  1  0
 29 20  1  0
  1 33  1  0
  1 34  1  0
  1 35  1  0
  2 36  1  0
  2 37  1  0
  3 38  1  0
  3 39  1  0
  4 40  1  0
  4 41  1  0
  7 42  1  0
  8 43  1  0
 12 44  1  0
 13 45  1  0
 13 46  1  0
 17 47  1  0
 17 48  1  0
 22 49  1  0
 22 50  1  0
 24 51  1  0
 24 52  1  0
 24 53  1  0
 28 54  1  0
 28 55  1  0
 28 56  1  0
 31 57  1  0
 32 58  1  0
M  END
$$$$
