
     RDKit          3D

 56 61  0  0  0  0  0  0  0  0999 V2000
    2.1309    2.7851   -2.2044 O   0  0  0  0  0  0  0  0  0  0  0  0
    1.3221    3.0877   -1.3396 C   0  0  0  0  0  0  0  0  0  0  0  0
    0.6611    4.3143   -1.2518 N   0  0  0  0  0  0  0  0  0  0  0  0
   -0.1065    4.3898   -0.0965 C   0  0  0  0  0  0  0  0  0  0  0  0
   -0.8633    5.4618    0.3270 C   0  0  0  0  0  0  0  0  0  0  0  0
   -1.5544    5.3220    1.5329 C   0  0  0  0  0  0  0  0  0  0  0  0
   -1.4698    4.1317    2.2785 C   0  0  0  0  0  0  0  0  0  0  0  0
   -0.6935    3.0589    1.8307 C   0  0  0  0  0  0  0  0  0  0  0  0
   -0.0151    3.1982    0.6303 C   0  0  0  0  0  0  0  0  0  0  0  0
    0.8730    2.2446   -0.1113 C   0  0  0  0  0  0  0  0  0  0  0  0
    2.0432    1.7263    0.6681 N   0  0  0  0  0  0  0  0  0  0  0  0
    2.1281    0.2270    0.4959 C   0  0  2  0  0  0  0  0  0  0  0  0
    3.3565   -0.1621   -0.3510 C   0  0  0  0  0  0  0  0  0  0  0  0
    3.6204   -1.6505   -0.3889 C   0  0  0  0  0  0  0  0  0  0  0  0
    3.4256   -2.3739   -1.5733 C   0  0  0  0  0  0  0  0  0  0  0  0
    3.6407   -3.7522   -1.6031 C   0  0  0  0  0  0  0  0  0  0  0  0
    4.0582   -4.4189   -0.4532 C   0  0  0  0  0  0  0  0  0  0  0  0
    4.2651   -3.7079    0.7271 C   0  0  0  0  0  0  0  0  0  0  0  0
    4.0498   -2.3296    0.7600 C   0  0  0  0  0  0  0  0  0  0  0  0
    0.8242   -0.1091   -0.1244 C   0  0  0  0  0  0  0  0  0  0  0  0
    0.1058    1.0431   -0.4641 C   0  0  0  0  0  0  0  0  0  0  0  0
   -1.0908    0.6676   -1.0183 C   0  0  0  0  0  0  0  0  0  0  0  0
   -2.1123    1.3677   -1.4964 O   0  0  0  0  0  0  0  0  0  0  0  0
   -1.1140   -0.7175   -0.9907 N   0  0  0  0  0  0  0  0  0  0  0  0
   -2.2073   -1.5436   -1.4866 C   0  0  0  0  0  0  0  0  0  0  0  0
   -3.2329   -1.8226   -0.4142 C   0  0  0  0  0  0  0  0  0  0  0  0
   -4.3378   -0.9755   -0.2453 C   0  0  0  0  0  0  0  0  0  0  0  0
   -5.2820   -1.2308    0.7505 C   0  0  0  0  0  0  0  0  0  0  0  0
   -5.1297   -2.3319    1.5909 C   0  0  0  0  0  0  0  0  0  0  0  0
   -4.0313   -3.1760    1.4396 C   0  0  0  0  0  0  0  0  0  0  0  0
   -3.0864   -2.9219    0.4442 C   0  0  0  0  0  0  0  0  0  0  0  0
    0.0685   -1.2042   -0.4550 C   0  0  0  0  0  0  0  0  0  0  0  0
    0.2836   -2.5087   -0.3401 O   0  0  0  0  0  0  0  0  0  0  0  0
    0.7970    5.0573   -1.9209 H   0  0  0  0  0  0  0  0  0  0  0  0
   -0.9242    6.3816   -0.2433 H   0  0  0  0  0  0  0  0  0  0  0  0
   -2.1634    6.1430    1.9055 H   0  0  0  0  0  0  0  0  0  0  0  0
   -2.0147    4.0446    3.2165 H   0  0  0  0  0  0  0  0  0  0  0  0
   -0.6274    2.1385    2.4042 H   0  0  0  0  0  0  0  0  0  0  0  0
    2.8815    2.1513    0.2741 H   0  0  0  0  0  0  0  0  0  0  0  0
    2.1906   -0.2119    1.4980 H   0  0  0  0  0  0  0  0  0  0  0  0
    4.2563    0.3171    0.0586 H   0  0  0  0  0  0  0  0  0  0  0  0
    3.2528    0.2219   -1.3746 H   0  0  0  0  0  0  0  0  0  0  0  0
    3.0897   -1.8701   -2.4782 H   0  0  0  0  0  0  0  0  0  0  0  0
    3.4803   -4.3054   -2.5252 H   0  0  0  0  0  0  0  0  0  0  0  0
    4.2272   -5.4924   -0.4789 H   0  0  0  0  0  0  0  0  0  0  0  0
    4.5986   -4.2274    1.6220 H   0  0  0  0  0  0  0  0  0  0  0  0
    4.2222   -1.7895    1.6888 H   0  0  0  0  0  0  0  0  0  0  0  0
   -1.9442    2.3057   -1.2953 H   0  0  0  0  0  0  0  0  0  0  0  0
   -1.7862   -2.4774   -1.8772 H   0  0  0  0  0  0  0  0  0  0  0  0
   -2.6628   -1.0315   -2.3424 H   0  0  0  0  0  0  0  0  0  0  0  0
   -4.4617   -0.1057   -0.8874 H   0  0  0  0  0  0  0  0  0  0  0  0
   -6.1335   -0.5668    0.8725 H   0  0  0  0  0  0  0  0  0  0  0  0
   -5.8635   -2.5288    2.3677 H   0  0  0  0  0  0  0  0  0  0  0  0
   -3.9059   -4.0301    2.0995 H   0  0  0  0  0  0  0  0  0  0  0  0
   -2.2263   -3.5814    0.3439 H   0  0  0  0  0  0  0  0  0  0  0  0
    1.1879   -2.6315    0.0047 H   0  0  0  0  0  0  0  0  0  0  0  0
  1  2  2  0
  2  3  1  0
  3  4  1  0
  4  5  2  0
  5  6  1  0
  6  7  2  0
  7  8  1  0
  8  9  2  0
  9 10  1  0
 10 11  1  0
 11 12  1  0
 12 13  1  0
 13 14  1  0
 14 15  2  0
 15 16  1  0
 16 17  2  0
 17 18  1  0
 18 19  2  0
 12 20  1  0
 20 21  1  0
 21 22  2  0
 22 23  1  0
 22 24  1  0
 24 25  1  0
 25 26  1  0
 26 27  2  0
 27 28  1  0
 28 29  2  0
 29 30  1  0
 30 31  2  0
 24 32  1  0
 32 33  1  0
 10  2  1  0
 19 14  1  0
 32 20  2  0
  9  4  1  0
 21 10  1  0
 31 26  1  0
  3 34  1  0
  5 35  1  0
  6 36  1  0
  7 37  1  0
  8 38  1  0
 11 39  1  0
 12 40  1  1
 13 41  1  0
 13 42  1  0
 15 43  1  0
 16 44  1  0
 17 45  1  0
 18 46  1  0
 19 47  1  0
 23 48  1  0
 25 49  1  0
 25 50  1  0
 27 51  1  0
 28 52  1  0
 29 53  1  0
 30 54  1  0
 31 55  1  0
 33 56  1  0
M  END
$$$$
