
     RDKit          3D

 55 58  0  0  0  0  0  0  0  0999 V2000
    2.9459   -2.7751   -1.4549 O   0  0  0  0  0  0  0  0  0  0  0  0
    2.3605   -1.7039   -1.3115 C   0  0  0  0  0  0  0  0  0  0  0  0
    1.4067   -1.1617   -2.3559 C   0  0  0  0  0  0  0  0  0  0  0  0
   -0.3159   -1.5780   -1.9618 S   0  0  0  0  0  0  0  0  0  0  0  0
   -0.7980   -0.1590   -1.1053 C   0  0  0  0  0  0  0  0  0  0  0  0
    0.0109    0.6511   -0.4657 N   0  0  0  0  0  0  0  0  0  0  0  0
   -0.7375    1.7004   -0.0014 N   0  0  0  0  0  0  0  0  0  0  0  0
   -1.9891    1.5191   -0.3790 C   0  0  0  0  0  0  0  0  0  0  0  0
   -3.0745    2.4599   -0.1676 C   0  0  0  0  0  0  0  0  0  0  0  0
   -3.3309    3.4176   -1.1497 C   0  0  0  0  0  0  0  0  0  0  0  0
   -4.3735    4.3316   -0.9950 C   0  0  0  0  0  0  0  0  0  0  0  0
   -5.1685    4.2950    0.1427 C   0  0  0  0  0  0  0  0  0  0  0  0
   -4.9094    3.3585    1.1397 C   0  0  0  0  0  0  0  0  0  0  0  0
   -3.8578    2.4588    0.9948 C   0  0  0  0  0  0  0  0  0  0  0  0
   -3.6466    1.5926    2.0293 O   0  0  0  0  0  0  0  0  0  0  0  0
   -2.0840    0.3062   -1.0308 N   0  0  0  0  0  0  0  0  0  0  0  0
   -3.2856   -0.2866   -1.5884 C   0  0  0  0  0  0  0  0  0  0  0  0
   -4.0760   -1.0505   -0.5541 C   0  0  0  0  0  0  0  0  0  0  0  0
   -3.5817   -2.2440   -0.0004 C   0  0  0  0  0  0  0  0  0  0  0  0
   -4.3148   -2.9474    0.9558 C   0  0  0  0  0  0  0  0  0  0  0  0
   -5.5520   -2.4702    1.3704 C   0  0  0  0  0  0  0  0  0  0  0  0
   -6.0621   -1.2883    0.8249 C   0  0  0  0  0  0  0  0  0  0  0  0
   -5.3298   -0.5891   -0.1371 C   0  0  0  0  0  0  0  0  0  0  0  0
    2.5382   -0.8903   -0.2068 N   0  0  0  0  0  0  0  0  0  0  0  0
    3.7038   -1.0885    0.5538 N   0  0  0  0  0  0  0  0  0  0  0  0
    4.6243   -0.0615    0.5618 C   0  0  0  0  0  0  0  0  0  0  0  0
    4.3417    1.0763    0.1859 O   0  0  0  0  0  0  0  0  0  0  0  0
    6.0045   -0.3830    1.0274 C   0  0  0  0  0  0  0  0  0  0  0  0
    6.9152    0.6846    1.1084 C   0  0  0  0  0  0  0  0  0  0  0  0
    8.2293    0.4769    1.5210 C   0  0  0  0  0  0  0  0  0  0  0  0
    8.6510   -0.8019    1.8576 C   0  0  0  0  0  0  0  0  0  0  0  0
    7.7620   -1.8747    1.7835 C   0  0  0  0  0  0  0  0  0  0  0  0
    6.4451   -1.6674    1.3686 C   0  0  0  0  0  0  0  0  0  0  0  0
    5.5998   -2.7436    1.2959 O   0  0  0  0  0  0  0  0  0  0  0  0
    1.6639   -1.6239   -3.3161 H   0  0  0  0  0  0  0  0  0  0  0  0
    1.5543   -0.0827   -2.4823 H   0  0  0  0  0  0  0  0  0  0  0  0
   -2.7052    3.4666   -2.0381 H   0  0  0  0  0  0  0  0  0  0  0  0
   -4.5597    5.0785   -1.7648 H   0  0  0  0  0  0  0  0  0  0  0  0
   -5.9822    5.0040    0.2607 H   0  0  0  0  0  0  0  0  0  0  0  0
   -5.5219    3.3389    2.0351 H   0  0  0  0  0  0  0  0  0  0  0  0
   -2.7860    1.1667    1.9093 H   0  0  0  0  0  0  0  0  0  0  0  0
   -3.8837    0.5182   -2.0295 H   0  0  0  0  0  0  0  0  0  0  0  0
   -3.0192   -0.9493   -2.4195 H   0  0  0  0  0  0  0  0  0  0  0  0
   -2.6225   -2.6423   -0.2950 H   0  0  0  0  0  0  0  0  0  0  0  0
   -3.9109   -3.8722    1.3777 H   0  0  0  0  0  0  0  0  0  0  0  0
   -6.1174   -3.0198    2.1193 H   0  0  0  0  0  0  0  0  0  0  0  0
   -7.0261   -0.9174    1.1456 H   0  0  0  0  0  0  0  0  0  0  0  0
   -5.7428    0.3230   -0.5499 H   0  0  0  0  0  0  0  0  0  0  0  0
    2.1645    0.0636   -0.1972 H   0  0  0  0  0  0  0  0  0  0  0  0
    4.0418   -2.0509    0.6230 H   0  0  0  0  0  0  0  0  0  0  0  0
    6.6010    1.6917    0.8458 H   0  0  0  0  0  0  0  0  0  0  0  0
    8.9179    1.3154    1.5775 H   0  0  0  0  0  0  0  0  0  0  0  0
    9.6752   -0.9629    2.1761 H   0  0  0  0  0  0  0  0  0  0  0  0
    8.1170   -2.8643    2.0506 H   0  0  0  0  0  0  0  0  0  0  0  0
    6.0908   -3.5447    1.5644 H   0  0  0  0  0  0  0  0  0  0  0  0
  1  2  2  0
  2  3  1  0
  3  4  1  0
  4  5  1  0
  5  6  2  0
  6  7  1  0
  7  8  2  0
  8  9  1  0
  9 10  2  0
 10 11  1  0
 11 12  2  0
 12 13  1  0
 13 14  2  0
 14 15  1  0
  8 16  1  0
 16 17  1  0
 17 18  1  0
 18 19  2  0
 19 20  1  0
 20 21  2  0
 21 22  1  0
 22 23  2  0
  2 24  1  0
 24 25  1  0
 25 26  1  0
 26 27  2  0
 26 28  1  0
 28 29  2  0
 29 30  1  0
 30 31  2  0
 31 32  1  0
 32 33  2  0
 33 34  1  0
 16  5  1  0
 23 18  1  0
 33 28  1  0
 14  9  1  0
  3 35  1  0
  3 36  1  0
 10 37  1  0
 11 38  1  0
 12 39  1  0
 13 40  1  0
 15 41  1  0
 17 42  1  0
 17 43  1  0
 19 44  1  0
 20 45  1  0
 21 46  1  0
 22 47  1  0
 23 48  1  0
 24 49  1  0
 25 50  1  0
 29 51  1  0
 30 52  1  0
 31 53  1  0
 32 54  1  0
 34 55  1  0
M  END
$$$$
