
     RDKit          3D

 51 53  0  0  0  0  0  0  0  0999 V2000
    7.0399   -0.4076    2.9913 C   0  0  0  0  0  0  0  0  0  0  0  0
    6.4057   -1.1167    1.9356 O   0  0  0  0  0  0  0  0  0  0  0  0
    5.7026   -0.3891    1.0069 C   0  0  0  0  0  0  0  0  0  0  0  0
    5.6098    1.0076    1.0002 C   0  0  0  0  0  0  0  0  0  0  0  0
    4.8814    1.6658    0.0048 C   0  0  0  0  0  0  0  0  0  0  0  0
    4.2275    0.9364   -0.9944 C   0  0  0  0  0  0  0  0  0  0  0  0
    3.4430    1.6400   -2.0782 C   0  0  0  0  0  0  0  0  0  0  0  0
    1.9982    1.1670   -2.1752 C   0  0  0  0  0  0  0  0  0  0  0  0
    1.5911    0.6074   -3.1889 O   0  0  0  0  0  0  0  0  0  0  0  0
    1.2663    1.4445   -1.0313 N   0  0  0  0  0  0  0  0  0  0  0  0
   -0.0850    1.1364   -0.7794 C   0  0  0  0  0  0  0  0  0  0  0  0
   -0.9441    0.5564   -1.7106 C   0  0  0  0  0  0  0  0  0  0  0  0
   -2.2790    0.2777   -1.3790 C   0  0  0  0  0  0  0  0  0  0  0  0
   -2.7756    0.5783   -0.1123 C   0  0  0  0  0  0  0  0  0  0  0  0
   -4.1009    0.3276    0.3006 N   0  0  0  0  0  0  0  0  0  0  0  0
   -5.1355   -0.1836   -0.4648 C   0  0  0  0  0  0  0  0  0  0  0  0
   -5.1017   -0.4657   -1.6565 O   0  0  0  0  0  0  0  0  0  0  0  0
   -6.4273   -0.3607    0.2612 C   0  0  0  0  0  0  0  0  0  0  0  0
   -6.4773   -0.7301    1.6122 C   0  0  0  0  0  0  0  0  0  0  0  0
   -7.7122   -0.8827    2.2510 C   0  0  0  0  0  0  0  0  0  0  0  0
   -8.8931   -0.6721    1.5391 C   0  0  0  0  0  0  0  0  0  0  0  0
  -10.5599   -0.8721    2.4075 Br  0  0  0  0  0  0  0  0  0  0  0  0
   -8.8543   -0.3148    0.1916 C   0  0  0  0  0  0  0  0  0  0  0  0
   -7.6213   -0.1650   -0.4480 C   0  0  0  0  0  0  0  0  0  0  0  0
   -1.9136    1.1601    0.8233 C   0  0  0  0  0  0  0  0  0  0  0  0
   -0.5820    1.4378    0.4924 C   0  0  0  0  0  0  0  0  0  0  0  0
    4.3258   -0.4650   -0.9914 C   0  0  0  0  0  0  0  0  0  0  0  0
    5.0552   -1.1331   -0.0001 C   0  0  0  0  0  0  0  0  0  0  0  0
    5.1956   -2.4995    0.0710 O   0  0  0  0  0  0  0  0  0  0  0  0
    4.5802   -3.2821   -0.9444 C   0  0  0  0  0  0  0  0  0  0  0  0
    6.3111    0.1508    3.5893 H   0  0  0  0  0  0  0  0  0  0  0  0
    7.5153   -1.1415    3.6499 H   0  0  0  0  0  0  0  0  0  0  0  0
    7.8252    0.2507    2.6047 H   0  0  0  0  0  0  0  0  0  0  0  0
    6.1070    1.6151    1.7504 H   0  0  0  0  0  0  0  0  0  0  0  0
    4.8449    2.7547    0.0124 H   0  0  0  0  0  0  0  0  0  0  0  0
    3.4324    2.7258   -1.9156 H   0  0  0  0  0  0  0  0  0  0  0  0
    3.9384    1.4690   -3.0417 H   0  0  0  0  0  0  0  0  0  0  0  0
    1.7784    1.8595   -0.2613 H   0  0  0  0  0  0  0  0  0  0  0  0
   -0.6157    0.3054   -2.7144 H   0  0  0  0  0  0  0  0  0  0  0  0
   -2.9004   -0.1790   -2.1440 H   0  0  0  0  0  0  0  0  0  0  0  0
   -4.3244    0.6205    1.2422 H   0  0  0  0  0  0  0  0  0  0  0  0
   -5.5701   -0.9379    2.1731 H   0  0  0  0  0  0  0  0  0  0  0  0
   -7.7436   -1.1740    3.2979 H   0  0  0  0  0  0  0  0  0  0  0  0
   -9.7727   -0.1522   -0.3692 H   0  0  0  0  0  0  0  0  0  0  0  0
   -7.5920    0.1018   -1.5036 H   0  0  0  0  0  0  0  0  0  0  0  0
   -2.2588    1.4052    1.8240 H   0  0  0  0  0  0  0  0  0  0  0  0
    0.0567    1.8870    1.2482 H   0  0  0  0  0  0  0  0  0  0  0  0
    3.8232   -1.0188   -1.7822 H   0  0  0  0  0  0  0  0  0  0  0  0
    4.9893   -3.0430   -1.9323 H   0  0  0  0  0  0  0  0  0  0  0  0
    4.8047   -4.3348   -0.7382 H   0  0  0  0  0  0  0  0  0  0  0  0
    3.4918   -3.1673   -0.9246 H   0  0  0  0  0  0  0  0  0  0  0  0
  1  2  1  0
  2  3  1  0
  3  4  2  0
  4  5  1  0
  5  6  2  0
  6  7  1  0
  7  8  1  0
  8  9  2  0
  8 10  1  0
 10 11  1  0
 11 12  2  0
 12 13  1  0
 13 14  2  0
 14 15  1  0
 15 16  1  0
 16 17  2  0
 16 18  1  0
 18 19  2  0
 19 20  1  0
 20 21  2  0
 21 22  1  0
 21 23  1  0
 23 24  2  0
 14 25  1  0
 25 26  2  0
  6 27  1  0
 27 28  2  0
 28 29  1  0
 29 30  1  0
 28  3  1  0
 26 11  1  0
 24 18  1  0
  1 31  1  0
  1 32  1  0
  1 33  1  0
  4 34  1  0
  5 35  1  0
  7 36  1  0
  7 37  1  0
 10 38  1  0
 12 39  1  0
 13 40  1  0
 15 41  1  0
 19 42  1  0
 20 43  1  0
 23 44  1  0
 24 45  1  0
 25 46  1  0
 26 47  1  0
 27 48  1  0
 30 49  1  0
 30 50  1  0
 30 51  1  0
M  END
$$$$
