
     RDKit          3D

 44 47  0  0  0  0  0  0  0  0999 V2000
   -3.8062    2.9104    0.2574 C   0  0  0  0  0  0  0  0  0  0  0  0
   -3.7234    1.5205   -0.3755 C   0  0  0  0  0  0  0  0  0  0  0  0
   -2.2979    1.1752   -0.7803 C   0  0  0  0  0  0  0  0  0  0  0  0
   -1.4157    0.7928    0.3879 C   0  0  0  0  0  0  0  0  0  0  0  0
   -0.6431    1.6233    0.8786 O   0  0  0  0  0  0  0  0  0  0  0  0
   -1.4329   -0.5320    0.8105 N   0  0  0  0  0  0  0  0  0  0  0  0
   -0.4577   -0.9335    1.8314 C   0  0  0  0  0  0  0  0  0  0  0  0
    0.9379   -1.1742    1.2417 C   0  0  0  0  0  0  0  0  0  0  0  0
    1.3718   -2.3152    1.1025 O   0  0  0  0  0  0  0  0  0  0  0  0
    1.5883   -0.0004    0.9008 N   0  0  0  0  0  0  0  0  0  0  0  0
    2.8733    0.1532    0.3457 C   0  0  0  0  0  0  0  0  0  0  0  0
    3.7568   -0.9170    0.1082 C   0  0  0  0  0  0  0  0  0  0  0  0
    5.0248   -0.6961   -0.4464 C   0  0  0  0  0  0  0  0  0  0  0  0
    5.3780    0.5988   -0.7496 C   0  0  0  0  0  0  0  0  0  0  0  0
    4.5233    1.6485   -0.5194 C   0  0  0  0  0  0  0  0  0  0  0  0
    3.2697    1.4604    0.0255 C   0  0  0  0  0  0  0  0  0  0  0  0
    5.0590    2.8438   -0.8863 O   0  0  0  0  0  0  0  0  0  0  0  0
    6.3515    2.4235   -1.3714 C   0  0  0  0  0  0  0  0  0  0  0  0
    6.5595    0.9984   -1.2895 O   0  0  0  0  0  0  0  0  0  0  0  0
   -2.3865   -1.5020    0.3673 C   0  0  0  0  0  0  0  0  0  0  0  0
   -1.9491   -2.8058    0.0791 C   0  0  0  0  0  0  0  0  0  0  0  0
   -2.8400   -3.7818   -0.3735 C   0  0  0  0  0  0  0  0  0  0  0  0
   -4.1870   -3.4772   -0.5278 C   0  0  0  0  0  0  0  0  0  0  0  0
   -4.6469   -2.1983   -0.2187 C   0  0  0  0  0  0  0  0  0  0  0  0
   -3.7603   -1.2047    0.2247 C   0  0  0  0  0  0  0  0  0  0  0  0
   -4.4989    0.3306    0.7750 S   0  0  0  0  0  0  0  0  0  0  0  0
   -3.3987    3.6659   -0.4238 H   0  0  0  0  0  0  0  0  0  0  0  0
   -3.2404    2.9709    1.1938 H   0  0  0  0  0  0  0  0  0  0  0  0
   -4.8444    3.1932    0.4656 H   0  0  0  0  0  0  0  0  0  0  0  0
   -4.3380    1.5313   -1.2835 H   0  0  0  0  0  0  0  0  0  0  0  0
   -2.2834    0.3719   -1.5272 H   0  0  0  0  0  0  0  0  0  0  0  0
   -1.8298    2.0282   -1.2888 H   0  0  0  0  0  0  0  0  0  0  0  0
   -0.7899   -1.8365    2.3567 H   0  0  0  0  0  0  0  0  0  0  0  0
   -0.3839   -0.1462    2.5922 H   0  0  0  0  0  0  0  0  0  0  0  0
    1.0429    0.8573    1.0152 H   0  0  0  0  0  0  0  0  0  0  0  0
    3.4849   -1.9401    0.3496 H   0  0  0  0  0  0  0  0  0  0  0  0
    5.7053   -1.5201   -0.6292 H   0  0  0  0  0  0  0  0  0  0  0  0
    2.6210    2.3134    0.1929 H   0  0  0  0  0  0  0  0  0  0  0  0
    7.1273    2.9257   -0.7819 H   0  0  0  0  0  0  0  0  0  0  0  0
    6.4502    2.7327   -2.4183 H   0  0  0  0  0  0  0  0  0  0  0  0
   -0.9005   -3.0811    0.1655 H   0  0  0  0  0  0  0  0  0  0  0  0
   -2.4763   -4.7804   -0.6050 H   0  0  0  0  0  0  0  0  0  0  0  0
   -4.8834   -4.2386   -0.8705 H   0  0  0  0  0  0  0  0  0  0  0  0
   -5.7113   -1.9885   -0.3063 H   0  0  0  0  0  0  0  0  0  0  0  0
  1  2  1  0
  2  3  1  0
  3  4  1  0
  4  5  2  0
  4  6  1  0
  6  7  1  0
  7  8  1  0
  8  9  2  0
  8 10  1  0
 10 11  1  0
 11 12  2  0
 12 13  1  0
 13 14  2  0
 14 15  1  0
 15 16  2  0
 15 17  1  0
 17 18  1  0
 18 19  1  0
  6 20  1  0
 20 21  2  0
 21 22  1  0
 22 23  2  0
 23 24  1  0
 24 25  2  0
 25 26  1  0
 26  2  1  0
 16 11  1  0
 25 20  1  0
 19 14  1  0
  1 27  1  0
  1 28  1  0
  1 29  1  0
  2 30  1  0
  3 31  1  0
  3 32  1  0
  7 33  1  0
  7 34  1  0
 10 35  1  0
 12 36  1  0
 13 37  1  0
 16 38  1  0
 18 39  1  0
 18 40  1  0
 21 41  1  0
 22 42  1  0
 23 43  1  0
 24 44  1  0
M  END
$$$$
