
     RDKit          3D

 38 39  0  0  0  0  0  0  0  0999 V2000
   -2.7390    1.1810    2.4813 C   0  0  0  0  0  0  0  0  0  0  0  0
   -2.5712    1.0333    1.0721 O   0  0  0  0  0  0  0  0  0  0  0  0
   -3.0473   -0.1229    0.5159 C   0  0  0  0  0  0  0  0  0  0  0  0
   -3.2090   -1.3159    1.2309 C   0  0  0  0  0  0  0  0  0  0  0  0
   -3.7302   -2.4539    0.6070 C   0  0  0  0  0  0  0  0  0  0  0  0
   -4.0964   -2.4140   -0.7356 C   0  0  0  0  0  0  0  0  0  0  0  0
   -3.9264   -1.2378   -1.4627 C   0  0  0  0  0  0  0  0  0  0  0  0
   -3.3814   -0.1003   -0.8474 C   0  0  0  0  0  0  0  0  0  0  0  0
   -3.2134    1.1082   -1.6958 C   0  0  0  0  0  0  0  0  0  0  0  0
   -4.1191    1.4147   -2.4725 O   0  0  0  0  0  0  0  0  0  0  0  0
   -1.9313    1.9202   -1.5933 C   0  0  0  0  0  0  0  0  0  0  0  0
   -0.8025    1.0728   -1.3836 O   0  0  0  0  0  0  0  0  0  0  0  0
    0.3381    1.7428   -1.0964 C   0  0  0  0  0  0  0  0  0  0  0  0
    0.4803    2.9528   -1.0493 O   0  0  0  0  0  0  0  0  0  0  0  0
    1.3985    0.7446   -0.8501 C   0  0  0  0  0  0  0  0  0  0  0  0
    2.6530    1.1470   -0.5994 C   0  0  0  0  0  0  0  0  0  0  0  0
    3.7658    0.2285   -0.3211 C   0  0  0  0  0  0  0  0  0  0  0  0
    4.7452    0.6162    0.6031 C   0  0  0  0  0  0  0  0  0  0  0  0
    5.8322   -0.2172    0.8809 C   0  0  0  0  0  0  0  0  0  0  0  0
    5.9582   -1.4406    0.2274 C   0  0  0  0  0  0  0  0  0  0  0  0
    5.0002   -1.8301   -0.7070 C   0  0  0  0  0  0  0  0  0  0  0  0
    3.9119   -0.9978   -0.9842 C   0  0  0  0  0  0  0  0  0  0  0  0
   -2.5676    2.2328    2.7286 H   0  0  0  0  0  0  0  0  0  0  0  0
   -3.7570    0.9277    2.7987 H   0  0  0  0  0  0  0  0  0  0  0  0
   -1.9963    0.5850    3.0247 H   0  0  0  0  0  0  0  0  0  0  0  0
   -2.9358   -1.3919    2.2794 H   0  0  0  0  0  0  0  0  0  0  0  0
   -3.8526   -3.3738    1.1746 H   0  0  0  0  0  0  0  0  0  0  0  0
   -4.5067   -3.2984   -1.2180 H   0  0  0  0  0  0  0  0  0  0  0  0
   -4.2110   -1.2071   -2.5123 H   0  0  0  0  0  0  0  0  0  0  0  0
   -2.0420    2.6628   -0.7945 H   0  0  0  0  0  0  0  0  0  0  0  0
   -1.7940    2.4380   -2.5497 H   0  0  0  0  0  0  0  0  0  0  0  0
    1.1069   -0.2977   -0.8649 H   0  0  0  0  0  0  0  0  0  0  0  0
    2.8924    2.2106   -0.5693 H   0  0  0  0  0  0  0  0  0  0  0  0
    4.6671    1.5694    1.1231 H   0  0  0  0  0  0  0  0  0  0  0  0
    6.5811    0.0922    1.6062 H   0  0  0  0  0  0  0  0  0  0  0  0
    6.8058   -2.0865    0.4416 H   0  0  0  0  0  0  0  0  0  0  0  0
    5.1029   -2.7788   -1.2269 H   0  0  0  0  0  0  0  0  0  0  0  0
    3.1903   -1.3162   -1.7329 H   0  0  0  0  0  0  0  0  0  0  0  0
  1  2  1  0
  2  3  1  0
  3  4  2  0
  4  5  1  0
  5  6  2  0
  6  7  1  0
  7  8  2  0
  8  9  1  0
  9 10  2  0
  9 11  1  0
 11 12  1  0
 12 13  1  0
 13 14  2  0
 13 15  1  0
 15 16  2  3
 16 17  1  0
 17 18  2  0
 18 19  1  0
 19 20  2  0
 20 21  1  0
 21 22  2  0
  8  3  1  0
 22 17  1  0
  1 23  1  0
  1 24  1  0
  1 25  1  0
  4 26  1  0
  5 27  1  0
  6 28  1  0
  7 29  1  0
 11 30  1  0
 11 31  1  0
 15 32  1  0
 16 33  1  0
 18 34  1  0
 19 35  1  0
 20 36  1  0
 21 37  1  0
 22 38  1  0
M  END
$$$$
