
     RDKit          3D

 59 62  0  0  0  0  0  0  0  0999 V2000
   -9.0313   -0.5999   -1.9363 C   0  0  0  0  0  0  0  0  0  0  0  0
   -8.0055   -0.2058   -0.9140 C   0  0  0  0  0  0  0  0  0  0  0  0
   -7.0067   -1.1153   -0.5381 C   0  0  0  0  0  0  0  0  0  0  0  0
   -6.0370   -0.7530    0.3990 C   0  0  0  0  0  0  0  0  0  0  0  0
   -6.0502    0.5326    0.9485 C   0  0  0  0  0  0  0  0  0  0  0  0
   -5.0424    0.9385    1.9543 C   0  0  0  0  0  0  0  0  0  0  0  0
   -5.4453    1.3770    3.0290 O   0  0  0  0  0  0  0  0  0  0  0  0
   -3.6936    0.8086    1.6428 N   0  0  0  0  0  0  0  0  0  0  0  0
   -3.1625    0.6203    0.2863 C   0  0  0  0  0  0  0  0  0  0  0  0
   -1.7895    1.2893    0.0750 C   0  0  0  0  0  0  0  0  0  0  0  0
   -0.8118    0.8397    1.0784 N   0  0  0  0  0  0  0  0  0  0  0  0
    0.5528    0.8931    0.8438 C   0  0  0  0  0  0  0  0  0  0  0  0
    1.1051    1.6689   -0.1847 C   0  0  0  0  0  0  0  0  0  0  0  0
    2.4875    1.7168   -0.4203 C   0  0  0  0  0  0  0  0  0  0  0  0
    3.3720    0.9795    0.3673 C   0  0  0  0  0  0  0  0  0  0  0  0
    4.7430    1.0780    0.0661 N   0  0  0  0  0  0  0  0  0  0  0  0
    5.7964    0.3979    0.6557 C   0  0  0  0  0  0  0  0  0  0  0  0
    5.7149   -0.4018    1.5842 O   0  0  0  0  0  0  0  0  0  0  0  0
    7.1558    0.7832    0.0876 C   0  0  0  0  0  0  0  0  0  0  0  0
    7.1690    0.7744   -1.7395 S   0  0  0  0  0  0  0  0  0  0  0  0
    7.1532   -0.9865   -2.0156 C   0  0  0  0  0  0  0  0  0  0  0  0
    5.9430   -1.6826   -2.1038 C   0  0  0  0  0  0  0  0  0  0  0  0
    5.9403   -3.0631   -2.3230 C   0  0  0  0  0  0  0  0  0  0  0  0
    7.1476   -3.7448   -2.4627 C   0  0  0  0  0  0  0  0  0  0  0  0
    7.1445   -5.4434   -2.7356 Cl  0  0  0  0  0  0  0  0  0  0  0  0
    8.3577   -3.0577   -2.3869 C   0  0  0  0  0  0  0  0  0  0  0  0
    8.3600   -1.6777   -2.1655 C   0  0  0  0  0  0  0  0  0  0  0  0
    2.8492    0.1996    1.3913 C   0  0  0  0  0  0  0  0  0  0  0  0
    1.4642    0.1611    1.6202 C   0  0  0  0  0  0  0  0  0  0  0  0
   -1.3320    0.4934    2.4163 C   0  0  0  0  0  0  0  0  0  0  0  0
   -2.7108    1.1237    2.6801 C   0  0  0  0  0  0  0  0  0  0  0  0
   -7.0504    1.4407    0.5927 C   0  0  0  0  0  0  0  0  0  0  0  0
   -8.0181    1.0747   -0.3451 C   0  0  0  0  0  0  0  0  0  0  0  0
   -9.4271   -1.5973   -1.7163 H   0  0  0  0  0  0  0  0  0  0  0  0
   -8.5823   -0.6034   -2.9346 H   0  0  0  0  0  0  0  0  0  0  0  0
   -9.8779    0.0949   -1.9401 H   0  0  0  0  0  0  0  0  0  0  0  0
   -6.9870   -2.1151   -0.9665 H   0  0  0  0  0  0  0  0  0  0  0  0
   -5.2873   -1.4771    0.7075 H   0  0  0  0  0  0  0  0  0  0  0  0
   -3.0654   -0.4611    0.1348 H   0  0  0  0  0  0  0  0  0  0  0  0
   -3.8706    1.0082   -0.4525 H   0  0  0  0  0  0  0  0  0  0  0  0
   -1.8962    2.3791    0.1400 H   0  0  0  0  0  0  0  0  0  0  0  0
   -1.4557    1.0366   -0.9383 H   0  0  0  0  0  0  0  0  0  0  0  0
    0.4697    2.2808   -0.8186 H   0  0  0  0  0  0  0  0  0  0  0  0
    2.8505    2.3452   -1.2293 H   0  0  0  0  0  0  0  0  0  0  0  0
    4.9891    1.6653   -0.7239 H   0  0  0  0  0  0  0  0  0  0  0  0
    7.3979    1.7919    0.4373 H   0  0  0  0  0  0  0  0  0  0  0  0
    7.9201    0.0979    0.4677 H   0  0  0  0  0  0  0  0  0  0  0  0
    4.9918   -1.1652   -2.0000 H   0  0  0  0  0  0  0  0  0  0  0  0
    4.9952   -3.5970   -2.3819 H   0  0  0  0  0  0  0  0  0  0  0  0
    9.3000   -3.5875   -2.4994 H   0  0  0  0  0  0  0  0  0  0  0  0
    9.3102   -1.1510   -2.1127 H   0  0  0  0  0  0  0  0  0  0  0  0
    3.4832   -0.3994    2.0372 H   0  0  0  0  0  0  0  0  0  0  0  0
    1.1129   -0.4858    2.4198 H   0  0  0  0  0  0  0  0  0  0  0  0
   -0.6550    0.8427    3.2051 H   0  0  0  0  0  0  0  0  0  0  0  0
   -1.4102   -0.5981    2.4896 H   0  0  0  0  0  0  0  0  0  0  0  0
   -2.6225    2.2170    2.7124 H   0  0  0  0  0  0  0  0  0  0  0  0
   -3.0895    0.7965    3.6551 H   0  0  0  0  0  0  0  0  0  0  0  0
   -7.0760    2.4289    1.0460 H   0  0  0  0  0  0  0  0  0  0  0  0
   -8.7869    1.7934   -0.6210 H   0  0  0  0  0  0  0  0  0  0  0  0
  1  2  1  0
  2  3  2  0
  3  4  1  0
  4  5  2  0
  5  6  1  0
  6  7  2  0
  6  8  1  0
  8  9  1  0
  9 10  1  0
 10 11  1  0
 11 12  1  0
 12 13  2  0
 13 14  1  0
 14 15  2  0
 15 16  1  0
 16 17  1  0
 17 18  2  0
 17 19  1  0
 19 20  1  0
 20 21  1  0
 21 22  2  0
 22 23  1  0
 23 24  2  0
 24 25  1  0
 24 26  1  0
 26 27  2  0
 15 28  1  0
 28 29  2  0
 11 30  1  0
 30 31  1  0
  5 32  1  0
 32 33  2  0
 33  2  1  0
 31  8  1  0
 29 12  1  0
 27 21  1  0
  1 34  1  0
  1 35  1  0
  1 36  1  0
  3 37  1  0
  4 38  1  0
  9 39  1  0
  9 40  1  0
 10 41  1  0
 10 42  1  0
 13 43  1  0
 14 44  1  0
 16 45  1  0
 19 46  1  0
 19 47  1  0
 22 48  1  0
 23 49  1  0
 26 50  1  0
 27 51  1  0
 28 52  1  0
 29 53  1  0
 30 54  1  0
 30 55  1  0
 31 56  1  0
 31 57  1  0
 32 58  1  0
 33 59  1  0
M  END
$$$$
