
     RDKit          3D

 38 40  0  0  0  0  0  0  0  0999 V2000
   -5.0810    2.2951    1.2387 C   0  0  0  0  0  0  0  0  0  0  0  0
   -4.9775    0.8302    0.8617 C   0  0  0  0  0  0  0  0  0  0  0  0
   -4.8928    0.7402   -0.5606 O   0  0  0  0  0  0  0  0  0  0  0  0
   -4.8073   -0.6113   -1.0267 C   0  0  0  0  0  0  0  0  0  0  0  0
   -3.4011   -1.0958   -0.9030 C   0  0  0  0  0  0  0  0  0  0  0  0
   -2.9739   -1.9381    0.0173 N   0  0  0  0  0  0  0  0  0  0  0  0
   -1.6250   -2.2000   -0.1118 N   0  0  0  0  0  0  0  0  0  0  0  0
   -1.0872   -1.5539   -1.1229 C   0  0  0  0  0  0  0  0  0  0  0  0
    0.2417   -1.6676   -1.4353 N   0  0  0  0  0  0  0  0  0  0  0  0
    0.9207   -1.0306   -2.4484 C   0  0  0  0  0  0  0  0  0  0  0  0
    0.4554   -0.2664   -3.2880 O   0  0  0  0  0  0  0  0  0  0  0  0
    2.4064   -1.4094   -2.4839 C   0  0  0  0  0  0  0  0  0  0  0  0
    2.9235   -1.9010   -1.2529 O   0  0  0  0  0  0  0  0  0  0  0  0
    3.2929   -0.9877   -0.3012 C   0  0  0  0  0  0  0  0  0  0  0  0
    3.9058   -1.5564    0.8345 C   0  0  0  0  0  0  0  0  0  0  0  0
    4.3276   -0.7610    1.9044 C   0  0  0  0  0  0  0  0  0  0  0  0
    4.1188    0.5953    1.8080 C   0  0  0  0  0  0  0  0  0  0  0  0
    3.5188    1.1545    0.7050 C   0  0  0  0  0  0  0  0  0  0  0  0
    3.0924    0.3938   -0.3664 C   0  0  0  0  0  0  0  0  0  0  0  0
    3.4039    2.5065    0.8088 O   0  0  0  0  0  0  0  0  0  0  0  0
    3.9982    2.7320    2.1043 C   0  0  0  0  0  0  0  0  0  0  0  0
    4.4574    1.5222    2.7424 O   0  0  0  0  0  0  0  0  0  0  0  0
   -2.1793   -0.5840   -1.9972 S   0  0  0  0  0  0  0  0  0  0  0  0
   -5.9611    2.7518    0.7740 H   0  0  0  0  0  0  0  0  0  0  0  0
   -5.1523    2.4148    2.3234 H   0  0  0  0  0  0  0  0  0  0  0  0
   -4.2072    2.8482    0.8786 H   0  0  0  0  0  0  0  0  0  0  0  0
   -4.0863    0.3946    1.3251 H   0  0  0  0  0  0  0  0  0  0  0  0
   -5.8655    0.2940    1.2137 H   0  0  0  0  0  0  0  0  0  0  0  0
   -5.1178   -0.6184   -2.0771 H   0  0  0  0  0  0  0  0  0  0  0  0
   -5.5032   -1.2554   -0.4771 H   0  0  0  0  0  0  0  0  0  0  0  0
    0.7699   -2.2559   -0.8008 H   0  0  0  0  0  0  0  0  0  0  0  0
    2.4993   -2.2230   -3.2128 H   0  0  0  0  0  0  0  0  0  0  0  0
    3.0033   -0.5744   -2.8685 H   0  0  0  0  0  0  0  0  0  0  0  0
    4.0569   -2.6331    0.8808 H   0  0  0  0  0  0  0  0  0  0  0  0
    4.8004   -1.1954    2.7778 H   0  0  0  0  0  0  0  0  0  0  0  0
    2.6200    0.8946   -1.2021 H   0  0  0  0  0  0  0  0  0  0  0  0
    3.2549    3.2102    2.7526 H   0  0  0  0  0  0  0  0  0  0  0  0
    4.8504    3.4110    1.9856 H   0  0  0  0  0  0  0  0  0  0  0  0
  1  2  1  0
  2  3  1  0
  3  4  1  0
  4  5  1  0
  5  6  2  0
  6  7  1  0
  7  8  2  0
  8  9  1  0
  9 10  1  0
 10 11  2  0
 10 12  1  0
 12 13  1  0
 13 14  1  0
 14 15  2  0
 15 16  1  0
 16 17  2  0
 17 18  1  0
 18 19  2  0
 18 20  1  0
 20 21  1  0
 21 22  1  0
  8 23  1  0
 23  5  1  0
 19 14  1  0
 22 17  1  0
  1 24  1  0
  1 25  1  0
  1 26  1  0
  2 27  1  0
  2 28  1  0
  4 29  1  0
  4 30  1  0
  9 31  1  0
 12 32  1  0
 12 33  1  0
 15 34  1  0
 16 35  1  0
 19 36  1  0
 21 37  1  0
 21 38  1  0
M  END
$$$$
