
     RDKit          3D

 42 44  0  0  0  0  0  0  0  0999 V2000
   -0.2910    3.4023   -0.5377 C   0  0  0  0  0  0  0  0  0  0  0  0
   -0.2318    2.7089    0.8098 C   0  0  0  0  0  0  0  0  0  0  0  0
   -0.5002    1.3089    0.6513 O   0  0  0  0  0  0  0  0  0  0  0  0
   -1.8130    0.9330    0.7078 C   0  0  0  0  0  0  0  0  0  0  0  0
   -2.7401    1.7149    0.8859 O   0  0  0  0  0  0  0  0  0  0  0  0
   -2.0068   -0.5064    0.5311 C   0  0  0  0  0  0  0  0  0  0  0  0
   -1.0062   -1.4543    0.2923 C   0  0  0  0  0  0  0  0  0  0  0  0
    0.3495   -1.2133    0.1732 N   0  0  0  0  0  0  0  0  0  0  0  0
    1.3735   -2.1040   -0.0765 C   0  0  0  0  0  0  0  0  0  0  0  0
    1.2988   -3.3153   -0.2400 O   0  0  0  0  0  0  0  0  0  0  0  0
    2.6736   -1.4048   -0.1377 C   0  0  0  0  0  0  0  0  0  0  0  0
    3.9463   -1.9791   -0.3872 C   0  0  0  0  0  0  0  0  0  0  0  0
    4.8343   -0.9315   -0.3492 C   0  0  0  0  0  0  0  0  0  0  0  0
    4.0910    0.1809   -0.0905 N   0  0  0  0  0  0  0  0  0  0  0  0
    4.5831    1.5383    0.0500 C   0  0  0  0  0  0  0  0  0  0  0  0
    4.3363    2.3700   -1.1960 C   0  0  0  0  0  0  0  0  0  0  0  0
    2.7742   -0.0695    0.0479 N   0  0  0  0  0  0  0  0  0  0  0  0
   -1.6218   -3.0517    0.1465 S   0  0  0  0  0  0  0  0  0  0  0  0
   -3.1777   -2.5112    0.3860 C   0  0  0  0  0  0  0  0  0  0  0  0
   -3.2709   -1.1627    0.5744 C   0  0  0  0  0  0  0  0  0  0  0  0
   -4.6841   -0.7515    0.7828 C   0  0  0  0  0  0  0  0  0  0  0  0
   -5.4699   -2.0282    0.3462 C   0  0  0  0  0  0  0  0  0  0  0  0
   -4.4736   -3.2246    0.4341 C   0  0  0  0  0  0  0  0  0  0  0  0
   -1.2917    3.3257   -0.9744 H   0  0  0  0  0  0  0  0  0  0  0  0
   -0.0310    4.4602   -0.4417 H   0  0  0  0  0  0  0  0  0  0  0  0
    0.4015    2.9308   -1.2429 H   0  0  0  0  0  0  0  0  0  0  0  0
   -0.9154    3.1707    1.5311 H   0  0  0  0  0  0  0  0  0  0  0  0
    0.7784    2.7952    1.2235 H   0  0  0  0  0  0  0  0  0  0  0  0
    0.6601   -0.2459    0.2726 H   0  0  0  0  0  0  0  0  0  0  0  0
    4.1656   -3.0224   -0.5701 H   0  0  0  0  0  0  0  0  0  0  0  0
    5.9062   -0.8902   -0.4837 H   0  0  0  0  0  0  0  0  0  0  0  0
    5.6552    1.4858    0.2684 H   0  0  0  0  0  0  0  0  0  0  0  0
    4.0837    1.9804    0.9191 H   0  0  0  0  0  0  0  0  0  0  0  0
    3.2661    2.4465   -1.4157 H   0  0  0  0  0  0  0  0  0  0  0  0
    4.7295    3.3822   -1.0613 H   0  0  0  0  0  0  0  0  0  0  0  0
    4.8253    1.9254   -2.0693 H   0  0  0  0  0  0  0  0  0  0  0  0
   -4.8667   -0.5318    1.8399 H   0  0  0  0  0  0  0  0  0  0  0  0
   -4.9708    0.1115    0.1758 H   0  0  0  0  0  0  0  0  0  0  0  0
   -6.3685   -2.1896    0.9497 H   0  0  0  0  0  0  0  0  0  0  0  0
   -5.7915   -1.9083   -0.6969 H   0  0  0  0  0  0  0  0  0  0  0  0
   -4.6173   -3.9217   -0.3958 H   0  0  0  0  0  0  0  0  0  0  0  0
   -4.5922   -3.7537    1.3852 H   0  0  0  0  0  0  0  0  0  0  0  0
  1  2  1  0
  2  3  1  0
  3  4  1  0
  4  5  2  0
  4  6  1  0
  6  7  2  0
  7  8  1  0
  8  9  1  0
  9 10  2  0
  9 11  1  0
 11 12  1  0
 12 13  2  0
 13 14  1  0
 14 15  1  0
 15 16  1  0
 14 17  1  0
  7 18  1  0
 18 19  1  0
 19 20  2  0
 20 21  1  0
 21 22  1  0
 22 23  1  0
 20  6  1  0
 17 11  2  0
 23 19  1  0
  1 24  1  0
  1 25  1  0
  1 26  1  0
  2 27  1  0
  2 28  1  0
  8 29  1  0
 12 30  1  0
 13 31  1  0
 15 32  1  0
 15 33  1  0
 16 34  1  0
 16 35  1  0
 16 36  1  0
 21 37  1  0
 21 38  1  0
 22 39  1  0
 22 40  1  0
 23 41  1  0
 23 42  1  0
M  END
$$$$
