
     RDKit          3D

 42 44  0  0  0  0  0  0  0  0999 V2000
   -5.2620    2.7481   -1.2224 C   0  0  0  0  0  0  0  0  0  0  0  0
   -5.2978    1.3272   -1.2480 O   0  0  0  0  0  0  0  0  0  0  0  0
   -4.3162    0.6593   -0.5684 C   0  0  0  0  0  0  0  0  0  0  0  0
   -4.4106   -0.7303   -0.6358 C   0  0  0  0  0  0  0  0  0  0  0  0
   -3.4748   -1.5272    0.0142 C   0  0  0  0  0  0  0  0  0  0  0  0
   -3.6647   -2.8824   -0.0675 O   0  0  0  0  0  0  0  0  0  0  0  0
   -2.4050   -0.9487    0.7116 C   0  0  0  0  0  0  0  0  0  0  0  0
   -1.4160   -1.8605    1.3325 C   0  0  0  0  0  0  0  0  0  0  0  0
   -1.8211   -2.8888    1.8759 O   0  0  0  0  0  0  0  0  0  0  0  0
    0.0460   -1.6147    1.2407 C   0  0  0  0  0  0  0  0  0  0  0  0
    0.6372   -0.9728    0.2208 C   0  0  0  0  0  0  0  0  0  0  0  0
    2.0752   -0.7599    0.1076 C   0  0  0  0  0  0  0  0  0  0  0  0
    2.5937   -0.5166   -1.1228 C   0  0  0  0  0  0  0  0  0  0  0  0
    4.0436   -0.1699   -1.2258 C   0  0  2  0  0  0  0  0  0  0  0  0
    4.7233   -0.4743   -2.4353 O   0  0  0  0  0  0  0  0  0  0  0  0
    6.1035   -0.4841   -1.9899 C   0  0  0  0  0  0  0  0  0  0  0  0
    6.1647   -0.5578   -0.5429 O   0  0  0  0  0  0  0  0  0  0  0  0
    4.8481   -0.9880   -0.2322 C   0  0  1  0  0  0  0  0  0  0  0  0
    4.3248   -0.7322    1.1402 C   0  0  0  0  0  0  0  0  0  0  0  0
    2.9850   -0.6354    1.2733 C   0  0  0  0  0  0  0  0  0  0  0  0
   -2.3253    0.4519    0.8229 C   0  0  0  0  0  0  0  0  0  0  0  0
   -1.3210    0.9554    1.6089 O   0  0  0  0  0  0  0  0  0  0  0  0
   -1.1721    2.3673    1.6882 C   0  0  0  0  0  0  0  0  0  0  0  0
   -3.2820    1.2464    0.1694 C   0  0  0  0  0  0  0  0  0  0  0  0
   -5.3871    3.1268   -0.2026 H   0  0  0  0  0  0  0  0  0  0  0  0
   -6.1026    3.1149   -1.8192 H   0  0  0  0  0  0  0  0  0  0  0  0
   -4.3405    3.1280   -1.6756 H   0  0  0  0  0  0  0  0  0  0  0  0
   -5.2245   -1.1949   -1.1870 H   0  0  0  0  0  0  0  0  0  0  0  0
   -3.1324   -3.3057    0.6429 H   0  0  0  0  0  0  0  0  0  0  0  0
    0.6198   -2.0770    2.0371 H   0  0  0  0  0  0  0  0  0  0  0  0
    0.0354   -0.5916   -0.6020 H   0  0  0  0  0  0  0  0  0  0  0  0
    1.9980   -0.5143   -2.0283 H   0  0  0  0  0  0  0  0  0  0  0  0
    4.1546    0.9141   -1.0693 H   0  0  0  0  0  0  0  0  0  0  0  0
    6.5996    0.4338   -2.3197 H   0  0  0  0  0  0  0  0  0  0  0  0
    6.6092   -1.3533   -2.4213 H   0  0  0  0  0  0  0  0  0  0  0  0
    4.8083   -2.0686   -0.4361 H   0  0  0  0  0  0  0  0  0  0  0  0
    5.0006   -0.6776    1.9841 H   0  0  0  0  0  0  0  0  0  0  0  0
    2.5418   -0.4767    2.2527 H   0  0  0  0  0  0  0  0  0  0  0  0
   -2.0436    2.8283    2.1641 H   0  0  0  0  0  0  0  0  0  0  0  0
   -0.3008    2.5759    2.3163 H   0  0  0  0  0  0  0  0  0  0  0  0
   -0.9816    2.8008    0.7009 H   0  0  0  0  0  0  0  0  0  0  0  0
   -3.2306    2.3250    0.2440 H   0  0  0  0  0  0  0  0  0  0  0  0
  1  2  1  0
  2  3  1  0
  3  4  2  0
  4  5  1  0
  5  6  1  0
  5  7  2  0
  7  8  1  0
  8  9  2  0
  8 10  1  0
 10 11  2  0
 11 12  1  0
 12 13  2  0
 13 14  1  0
 14 15  1  0
 15 16  1  0
 16 17  1  0
 17 18  1  0
 18 19  1  0
 19 20  2  0
  7 21  1  0
 21 22  1  0
 22 23  1  0
 21 24  2  0
 24  3  1  0
 20 12  1  0
 18 14  1  0
  1 25  1  0
  1 26  1  0
  1 27  1  0
  4 28  1  0
  6 29  1  0
 10 30  1  0
 11 31  1  0
 13 32  1  0
 14 33  1  1
 16 34  1  0
 16 35  1  0
 18 36  1  6
 19 37  1  0
 20 38  1  0
 23 39  1  0
 23 40  1  0
 23 41  1  0
 24 42  1  0
M  END
$$$$
