
     RDKit          3D

 44 46  0  0  0  0  0  0  0  0999 V2000
   -6.8505    1.1480    0.6032 C   0  0  0  0  0  0  0  0  0  0  0  0
   -5.4458    0.7531    0.2562 C   0  0  0  0  0  0  0  0  0  0  0  0
   -5.1657   -0.5639   -0.1294 C   0  0  0  0  0  0  0  0  0  0  0  0
   -3.8582   -0.9659   -0.4334 C   0  0  0  0  0  0  0  0  0  0  0  0
   -3.5868   -2.4027   -0.7895 C   0  0  0  0  0  0  0  0  0  0  0  0
   -2.8293   -0.0121   -0.3660 C   0  0  0  0  0  0  0  0  0  0  0  0
   -1.5397   -0.3856   -0.6497 O   0  0  0  0  0  0  0  0  0  0  0  0
   -1.2671   -0.2089   -2.0436 C   0  0  0  0  0  0  0  0  0  0  0  0
    0.1371   -0.7315   -2.3369 C   0  0  0  0  0  0  0  0  0  0  0  0
    0.3597   -1.3834   -3.3489 O   0  0  0  0  0  0  0  0  0  0  0  0
    1.0414   -0.3309   -1.3836 N   0  0  0  0  0  0  0  0  0  0  0  0
    2.3746   -0.6319   -1.3012 C   0  0  0  0  0  0  0  0  0  0  0  0
    3.0963   -0.2043   -0.2906 N   0  0  0  0  0  0  0  0  0  0  0  0
    4.4043   -0.6643   -0.4210 C   0  0  0  0  0  0  0  0  0  0  0  0
    5.4451   -0.3417    0.5534 C   0  0  0  0  0  0  0  0  0  0  0  0
    5.1829    0.5362    1.6012 C   0  0  0  0  0  0  0  0  0  0  0  0
    6.2029    0.8303    2.5031 C   0  0  0  0  0  0  0  0  0  0  0  0
    7.4501    0.2425    2.3357 C   0  0  0  0  0  0  0  0  0  0  0  0
    7.6267   -0.6215    1.2686 C   0  0  0  0  0  0  0  0  0  0  0  0
    6.6587   -0.9245    0.3755 N   0  0  0  0  0  0  0  0  0  0  0  0
    4.6277   -1.4460   -1.5410 C   0  0  0  0  0  0  0  0  0  0  0  0
    3.1898   -1.5718   -2.4630 S   0  0  0  0  0  0  0  0  0  0  0  0
   -3.0780    1.2935    0.0769 C   0  0  0  0  0  0  0  0  0  0  0  0
   -1.9716    2.2952    0.2309 C   0  0  0  0  0  0  0  0  0  0  0  0
   -4.3965    1.6698    0.3688 C   0  0  0  0  0  0  0  0  0  0  0  0
   -7.1394    0.6994    1.5625 H   0  0  0  0  0  0  0  0  0  0  0  0
   -6.9497    2.2370    0.6895 H   0  0  0  0  0  0  0  0  0  0  0  0
   -7.5459    0.8108   -0.1766 H   0  0  0  0  0  0  0  0  0  0  0  0
   -5.9778   -1.2883   -0.1781 H   0  0  0  0  0  0  0  0  0  0  0  0
   -3.1901   -2.4815   -1.8120 H   0  0  0  0  0  0  0  0  0  0  0  0
   -4.5000   -3.0102   -0.7520 H   0  0  0  0  0  0  0  0  0  0  0  0
   -2.8688   -2.8376   -0.0786 H   0  0  0  0  0  0  0  0  0  0  0  0
   -1.9758   -0.7710   -2.6639 H   0  0  0  0  0  0  0  0  0  0  0  0
   -1.2952    0.8506   -2.3197 H   0  0  0  0  0  0  0  0  0  0  0  0
    0.6827    0.1447   -0.5653 H   0  0  0  0  0  0  0  0  0  0  0  0
    4.2031    0.9871    1.7158 H   0  0  0  0  0  0  0  0  0  0  0  0
    6.0240    1.5147    3.3273 H   0  0  0  0  0  0  0  0  0  0  0  0
    8.2643    0.4504    3.0209 H   0  0  0  0  0  0  0  0  0  0  0  0
    8.5830   -1.1089    1.0991 H   0  0  0  0  0  0  0  0  0  0  0  0
    5.5451   -1.9234   -1.8573 H   0  0  0  0  0  0  0  0  0  0  0  0
   -1.6755    2.6813   -0.7510 H   0  0  0  0  0  0  0  0  0  0  0  0
   -2.2850    3.1381    0.8461 H   0  0  0  0  0  0  0  0  0  0  0  0
   -1.0998    1.8468    0.7233 H   0  0  0  0  0  0  0  0  0  0  0  0
   -4.6073    2.6821    0.7057 H   0  0  0  0  0  0  0  0  0  0  0  0
  1  2  1  0
  2  3  2  0
  3  4  1  0
  4  5  1  0
  4  6  2  0
  6  7  1  0
  7  8  1  0
  8  9  1  0
  9 10  2  0
  9 11  1  0
 11 12  1  0
 12 13  2  0
 13 14  1  0
 14 15  1  0
 15 16  2  0
 16 17  1  0
 17 18  2  0
 18 19  1  0
 19 20  2  0
 14 21  2  0
 21 22  1  0
  6 23  1  0
 23 24  1  0
 23 25  2  0
 25  2  1  0
 22 12  1  0
 20 15  1  0
  1 26  1  0
  1 27  1  0
  1 28  1  0
  3 29  1  0
  5 30  1  0
  5 31  1  0
  5 32  1  0
  8 33  1  0
  8 34  1  0
 11 35  1  0
 16 36  1  0
 17 37  1  0
 18 38  1  0
 19 39  1  0
 21 40  1  0
 24 41  1  0
 24 42  1  0
 24 43  1  0
 25 44  1  0
M  END
$$$$
