
     RDKit          3D

 47 49  0  0  0  0  0  0  0  0999 V2000
    8.4439    0.4540    0.8940 C   0  0  0  0  0  0  0  0  0  0  0  0
    7.1308    0.5148    1.6592 C   0  0  0  0  0  0  0  0  0  0  0  0
    5.9419    0.3523    0.7470 C   0  0  0  0  0  0  0  0  0  0  0  0
    5.3534    1.4694    0.1407 C   0  0  0  0  0  0  0  0  0  0  0  0
    4.2623    1.3149   -0.7183 C   0  0  0  0  0  0  0  0  0  0  0  0
    3.7383    0.0466   -0.9768 C   0  0  0  0  0  0  0  0  0  0  0  0
    2.6569   -0.1078   -1.8542 N   0  0  0  0  0  0  0  0  0  0  0  0
    1.4563   -0.0851   -1.3894 C   0  0  0  0  0  0  0  0  0  0  0  0
    0.4053   -0.2341   -2.2306 N   0  0  0  0  0  0  0  0  0  0  0  0
   -0.8555   -0.1977   -1.7080 C   0  0  0  0  0  0  0  0  0  0  0  0
   -1.8688   -0.2989   -2.3790 O   0  0  0  0  0  0  0  0  0  0  0  0
   -0.7812   -0.0038   -0.2291 C   0  0  0  0  0  0  0  0  0  0  0  0
   -1.7788    0.0532    0.6654 C   0  0  0  0  0  0  0  0  0  0  0  0
   -3.2205   -0.0567    0.4062 C   0  0  0  0  0  0  0  0  0  0  0  0
   -3.9557   -1.0298    1.1044 C   0  0  0  0  0  0  0  0  0  0  0  0
   -5.3377   -1.1420    0.9315 C   0  0  0  0  0  0  0  0  0  0  0  0
   -6.1410   -2.0519    1.5655 O   0  0  0  0  0  0  0  0  0  0  0  0
   -5.5143   -3.0093    2.4058 C   0  0  0  0  0  0  0  0  0  0  0  0
   -5.9719   -0.2595    0.0505 C   0  0  0  0  0  0  0  0  0  0  0  0
   -7.3312   -0.3459   -0.1384 O   0  0  0  0  0  0  0  0  0  0  0  0
   -5.2563    0.7173   -0.6561 C   0  0  0  0  0  0  0  0  0  0  0  0
   -6.0132    1.5063   -1.4870 O   0  0  0  0  0  0  0  0  0  0  0  0
   -5.2950    2.3095   -2.4178 C   0  0  0  0  0  0  0  0  0  0  0  0
   -3.8806    0.8267   -0.4589 C   0  0  0  0  0  0  0  0  0  0  0  0
    0.8869    0.1191    0.2443 S   0  0  0  0  0  0  0  0  0  0  0  0
    4.3405   -1.0709   -0.3953 C   0  0  0  0  0  0  0  0  0  0  0  0
    5.4318   -0.9212    0.4643 C   0  0  0  0  0  0  0  0  0  0  0  0
    8.5024    1.2477    0.1415 H   0  0  0  0  0  0  0  0  0  0  0  0
    8.5598   -0.5058    0.3792 H   0  0  0  0  0  0  0  0  0  0  0  0
    9.2879    0.5747    1.5805 H   0  0  0  0  0  0  0  0  0  0  0  0
    7.1140   -0.2661    2.4293 H   0  0  0  0  0  0  0  0  0  0  0  0
    7.0573    1.4695    2.1942 H   0  0  0  0  0  0  0  0  0  0  0  0
    5.7443    2.4667    0.3285 H   0  0  0  0  0  0  0  0  0  0  0  0
    3.8209    2.1878   -1.1905 H   0  0  0  0  0  0  0  0  0  0  0  0
    0.5543   -0.3598   -3.2184 H   0  0  0  0  0  0  0  0  0  0  0  0
   -1.5372    0.1703    1.7214 H   0  0  0  0  0  0  0  0  0  0  0  0
   -3.4261   -1.6917    1.7823 H   0  0  0  0  0  0  0  0  0  0  0  0
   -6.2920   -3.6735    2.7950 H   0  0  0  0  0  0  0  0  0  0  0  0
   -5.0314   -2.5261    3.2614 H   0  0  0  0  0  0  0  0  0  0  0  0
   -4.8026   -3.6239    1.8447 H   0  0  0  0  0  0  0  0  0  0  0  0
   -7.5417    0.3503   -0.7885 H   0  0  0  0  0  0  0  0  0  0  0  0
   -6.0237    2.7717   -3.0907 H   0  0  0  0  0  0  0  0  0  0  0  0
   -4.6152    1.7046   -3.0276 H   0  0  0  0  0  0  0  0  0  0  0  0
   -4.7585    3.1146   -1.9056 H   0  0  0  0  0  0  0  0  0  0  0  0
   -3.3035    1.5895   -0.9706 H   0  0  0  0  0  0  0  0  0  0  0  0
    3.9603   -2.0645   -0.6149 H   0  0  0  0  0  0  0  0  0  0  0  0
    5.8845   -1.8056    0.9067 H   0  0  0  0  0  0  0  0  0  0  0  0
  1  2  1  0
  2  3  1  0
  3  4  2  0
  4  5  1  0
  5  6  2  0
  6  7  1  0
  7  8  2  3
  8  9  1  0
  9 10  1  0
 10 11  2  0
 10 12  1  0
 12 13  2  3
 13 14  1  0
 14 15  2  0
 15 16  1  0
 16 17  1  0
 17 18  1  0
 16 19  2  0
 19 20  1  0
 19 21  1  0
 21 22  1  0
 22 23  1  0
 21 24  2  0
 12 25  1  0
  6 26  1  0
 26 27  2  0
 27  3  1  0
 25  8  1  0
 24 14  1  0
  1 28  1  0
  1 29  1  0
  1 30  1  0
  2 31  1  0
  2 32  1  0
  4 33  1  0
  5 34  1  0
  9 35  1  0
 13 36  1  0
 15 37  1  0
 18 38  1  0
 18 39  1  0
 18 40  1  0
 20 41  1  0
 23 42  1  0
 23 43  1  0
 23 44  1  0
 24 45  1  0
 26 46  1  0
 27 47  1  0
M  END
$$$$
