
     RDKit          3D

 42 43  0  0  0  0  0  0  0  0999 V2000
   -6.4781    0.4602   -0.6872 C   0  0  0  0  0  0  0  0  0  0  0  0
   -5.2019    0.0969    0.0028 C   0  0  0  0  0  0  0  0  0  0  0  0
   -4.0933   -0.4588   -0.5319 C   0  0  0  0  0  0  0  0  0  0  0  0
   -3.9846   -0.8857   -1.9701 C   0  0  0  0  0  0  0  0  0  0  0  0
   -2.8770   -0.7299    0.3412 C   0  0  0  0  0  0  0  0  0  0  0  0
   -1.7631    0.1757    0.0423 N   0  0  0  0  0  0  0  0  0  0  0  0
   -0.8321   -0.3456   -0.9812 C   0  0  0  0  0  0  0  0  0  0  0  0
    0.5362   -0.8568   -0.4652 C   0  0  0  0  0  0  0  0  0  0  0  0
    1.2239    0.1667    0.3352 N   0  0  0  0  0  0  0  0  0  0  0  0
    2.6012    0.1852    0.4745 C   0  0  0  0  0  0  0  0  0  0  0  0
    3.3922   -0.9415    0.2006 C   0  0  0  0  0  0  0  0  0  0  0  0
    4.7872   -0.9270    0.3420 C   0  0  0  0  0  0  0  0  0  0  0  0
    5.4437    0.2246    0.7740 C   0  0  0  0  0  0  0  0  0  0  0  0
    6.9370    0.2569    0.8931 C   0  0  0  0  0  0  0  0  0  0  0  0
    4.6826    1.3630    1.0357 C   0  0  0  0  0  0  0  0  0  0  0  0
    3.2882    1.3359    0.8923 C   0  0  0  0  0  0  0  0  0  0  0  0
    0.3651    1.1467    1.0187 C   0  0  0  0  0  0  0  0  0  0  0  0
   -1.0394    0.5542    1.2735 C   0  0  0  0  0  0  0  0  0  0  0  0
   -7.2843   -0.1975   -0.3488 H   0  0  0  0  0  0  0  0  0  0  0  0
   -6.4188    0.4065   -1.7760 H   0  0  0  0  0  0  0  0  0  0  0  0
   -6.7494    1.4895   -0.4302 H   0  0  0  0  0  0  0  0  0  0  0  0
   -5.1919    0.3547    1.0616 H   0  0  0  0  0  0  0  0  0  0  0  0
   -3.5457   -1.8872   -2.0359 H   0  0  0  0  0  0  0  0  0  0  0  0
   -4.9514   -0.9452   -2.4756 H   0  0  0  0  0  0  0  0  0  0  0  0
   -3.3548   -0.1886   -2.5310 H   0  0  0  0  0  0  0  0  0  0  0  0
   -3.1828   -0.6063    1.3899 H   0  0  0  0  0  0  0  0  0  0  0  0
   -2.5771   -1.7833    0.2622 H   0  0  0  0  0  0  0  0  0  0  0  0
   -0.6380    0.4829   -1.6753 H   0  0  0  0  0  0  0  0  0  0  0  0
   -1.2877   -1.1361   -1.5870 H   0  0  0  0  0  0  0  0  0  0  0  0
    1.1327   -1.1282   -1.3447 H   0  0  0  0  0  0  0  0  0  0  0  0
    0.3904   -1.7594    0.1406 H   0  0  0  0  0  0  0  0  0  0  0  0
    2.9333   -1.8743   -0.1136 H   0  0  0  0  0  0  0  0  0  0  0  0
    5.3503   -1.8289    0.1146 H   0  0  0  0  0  0  0  0  0  0  0  0
    7.3820    0.5648   -0.0581 H   0  0  0  0  0  0  0  0  0  0  0  0
    7.3288   -0.7291    1.1644 H   0  0  0  0  0  0  0  0  0  0  0  0
    7.2517    0.9570    1.6741 H   0  0  0  0  0  0  0  0  0  0  0  0
    5.1631    2.2865    1.3497 H   0  0  0  0  0  0  0  0  0  0  0  0
    2.7480    2.2571    1.0917 H   0  0  0  0  0  0  0  0  0  0  0  0
    0.7844    1.4198    1.9946 H   0  0  0  0  0  0  0  0  0  0  0  0
    0.2877    2.0573    0.4124 H   0  0  0  0  0  0  0  0  0  0  0  0
   -0.9193   -0.3222    1.9260 H   0  0  0  0  0  0  0  0  0  0  0  0
   -1.6390    1.2898    1.8225 H   0  0  0  0  0  0  0  0  0  0  0  0
  1  2  1  0
  2  3  2  3
  3  4  1  0
  3  5  1  0
  5  6  1  0
  6  7  1  0
  7  8  1  0
  8  9  1  0
  9 10  1  0
 10 11  2  0
 11 12  1  0
 12 13  2  0
 13 14  1  0
 13 15  1  0
 15 16  2  0
  9 17  1  0
 17 18  1  0
 18  6  1  0
 16 10  1  0
  1 19  1  0
  1 20  1  0
  1 21  1  0
  2 22  1  0
  4 23  1  0
  4 24  1  0
  4 25  1  0
  5 26  1  0
  5 27  1  0
  7 28  1  0
  7 29  1  0
  8 30  1  0
  8 31  1  0
 11 32  1  0
 12 33  1  0
 14 34  1  0
 14 35  1  0
 14 36  1  0
 15 37  1  0
 16 38  1  0
 17 39  1  0
 17 40  1  0
 18 41  1  0
 18 42  1  0
M  END
$$$$
