
     RDKit          3D

 43 45  0  0  0  0  0  0  0  0999 V2000
    7.3630   -2.7166    0.5109 O   0  0  0  0  0  0  0  0  0  0  0  0
    7.9782   -1.6890    0.2825 C   0  0  0  0  0  0  0  0  0  0  0  0
    9.3171   -1.7343    0.1047 O   0  0  0  0  0  0  0  0  0  0  0  0
    7.4506   -0.2774    0.1987 C   0  0  0  0  0  0  0  0  0  0  0  0
    5.9453   -0.1867    0.1253 C   0  0  0  0  0  0  0  0  0  0  0  0
    5.1638   -0.3381    1.2760 C   0  0  0  0  0  0  0  0  0  0  0  0
    3.7694   -0.2616    1.2009 C   0  0  0  0  0  0  0  0  0  0  0  0
    3.1291   -0.0302   -0.0223 C   0  0  0  0  0  0  0  0  0  0  0  0
    1.7196    0.0250   -0.0127 N   0  0  0  0  0  0  0  0  0  0  0  0
    0.8851    0.3272   -1.0736 C   0  0  0  0  0  0  0  0  0  0  0  0
    1.2175    0.6800   -2.1981 O   0  0  0  0  0  0  0  0  0  0  0  0
   -0.5694    0.2418   -0.7625 C   0  0  0  0  0  0  0  0  0  0  0  0
   -1.4360    1.1761   -1.3366 C   0  0  0  0  0  0  0  0  0  0  0  0
   -2.8091    1.1272   -1.0671 C   0  0  0  0  0  0  0  0  0  0  0  0
   -3.3320    0.1368   -0.2334 C   0  0  0  0  0  0  0  0  0  0  0  0
   -4.6962    0.0152    0.0859 N   0  0  0  0  0  0  0  0  0  0  0  0
   -5.7501    0.8178   -0.3155 C   0  0  0  0  0  0  0  0  0  0  0  0
   -5.6596    1.8073   -1.0341 O   0  0  0  0  0  0  0  0  0  0  0  0
   -7.0247    0.3668    0.2167 C   0  0  0  0  0  0  0  0  0  0  0  0
   -8.3035    0.8687    0.0648 C   0  0  0  0  0  0  0  0  0  0  0  0
   -9.1641    0.0276    0.8096 C   0  0  0  0  0  0  0  0  0  0  0  0
   -8.3633   -0.9375    1.3722 C   0  0  0  0  0  0  0  0  0  0  0  0
   -7.0650   -0.7446    1.0228 O   0  0  0  0  0  0  0  0  0  0  0  0
   -2.4611   -0.8106    0.3226 C   0  0  0  0  0  0  0  0  0  0  0  0
   -1.0874   -0.7639    0.0598 C   0  0  0  0  0  0  0  0  0  0  0  0
    3.9073    0.1135   -1.1704 C   0  0  0  0  0  0  0  0  0  0  0  0
    5.3031    0.0341   -1.0987 C   0  0  0  0  0  0  0  0  0  0  0  0
    9.5296   -2.6882    0.1867 H   0  0  0  0  0  0  0  0  0  0  0  0
    7.8033    0.2758    1.0771 H   0  0  0  0  0  0  0  0  0  0  0  0
    7.8859    0.2010   -0.6871 H   0  0  0  0  0  0  0  0  0  0  0  0
    5.6333   -0.5264    2.2391 H   0  0  0  0  0  0  0  0  0  0  0  0
    3.1956   -0.3875    2.1150 H   0  0  0  0  0  0  0  0  0  0  0  0
    1.2845   -0.1059    0.8905 H   0  0  0  0  0  0  0  0  0  0  0  0
   -1.0468    1.9492   -1.9970 H   0  0  0  0  0  0  0  0  0  0  0  0
   -3.4407    1.8771   -1.5339 H   0  0  0  0  0  0  0  0  0  0  0  0
   -4.9655   -0.7554    0.6885 H   0  0  0  0  0  0  0  0  0  0  0  0
   -8.5683    1.7403   -0.5192 H   0  0  0  0  0  0  0  0  0  0  0  0
  -10.2360    0.1139    0.9218 H   0  0  0  0  0  0  0  0  0  0  0  0
   -8.5550   -1.7874    2.0129 H   0  0  0  0  0  0  0  0  0  0  0  0
   -2.8416   -1.6051    0.9605 H   0  0  0  0  0  0  0  0  0  0  0  0
   -0.4440   -1.5343    0.4763 H   0  0  0  0  0  0  0  0  0  0  0  0
    3.4586    0.2807   -2.1448 H   0  0  0  0  0  0  0  0  0  0  0  0
    5.8789    0.1461   -2.0152 H   0  0  0  0  0  0  0  0  0  0  0  0
  1  2  2  0
  2  3  1  0
  2  4  1  0
  4  5  1  0
  5  6  2  0
  6  7  1  0
  7  8  2  0
  8  9  1  0
  9 10  1  0
 10 11  2  0
 10 12  1  0
 12 13  2  0
 13 14  1  0
 14 15  2  0
 15 16  1  0
 16 17  1  0
 17 18  2  0
 17 19  1  0
 19 20  2  0
 20 21  1  0
 21 22  2  0
 22 23  1  0
 15 24  1  0
 24 25  2  0
  8 26  1  0
 26 27  2  0
 27  5  1  0
 25 12  1  0
 23 19  1  0
  3 28  1  0
  4 29  1  0
  4 30  1  0
  6 31  1  0
  7 32  1  0
  9 33  1  0
 13 34  1  0
 14 35  1  0
 16 36  1  0
 20 37  1  0
 21 38  1  0
 22 39  1  0
 24 40  1  0
 25 41  1  0
 26 42  1  0
 27 43  1  0
M  END
$$$$
