
     RDKit          3D

 57 59  0  0  0  0  0  0  0  0999 V2000
    6.1091   -0.7593    0.0879 C   0  0  0  0  0  0  0  0  0  0  0  0
    5.0822    0.2598    0.5695 C   0  0  0  0  0  0  0  0  0  0  0  0
    5.3362    0.6057    2.3637 S   0  0  0  0  0  0  0  0  0  0  0  0
    6.2162    2.1984    2.2664 C   0  0  0  0  0  0  0  0  0  0  0  0
    7.5719    2.1162    1.6157 C   0  0  0  0  0  0  0  0  0  0  0  0
    7.8106    2.7480    0.3856 C   0  0  0  0  0  0  0  0  0  0  0  0
    9.0661    2.6721   -0.2197 C   0  0  0  0  0  0  0  0  0  0  0  0
   10.0967    1.9657    0.3982 C   0  0  0  0  0  0  0  0  0  0  0  0
    9.8755    1.3403    1.6235 C   0  0  0  0  0  0  0  0  0  0  0  0
    8.6217    1.4173    2.2316 C   0  0  0  0  0  0  0  0  0  0  0  0
    3.6486   -0.2468    0.3276 C   0  0  0  0  0  0  0  0  0  0  0  0
    3.4090   -1.2337   -0.3655 O   0  0  0  0  0  0  0  0  0  0  0  0
    2.6863    0.5996    0.8869 N   0  0  0  0  0  0  0  0  0  0  0  0
    1.3337    0.3683    0.9063 N   0  0  0  0  0  0  0  0  0  0  0  0
    0.7921   -0.2063   -0.1209 C   0  0  0  0  0  0  0  0  0  0  0  0
   -0.6511   -0.5214   -0.1592 C   0  0  0  0  0  0  0  0  0  0  0  0
   -1.1590   -1.2248   -1.2559 C   0  0  0  0  0  0  0  0  0  0  0  0
   -2.5236   -1.5302   -1.3219 C   0  0  0  0  0  0  0  0  0  0  0  0
   -3.3818   -1.1297   -0.2949 C   0  0  0  0  0  0  0  0  0  0  0  0
   -4.7305   -1.3495   -0.2462 O   0  0  0  0  0  0  0  0  0  0  0  0
   -5.2609   -2.2909   -1.1781 C   0  0  0  0  0  0  0  0  0  0  0  0
   -6.7550   -2.5219   -0.9439 C   0  0  0  0  0  0  0  0  0  0  0  0
   -7.3839   -3.3773   -1.5639 O   0  0  0  0  0  0  0  0  0  0  0  0
   -7.3255   -1.6894   -0.0102 N   0  0  0  0  0  0  0  0  0  0  0  0
   -8.7493   -1.6443    0.2127 C   0  0  0  0  0  0  0  0  0  0  0  0
   -9.3412   -0.6421   -0.7066 C   0  0  0  0  0  0  0  0  0  0  0  0
   -9.8974   -0.7292   -1.9675 C   0  0  0  0  0  0  0  0  0  0  0  0
  -10.2831    0.5855   -2.3245 C   0  0  0  0  0  0  0  0  0  0  0  0
   -9.9346    1.3901   -1.2641 C   0  0  0  0  0  0  0  0  0  0  0  0
   -9.3587    0.6544   -0.2766 O   0  0  0  0  0  0  0  0  0  0  0  0
   -2.8661   -0.4203    0.7950 C   0  0  0  0  0  0  0  0  0  0  0  0
   -1.5040   -0.1202    0.8706 C   0  0  0  0  0  0  0  0  0  0  0  0
    5.9729   -1.7311    0.5766 H   0  0  0  0  0  0  0  0  0  0  0  0
    7.1366   -0.4293    0.2613 H   0  0  0  0  0  0  0  0  0  0  0  0
    6.0025   -0.9241   -0.9899 H   0  0  0  0  0  0  0  0  0  0  0  0
    5.1834    1.1899   -0.0042 H   0  0  0  0  0  0  0  0  0  0  0  0
    5.5731    2.9194    1.7488 H   0  0  0  0  0  0  0  0  0  0  0  0
    6.3387    2.5794    3.2860 H   0  0  0  0  0  0  0  0  0  0  0  0
    7.0200    3.3049   -0.1142 H   0  0  0  0  0  0  0  0  0  0  0  0
    9.2410    3.1616   -1.1752 H   0  0  0  0  0  0  0  0  0  0  0  0
   11.0733    1.9038   -0.0750 H   0  0  0  0  0  0  0  0  0  0  0  0
   10.6796    0.7892    2.1054 H   0  0  0  0  0  0  0  0  0  0  0  0
    8.4641    0.9185    3.1862 H   0  0  0  0  0  0  0  0  0  0  0  0
    3.0063    1.1331    1.6929 H   0  0  0  0  0  0  0  0  0  0  0  0
    1.3606   -0.4690   -1.0292 H   0  0  0  0  0  0  0  0  0  0  0  0
   -0.5028   -1.5450   -2.0623 H   0  0  0  0  0  0  0  0  0  0  0  0
   -2.8816   -2.0727   -2.1917 H   0  0  0  0  0  0  0  0  0  0  0  0
   -5.1586   -1.9104   -2.2014 H   0  0  0  0  0  0  0  0  0  0  0  0
   -4.7613   -3.2609   -1.0631 H   0  0  0  0  0  0  0  0  0  0  0  0
   -6.7690   -0.8984    0.2992 H   0  0  0  0  0  0  0  0  0  0  0  0
   -8.9143   -1.3583    1.2566 H   0  0  0  0  0  0  0  0  0  0  0  0
   -9.1890   -2.6333    0.0493 H   0  0  0  0  0  0  0  0  0  0  0  0
  -10.0008   -1.6347   -2.5516 H   0  0  0  0  0  0  0  0  0  0  0  0
  -10.7547    0.9094   -3.2419 H   0  0  0  0  0  0  0  0  0  0  0  0
  -10.0232    2.4506   -1.0664 H   0  0  0  0  0  0  0  0  0  0  0  0
   -3.5276   -0.1028    1.5980 H   0  0  0  0  0  0  0  0  0  0  0  0
   -1.1195    0.4261    1.7292 H   0  0  0  0  0  0  0  0  0  0  0  0
  1  2  1  0
  2  3  1  0
  3  4  1  0
  4  5  1  0
  5  6  2  0
  6  7  1  0
  7  8  2  0
  8  9  1  0
  9 10  2  0
  2 11  1  0
 11 12  2  0
 11 13  1  0
 13 14  1  0
 14 15  2  3
 15 16  1  0
 16 17  2  0
 17 18  1  0
 18 19  2  0
 19 20  1  0
 20 21  1  0
 21 22  1  0
 22 23  2  0
 22 24  1  0
 24 25  1  0
 25 26  1  0
 26 27  2  0
 27 28  1  0
 28 29  2  0
 29 30  1  0
 19 31  1  0
 31 32  2  0
 10  5  1  0
 32 16  1  0
 30 26  1  0
  1 33  1  0
  1 34  1  0
  1 35  1  0
  2 36  1  0
  4 37  1  0
  4 38  1  0
  6 39  1  0
  7 40  1  0
  8 41  1  0
  9 42  1  0
 10 43  1  0
 13 44  1  0
 15 45  1  0
 17 46  1  0
 18 47  1  0
 21 48  1  0
 21 49  1  0
 24 50  1  0
 25 51  1  0
 25 52  1  0
 27 53  1  0
 28 54  1  0
 29 55  1  0
 31 56  1  0
 32 57  1  0
M  END
$$$$
