
     RDKit          3D

 59 62  0  0  0  0  0  0  0  0999 V2000
   -8.0073    1.2176   -3.8373 C   0  0  0  0  0  0  0  0  0  0  0  0
   -7.3163    0.0328   -3.4629 O   0  0  0  0  0  0  0  0  0  0  0  0
   -6.1160    0.1828   -2.8107 C   0  0  0  0  0  0  0  0  0  0  0  0
   -5.5082   -1.0105   -2.4036 C   0  0  0  0  0  0  0  0  0  0  0  0
   -4.2959   -0.9958   -1.7064 C   0  0  0  0  0  0  0  0  0  0  0  0
   -3.6747    0.2206   -1.4151 C   0  0  0  0  0  0  0  0  0  0  0  0
   -2.4313    0.2595   -0.6661 C   0  0  0  0  0  0  0  0  0  0  0  0
   -1.1310    0.3240   -1.1123 C   0  0  0  0  0  0  0  0  0  0  0  0
   -0.2461    0.3439   -0.0653 N   0  0  0  0  0  0  0  0  0  0  0  0
   -0.9952    0.3331    1.0120 C   0  0  0  0  0  0  0  0  0  0  0  0
   -0.3638    0.3809    2.6231 S   0  0  0  0  0  0  0  0  0  0  0  0
    0.8545   -0.9592    2.5396 C   0  0  0  0  0  0  0  0  0  0  0  0
    2.2379   -0.4679    2.1509 C   0  0  0  0  0  0  0  0  0  0  0  0
    3.1673   -0.5701    2.9451 O   0  0  0  0  0  0  0  0  0  0  0  0
    2.3106   -0.0070    0.8580 N   0  0  0  0  0  0  0  0  0  0  0  0
    3.4764    0.3615    0.2578 C   0  0  0  0  0  0  0  0  0  0  0  0
    4.7029    0.2837    0.7065 N   0  0  0  0  0  0  0  0  0  0  0  0
    5.5947    0.7636   -0.2411 C   0  0  0  0  0  0  0  0  0  0  0  0
    7.0816    0.7793    0.0770 C   0  0  0  0  0  0  0  0  0  0  0  0
    7.3877   -0.0066    1.3686 C   0  0  0  0  0  0  0  0  0  0  0  0
    7.8921    0.1360   -1.0699 C   0  0  0  0  0  0  0  0  0  0  0  0
    7.5577    2.2294    0.2697 C   0  0  0  0  0  0  0  0  0  0  0  0
    4.9888    1.2044   -1.4046 C   0  0  0  0  0  0  0  0  0  0  0  0
    3.2889    0.9783   -1.3173 S   0  0  0  0  0  0  0  0  0  0  0  0
   -2.3296    0.2453    0.7135 N   0  0  0  0  0  0  0  0  0  0  0  0
   -3.4322    0.1158    1.6565 C   0  0  0  0  0  0  0  0  0  0  0  0
   -3.6120   -1.2896    2.1059 C   0  0  0  0  0  0  0  0  0  0  0  0
   -3.0831   -2.5091    1.7301 C   0  0  0  0  0  0  0  0  0  0  0  0
   -3.6820   -3.4812    2.5670 C   0  0  0  0  0  0  0  0  0  0  0  0
   -4.5377   -2.7976    3.3959 C   0  0  0  0  0  0  0  0  0  0  0  0
   -4.5066   -1.4729    3.1256 O   0  0  0  0  0  0  0  0  0  0  0  0
   -4.2698    1.4129   -1.8335 C   0  0  0  0  0  0  0  0  0  0  0  0
   -5.4891    1.3957   -2.5248 C   0  0  0  0  0  0  0  0  0  0  0  0
   -7.4348    1.7806   -4.5825 H   0  0  0  0  0  0  0  0  0  0  0  0
   -8.2376    1.8405   -2.9671 H   0  0  0  0  0  0  0  0  0  0  0  0
   -8.9512    0.9169   -4.2948 H   0  0  0  0  0  0  0  0  0  0  0  0
   -5.9909   -1.9612   -2.6273 H   0  0  0  0  0  0  0  0  0  0  0  0
   -3.8517   -1.9382   -1.3967 H   0  0  0  0  0  0  0  0  0  0  0  0
   -0.7921    0.3578   -2.1418 H   0  0  0  0  0  0  0  0  0  0  0  0
    0.5361   -1.7456    1.8484 H   0  0  0  0  0  0  0  0  0  0  0  0
    0.9216   -1.4139    3.5319 H   0  0  0  0  0  0  0  0  0  0  0  0
    1.4567    0.1543    0.3288 H   0  0  0  0  0  0  0  0  0  0  0  0
    8.4598    0.0079    1.5976 H   0  0  0  0  0  0  0  0  0  0  0  0
    7.0802   -1.0549    1.2770 H   0  0  0  0  0  0  0  0  0  0  0  0
    6.8605    0.4188    2.2329 H   0  0  0  0  0  0  0  0  0  0  0  0
    7.7722    0.6889   -2.0074 H   0  0  0  0  0  0  0  0  0  0  0  0
    8.9662    0.1190   -0.8312 H   0  0  0  0  0  0  0  0  0  0  0  0
    7.5761   -0.8993   -1.2536 H   0  0  0  0  0  0  0  0  0  0  0  0
    7.3930    2.8248   -0.6362 H   0  0  0  0  0  0  0  0  0  0  0  0
    8.6289    2.2667    0.5019 H   0  0  0  0  0  0  0  0  0  0  0  0
    7.0229    2.7241    1.0890 H   0  0  0  0  0  0  0  0  0  0  0  0
    5.4476    1.6293   -2.2852 H   0  0  0  0  0  0  0  0  0  0  0  0
   -3.2392    0.7801    2.5046 H   0  0  0  0  0  0  0  0  0  0  0  0
   -4.3477    0.4785    1.1761 H   0  0  0  0  0  0  0  0  0  0  0  0
   -2.3527   -2.6798    0.9487 H   0  0  0  0  0  0  0  0  0  0  0  0
   -3.5107   -4.5475    2.5658 H   0  0  0  0  0  0  0  0  0  0  0  0
   -5.2093   -3.0957    4.1914 H   0  0  0  0  0  0  0  0  0  0  0  0
   -3.7968    2.3683   -1.6138 H   0  0  0  0  0  0  0  0  0  0  0  0
   -5.9202    2.3456   -2.8183 H   0  0  0  0  0  0  0  0  0  0  0  0
  1  2  1  0
  2  3  1  0
  3  4  2  0
  4  5  1  0
  5  6  2  0
  6  7  1  0
  7  8  2  0
  8  9  1  0
  9 10  2  0
 10 11  1  0
 11 12  1  0
 12 13  1  0
 13 14  2  0
 13 15  1  0
 15 16  1  0
 16 17  2  0
 17 18  1  0
 18 19  1  0
 19 20  1  0
 19 21  1  0
 19 22  1  0
 18 23  2  0
 23 24  1  0
 10 25  1  0
 25 26  1  0
 26 27  1  0
 27 28  2  0
 28 29  1  0
 29 30  2  0
 30 31  1  0
  6 32  1  0
 32 33  2  0
 33  3  1  0
 25  7  1  0
 31 27  1  0
 24 16  1  0
  1 34  1  0
  1 35  1  0
  1 36  1  0
  4 37  1  0
  5 38  1  0
  8 39  1  0
 12 40  1  0
 12 41  1  0
 15 42  1  0
 20 43  1  0
 20 44  1  0
 20 45  1  0
 21 46  1  0
 21 47  1  0
 21 48  1  0
 22 49  1  0
 22 50  1  0
 22 51  1  0
 23 52  1  0
 26 53  1  0
 26 54  1  0
 28 55  1  0
 29 56  1  0
 30 57  1  0
 32 58  1  0
 33 59  1  0
M  END
$$$$
