
     RDKit          3D

 52 51  0  0  0  0  0  0  0  0999 V2000
   -8.4647    1.0516    0.6336 C   0  0  0  0  0  0  0  0  0  0  0  0
   -7.2734    1.1344    0.7668 C   0  0  0  0  0  0  0  0  0  0  0  0
   -5.8233    1.2531    0.9429 C   0  0  0  0  0  0  0  0  0  0  0  0
   -5.0314    0.1892    0.1387 N   0  0  0  0  0  4  0  0  0  0  0  0
   -5.4435   -1.2055    0.5999 C   0  0  0  0  0  0  0  0  0  0  0  0
   -5.3255    0.3515   -1.3488 C   0  0  0  0  0  0  0  0  0  0  0  0
   -3.5366    0.4505    0.4381 C   0  0  0  0  0  0  0  0  0  0  0  0
   -2.5740   -0.4700   -0.3169 C   0  0  0  0  0  0  0  0  0  0  0  0
   -1.1113   -0.2710    0.1068 C   0  0  0  0  0  0  0  0  0  0  0  0
   -0.5452    1.0967   -0.2849 C   0  0  0  0  0  0  0  0  0  0  0  0
    0.9154    1.2923    0.1354 C   0  0  0  0  0  0  0  0  0  0  0  0
    1.8939    0.3877   -0.6172 C   0  0  0  0  0  0  0  0  0  0  0  0
    3.3440    0.7108   -0.2455 C   0  0  0  0  0  0  0  0  0  0  0  0
    4.3225   -0.1989   -0.9914 C   0  0  0  0  0  0  0  0  0  0  0  0
    5.7920    0.1508   -0.7384 C   0  0  0  0  0  0  0  0  0  0  0  0
    6.2555    0.0622    0.7194 C   0  0  0  0  0  0  0  0  0  0  0  0
    6.0432   -1.2917    1.4004 C   0  0  0  0  0  0  0  0  0  0  0  0
    6.7775   -2.4354    0.7183 C   0  0  0  0  0  0  0  0  0  0  0  0
   -9.5252    0.9889    0.5237 H   0  0  0  0  0  0  0  0  0  0  0  0
   -5.5501    1.1256    1.9966 H   0  0  0  0  0  0  0  0  0  0  0  0
   -5.4738    2.2355    0.6052 H   0  0  0  0  0  0  0  0  0  0  0  0
   -6.5156   -1.3393    0.4336 H   0  0  0  0  0  0  0  0  0  0  0  0
   -4.9042   -1.9490    0.0087 H   0  0  0  0  0  0  0  0  0  0  0  0
   -5.2017   -1.3051    1.6618 H   0  0  0  0  0  0  0  0  0  0  0  0
   -6.3971    0.2230   -1.5220 H   0  0  0  0  0  0  0  0  0  0  0  0
   -4.9999    1.3483   -1.6595 H   0  0  0  0  0  0  0  0  0  0  0  0
   -4.7864   -0.4219   -1.9016 H   0  0  0  0  0  0  0  0  0  0  0  0
   -3.4075    0.3340    1.5208 H   0  0  0  0  0  0  0  0  0  0  0  0
   -3.3502    1.4974    0.1748 H   0  0  0  0  0  0  0  0  0  0  0  0
   -2.6490   -0.3076   -1.3974 H   0  0  0  0  0  0  0  0  0  0  0  0
   -2.8229   -1.5189   -0.1296 H   0  0  0  0  0  0  0  0  0  0  0  0
   -1.0196   -0.4151    1.1901 H   0  0  0  0  0  0  0  0  0  0  0  0
   -0.5204   -1.0616   -0.3692 H   0  0  0  0  0  0  0  0  0  0  0  0
   -0.6390    1.2415   -1.3679 H   0  0  0  0  0  0  0  0  0  0  0  0
   -1.1341    1.8874    0.1930 H   0  0  0  0  0  0  0  0  0  0  0  0
    1.0128    1.1278    1.2154 H   0  0  0  0  0  0  0  0  0  0  0  0
    1.1849    2.3397   -0.0496 H   0  0  0  0  0  0  0  0  0  0  0  0
    1.6920   -0.6633   -0.3832 H   0  0  0  0  0  0  0  0  0  0  0  0
    1.7549    0.5143   -1.6975 H   0  0  0  0  0  0  0  0  0  0  0  0
    3.5605    1.7585   -0.4863 H   0  0  0  0  0  0  0  0  0  0  0  0
    3.4702    0.5922    0.8365 H   0  0  0  0  0  0  0  0  0  0  0  0
    4.1360   -0.1161   -2.0697 H   0  0  0  0  0  0  0  0  0  0  0  0
    4.1333   -1.2455   -0.7272 H   0  0  0  0  0  0  0  0  0  0  0  0
    5.9789    1.1712   -1.0963 H   0  0  0  0  0  0  0  0  0  0  0  0
    6.4176   -0.5028   -1.3581 H   0  0  0  0  0  0  0  0  0  0  0  0
    7.3236    0.3118    0.7547 H   0  0  0  0  0  0  0  0  0  0  0  0
    5.7488    0.8346    1.3101 H   0  0  0  0  0  0  0  0  0  0  0  0
    4.9750   -1.5264    1.4611 H   0  0  0  0  0  0  0  0  0  0  0  0
    6.4015   -1.2163    2.4343 H   0  0  0  0  0  0  0  0  0  0  0  0
    6.6656   -3.3547    1.3021 H   0  0  0  0  0  0  0  0  0  0  0  0
    7.8467   -2.2186    0.6300 H   0  0  0  0  0  0  0  0  0  0  0  0
    6.3792   -2.6280   -0.2822 H   0  0  0  0  0  0  0  0  0  0  0  0
  1  2  3  0
  2  3  1  0
  3  4  1  0
  4  5  1  0
  4  6  1  0
  4  7  1  0
  7  8  1  0
  8  9  1  0
  9 10  1  0
 10 11  1  0
 11 12  1  0
 12 13  1  0
 13 14  1  0
 14 15  1  0
 15 16  1  0
 16 17  1  0
 17 18  1  0
  1 19  1  0
  3 20  1  0
  3 21  1  0
  5 22  1  0
  5 23  1  0
  5 24  1  0
  6 25  1  0
  6 26  1  0
  6 27  1  0
  7 28  1  0
  7 29  1  0
  8 30  1  0
  8 31  1  0
  9 32  1  0
  9 33  1  0
 10 34  1  0
 10 35  1  0
 11 36  1  0
 11 37  1  0
 12 38  1  0
 12 39  1  0
 13 40  1  0
 13 41  1  0
 14 42  1  0
 14 43  1  0
 15 44  1  0
 15 45  1  0
 16 46  1  0
 16 47  1  0
 17 48  1  0
 17 49  1  0
 18 50  1  0
 18 51  1  0
 18 52  1  0
M  CHG  1   4   1
M  END
$$$$
