
     RDKit          3D

 44 44  0  0  0  0  0  0  0  0999 V2000
   -4.4303   -1.3933   -0.7264 C   0  0  0  0  0  0  0  0  0  0  0  0
   -4.1441   -0.0850   -1.4516 C   0  0  0  0  0  0  0  0  0  0  0  0
   -3.7449    0.9799   -0.5190 N   0  0  0  0  0  0  0  0  0  0  0  0
   -4.7214    2.0534   -0.2942 C   0  0  0  0  0  0  0  0  0  0  0  0
   -5.6907    1.6977    0.8227 C   0  0  0  0  0  0  0  0  0  0  0  0
   -2.4940    0.9908    0.0931 C   0  0  0  0  0  0  0  0  0  0  0  0
   -2.1970    1.8339    1.1767 C   0  0  0  0  0  0  0  0  0  0  0  0
   -0.9404    1.8458    1.7957 C   0  0  0  0  0  0  0  0  0  0  0  0
    0.0736    1.0069    1.3458 C   0  0  0  0  0  0  0  0  0  0  0  0
   -0.1738    0.1570    0.2755 C   0  0  0  0  0  0  0  0  0  0  0  0
    0.7177   -0.7219   -0.2776 O   0  0  0  0  0  0  0  0  0  0  0  0
    2.0427   -0.7138    0.2344 C   0  0  0  0  0  0  0  0  0  0  0  0
    2.9353   -1.7266   -0.5011 C   0  0  0  0  0  0  0  0  0  0  0  0
    2.4876   -2.4691   -1.3764 O   0  0  0  0  0  0  0  0  0  0  0  0
    4.2836   -1.7789   -0.1189 N   0  0  0  0  0  0  0  0  0  0  0  0
    5.1374   -2.7298   -0.8222 C   0  0  0  0  0  0  0  0  0  0  0  0
    4.9505   -0.7614    0.7061 C   0  0  0  0  0  0  0  0  0  0  0  0
    5.4711    0.4405   -0.0877 C   0  0  0  0  0  0  0  0  0  0  0  0
    6.7734    0.1585   -0.7019 C   0  0  0  0  0  0  0  0  0  0  0  0
    7.8096   -0.0693   -1.1710 N   0  0  0  0  0  0  0  0  0  0  0  0
   -1.4416    0.1574   -0.3291 C   0  0  0  0  0  0  0  0  0  0  0  0
   -3.5439   -1.7844   -0.2188 H   0  0  0  0  0  0  0  0  0  0  0  0
   -4.7684   -2.1515   -1.4400 H   0  0  0  0  0  0  0  0  0  0  0  0
   -5.2138   -1.2656    0.0268 H   0  0  0  0  0  0  0  0  0  0  0  0
   -5.0580    0.2054   -1.9849 H   0  0  0  0  0  0  0  0  0  0  0  0
   -3.3940   -0.2272   -2.2373 H   0  0  0  0  0  0  0  0  0  0  0  0
   -4.2310    3.0116   -0.0869 H   0  0  0  0  0  0  0  0  0  0  0  0
   -5.2945    2.2326   -1.2127 H   0  0  0  0  0  0  0  0  0  0  0  0
   -6.3792    2.5292    1.0032 H   0  0  0  0  0  0  0  0  0  0  0  0
   -5.1690    1.4776    1.7589 H   0  0  0  0  0  0  0  0  0  0  0  0
   -6.2892    0.8200    0.5596 H   0  0  0  0  0  0  0  0  0  0  0  0
   -2.9504    2.4979    1.5891 H   0  0  0  0  0  0  0  0  0  0  0  0
   -0.7641    2.5114    2.6367 H   0  0  0  0  0  0  0  0  0  0  0  0
    1.0294    1.0395    1.8541 H   0  0  0  0  0  0  0  0  0  0  0  0
    2.4757    0.2825    0.0949 H   0  0  0  0  0  0  0  0  0  0  0  0
    2.0303   -1.0008    1.2923 H   0  0  0  0  0  0  0  0  0  0  0  0
    5.5336   -2.2524   -1.7225 H   0  0  0  0  0  0  0  0  0  0  0  0
    5.9577   -3.0414   -0.1695 H   0  0  0  0  0  0  0  0  0  0  0  0
    4.5737   -3.6196   -1.1174 H   0  0  0  0  0  0  0  0  0  0  0  0
    5.7519   -1.2497    1.2741 H   0  0  0  0  0  0  0  0  0  0  0  0
    4.2322   -0.3979    1.4474 H   0  0  0  0  0  0  0  0  0  0  0  0
    5.5929    1.2870    0.5985 H   0  0  0  0  0  0  0  0  0  0  0  0
    4.7497    0.7457   -0.8532 H   0  0  0  0  0  0  0  0  0  0  0  0
   -1.5759   -0.5226   -1.1652 H   0  0  0  0  0  0  0  0  0  0  0  0
  1  2  1  0
  2  3  1  0
  3  4  1  0
  4  5  1  0
  3  6  1  0
  6  7  2  0
  7  8  1  0
  8  9  2  0
  9 10  1  0
 10 11  1  0
 11 12  1  0
 12 13  1  0
 13 14  2  0
 13 15  1  0
 15 16  1  0
 15 17  1  0
 17 18  1  0
 18 19  1  0
 19 20  3  0
 10 21  2  0
 21  6  1  0
  1 22  1  0
  1 23  1  0
  1 24  1  0
  2 25  1  0
  2 26  1  0
  4 27  1  0
  4 28  1  0
  5 29  1  0
  5 30  1  0
  5 31  1  0
  7 32  1  0
  8 33  1  0
  9 34  1  0
 12 35  1  0
 12 36  1  0
 16 37  1  0
 16 38  1  0
 16 39  1  0
 17 40  1  0
 17 41  1  0
 18 42  1  0
 18 43  1  0
 21 44  1  0
M  END
$$$$
