
     RDKit          3D

 50 52  0  0  0  0  0  0  0  0999 V2000
    2.8906   -1.8713   -3.3164 C   0  0  0  0  0  0  0  0  0  0  0  0
    2.8787   -2.0213   -1.8045 C   0  0  0  0  0  0  0  0  0  0  0  0
    2.9659   -0.7200   -1.1252 N   0  0  0  0  0  4  0  0  0  0  0  0
    1.8970   -0.0392   -0.7216 C   0  0  0  0  0  0  0  0  0  0  0  0
    0.5383   -0.4024   -0.9411 C   0  0  0  0  0  0  0  0  0  0  0  0
   -0.4589   -0.0910   -0.0958 C   0  0  0  0  0  0  0  0  0  0  0  0
   -1.8330   -0.4716   -0.3619 C   0  0  0  0  0  0  0  0  0  0  0  0
   -2.8624   -0.1095    0.4203 C   0  0  0  0  0  0  0  0  0  0  0  0
   -4.2217   -0.4041    0.2284 N   0  0  0  0  0  0  0  0  0  0  0  0
   -4.6939   -0.9552   -0.9855 C   0  0  0  0  0  0  0  0  0  0  0  0
   -6.0007   -1.7238   -0.9360 C   0  0  0  0  0  0  0  0  0  0  0  0
   -4.0872   -0.9034   -2.0605 O   0  0  0  0  0  0  0  0  0  0  0  0
   -5.1511   -0.0177    1.2622 C   0  0  0  0  0  0  0  0  0  0  0  0
   -4.8451   -0.2411    2.6144 C   0  0  0  0  0  0  0  0  0  0  0  0
   -5.7333    0.1462    3.6213 C   0  0  0  0  0  0  0  0  0  0  0  0
   -6.9312    0.7745    3.2910 C   0  0  0  0  0  0  0  0  0  0  0  0
   -7.2402    1.0209    1.9558 C   0  0  0  0  0  0  0  0  0  0  0  0
   -6.3544    0.6313    0.9475 C   0  0  0  0  0  0  0  0  0  0  0  0
    2.3775    1.4104    0.0726 S   0  0  0  0  0  0  0  0  0  0  0  0
    4.0475    1.0821   -0.1595 C   0  0  0  0  0  0  0  0  0  0  0  0
    5.1543    1.8567    0.2370 C   0  0  0  0  0  0  0  0  0  0  0  0
    6.4323    1.3846   -0.0690 C   0  0  0  0  0  0  0  0  0  0  0  0
    7.6081    2.0077    0.2403 O   0  0  0  0  0  0  0  0  0  0  0  0
    7.5326    3.2520    0.9284 C   0  0  0  0  0  0  0  0  0  0  0  0
    6.5875    0.1775   -0.7499 C   0  0  0  0  0  0  0  0  0  0  0  0
    5.4830   -0.5902   -1.1422 C   0  0  0  0  0  0  0  0  0  0  0  0
    4.1902   -0.1246   -0.8360 C   0  0  0  0  0  0  0  0  0  0  0  0
    2.8200   -2.8516   -3.7971 H   0  0  0  0  0  0  0  0  0  0  0  0
    3.8114   -1.3881   -3.6574 H   0  0  0  0  0  0  0  0  0  0  0  0
    2.0500   -1.2597   -3.6580 H   0  0  0  0  0  0  0  0  0  0  0  0
    1.9743   -2.5512   -1.4852 H   0  0  0  0  0  0  0  0  0  0  0  0
    3.7105   -2.6568   -1.4807 H   0  0  0  0  0  0  0  0  0  0  0  0
    0.2955   -0.9581   -1.8443 H   0  0  0  0  0  0  0  0  0  0  0  0
   -0.2836    0.4658    0.8236 H   0  0  0  0  0  0  0  0  0  0  0  0
   -2.0012   -1.0755   -1.2494 H   0  0  0  0  0  0  0  0  0  0  0  0
   -2.6552    0.4881    1.3067 H   0  0  0  0  0  0  0  0  0  0  0  0
   -5.9147   -2.5913   -1.5989 H   0  0  0  0  0  0  0  0  0  0  0  0
   -6.8202   -1.0963   -1.2930 H   0  0  0  0  0  0  0  0  0  0  0  0
   -6.2173   -2.1119    0.0620 H   0  0  0  0  0  0  0  0  0  0  0  0
   -3.9305   -0.7532    2.9020 H   0  0  0  0  0  0  0  0  0  0  0  0
   -5.4934   -0.0474    4.6642 H   0  0  0  0  0  0  0  0  0  0  0  0
   -7.6223    1.0774    4.0743 H   0  0  0  0  0  0  0  0  0  0  0  0
   -8.1678    1.5274    1.6986 H   0  0  0  0  0  0  0  0  0  0  0  0
   -6.6041    0.8840   -0.0800 H   0  0  0  0  0  0  0  0  0  0  0  0
    4.9949    2.7924    0.7633 H   0  0  0  0  0  0  0  0  0  0  0  0
    7.0085    4.0023    0.3272 H   0  0  0  0  0  0  0  0  0  0  0  0
    8.5547    3.6072    1.0905 H   0  0  0  0  0  0  0  0  0  0  0  0
    7.0605    3.1307    1.9088 H   0  0  0  0  0  0  0  0  0  0  0  0
    7.5940   -0.1731   -0.9820 H   0  0  0  0  0  0  0  0  0  0  0  0
    5.6658   -1.5188   -1.6750 H   0  0  0  0  0  0  0  0  0  0  0  0
  1  2  1  0
  2  3  1  0
  3  4  2  0
  4  5  1  0
  5  6  2  3
  6  7  1  0
  7  8  2  3
  8  9  1  0
  9 10  1  0
 10 11  1  0
 10 12  2  0
  9 13  1  0
 13 14  2  0
 14 15  1  0
 15 16  2  0
 16 17  1  0
 17 18  2  0
  4 19  1  0
 19 20  1  0
 20 21  2  0
 21 22  1  0
 22 23  1  0
 23 24  1  0
 22 25  2  0
 25 26  1  0
 26 27  2  0
 27  3  1  0
 18 13  1  0
 27 20  1  0
  1 28  1  0
  1 29  1  0
  1 30  1  0
  2 31  1  0
  2 32  1  0
  5 33  1  0
  6 34  1  0
  7 35  1  0
  8 36  1  0
 11 37  1  0
 11 38  1  0
 11 39  1  0
 14 40  1  0
 15 41  1  0
 16 42  1  0
 17 43  1  0
 18 44  1  0
 21 45  1  0
 24 46  1  0
 24 47  1  0
 24 48  1  0
 25 49  1  0
 26 50  1  0
M  CHG  1   3   1
M  END
$$$$
