
     RDKit          3D

 60 63  0  0  0  0  0  0  0  0999 V2000
    5.0675    4.1069    2.4467 C   0  0  0  0  0  0  0  0  0  0  0  0
    5.3657    2.8105    1.7105 C   0  0  0  0  0  0  0  0  0  0  0  0
    5.0831    3.0228    0.3240 O   0  0  0  0  0  0  0  0  0  0  0  0
    5.3961    1.9110   -0.4088 C   0  0  0  0  0  0  0  0  0  0  0  0
    6.7199    1.7751   -0.8419 C   0  0  0  0  0  0  0  0  0  0  0  0
    7.0867    0.7092   -1.6620 C   0  0  0  0  0  0  0  0  0  0  0  0
    6.1286   -0.2188   -2.0668 C   0  0  0  0  0  0  0  0  0  0  0  0
    4.8016   -0.0741   -1.6563 C   0  0  0  0  0  0  0  0  0  0  0  0
    4.4259    0.9944   -0.8281 C   0  0  0  0  0  0  0  0  0  0  0  0
    2.9954    1.0640   -0.4599 C   0  0  0  0  0  0  0  0  0  0  0  0
    2.5374    1.7820    0.5160 N   0  0  0  0  0  0  0  0  0  0  0  0
    1.1995    1.6915    0.8112 N   0  0  0  0  0  0  0  0  0  0  0  0
    0.4346    0.5272    0.7661 C   0  0  0  0  0  0  0  0  0  0  0  0
    0.7965   -0.5470    0.2936 O   0  0  0  0  0  0  0  0  0  0  0  0
   -0.8839    0.7027    1.3722 C   0  0  0  0  0  0  0  0  0  0  0  0
   -1.2628    1.8755    1.9675 N   0  0  0  0  0  0  0  0  0  0  0  0
   -2.4981    1.7346    2.4110 N   0  0  0  0  0  0  0  0  0  0  0  0
   -2.9356    0.4668    2.1389 N   0  0  0  0  0  0  0  0  0  0  0  0
   -4.2180    0.0320    2.5661 C   0  0  0  0  0  0  0  0  0  0  0  0
   -4.6403   -1.2146    2.3575 N   0  0  0  0  0  0  0  0  0  0  0  0
   -5.9159   -1.2439    2.9144 O   0  0  0  0  0  0  0  0  0  0  0  0
   -6.2517   -0.0161    3.4713 N   0  0  0  0  0  0  0  0  0  0  0  0
   -5.1959    0.7684    3.2637 C   0  0  0  0  0  0  0  0  0  0  0  0
   -5.1132    2.0471    3.6754 N   0  0  0  0  0  0  0  0  0  0  0  0
   -1.9308   -0.2053    1.4443 C   0  0  0  0  0  0  0  0  0  0  0  0
   -2.0398   -1.5928    0.9171 C   0  0  0  0  0  0  0  0  0  0  0  0
   -2.8291   -1.6244   -0.3248 N   0  0  0  0  0  0  0  0  0  0  0  0
   -2.0653   -1.1087   -1.4753 C   0  0  0  0  0  0  0  0  0  0  0  0
   -2.9077   -1.1158   -2.7553 C   0  0  0  0  0  0  0  0  0  0  0  0
   -3.4801   -2.4982   -3.0789 C   0  0  0  0  0  0  0  0  0  0  0  0
   -2.4049   -3.4444   -3.6192 C   0  0  0  0  0  0  0  0  0  0  0  0
   -4.1687   -3.0709   -1.8349 C   0  0  0  0  0  0  0  0  0  0  0  0
   -3.2867   -3.0007   -0.5864 C   0  0  0  0  0  0  0  0  0  0  0  0
    4.0226    4.4024    2.2908 H   0  0  0  0  0  0  0  0  0  0  0  0
    5.2482    4.0001    3.5194 H   0  0  0  0  0  0  0  0  0  0  0  0
    5.6959    4.9196    2.0645 H   0  0  0  0  0  0  0  0  0  0  0  0
    6.4194    2.5486    1.8566 H   0  0  0  0  0  0  0  0  0  0  0  0
    4.7390    2.0127    2.1134 H   0  0  0  0  0  0  0  0  0  0  0  0
    7.4608    2.5151   -0.5559 H   0  0  0  0  0  0  0  0  0  0  0  0
    8.1158    0.6077   -1.9980 H   0  0  0  0  0  0  0  0  0  0  0  0
    6.4108   -1.0443   -2.7161 H   0  0  0  0  0  0  0  0  0  0  0  0
    4.0642   -0.8045   -1.9886 H   0  0  0  0  0  0  0  0  0  0  0  0
    2.3294    0.4512   -1.0889 H   0  0  0  0  0  0  0  0  0  0  0  0
    0.8535    2.4395    1.4076 H   0  0  0  0  0  0  0  0  0  0  0  0
   -4.3896    2.6650    3.3158 H   0  0  0  0  0  0  0  0  0  0  0  0
   -5.9606    2.5204    3.9714 H   0  0  0  0  0  0  0  0  0  0  0  0
   -2.4958   -2.2238    1.6888 H   0  0  0  0  0  0  0  0  0  0  0  0
   -1.0537   -2.0433    0.7591 H   0  0  0  0  0  0  0  0  0  0  0  0
   -1.7679   -0.0684   -1.2977 H   0  0  0  0  0  0  0  0  0  0  0  0
   -1.1431   -1.6842   -1.6272 H   0  0  0  0  0  0  0  0  0  0  0  0
   -2.3058   -0.7457   -3.5934 H   0  0  0  0  0  0  0  0  0  0  0  0
   -3.7383   -0.4081   -2.6336 H   0  0  0  0  0  0  0  0  0  0  0  0
   -4.2340   -2.3831   -3.8676 H   0  0  0  0  0  0  0  0  0  0  0  0
   -1.9612   -3.0367   -4.5339 H   0  0  0  0  0  0  0  0  0  0  0  0
   -2.8393   -4.4172   -3.8689 H   0  0  0  0  0  0  0  0  0  0  0  0
   -1.5961   -3.6141   -2.9024 H   0  0  0  0  0  0  0  0  0  0  0  0
   -4.4751   -4.1094   -2.0121 H   0  0  0  0  0  0  0  0  0  0  0  0
   -5.0898   -2.5030   -1.6480 H   0  0  0  0  0  0  0  0  0  0  0  0
   -3.8854   -3.3587    0.2614 H   0  0  0  0  0  0  0  0  0  0  0  0
   -2.4339   -3.6840   -0.6855 H   0  0  0  0  0  0  0  0  0  0  0  0
  1  2  1  0
  2  3  1  0
  3  4  1  0
  4  5  2  0
  5  6  1  0
  6  7  2  0
  7  8  1  0
  8  9  2  0
  9 10  1  0
 10 11  2  3
 11 12  1  0
 12 13  1  0
 13 14  2  0
 13 15  1  0
 15 16  1  0
 16 17  2  0
 17 18  1  0
 18 19  1  0
 19 20  2  0
 20 21  1  0
 21 22  1  0
 22 23  2  0
 23 24  1  0
 18 25  1  0
 25 26  1  0
 26 27  1  0
 27 28  1  0
 28 29  1  0
 29 30  1  0
 30 31  1  0
 30 32  1  0
 32 33  1  0
  9  4  1  0
 25 15  2  0
 33 27  1  0
 23 19  1  0
  1 34  1  0
  1 35  1  0
  1 36  1  0
  2 37  1  0
  2 38  1  0
  5 39  1  0
  6 40  1  0
  7 41  1  0
  8 42  1  0
 10 43  1  0
 12 44  1  0
 24 45  1  0
 24 46  1  0
 26 47  1  0
 26 48  1  0
 28 49  1  0
 28 50  1  0
 29 51  1  0
 29 52  1  0
 30 53  1  0
 31 54  1  0
 31 55  1  0
 31 56  1  0
 32 57  1  0
 32 58  1  0
 33 59  1  0
 33 60  1  0
M  END
$$$$
