
     RDKit          3D

102104  0  0  0  0  0  0  0  0999 V2000
    8.0813    1.5416   -0.1583 C   0  0  0  0  0  0  0  0  0  0  0  0
    6.8526    1.6366    0.7332 C   0  0  0  0  0  0  0  0  0  0  0  0
    5.9996    0.3716    0.6412 C   0  0  0  0  0  0  0  0  0  0  0  0
    4.8074    0.3719    1.6022 C   0  0  0  0  0  0  0  0  0  0  0  0
    3.7997    1.5214    1.4353 C   0  0  0  0  0  0  0  0  0  0  0  0
    3.1525    1.5890    0.0440 C   0  0  0  0  0  0  0  0  0  0  0  0
    2.2344    2.7940   -0.1974 C   0  0  0  0  0  0  0  0  0  0  0  0
    1.0987    3.0196    0.7874 C   0  0  0  0  0  0  0  0  0  0  0  0
    1.0474    2.5548    1.9177 O   0  0  0  0  0  0  0  0  0  0  0  0
    0.1292    3.8767    0.2941 N   0  0  0  0  0  0  0  0  0  0  0  0
   -1.0744    4.2182    1.0785 C   0  0  0  0  0  0  0  0  0  0  0  0
   -1.6057    5.5795    0.6037 C   0  0  0  0  0  0  0  0  0  0  0  0
   -2.7785    6.1614    1.4179 C   0  0  0  0  0  0  0  0  0  0  0  0
   -2.4220    6.3741    2.8892 C   0  0  0  0  0  0  0  0  0  0  0  0
   -3.2258    7.4891    0.7982 C   0  0  0  0  0  0  0  0  0  0  0  0
   -2.1511    3.1172    0.9064 C   0  0  0  0  0  0  0  0  0  0  0  0
   -3.0663    2.9446    1.7066 O   0  0  0  0  0  0  0  0  0  0  0  0
   -2.0814    2.4446   -0.3029 N   0  0  0  0  0  0  0  0  0  0  0  0
   -2.7683    1.1543   -0.4589 C   0  0  0  0  0  0  0  0  0  0  0  0
   -3.1689    0.9606   -1.9300 C   0  0  0  0  0  0  0  0  0  0  0  0
   -4.1344   -0.1776   -2.1625 C   0  0  0  0  0  0  0  0  0  0  0  0
   -5.4485   -0.1060   -1.6798 C   0  0  0  0  0  0  0  0  0  0  0  0
   -6.3239   -1.1793   -1.8517 C   0  0  0  0  0  0  0  0  0  0  0  0
   -5.8966   -2.3314   -2.5084 C   0  0  0  0  0  0  0  0  0  0  0  0
   -4.5959   -2.4093   -3.0009 C   0  0  0  0  0  0  0  0  0  0  0  0
   -3.7196   -1.3360   -2.8354 C   0  0  0  0  0  0  0  0  0  0  0  0
   -1.7348    0.0970   -0.0050 C   0  0  0  0  0  0  0  0  0  0  0  0
   -0.5544    0.3924    0.1979 O   0  0  0  0  0  0  0  0  0  0  0  0
   -2.1787   -1.1971    0.1054 N   0  0  0  0  0  0  0  0  0  0  0  0
   -1.2620   -2.2824    0.4461 C   0  0  0  0  0  0  0  0  0  0  0  0
   -2.0121   -3.6078    0.6396 C   0  0  0  0  0  0  0  0  0  0  0  0
   -3.0383   -3.6088    1.7906 C   0  0  0  0  0  0  0  0  0  0  0  0
   -2.3893   -3.3580    3.1522 C   0  0  0  0  0  0  0  0  0  0  0  0
   -3.7864   -4.9445    1.8126 C   0  0  0  0  0  0  0  0  0  0  0  0
   -0.2445   -2.4242   -0.7127 C   0  0  0  0  0  0  0  0  0  0  0  0
   -0.5259   -2.9351   -1.7935 O   0  0  0  0  0  0  0  0  0  0  0  0
    0.9611   -1.7957   -0.4534 N   0  0  0  0  0  0  0  0  0  0  0  0
    1.9717   -1.6123   -1.4990 C   0  0  0  0  0  0  0  0  0  0  0  0
    3.1467   -2.5905   -1.3329 C   0  0  0  0  0  0  0  0  0  0  0  0
    2.7702   -4.0472   -1.4578 C   0  0  0  0  0  0  0  0  0  0  0  0
    2.6556   -4.8520   -0.3154 C   0  0  0  0  0  0  0  0  0  0  0  0
    2.2982   -6.1961   -0.4297 C   0  0  0  0  0  0  0  0  0  0  0  0
    2.0513   -6.7480   -1.6850 C   0  0  0  0  0  0  0  0  0  0  0  0
    2.1598   -5.9558   -2.8266 C   0  0  0  0  0  0  0  0  0  0  0  0
    2.5175   -4.6114   -2.7149 C   0  0  0  0  0  0  0  0  0  0  0  0
    2.5644   -0.1950   -1.4489 C   0  0  0  0  0  0  0  0  0  0  0  0
    3.1637    0.3266   -2.3817 O   0  0  0  0  0  0  0  0  0  0  0  0
    2.4465    0.3536   -0.2024 O   0  0  0  0  0  0  0  0  0  0  0  0
    8.7124    0.6955    0.1303 H   0  0  0  0  0  0  0  0  0  0  0  0
    8.6796    2.4541   -0.0767 H   0  0  0  0  0  0  0  0  0  0  0  0
    7.7950    1.4162   -1.2070 H   0  0  0  0  0  0  0  0  0  0  0  0
    6.2688    2.5126    0.4312 H   0  0  0  0  0  0  0  0  0  0  0  0
    7.1717    1.7967    1.7697 H   0  0  0  0  0  0  0  0  0  0  0  0
    6.6239   -0.4996    0.8788 H   0  0  0  0  0  0  0  0  0  0  0  0
    5.6561    0.2262   -0.3894 H   0  0  0  0  0  0  0  0  0  0  0  0
    5.1874    0.3987    2.6314 H   0  0  0  0  0  0  0  0  0  0  0  0
    4.2803   -0.5847    1.4998 H   0  0  0  0  0  0  0  0  0  0  0  0
    3.0338    1.3493    2.1976 H   0  0  0  0  0  0  0  0  0  0  0  0
    4.2790    2.4780    1.6714 H   0  0  0  0  0  0  0  0  0  0  0  0
    3.9702    1.6913   -0.6792 H   0  0  0  0  0  0  0  0  0  0  0  0
    1.7911    2.6975   -1.1967 H   0  0  0  0  0  0  0  0  0  0  0  0
    2.8401    3.7086   -0.1881 H   0  0  0  0  0  0  0  0  0  0  0  0
    0.2136    4.2410   -0.6459 H   0  0  0  0  0  0  0  0  0  0  0  0
   -0.7839    4.2405    2.1333 H   0  0  0  0  0  0  0  0  0  0  0  0
   -1.9187    5.4933   -0.4460 H   0  0  0  0  0  0  0  0  0  0  0  0
   -0.7778    6.3020    0.6111 H   0  0  0  0  0  0  0  0  0  0  0  0
   -3.6318    5.4754    1.3651 H   0  0  0  0  0  0  0  0  0  0  0  0
   -2.2343    5.4230    3.3963 H   0  0  0  0  0  0  0  0  0  0  0  0
   -3.2439    6.8659    3.4210 H   0  0  0  0  0  0  0  0  0  0  0  0
   -1.5295    6.9997    2.9951 H   0  0  0  0  0  0  0  0  0  0  0  0
   -2.4230    8.2336    0.8302 H   0  0  0  0  0  0  0  0  0  0  0  0
   -3.5201    7.3509   -0.2478 H   0  0  0  0  0  0  0  0  0  0  0  0
   -4.0885    7.8978    1.3350 H   0  0  0  0  0  0  0  0  0  0  0  0
   -1.1349    2.4407   -0.6678 H   0  0  0  0  0  0  0  0  0  0  0  0
   -3.6311    1.1107    0.2143 H   0  0  0  0  0  0  0  0  0  0  0  0
   -3.6413    1.8775   -2.3087 H   0  0  0  0  0  0  0  0  0  0  0  0
   -2.2702    0.8169   -2.5450 H   0  0  0  0  0  0  0  0  0  0  0  0
   -5.8005    0.7855   -1.1635 H   0  0  0  0  0  0  0  0  0  0  0  0
   -7.3410   -1.1164   -1.4726 H   0  0  0  0  0  0  0  0  0  0  0  0
   -6.5785   -3.1678   -2.6404 H   0  0  0  0  0  0  0  0  0  0  0  0
   -4.2593   -3.3076   -3.5134 H   0  0  0  0  0  0  0  0  0  0  0  0
   -2.7034   -1.4260   -3.2180 H   0  0  0  0  0  0  0  0  0  0  0  0
   -3.0883   -1.4465   -0.2668 H   0  0  0  0  0  0  0  0  0  0  0  0
   -0.7217   -2.0064    1.3586 H   0  0  0  0  0  0  0  0  0  0  0  0
   -1.2796   -4.4095    0.8042 H   0  0  0  0  0  0  0  0  0  0  0  0
   -2.5358   -3.8642   -0.2918 H   0  0  0  0  0  0  0  0  0  0  0  0
   -3.7792   -2.8197    1.6124 H   0  0  0  0  0  0  0  0  0  0  0  0
   -1.5888   -4.0791    3.3492 H   0  0  0  0  0  0  0  0  0  0  0  0
   -3.1281   -3.4448    3.9564 H   0  0  0  0  0  0  0  0  0  0  0  0
   -1.9653   -2.3512    3.2125 H   0  0  0  0  0  0  0  0  0  0  0  0
   -4.2926   -5.1223    0.8577 H   0  0  0  0  0  0  0  0  0  0  0  0
   -4.5485   -4.9512    2.5992 H   0  0  0  0  0  0  0  0  0  0  0  0
   -3.1024   -5.7799    1.9962 H   0  0  0  0  0  0  0  0  0  0  0  0
    0.9040   -1.0366    0.2305 H   0  0  0  0  0  0  0  0  0  0  0  0
    1.4920   -1.7256   -2.4782 H   0  0  0  0  0  0  0  0  0  0  0  0
    3.9246   -2.3736   -2.0779 H   0  0  0  0  0  0  0  0  0  0  0  0
    3.6310   -2.4255   -0.3604 H   0  0  0  0  0  0  0  0  0  0  0  0
    2.8386   -4.4347    0.6721 H   0  0  0  0  0  0  0  0  0  0  0  0
    2.2092   -6.8121    0.4611 H   0  0  0  0  0  0  0  0  0  0  0  0
    1.7702   -7.7937   -1.7743 H   0  0  0  0  0  0  0  0  0  0  0  0
    1.9591   -6.3832   -3.8053 H   0  0  0  0  0  0  0  0  0  0  0  0
    2.5886   -4.0061   -3.6157 H   0  0  0  0  0  0  0  0  0  0  0  0
  1  2  1  0
  2  3  1  0
  3  4  1  0
  4  5  1  0
  5  6  1  0
  6  7  1  0
  7  8  1  0
  8  9  2  0
  8 10  1  0
 10 11  1  0
 11 12  1  0
 12 13  1  0
 13 14  1  0
 13 15  1  0
 11 16  1  0
 16 17  2  0
 16 18  1  0
 18 19  1  0
 19 20  1  0
 20 21  1  0
 21 22  2  0
 22 23  1  0
 23 24  2  0
 24 25  1  0
 25 26  2  0
 19 27  1  0
 27 28  2  0
 27 29  1  0
 29 30  1  0
 30 31  1  0
 31 32  1  0
 32 33  1  0
 32 34  1  0
 30 35  1  0
 35 36  2  0
 35 37  1  0
 37 38  1  0
 38 39  1  0
 39 40  1  0
 40 41  2  0
 41 42  1  0
 42 43  2  0
 43 44  1  0
 44 45  2  0
 38 46  1  0
 46 47  2  0
 46 48  1  0
 48  6  1  0
 26 21  1  0
 45 40  1  0
  1 49  1  0
  1 50  1  0
  1 51  1  0
  2 52  1  0
  2 53  1  0
  3 54  1  0
  3 55  1  0
  4 56  1  0
  4 57  1  0
  5 58  1  0
  5 59  1  0
  6 60  1  0
  7 61  1  0
  7 62  1  0
 10 63  1  0
 11 64  1  0
 12 65  1  0
 12 66  1  0
 13 67  1  0
 14 68  1  0
 14 69  1  0
 14 70  1  0
 15 71  1  0
 15 72  1  0
 15 73  1  0
 18 74  1  0
 19 75  1  0
 20 76  1  0
 20 77  1  0
 22 78  1  0
 23 79  1  0
 24 80  1  0
 25 81  1  0
 26 82  1  0
 29 83  1  0
 30 84  1  0
 31 85  1  0
 31 86  1  0
 32 87  1  0
 33 88  1  0
 33 89  1  0
 33 90  1  0
 34 91  1  0
 34 92  1  0
 34 93  1  0
 37 94  1  0
 38 95  1  0
 39 96  1  0
 39 97  1  0
 41 98  1  0
 42 99  1  0
 43100  1  0
 44101  1  0
 45102  1  0
M  END
$$$$
