
     RDKit          3D

 52 55  0  0  0  0  0  0  0  0999 V2000
    6.4094   -1.8297    4.7634 C   0  0  0  0  0  0  0  0  0  0  0  0
    5.0014   -1.8480    4.5670 O   0  0  0  0  0  0  0  0  0  0  0  0
    4.5298   -1.2879    3.4131 C   0  0  0  0  0  0  0  0  0  0  0  0
    5.2999   -0.7399    2.3905 C   0  0  0  0  0  0  0  0  0  0  0  0
    4.6795   -0.1980    1.2567 C   0  0  0  0  0  0  0  0  0  0  0  0
    3.2843   -0.1942    1.1289 C   0  0  0  0  0  0  0  0  0  0  0  0
    2.7482    0.3747   -0.0460 N   0  0  0  0  0  0  0  0  0  0  0  0
    1.4065    0.5093   -0.3870 C   0  0  0  0  0  0  0  0  0  0  0  0
    0.4576    0.1662    0.3119 O   0  0  0  0  0  0  0  0  0  0  0  0
    1.2296    1.1909   -1.7440 C   0  0  0  0  0  0  0  0  0  0  0  0
   -0.2231    0.5874   -2.6445 S   0  0  0  0  0  0  0  0  0  0  0  0
   -1.4782    1.1738   -1.5509 C   0  0  0  0  0  0  0  0  0  0  0  0
   -1.4265    2.4420   -1.2651 N   0  0  0  0  0  0  0  0  0  0  0  0
   -2.3271    2.8843   -0.3426 C   0  0  0  0  0  0  0  0  0  0  0  0
   -3.2079    2.1202    0.3008 C   0  0  0  0  0  0  0  0  0  0  0  0
   -3.2785    0.6762   -0.0026 C   0  0  0  0  0  0  0  0  0  0  0  0
   -4.0780   -0.0516    0.5850 O   0  0  0  0  0  0  0  0  0  0  0  0
   -2.3966    0.2707   -1.0089 N   0  0  0  0  0  0  0  0  0  0  0  0
   -2.4905   -1.0840   -1.4487 C   0  0  0  0  0  0  0  0  0  0  0  0
   -2.1939   -2.1165   -0.5467 C   0  0  0  0  0  0  0  0  0  0  0  0
   -2.2696   -3.4473   -0.9527 C   0  0  0  0  0  0  0  0  0  0  0  0
   -2.6557   -3.7533   -2.2551 C   0  0  0  0  0  0  0  0  0  0  0  0
   -2.9776   -2.7326   -3.1552 C   0  0  0  0  0  0  0  0  0  0  0  0
   -2.9051   -1.3921   -2.7613 C   0  0  0  0  0  0  0  0  0  0  0  0
   -3.2620   -0.3275   -3.5516 O   0  0  0  0  0  0  0  0  0  0  0  0
   -3.5542   -0.5986   -4.9158 C   0  0  0  0  0  0  0  0  0  0  0  0
   -4.2016    2.9333    1.4407 S   0  0  0  0  0  0  0  0  0  0  0  0
   -3.6312    4.5685    0.8591 C   0  0  0  0  0  0  0  0  0  0  0  0
   -2.3464    4.3278    0.0601 C   0  0  0  0  0  0  0  0  0  0  0  0
    2.5194   -0.7459    2.1547 C   0  0  0  0  0  0  0  0  0  0  0  0
    3.1404   -1.2890    3.2860 C   0  0  0  0  0  0  0  0  0  0  0  0
    6.6182   -2.2973    5.7306 H   0  0  0  0  0  0  0  0  0  0  0  0
    6.7887   -0.8035    4.8007 H   0  0  0  0  0  0  0  0  0  0  0  0
    6.9231   -2.4142    3.9929 H   0  0  0  0  0  0  0  0  0  0  0  0
    6.3830   -0.7159    2.4404 H   0  0  0  0  0  0  0  0  0  0  0  0
    5.3106    0.2226    0.4781 H   0  0  0  0  0  0  0  0  0  0  0  0
    3.4288    0.7281   -0.7065 H   0  0  0  0  0  0  0  0  0  0  0  0
    1.1817    2.2735   -1.5920 H   0  0  0  0  0  0  0  0  0  0  0  0
    2.0988    0.9837   -2.3765 H   0  0  0  0  0  0  0  0  0  0  0  0
   -1.8874   -1.8835    0.4711 H   0  0  0  0  0  0  0  0  0  0  0  0
   -2.0314   -4.2421   -0.2503 H   0  0  0  0  0  0  0  0  0  0  0  0
   -2.7207   -4.7924   -2.5691 H   0  0  0  0  0  0  0  0  0  0  0  0
   -3.2981   -3.0205   -4.1506 H   0  0  0  0  0  0  0  0  0  0  0  0
   -4.4649   -1.1990   -5.0104 H   0  0  0  0  0  0  0  0  0  0  0  0
   -2.7073   -1.0800   -5.4162 H   0  0  0  0  0  0  0  0  0  0  0  0
   -3.7336    0.3582   -5.4152 H   0  0  0  0  0  0  0  0  0  0  0  0
   -4.4079    4.9990    0.2178 H   0  0  0  0  0  0  0  0  0  0  0  0
   -3.4633    5.2450    1.7023 H   0  0  0  0  0  0  0  0  0  0  0  0
   -2.3174    4.9892   -0.8126 H   0  0  0  0  0  0  0  0  0  0  0  0
   -1.4659    4.5504    0.6748 H   0  0  0  0  0  0  0  0  0  0  0  0
    1.4353   -0.7753    2.1146 H   0  0  0  0  0  0  0  0  0  0  0  0
    2.5274   -1.7152    4.0771 H   0  0  0  0  0  0  0  0  0  0  0  0
  1  2  1  0
  2  3  1  0
  3  4  2  0
  4  5  1  0
  5  6  2  0
  6  7  1  0
  7  8  1  0
  8  9  2  0
  8 10  1  0
 10 11  1  0
 11 12  1  0
 12 13  2  0
 13 14  1  0
 14 15  2  0
 15 16  1  0
 16 17  2  0
 16 18  1  0
 18 19  1  0
 19 20  2  0
 20 21  1  0
 21 22  2  0
 22 23  1  0
 23 24  2  0
 24 25  1  0
 25 26  1  0
 15 27  1  0
 27 28  1  0
 28 29  1  0
  6 30  1  0
 30 31  2  0
 31  3  1  0
 18 12  1  0
 24 19  1  0
 29 14  1  0
  1 32  1  0
  1 33  1  0
  1 34  1  0
  4 35  1  0
  5 36  1  0
  7 37  1  0
 10 38  1  0
 10 39  1  0
 20 40  1  0
 21 41  1  0
 22 42  1  0
 23 43  1  0
 26 44  1  0
 26 45  1  0
 26 46  1  0
 28 47  1  0
 28 48  1  0
 29 49  1  0
 29 50  1  0
 30 51  1  0
 31 52  1  0
M  END
$$$$
