
     RDKit          3D

 55 58  0  0  0  0  0  0  0  0999 V2000
    8.4654    1.3479   -0.1915 C   0  0  0  0  0  0  0  0  0  0  0  0
    7.5364    0.4374   -0.7610 O   0  0  0  0  0  0  0  0  0  0  0  0
    6.2267    0.5234   -0.3599 C   0  0  0  0  0  0  0  0  0  0  0  0
    5.7428    1.4561    0.5638 C   0  0  0  0  0  0  0  0  0  0  0  0
    4.3885    1.4732    0.9117 C   0  0  0  0  0  0  0  0  0  0  0  0
    3.5040    0.5619    0.3288 C   0  0  0  0  0  0  0  0  0  0  0  0
    2.0515    0.5444    0.6688 C   0  0  0  0  0  0  0  0  0  0  0  0
    1.4026    1.8669    0.9437 C   0  0  0  0  0  0  0  0  0  0  0  0
    0.0920    1.8388    1.2561 C   0  0  0  0  0  0  0  0  0  0  0  0
   -0.7130    3.0469    1.5461 C   0  0  0  0  0  0  0  0  0  0  0  0
   -1.7450    3.2119    0.6813 F   0  0  0  0  0  0  0  0  0  0  0  0
   -1.2211    3.0529    2.8031 F   0  0  0  0  0  0  0  0  0  0  0  0
    0.0403    4.1792    1.4452 F   0  0  0  0  0  0  0  0  0  0  0  0
   -0.5784    0.6225    1.3014 N   0  0  0  0  0  0  0  0  0  0  0  0
   -1.8800    0.3910    1.5921 N   0  0  0  0  0  0  0  0  0  0  0  0
   -2.0533   -0.9369    1.4802 C   0  0  0  0  0  0  0  0  0  0  0  0
   -3.3202   -1.6487    1.7565 C   0  0  0  0  0  0  0  0  0  0  0  0
   -3.2725   -2.8369    2.0867 O   0  0  0  0  0  0  0  0  0  0  0  0
   -4.5547   -0.9838    1.6555 N   0  0  0  0  0  0  0  0  0  0  0  0
   -5.7313   -1.7617    2.0075 C   0  0  0  0  0  0  0  0  0  0  0  0
   -4.7911    0.2075    0.8353 C   0  0  0  0  0  0  0  0  0  0  0  0
   -5.0524   -0.1213   -0.6184 C   0  0  0  0  0  0  0  0  0  0  0  0
   -6.3607   -0.3368   -1.0775 C   0  0  0  0  0  0  0  0  0  0  0  0
   -6.6011   -0.6550   -2.4153 C   0  0  0  0  0  0  0  0  0  0  0  0
   -5.5378   -0.7619   -3.3091 C   0  0  0  0  0  0  0  0  0  0  0  0
   -4.2340   -0.5492   -2.8668 C   0  0  0  0  0  0  0  0  0  0  0  0
   -3.9920   -0.2307   -1.5294 C   0  0  0  0  0  0  0  0  0  0  0  0
   -0.8313   -1.5684    1.1387 C   0  0  0  0  0  0  0  0  0  0  0  0
    0.0950   -0.5642    1.0114 C   0  0  0  0  0  0  0  0  0  0  0  0
    1.4196   -0.5952    0.6869 N   0  0  0  0  0  0  0  0  0  0  0  0
    3.9864   -0.3875   -0.5825 C   0  0  0  0  0  0  0  0  0  0  0  0
    5.3411   -0.4125   -0.9321 C   0  0  0  0  0  0  0  0  0  0  0  0
    5.8934   -1.2981   -1.8247 O   0  0  0  0  0  0  0  0  0  0  0  0
    5.0677   -2.3503   -2.3045 C   0  0  0  0  0  0  0  0  0  0  0  0
    8.5377    1.2123    0.8926 H   0  0  0  0  0  0  0  0  0  0  0  0
    9.4495    1.1333   -0.6192 H   0  0  0  0  0  0  0  0  0  0  0  0
    8.2112    2.3821   -0.4457 H   0  0  0  0  0  0  0  0  0  0  0  0
    6.3978    2.1796    1.0383 H   0  0  0  0  0  0  0  0  0  0  0  0
    4.0560    2.1896    1.6575 H   0  0  0  0  0  0  0  0  0  0  0  0
    1.9649    2.7881    0.8604 H   0  0  0  0  0  0  0  0  0  0  0  0
   -6.5451   -1.0922    2.3008 H   0  0  0  0  0  0  0  0  0  0  0  0
   -5.5189   -2.4291    2.8485 H   0  0  0  0  0  0  0  0  0  0  0  0
   -6.0349   -2.3671    1.1484 H   0  0  0  0  0  0  0  0  0  0  0  0
   -3.9751    0.9252    0.8956 H   0  0  0  0  0  0  0  0  0  0  0  0
   -5.6548    0.7391    1.2555 H   0  0  0  0  0  0  0  0  0  0  0  0
   -7.2028   -0.2596   -0.3936 H   0  0  0  0  0  0  0  0  0  0  0  0
   -7.6184   -0.8214   -2.7599 H   0  0  0  0  0  0  0  0  0  0  0  0
   -5.7250   -1.0111   -4.3502 H   0  0  0  0  0  0  0  0  0  0  0  0
   -3.4038   -0.6318   -3.5635 H   0  0  0  0  0  0  0  0  0  0  0  0
   -2.9681   -0.0619   -1.2054 H   0  0  0  0  0  0  0  0  0  0  0  0
   -0.6569   -2.6269    1.0051 H   0  0  0  0  0  0  0  0  0  0  0  0
    3.2830   -1.0938   -1.0128 H   0  0  0  0  0  0  0  0  0  0  0  0
    4.6823   -2.9609   -1.4812 H   0  0  0  0  0  0  0  0  0  0  0  0
    5.6840   -2.9966   -2.9370 H   0  0  0  0  0  0  0  0  0  0  0  0
    4.2538   -1.9592   -2.9235 H   0  0  0  0  0  0  0  0  0  0  0  0
  1  2  1  0
  2  3  1  0
  3  4  2  0
  4  5  1  0
  5  6  2  0
  6  7  1  0
  7  8  1  0
  8  9  2  0
  9 10  1  0
 10 11  1  0
 10 12  1  0
 10 13  1  0
  9 14  1  0
 14 15  1  0
 15 16  2  0
 16 17  1  0
 17 18  2  0
 17 19  1  0
 19 20  1  0
 19 21  1  0
 21 22  1  0
 22 23  2  0
 23 24  1  0
 24 25  2  0
 25 26  1  0
 26 27  2  0
 16 28  1  0
 28 29  2  0
 29 30  1  0
  6 31  1  0
 31 32  2  0
 32 33  1  0
 33 34  1  0
 32  3  1  0
 30  7  2  0
 29 14  1  0
 27 22  1  0
  1 35  1  0
  1 36  1  0
  1 37  1  0
  4 38  1  0
  5 39  1  0
  8 40  1  0
 20 41  1  0
 20 42  1  0
 20 43  1  0
 21 44  1  0
 21 45  1  0
 23 46  1  0
 24 47  1  0
 25 48  1  0
 26 49  1  0
 27 50  1  0
 28 51  1  0
 31 52  1  0
 34 53  1  0
 34 54  1  0
 34 55  1  0
M  END
$$$$
