
     RDKit          3D

 24 24  0  0  0  0  0  0  0  0999 V2000
   -4.0414    0.0670   -0.8887 C   0  0  0  0  0  0  0  0  0  0  0  0
   -3.5505   -1.0080   -0.0551 N   0  0  0  0  0  0  0  0  0  0  0  0
   -2.2701   -1.2084    0.3960 C   0  0  0  0  0  0  0  0  0  0  0  0
   -1.9684   -2.6882    1.1067 S   0  0  0  0  0  0  0  0  0  0  0  0
   -1.4286   -0.1377    0.2225 N   0  0  0  0  0  0  0  0  0  0  0  0
   -0.0254   -0.0141    0.3326 C   0  0  0  0  0  0  0  0  0  0  0  0
    0.8733   -1.0774    0.2691 C   0  0  0  0  0  0  0  0  0  0  0  0
    2.2530   -0.8538    0.3631 C   0  0  0  0  0  0  0  0  0  0  0  0
    2.7588    0.4397    0.5188 C   0  0  0  0  0  0  0  0  0  0  0  0
    4.2377    0.6764    0.5877 C   0  0  0  0  0  0  0  0  0  0  0  0
    1.8640    1.5115    0.5438 C   0  0  0  0  0  0  0  0  0  0  0  0
    0.4868    1.2852    0.4491 C   0  0  0  0  0  0  0  0  0  0  0  0
   -4.0681    0.9899   -0.3037 H   0  0  0  0  0  0  0  0  0  0  0  0
   -3.3815    0.1935   -1.7509 H   0  0  0  0  0  0  0  0  0  0  0  0
   -5.0503   -0.1849   -1.2235 H   0  0  0  0  0  0  0  0  0  0  0  0
   -4.1508   -1.8180    0.0614 H   0  0  0  0  0  0  0  0  0  0  0  0
   -1.9150    0.7435    0.1464 H   0  0  0  0  0  0  0  0  0  0  0  0
    0.5437   -2.0973    0.1099 H   0  0  0  0  0  0  0  0  0  0  0  0
    2.9286   -1.7048    0.3059 H   0  0  0  0  0  0  0  0  0  0  0  0
    4.7470   -0.1699    1.0605 H   0  0  0  0  0  0  0  0  0  0  0  0
    4.4635    1.5659    1.1854 H   0  0  0  0  0  0  0  0  0  0  0  0
    4.6420    0.8151   -0.4197 H   0  0  0  0  0  0  0  0  0  0  0  0
    2.2305    2.5310    0.6390 H   0  0  0  0  0  0  0  0  0  0  0  0
   -0.1788    2.1438    0.4805 H   0  0  0  0  0  0  0  0  0  0  0  0
  1  2  1  0
  2  3  1  0
  3  4  2  0
  3  5  1  0
  5  6  1  0
  6  7  2  0
  7  8  1  0
  8  9  2  0
  9 10  1  0
  9 11  1  0
 11 12  2  0
 12  6  1  0
  1 13  1  0
  1 14  1  0
  1 15  1  0
  2 16  1  0
  5 17  1  0
  7 18  1  0
  8 19  1  0
 10 20  1  0
 10 21  1  0
 10 22  1  0
 11 23  1  0
 12 24  1  0
M  END
$$$$
