
     RDKit          3D

 23 23  0  0  0  0  0  0  0  0999 V2000
   -2.0145    0.4819   -1.3335 C   0  0  0  0  0  0  0  0  0  0  0  0
   -1.5259   -0.1471   -0.0525 C   0  0  0  0  0  0  0  0  0  0  0  0
   -0.0787   -0.1324    0.1945 C   0  0  0  0  0  0  0  0  0  0  0  0
    0.8602    0.4289   -0.5856 C   0  0  0  0  0  0  0  0  0  0  0  0
    2.2383    0.3753   -0.2309 C   0  0  0  0  0  0  0  0  0  0  0  0
    3.3281    0.9014   -0.9169 C   0  0  0  0  0  0  0  0  0  0  0  0
    4.4978    0.5997   -0.1801 C   0  0  0  0  0  0  0  0  0  0  0  0
    4.0745   -0.0963    0.9221 C   0  0  0  0  0  0  0  0  0  0  0  0
    2.7277   -0.2371    0.9040 O   0  0  0  0  0  0  0  0  0  0  0  0
   -2.3172   -0.7261    0.8743 C   0  0  0  0  0  0  0  0  0  0  0  0
   -3.7871   -0.8347    0.8484 C   0  0  0  0  0  0  0  0  0  0  0  0
   -4.5793   -0.3488    0.0679 O   0  0  0  0  0  0  0  0  0  0  0  0
   -4.1974   -1.5917    1.8817 O   0  0  0  0  0  0  0  0  0  0  0  0
   -1.5096    0.0341   -2.1972 H   0  0  0  0  0  0  0  0  0  0  0  0
   -3.0816    0.3559   -1.5150 H   0  0  0  0  0  0  0  0  0  0  0  0
   -1.8136    1.5590   -1.3302 H   0  0  0  0  0  0  0  0  0  0  0  0
    0.2489   -0.6276    1.1104 H   0  0  0  0  0  0  0  0  0  0  0  0
    0.6044    0.9420   -1.5059 H   0  0  0  0  0  0  0  0  0  0  0  0
    3.2751    1.4446   -1.8505 H   0  0  0  0  0  0  0  0  0  0  0  0
    5.5187    0.8574   -0.4230 H   0  0  0  0  0  0  0  0  0  0  0  0
    4.5790   -0.5382    1.7699 H   0  0  0  0  0  0  0  0  0  0  0  0
   -1.8755   -1.1688    1.7638 H   0  0  0  0  0  0  0  0  0  0  0  0
   -5.1723   -1.6046    1.7844 H   0  0  0  0  0  0  0  0  0  0  0  0
  1  2  1  0
  2  3  1  0
  3  4  2  3
  4  5  1  0
  5  6  2  0
  6  7  1  0
  7  8  2  0
  8  9  1  0
  2 10  2  3
 10 11  1  0
 11 12  2  0
 11 13  1  0
  9  5  1  0
  1 14  1  0
  1 15  1  0
  1 16  1  0
  3 17  1  0
  4 18  1  0
  6 19  1  0
  7 20  1  0
  8 21  1  0
 10 22  1  0
 13 23  1  0
M  END
$$$$
