
     RDKit          3D

 47 49  0  0  0  0  0  0  0  0999 V2000
   -3.2759    2.6931    0.2079 C   0  0  0  0  0  0  0  0  0  0  0  0
   -2.8366    1.3850    0.8451 C   0  0  0  0  0  0  0  0  0  0  0  0
   -3.3955    0.2238    0.1387 N   0  0  0  0  0  4  0  0  0  0  0  0
   -2.7601   -0.3968   -0.8467 C   0  0  0  0  0  0  0  0  0  0  0  0
   -1.4829   -0.0947   -1.3738 C   0  0  0  0  0  0  0  0  0  0  0  0
   -0.3290   -0.4188   -0.7677 C   0  0  0  0  0  0  0  0  0  0  0  0
   -0.1585   -1.1419    0.4793 C   0  0  0  0  0  0  0  0  0  0  0  0
    1.0123   -1.3439    1.1062 C   0  0  0  0  0  0  0  0  0  0  0  0
    2.3137   -0.8505    0.6534 C   0  0  0  0  0  0  0  0  0  0  0  0
    2.7799    0.3959    1.0609 C   0  0  0  0  0  0  0  0  0  0  0  0
    4.0199    0.8692    0.6067 C   0  0  0  0  0  0  0  0  0  0  0  0
    4.8349    0.1284   -0.2686 C   0  0  0  0  0  0  0  0  0  0  0  0
    6.0738    0.6005   -0.7010 N   0  0  0  0  0  0  0  0  0  0  0  0
    6.4122    2.0131   -0.5404 C   0  0  0  0  0  0  0  0  0  0  0  0
    6.8268   -0.1327   -1.7158 C   0  0  0  0  0  0  0  0  0  0  0  0
    4.3392   -1.1323   -0.6467 C   0  0  0  0  0  0  0  0  0  0  0  0
    3.1005   -1.6169   -0.2013 C   0  0  0  0  0  0  0  0  0  0  0  0
   -3.7164   -1.6594   -1.5018 S   0  0  0  0  0  0  0  0  0  0  0  0
   -4.9923   -1.3636   -0.3872 C   0  0  0  0  0  0  0  0  0  0  0  0
   -6.2177   -2.0358   -0.2598 C   0  0  0  0  0  0  0  0  0  0  0  0
   -7.1099   -1.5980    0.7219 C   0  0  0  0  0  0  0  0  0  0  0  0
   -6.7932   -0.5249    1.5478 C   0  0  0  0  0  0  0  0  0  0  0  0
   -5.5682    0.1412    1.4177 C   0  0  0  0  0  0  0  0  0  0  0  0
   -4.6534   -0.2915    0.4353 C   0  0  0  0  0  0  0  0  0  0  0  0
   -4.3659    2.7877    0.2121 H   0  0  0  0  0  0  0  0  0  0  0  0
   -2.8557    3.5432    0.7539 H   0  0  0  0  0  0  0  0  0  0  0  0
   -2.9407    2.7535   -0.8325 H   0  0  0  0  0  0  0  0  0  0  0  0
   -1.7443    1.3368    0.8648 H   0  0  0  0  0  0  0  0  0  0  0  0
   -3.1442    1.3535    1.8961 H   0  0  0  0  0  0  0  0  0  0  0  0
   -1.4414    0.4009   -2.3425 H   0  0  0  0  0  0  0  0  0  0  0  0
    0.5912   -0.1305   -1.2815 H   0  0  0  0  0  0  0  0  0  0  0  0
   -1.0375   -1.5866    0.9409 H   0  0  0  0  0  0  0  0  0  0  0  0
    1.0449   -1.9209    2.0287 H   0  0  0  0  0  0  0  0  0  0  0  0
    2.1991    1.0115    1.7420 H   0  0  0  0  0  0  0  0  0  0  0  0
    4.3405    1.8402    0.9732 H   0  0  0  0  0  0  0  0  0  0  0  0
    7.3906    2.2468   -0.9739 H   0  0  0  0  0  0  0  0  0  0  0  0
    6.4769    2.2822    0.5196 H   0  0  0  0  0  0  0  0  0  0  0  0
    5.6750    2.6524   -1.0379 H   0  0  0  0  0  0  0  0  0  0  0  0
    6.2791   -0.1630   -2.6641 H   0  0  0  0  0  0  0  0  0  0  0  0
    7.7984    0.3349   -1.9096 H   0  0  0  0  0  0  0  0  0  0  0  0
    7.0445   -1.1539   -1.3851 H   0  0  0  0  0  0  0  0  0  0  0  0
    4.9117   -1.7821   -1.3030 H   0  0  0  0  0  0  0  0  0  0  0  0
    2.7701   -2.5997   -0.5291 H   0  0  0  0  0  0  0  0  0  0  0  0
   -6.4741   -2.8729   -0.9055 H   0  0  0  0  0  0  0  0  0  0  0  0
   -8.0686   -2.1043    0.8385 H   0  0  0  0  0  0  0  0  0  0  0  0
   -7.5097   -0.2015    2.3034 H   0  0  0  0  0  0  0  0  0  0  0  0
   -5.3634    0.9759    2.0814 H   0  0  0  0  0  0  0  0  0  0  0  0
  1  2  1  0
  2  3  1  0
  3  4  2  0
  4  5  1  0
  5  6  2  3
  6  7  1  0
  7  8  2  3
  8  9  1  0
  9 10  2  0
 10 11  1  0
 11 12  2  0
 12 13  1  0
 13 14  1  0
 13 15  1  0
 12 16  1  0
 16 17  2  0
  4 18  1  0
 18 19  1  0
 19 20  2  0
 20 21  1  0
 21 22  2  0
 22 23  1  0
 23 24  2  0
 24  3  1  0
 17  9  1  0
 24 19  1  0
  1 25  1  0
  1 26  1  0
  1 27  1  0
  2 28  1  0
  2 29  1  0
  5 30  1  0
  6 31  1  0
  7 32  1  0
  8 33  1  0
 10 34  1  0
 11 35  1  0
 14 36  1  0
 14 37  1  0
 14 38  1  0
 15 39  1  0
 15 40  1  0
 15 41  1  0
 16 42  1  0
 17 43  1  0
 20 44  1  0
 21 45  1  0
 22 46  1  0
 23 47  1  0
M  CHG  1   3   1
M  END
$$$$
