
     RDKit          3D

 48 50  0  0  0  0  0  0  0  0999 V2000
    5.4462   -0.0424    3.3090 C   0  0  0  0  0  0  0  0  0  0  0  0
    4.9394    1.0146    2.5028 O   0  0  0  0  0  0  0  0  0  0  0  0
    4.4061    0.6699    1.2926 C   0  0  0  0  0  0  0  0  0  0  0  0
    4.3627   -0.6131    0.7511 C   0  0  0  0  0  0  0  0  0  0  0  0
    3.7836   -0.8362   -0.5071 C   0  0  0  0  0  0  0  0  0  0  0  0
    3.2426    0.2223   -1.2411 C   0  0  0  0  0  0  0  0  0  0  0  0
    2.6521    0.1061   -2.4727 O   0  0  0  0  0  0  0  0  0  0  0  0
    2.4629   -1.1888   -3.0504 C   0  0  0  0  0  0  0  0  0  0  0  0
    1.2681   -1.8221   -2.4488 C   0  0  0  0  0  0  0  0  0  0  0  0
    0.1541   -1.3544   -1.7962 C   0  0  0  0  0  0  0  0  0  0  0  0
   -0.5994   -2.5160   -1.4716 C   0  0  0  0  0  0  0  0  0  0  0  0
   -1.8827   -2.6166   -0.7588 C   0  0  0  0  0  0  0  0  0  0  0  0
   -2.5041   -3.6686   -0.6282 O   0  0  0  0  0  0  0  0  0  0  0  0
   -2.3487   -1.4269   -0.2389 N   0  0  0  0  0  0  0  0  0  0  0  0
   -3.6525   -1.2713    0.3893 C   0  0  0  0  0  0  0  0  0  0  0  0
   -4.7540   -1.1776   -0.6678 C   0  0  0  0  0  0  0  0  0  0  0  0
   -3.6615   -0.0581    1.3425 C   0  0  0  0  0  0  0  0  0  0  0  0
   -3.3204    1.2566    0.6737 C   0  0  0  0  0  0  0  0  0  0  0  0
   -4.2152    2.3223    0.7094 C   0  0  0  0  0  0  0  0  0  0  0  0
   -3.8552    3.5217    0.1011 C   0  0  0  0  0  0  0  0  0  0  0  0
   -2.6154    3.6305   -0.5162 C   0  0  0  0  0  0  0  0  0  0  0  0
   -1.7801    2.5275   -0.5041 C   0  0  0  0  0  0  0  0  0  0  0  0
   -2.1040    1.3451    0.0682 N   0  0  0  0  0  0  0  0  0  0  0  0
    0.0350   -3.6128   -1.9252 N   0  0  0  0  0  0  0  0  0  0  0  0
    1.1954   -3.1745   -2.5304 O   0  0  0  0  0  0  0  0  0  0  0  0
    3.2878    1.5105   -0.6859 C   0  0  0  0  0  0  0  0  0  0  0  0
    2.6094    2.8690   -1.5164 Cl  0  0  0  0  0  0  0  0  0  0  0  0
    3.8664    1.7313    0.5676 C   0  0  0  0  0  0  0  0  0  0  0  0
    4.6593   -0.7616    3.5586 H   0  0  0  0  0  0  0  0  0  0  0  0
    6.2943   -0.5359    2.8239 H   0  0  0  0  0  0  0  0  0  0  0  0
    5.8063    0.3949    4.2447 H   0  0  0  0  0  0  0  0  0  0  0  0
    4.7689   -1.4690    1.2815 H   0  0  0  0  0  0  0  0  0  0  0  0
    3.7685   -1.8576   -0.8701 H   0  0  0  0  0  0  0  0  0  0  0  0
    2.2737   -1.0323   -4.1185 H   0  0  0  0  0  0  0  0  0  0  0  0
    3.3650   -1.8058   -2.9836 H   0  0  0  0  0  0  0  0  0  0  0  0
   -0.0680   -0.3196   -1.5825 H   0  0  0  0  0  0  0  0  0  0  0  0
   -1.8502   -0.5582   -0.4141 H   0  0  0  0  0  0  0  0  0  0  0  0
   -3.8388   -2.1721    0.9875 H   0  0  0  0  0  0  0  0  0  0  0  0
   -4.7922   -2.0900   -1.2723 H   0  0  0  0  0  0  0  0  0  0  0  0
   -4.5847   -0.3420   -1.3554 H   0  0  0  0  0  0  0  0  0  0  0  0
   -5.7345   -1.0457   -0.1992 H   0  0  0  0  0  0  0  0  0  0  0  0
   -2.9236   -0.2179    2.1391 H   0  0  0  0  0  0  0  0  0  0  0  0
   -4.6396    0.0088    1.8346 H   0  0  0  0  0  0  0  0  0  0  0  0
   -5.1777    2.2311    1.2020 H   0  0  0  0  0  0  0  0  0  0  0  0
   -4.5360    4.3683    0.1142 H   0  0  0  0  0  0  0  0  0  0  0  0
   -2.3053    4.5541   -0.9919 H   0  0  0  0  0  0  0  0  0  0  0  0
   -0.7977    2.5688   -0.9670 H   0  0  0  0  0  0  0  0  0  0  0  0
    3.8937    2.7339    0.9898 H   0  0  0  0  0  0  0  0  0  0  0  0
  1  2  1  0
  2  3  1  0
  3  4  2  0
  4  5  1  0
  5  6  2  0
  6  7  1  0
  7  8  1  0
  8  9  1  0
  9 10  2  0
 10 11  1  0
 11 12  1  0
 12 13  2  0
 12 14  1  0
 14 15  1  0
 15 16  1  0
 15 17  1  0
 17 18  1  0
 18 19  2  0
 19 20  1  0
 20 21  2  0
 21 22  1  0
 22 23  2  0
 11 24  2  0
 24 25  1  0
  6 26  1  0
 26 27  1  0
 26 28  2  0
 28  3  1  0
 25  9  1  0
 23 18  1  0
  1 29  1  0
  1 30  1  0
  1 31  1  0
  4 32  1  0
  5 33  1  0
  8 34  1  0
  8 35  1  0
 10 36  1  0
 14 37  1  0
 15 38  1  0
 16 39  1  0
 16 40  1  0
 16 41  1  0
 17 42  1  0
 17 43  1  0
 19 44  1  0
 20 45  1  0
 21 46  1  0
 22 47  1  0
 28 48  1  0
M  END
$$$$
