
     RDKit          3D

 59 62  0  0  0  0  0  0  0  0999 V2000
   -8.9798   -0.5774   -1.8646 C   0  0  0  0  0  0  0  0  0  0  0  0
   -7.9104   -0.2028   -0.8806 C   0  0  0  0  0  0  0  0  0  0  0  0
   -6.9074   -1.1172   -0.5313 C   0  0  0  0  0  0  0  0  0  0  0  0
   -5.9290   -0.7700    0.4028 C   0  0  0  0  0  0  0  0  0  0  0  0
   -5.9453    0.5011    0.9860 C   0  0  0  0  0  0  0  0  0  0  0  0
   -4.9263    0.8919    1.9868 C   0  0  0  0  0  0  0  0  0  0  0  0
   -5.3176    1.3083    3.0747 O   0  0  0  0  0  0  0  0  0  0  0  0
   -3.5808    0.7756    1.6563 N   0  0  0  0  0  0  0  0  0  0  0  0
   -3.0652    0.6054    0.2911 C   0  0  0  0  0  0  0  0  0  0  0  0
   -1.6889    1.2660    0.0740 C   0  0  0  0  0  0  0  0  0  0  0  0
   -0.7048    0.7951    1.0607 N   0  0  0  0  0  0  0  0  0  0  0  0
    0.6589    0.8603    0.8205 C   0  0  0  0  0  0  0  0  0  0  0  0
    1.2019    1.6466   -0.2048 C   0  0  0  0  0  0  0  0  0  0  0  0
    2.5835    1.7073   -0.4441 C   0  0  0  0  0  0  0  0  0  0  0  0
    3.4764    0.9732    0.3370 C   0  0  0  0  0  0  0  0  0  0  0  0
    4.8459    1.0876    0.0348 N   0  0  0  0  0  0  0  0  0  0  0  0
    5.9088    0.4304    0.6325 C   0  0  0  0  0  0  0  0  0  0  0  0
    5.8420   -0.3515    1.5772 O   0  0  0  0  0  0  0  0  0  0  0  0
    7.2631    0.8238    0.0560 C   0  0  0  0  0  0  0  0  0  0  0  0
    7.2764    0.7857   -1.7719 S   0  0  0  0  0  0  0  0  0  0  0  0
    6.9948   -0.9553   -2.0414 C   0  0  0  0  0  0  0  0  0  0  0  0
    7.9412   -1.9090   -1.6523 C   0  0  0  0  0  0  0  0  0  0  0  0
    7.7032   -3.2686   -1.8735 C   0  0  0  0  0  0  0  0  0  0  0  0
    6.5216   -3.6739   -2.4906 C   0  0  0  0  0  0  0  0  0  0  0  0
    6.2292   -5.3472   -2.7642 Cl  0  0  0  0  0  0  0  0  0  0  0  0
    5.5782   -2.7308   -2.8921 C   0  0  0  0  0  0  0  0  0  0  0  0
    5.8171   -1.3714   -2.6714 C   0  0  0  0  0  0  0  0  0  0  0  0
    2.9627    0.1804    1.3556 C   0  0  0  0  0  0  0  0  0  0  0  0
    1.5783    0.1281    1.5872 C   0  0  0  0  0  0  0  0  0  0  0  0
   -1.2125    0.4463    2.4031 C   0  0  0  0  0  0  0  0  0  0  0  0
   -2.5860    1.0811    2.6848 C   0  0  0  0  0  0  0  0  0  0  0  0
   -6.9633    1.4050    0.6739 C   0  0  0  0  0  0  0  0  0  0  0  0
   -7.9398    1.0541   -0.2603 C   0  0  0  0  0  0  0  0  0  0  0  0
   -8.6939   -1.4614   -2.4450 H   0  0  0  0  0  0  0  0  0  0  0  0
   -9.9145   -0.7967   -1.3377 H   0  0  0  0  0  0  0  0  0  0  0  0
   -9.1489    0.2396   -2.5746 H   0  0  0  0  0  0  0  0  0  0  0  0
   -6.8860   -2.1079   -0.9795 H   0  0  0  0  0  0  0  0  0  0  0  0
   -5.1702   -1.4952    0.6839 H   0  0  0  0  0  0  0  0  0  0  0  0
   -3.7785    1.0110   -0.4332 H   0  0  0  0  0  0  0  0  0  0  0  0
   -2.9783   -0.4746    0.1209 H   0  0  0  0  0  0  0  0  0  0  0  0
   -1.7859    2.3561    0.1530 H   0  0  0  0  0  0  0  0  0  0  0  0
   -1.3678    1.0222   -0.9460 H   0  0  0  0  0  0  0  0  0  0  0  0
    0.5602    2.2574   -0.8331 H   0  0  0  0  0  0  0  0  0  0  0  0
    2.9393    2.3446   -1.2490 H   0  0  0  0  0  0  0  0  0  0  0  0
    5.0838    1.6726   -0.7589 H   0  0  0  0  0  0  0  0  0  0  0  0
    8.0353    0.1551    0.4484 H   0  0  0  0  0  0  0  0  0  0  0  0
    7.4950    1.8406    0.3891 H   0  0  0  0  0  0  0  0  0  0  0  0
    8.8725   -1.6077   -1.1787 H   0  0  0  0  0  0  0  0  0  0  0  0
    8.4421   -4.0027   -1.5634 H   0  0  0  0  0  0  0  0  0  0  0  0
    4.6564   -3.0448   -3.3745 H   0  0  0  0  0  0  0  0  0  0  0  0
    5.0712   -0.6465   -2.9892 H   0  0  0  0  0  0  0  0  0  0  0  0
    3.6033   -0.4203    1.9932 H   0  0  0  0  0  0  0  0  0  0  0  0
    1.2344   -0.5301    2.3810 H   0  0  0  0  0  0  0  0  0  0  0  0
   -0.5260    0.7895    3.1866 H   0  0  0  0  0  0  0  0  0  0  0  0
   -1.2947   -0.6453    2.4727 H   0  0  0  0  0  0  0  0  0  0  0  0
   -2.4924    2.1738    2.7210 H   0  0  0  0  0  0  0  0  0  0  0  0
   -2.9550    0.7511    3.6624 H   0  0  0  0  0  0  0  0  0  0  0  0
   -6.9983    2.3768    1.1606 H   0  0  0  0  0  0  0  0  0  0  0  0
   -8.7292    1.7648   -0.4972 H   0  0  0  0  0  0  0  0  0  0  0  0
  1  2  1  0
  2  3  2  0
  3  4  1  0
  4  5  2  0
  5  6  1  0
  6  7  2  0
  6  8  1  0
  8  9  1  0
  9 10  1  0
 10 11  1  0
 11 12  1  0
 12 13  2  0
 13 14  1  0
 14 15  2  0
 15 16  1  0
 16 17  1  0
 17 18  2  0
 17 19  1  0
 19 20  1  0
 20 21  1  0
 21 22  2  0
 22 23  1  0
 23 24  2  0
 24 25  1  0
 24 26  1  0
 26 27  2  0
 15 28  1  0
 28 29  2  0
 11 30  1  0
 30 31  1  0
  5 32  1  0
 32 33  2  0
 33  2  1  0
 31  8  1  0
 29 12  1  0
 27 21  1  0
  1 34  1  0
  1 35  1  0
  1 36  1  0
  3 37  1  0
  4 38  1  0
  9 39  1  0
  9 40  1  0
 10 41  1  0
 10 42  1  0
 13 43  1  0
 14 44  1  0
 16 45  1  0
 19 46  1  0
 19 47  1  0
 22 48  1  0
 23 49  1  0
 26 50  1  0
 27 51  1  0
 28 52  1  0
 29 53  1  0
 30 54  1  0
 30 55  1  0
 31 56  1  0
 31 57  1  0
 32 58  1  0
 33 59  1  0
M  END
$$$$
