
     RDKit          3D

 36 38  0  0  0  0  0  0  0  0999 V2000
   -3.6986    0.4806   -2.6995 C   0  0  0  0  0  0  0  0  0  0  0  0
   -2.7711    0.2335   -1.5513 C   0  0  0  0  0  0  0  0  0  0  0  0
   -1.4486    0.3795   -1.7736 N   0  0  0  0  0  0  0  0  0  0  0  0
   -0.6360    0.1620   -0.7088 C   0  0  0  0  0  0  0  0  0  0  0  0
    1.1152    0.3659   -1.0205 S   0  0  0  0  0  6  0  0  0  0  0  0
    1.5213   -0.6852   -1.9428 O   0  0  0  0  0  0  0  0  0  0  0  0
    1.3457    1.7714   -1.3229 O   0  0  0  0  0  0  0  0  0  0  0  0
    1.8465    0.0163    0.5733 C   0  0  0  0  0  0  0  0  0  0  0  0
    3.3483    0.1437    0.4813 C   0  0  0  0  0  0  0  0  0  0  0  0
    4.1383   -0.9676    0.1491 C   0  0  0  0  0  0  0  0  0  0  0  0
    5.5273   -0.8488    0.0616 C   0  0  0  0  0  0  0  0  0  0  0  0
    6.1341    0.3814    0.3030 C   0  0  0  0  0  0  0  0  0  0  0  0
    7.8453    0.5265    0.1975 Cl  0  0  0  0  0  0  0  0  0  0  0  0
    5.3635    1.4953    0.6273 C   0  0  0  0  0  0  0  0  0  0  0  0
    3.9744    1.3776    0.7149 C   0  0  0  0  0  0  0  0  0  0  0  0
   -0.9828   -0.1805    0.5510 N   0  0  0  0  0  0  0  0  0  0  0  0
   -2.3035   -0.3194    0.6976 C   0  0  0  0  0  0  0  0  0  0  0  0
   -3.2359   -0.1312   -0.3097 C   0  0  0  0  0  0  0  0  0  0  0  0
   -4.6255   -0.3233    0.1939 C   0  0  0  0  0  0  0  0  0  0  0  0
   -4.3644   -1.0923    1.4988 C   0  0  0  0  0  0  0  0  0  0  0  0
   -2.9815   -0.6520    1.9975 C   0  0  0  0  0  0  0  0  0  0  0  0
   -4.4124    1.2716   -2.4487 H   0  0  0  0  0  0  0  0  0  0  0  0
   -3.1421    0.7968   -3.5879 H   0  0  0  0  0  0  0  0  0  0  0  0
   -4.2460   -0.4338   -2.9488 H   0  0  0  0  0  0  0  0  0  0  0  0
    1.5677   -0.9995    0.8710 H   0  0  0  0  0  0  0  0  0  0  0  0
    1.4481    0.7256    1.3055 H   0  0  0  0  0  0  0  0  0  0  0  0
    3.6780   -1.9326   -0.0576 H   0  0  0  0  0  0  0  0  0  0  0  0
    6.1268   -1.7161   -0.2015 H   0  0  0  0  0  0  0  0  0  0  0  0
    5.8350    2.4580    0.8057 H   0  0  0  0  0  0  0  0  0  0  0  0
    3.3849    2.2614    0.9542 H   0  0  0  0  0  0  0  0  0  0  0  0
   -5.0937    0.6460    0.3936 H   0  0  0  0  0  0  0  0  0  0  0  0
   -5.2478   -0.9067   -0.4904 H   0  0  0  0  0  0  0  0  0  0  0  0
   -4.3420   -2.1697    1.2820 H   0  0  0  0  0  0  0  0  0  0  0  0
   -5.1494   -0.9301    2.2441 H   0  0  0  0  0  0  0  0  0  0  0  0
   -2.4686   -1.4497    2.5410 H   0  0  0  0  0  0  0  0  0  0  0  0
   -3.0503    0.2456    2.6200 H   0  0  0  0  0  0  0  0  0  0  0  0
  1  2  1  0
  2  3  2  0
  3  4  1  0
  4  5  1  0
  5  6  2  0
  5  7  2  0
  5  8  1  0
  8  9  1  0
  9 10  2  0
 10 11  1  0
 11 12  2  0
 12 13  1  0
 12 14  1  0
 14 15  2  0
  4 16  2  0
 16 17  1  0
 17 18  2  0
 18 19  1  0
 19 20  1  0
 20 21  1  0
 18  2  1  0
 15  9  1  0
 21 17  1  0
  1 22  1  0
  1 23  1  0
  1 24  1  0
  8 25  1  0
  8 26  1  0
 10 27  1  0
 11 28  1  0
 14 29  1  0
 15 30  1  0
 19 31  1  0
 19 32  1  0
 20 33  1  0
 20 34  1  0
 21 35  1  0
 21 36  1  0
M  END
$$$$
