
     RDKit          3D

 42 44  0  0  0  0  0  0  0  0999 V2000
   -5.3528    0.4769    2.9080 C   0  0  0  0  0  0  0  0  0  0  0  0
   -4.4490    0.1675    1.8554 O   0  0  0  0  0  0  0  0  0  0  0  0
   -4.8226   -0.8039    0.9602 C   0  0  0  0  0  0  0  0  0  0  0  0
   -6.0735   -1.4345    0.9629 C   0  0  0  0  0  0  0  0  0  0  0  0
   -6.3694   -2.4325    0.0305 C   0  0  0  0  0  0  0  0  0  0  0  0
   -5.4197   -2.8127   -0.9115 C   0  0  0  0  0  0  0  0  0  0  0  0
   -4.1725   -2.1899   -0.9282 C   0  0  0  0  0  0  0  0  0  0  0  0
   -3.8645   -1.1748   -0.0079 C   0  0  0  0  0  0  0  0  0  0  0  0
   -2.5176   -0.5852   -0.0929 C   0  0  0  0  0  0  0  0  0  0  0  0
   -2.3000    0.7367   -0.1413 C   0  0  0  0  0  0  0  0  0  0  0  0
   -0.9312    1.2458   -0.2361 C   0  0  0  0  0  0  0  0  0  0  0  0
    0.1811    0.6105   -0.3744 N   0  0  0  0  0  0  0  0  0  0  0  0
    1.1131    1.6187   -0.4040 C   0  0  0  0  0  0  0  0  0  0  0  0
    2.4283    1.3947   -0.5357 C   0  0  0  0  0  0  0  0  0  0  0  0
    3.4877    2.3824   -0.5817 C   0  0  0  0  0  0  0  0  0  0  0  0
    4.8017    2.1268   -0.6950 C   0  0  0  0  0  0  0  0  0  0  0  0
    5.4187    0.8009   -0.7748 C   0  0  0  0  0  0  0  0  0  0  0  0
    5.5567    0.0088    0.3703 C   0  0  0  0  0  0  0  0  0  0  0  0
    6.1459   -1.2539    0.2841 C   0  0  0  0  0  0  0  0  0  0  0  0
    6.6008   -1.7290   -0.9454 C   0  0  0  0  0  0  0  0  0  0  0  0
    6.4678   -0.9426   -2.0894 C   0  0  0  0  0  0  0  0  0  0  0  0
    5.8787    0.3205   -2.0050 C   0  0  0  0  0  0  0  0  0  0  0  0
    0.4306    2.9394   -0.2689 C   0  0  0  0  0  0  0  0  0  0  0  0
    0.8867    4.0645   -0.2492 O   0  0  0  0  0  0  0  0  0  0  0  0
   -0.8835    2.5959   -0.1689 O   0  0  0  0  0  0  0  0  0  0  0  0
   -5.5622   -0.4042    3.5235 H   0  0  0  0  0  0  0  0  0  0  0  0
   -6.2756    0.9176    2.5169 H   0  0  0  0  0  0  0  0  0  0  0  0
   -4.8747    1.2236    3.5492 H   0  0  0  0  0  0  0  0  0  0  0  0
   -6.8439   -1.1743    1.6811 H   0  0  0  0  0  0  0  0  0  0  0  0
   -7.3434   -2.9157    0.0444 H   0  0  0  0  0  0  0  0  0  0  0  0
   -5.6480   -3.5926   -1.6335 H   0  0  0  0  0  0  0  0  0  0  0  0
   -3.4409   -2.4969   -1.6730 H   0  0  0  0  0  0  0  0  0  0  0  0
   -1.6924   -1.2928   -0.1418 H   0  0  0  0  0  0  0  0  0  0  0  0
   -3.1060    1.4603   -0.1073 H   0  0  0  0  0  0  0  0  0  0  0  0
    2.7342    0.3532   -0.6236 H   0  0  0  0  0  0  0  0  0  0  0  0
    3.1975    3.4307   -0.5311 H   0  0  0  0  0  0  0  0  0  0  0  0
    5.5031    2.9576   -0.7395 H   0  0  0  0  0  0  0  0  0  0  0  0
    5.2052    0.3706    1.3336 H   0  0  0  0  0  0  0  0  0  0  0  0
    6.2494   -1.8660    1.1761 H   0  0  0  0  0  0  0  0  0  0  0  0
    7.0588   -2.7124   -1.0122 H   0  0  0  0  0  0  0  0  0  0  0  0
    6.8213   -1.3131   -3.0480 H   0  0  0  0  0  0  0  0  0  0  0  0
    5.7762    0.9236   -2.9039 H   0  0  0  0  0  0  0  0  0  0  0  0
  1  2  1  0
  2  3  1  0
  3  4  2  0
  4  5  1  0
  5  6  2  0
  6  7  1  0
  7  8  2  0
  8  9  1  0
  9 10  2  3
 10 11  1  0
 11 12  2  0
 12 13  1  0
 13 14  2  3
 14 15  1  0
 15 16  2  3
 16 17  1  0
 17 18  2  0
 18 19  1  0
 19 20  2  0
 20 21  1  0
 21 22  2  0
 13 23  1  0
 23 24  2  0
 23 25  1  0
  8  3  1  0
 25 11  1  0
 22 17  1  0
  1 26  1  0
  1 27  1  0
  1 28  1  0
  4 29  1  0
  5 30  1  0
  6 31  1  0
  7 32  1  0
  9 33  1  0
 10 34  1  0
 14 35  1  0
 15 36  1  0
 16 37  1  0
 18 38  1  0
 19 39  1  0
 20 40  1  0
 21 41  1  0
 22 42  1  0
M  END
$$$$
