
     RDKit          3D

 53 56  0  0  0  0  0  0  0  0999 V2000
   -9.7160    1.1614   -0.3076 C   0  0  0  0  0  0  0  0  0  0  0  0
   -8.7393    0.4813    0.4706 O   0  0  0  0  0  0  0  0  0  0  0  0
   -7.5037    0.3135   -0.0906 C   0  0  0  0  0  0  0  0  0  0  0  0
   -7.1148    0.7440   -1.3584 C   0  0  0  0  0  0  0  0  0  0  0  0
   -5.8165    0.5014   -1.8138 C   0  0  0  0  0  0  0  0  0  0  0  0
   -4.8980   -0.1700   -1.0052 C   0  0  0  0  0  0  0  0  0  0  0  0
   -5.2738   -0.5993    0.2715 C   0  0  0  0  0  0  0  0  0  0  0  0
   -4.3414   -1.3367    1.1779 C   0  0  0  0  0  0  0  0  0  0  0  0
   -4.7943   -1.9208    2.1640 O   0  0  0  0  0  0  0  0  0  0  0  0
   -2.8578   -1.3992    0.8440 C   0  0  0  0  0  0  0  0  0  0  0  0
   -2.3353   -0.0905    0.6606 O   0  0  0  0  0  0  0  0  0  0  0  0
   -1.0140    0.0130    0.3316 C   0  0  0  0  0  0  0  0  0  0  0  0
   -0.5585    1.3186    0.1459 C   0  0  0  0  0  0  0  0  0  0  0  0
    0.7760    1.5740   -0.1991 C   0  0  0  0  0  0  0  0  0  0  0  0
    1.6891    0.5260   -0.3708 C   0  0  0  0  0  0  0  0  0  0  0  0
    3.1103    0.7174   -0.7270 C   0  0  0  0  0  0  0  0  0  0  0  0
    3.5789    2.1388   -0.9071 C   0  0  0  0  0  0  0  0  0  0  0  0
    3.9114   -0.3661   -0.8517 C   0  0  0  0  0  0  0  0  0  0  0  0
    5.3877   -0.3292   -1.2004 C   0  0  0  0  0  0  0  0  0  0  0  0
    6.2924   -0.2281    0.0109 C   0  0  0  0  0  0  0  0  0  0  0  0
    6.5587   -1.3575    0.7993 C   0  0  0  0  0  0  0  0  0  0  0  0
    7.3812   -1.2636    1.9233 C   0  0  0  0  0  0  0  0  0  0  0  0
    7.9514   -0.0418    2.2717 C   0  0  0  0  0  0  0  0  0  0  0  0
    7.7021    1.0866    1.4944 C   0  0  0  0  0  0  0  0  0  0  0  0
    6.8785    0.9944    0.3706 C   0  0  0  0  0  0  0  0  0  0  0  0
    3.3700   -1.7483   -0.6987 C   0  0  0  0  0  0  0  0  0  0  0  0
    4.0567   -2.7456   -0.8957 O   0  0  0  0  0  0  0  0  0  0  0  0
    2.0426   -1.8799   -0.3329 O   0  0  0  0  0  0  0  0  0  0  0  0
    1.2079   -0.7645   -0.1774 C   0  0  0  0  0  0  0  0  0  0  0  0
   -0.1203   -1.0386    0.1708 C   0  0  0  0  0  0  0  0  0  0  0  0
   -6.5814   -0.3579    0.7167 C   0  0  0  0  0  0  0  0  0  0  0  0
   -9.9332    0.6181   -1.2332 H   0  0  0  0  0  0  0  0  0  0  0  0
   -9.4062    2.1908   -0.5159 H   0  0  0  0  0  0  0  0  0  0  0  0
  -10.6400    1.2031    0.2777 H   0  0  0  0  0  0  0  0  0  0  0  0
   -7.7977    1.2672   -2.0189 H   0  0  0  0  0  0  0  0  0  0  0  0
   -5.5212    0.8346   -2.8063 H   0  0  0  0  0  0  0  0  0  0  0  0
   -3.9005   -0.3447   -1.3975 H   0  0  0  0  0  0  0  0  0  0  0  0
   -2.3527   -1.8809    1.6902 H   0  0  0  0  0  0  0  0  0  0  0  0
   -2.7380   -2.0155   -0.0545 H   0  0  0  0  0  0  0  0  0  0  0  0
   -1.2469    2.1523    0.2738 H   0  0  0  0  0  0  0  0  0  0  0  0
    1.0713    2.6123   -0.3238 H   0  0  0  0  0  0  0  0  0  0  0  0
    4.6194    2.2249   -1.2220 H   0  0  0  0  0  0  0  0  0  0  0  0
    2.9892    2.6459   -1.6784 H   0  0  0  0  0  0  0  0  0  0  0  0
    3.4864    2.6942    0.0324 H   0  0  0  0  0  0  0  0  0  0  0  0
    5.6808   -1.2114   -1.7843 H   0  0  0  0  0  0  0  0  0  0  0  0
    5.6019    0.4963   -1.8896 H   0  0  0  0  0  0  0  0  0  0  0  0
    6.1319   -2.3253    0.5416 H   0  0  0  0  0  0  0  0  0  0  0  0
    7.5776   -2.1475    2.5245 H   0  0  0  0  0  0  0  0  0  0  0  0
    8.5926    0.0299    3.1458 H   0  0  0  0  0  0  0  0  0  0  0  0
    8.1514    2.0396    1.7621 H   0  0  0  0  0  0  0  0  0  0  0  0
    6.7072    1.8878   -0.2239 H   0  0  0  0  0  0  0  0  0  0  0  0
   -0.4111   -2.0742    0.3082 H   0  0  0  0  0  0  0  0  0  0  0  0
   -6.8920   -0.6938    1.7049 H   0  0  0  0  0  0  0  0  0  0  0  0
  1  2  1  0
  2  3  1  0
  3  4  2  0
  4  5  1  0
  5  6  2  0
  6  7  1  0
  7  8  1  0
  8  9  2  0
  8 10  1  0
 10 11  1  0
 11 12  1  0
 12 13  2  0
 13 14  1  0
 14 15  2  0
 15 16  1  0
 16 17  1  0
 16 18  2  0
 18 19  1  0
 19 20  1  0
 20 21  2  0
 21 22  1  0
 22 23  2  0
 23 24  1  0
 24 25  2  0
 18 26  1  0
 26 27  2  0
 26 28  1  0
 28 29  1  0
 29 30  2  0
  7 31  2  0
 31  3  1  0
 30 12  1  0
 29 15  1  0
 25 20  1  0
  1 32  1  0
  1 33  1  0
  1 34  1  0
  4 35  1  0
  5 36  1  0
  6 37  1  0
 10 38  1  0
 10 39  1  0
 13 40  1  0
 14 41  1  0
 17 42  1  0
 17 43  1  0
 17 44  1  0
 19 45  1  0
 19 46  1  0
 21 47  1  0
 22 48  1  0
 23 49  1  0
 24 50  1  0
 25 51  1  0
 30 52  1  0
 31 53  1  0
M  END
$$$$
