
     RDKit          3D

 52 55  0  0  0  0  0  0  0  0999 V2000
   -6.7723    3.4752    1.1161 C   0  0  0  0  0  0  0  0  0  0  0  0
   -5.8633    3.0214   -0.0123 C   0  0  0  0  0  0  0  0  0  0  0  0
   -4.8805    1.9475    0.4449 C   0  0  0  0  0  0  0  0  0  0  0  0
   -4.0774    1.5848   -0.6787 O   0  0  0  0  0  0  0  0  0  0  0  0
   -3.1134    0.6365   -0.4759 C   0  0  0  0  0  0  0  0  0  0  0  0
   -2.3496    0.3320   -1.6053 C   0  0  0  0  0  0  0  0  0  0  0  0
   -1.3291   -0.6202   -1.5422 C   0  0  0  0  0  0  0  0  0  0  0  0
   -1.0659   -1.2852   -0.3413 C   0  0  0  0  0  0  0  0  0  0  0  0
   -0.0011   -2.2767   -0.2668 C   0  0  0  0  0  0  0  0  0  0  0  0
    1.3624   -2.1080   -0.0636 C   0  0  0  0  0  0  0  0  0  0  0  0
    2.1143   -0.8671    0.1241 C   0  0  0  0  0  0  0  0  0  0  0  0
    1.5832    0.2373    0.0749 O   0  0  0  0  0  0  0  0  0  0  0  0
    3.4689   -1.1076    0.3414 N   0  0  0  0  0  0  0  0  0  0  0  0
    4.4780   -0.1799    0.3982 N   0  0  0  0  0  0  0  0  0  0  0  0
    4.2111    1.0130    0.8260 C   0  0  0  0  0  0  0  0  0  0  0  0
    5.2454    2.0686    0.8688 C   0  0  0  0  0  0  0  0  0  0  0  0
    6.5556    1.8118    0.4538 C   0  0  0  0  0  0  0  0  0  0  0  0
    7.5119    2.8271    0.5089 C   0  0  0  0  0  0  0  0  0  0  0  0
    7.1596    4.0941    0.9759 C   0  0  0  0  0  0  0  0  0  0  0  0
    5.8511    4.3505    1.3874 C   0  0  0  0  0  0  0  0  0  0  0  0
    4.8908    3.3384    1.3346 C   0  0  0  0  0  0  0  0  0  0  0  0
    1.9750   -3.3345   -0.0569 N   0  0  0  0  0  0  0  0  0  0  0  0
    1.0544   -4.2605   -0.2500 N   0  0  0  0  0  0  0  0  0  0  0  0
   -0.1656   -3.6594   -0.3901 N   0  0  0  0  0  0  0  0  0  0  0  0
   -1.3376   -4.4197   -0.6362 C   0  0  0  0  0  0  0  0  0  0  0  0
   -2.5191   -3.8323   -0.8272 N   0  0  0  0  0  0  0  0  0  0  0  0
   -3.3949   -4.8919   -1.0524 O   0  0  0  0  0  0  0  0  0  0  0  0
   -2.7333   -6.1141   -0.9962 N   0  0  0  0  0  0  0  0  0  0  0  0
   -1.4613   -5.8189   -0.7318 C   0  0  0  0  0  0  0  0  0  0  0  0
   -0.4858   -6.7354   -0.5849 N   0  0  0  0  0  0  0  0  0  0  0  0
   -1.8245   -0.9757    0.7931 C   0  0  0  0  0  0  0  0  0  0  0  0
   -2.8462   -0.0207    0.7252 C   0  0  0  0  0  0  0  0  0  0  0  0
   -7.4598    4.2493    0.7612 H   0  0  0  0  0  0  0  0  0  0  0  0
   -6.1916    3.8913    1.9455 H   0  0  0  0  0  0  0  0  0  0  0  0
   -7.3688    2.6405    1.4986 H   0  0  0  0  0  0  0  0  0  0  0  0
   -5.3095    3.8794   -0.4123 H   0  0  0  0  0  0  0  0  0  0  0  0
   -6.4664    2.6374   -0.8440 H   0  0  0  0  0  0  0  0  0  0  0  0
   -4.2484    2.3496    1.2462 H   0  0  0  0  0  0  0  0  0  0  0  0
   -5.4362    1.0739    0.8068 H   0  0  0  0  0  0  0  0  0  0  0  0
   -2.5493    0.8445   -2.5437 H   0  0  0  0  0  0  0  0  0  0  0  0
   -0.7468   -0.8298   -2.4361 H   0  0  0  0  0  0  0  0  0  0  0  0
    3.7925   -2.0602    0.1854 H   0  0  0  0  0  0  0  0  0  0  0  0
    3.2212    1.3072    1.2104 H   0  0  0  0  0  0  0  0  0  0  0  0
    6.8365    0.8273    0.0866 H   0  0  0  0  0  0  0  0  0  0  0  0
    8.5311    2.6299    0.1860 H   0  0  0  0  0  0  0  0  0  0  0  0
    7.9062    4.8837    1.0168 H   0  0  0  0  0  0  0  0  0  0  0  0
    5.5794    5.3398    1.7474 H   0  0  0  0  0  0  0  0  0  0  0  0
    3.8737    3.5510    1.6537 H   0  0  0  0  0  0  0  0  0  0  0  0
   -0.6605   -7.6909   -0.8782 H   0  0  0  0  0  0  0  0  0  0  0  0
    0.4970   -6.4672   -0.5797 H   0  0  0  0  0  0  0  0  0  0  0  0
   -1.6305   -1.4720    1.7412 H   0  0  0  0  0  0  0  0  0  0  0  0
   -3.4108    0.1851    1.6281 H   0  0  0  0  0  0  0  0  0  0  0  0
  1  2  1  0
  2  3  1  0
  3  4  1  0
  4  5  1  0
  5  6  2  0
  6  7  1  0
  7  8  2  0
  8  9  1  0
  9 10  2  0
 10 11  1  0
 11 12  2  0
 11 13  1  0
 13 14  1  0
 14 15  2  3
 15 16  1  0
 16 17  2  0
 17 18  1  0
 18 19  2  0
 19 20  1  0
 20 21  2  0
 10 22  1  0
 22 23  2  0
 23 24  1  0
 24 25  1  0
 25 26  2  0
 26 27  1  0
 27 28  1  0
 28 29  2  0
 29 30  1  0
  8 31  1  0
 31 32  2  0
 32  5  1  0
 24  9  1  0
 29 25  1  0
 21 16  1  0
  1 33  1  0
  1 34  1  0
  1 35  1  0
  2 36  1  0
  2 37  1  0
  3 38  1  0
  3 39  1  0
  6 40  1  0
  7 41  1  0
 13 42  1  0
 15 43  1  0
 17 44  1  0
 18 45  1  0
 19 46  1  0
 20 47  1  0
 21 48  1  0
 30 49  1  0
 30 50  1  0
 31 51  1  0
 32 52  1  0
M  END
$$$$
