
     RDKit          3D

 50 54  0  0  0  0  0  0  0  0999 V2000
   -4.9750    0.6062   -0.9606 C   0  0  0  0  0  0  0  0  0  0  0  0
   -4.5680   -0.6180   -0.2019 C   0  0  0  0  0  0  0  0  0  0  0  0
   -5.4270   -1.3761    0.4973 C   0  0  0  0  0  0  0  0  0  0  0  0
   -4.9775   -2.5370    1.2150 C   0  0  0  0  0  0  0  0  0  0  0  0
   -3.6834   -2.8728    1.1946 C   0  0  0  0  0  0  0  0  0  0  0  0
   -2.7452   -2.1293    0.4890 N   0  0  0  0  0  0  0  0  0  0  0  0
   -1.4188   -2.5231    0.5079 C   0  0  0  0  0  0  0  0  0  0  0  0
   -0.9924   -3.5001    1.1282 O   0  0  0  0  0  0  0  0  0  0  0  0
   -0.4715   -1.6824   -0.2760 C   0  0  0  0  0  0  0  0  0  0  0  0
    0.9449   -2.0145   -0.2850 C   0  0  0  0  0  0  0  0  0  0  0  0
    1.8456   -1.2872   -0.9659 C   0  0  0  0  0  0  0  0  0  0  0  0
    3.5216   -1.6599   -0.8213 S   0  0  0  0  0  6  0  0  0  0  0  0
    3.7044   -3.0848   -0.6075 O   0  0  0  0  0  0  0  0  0  0  0  0
    4.2818   -0.9811   -1.8571 O   0  0  0  0  0  0  0  0  0  0  0  0
    3.9428   -0.8452    0.7136 C   0  0  0  0  0  0  0  0  0  0  0  0
    4.1205    0.5447    0.7245 C   0  0  0  0  0  0  0  0  0  0  0  0
    4.4514    1.1818    1.9207 C   0  0  0  0  0  0  0  0  0  0  0  0
    4.6096    0.4289    3.0809 C   0  0  0  0  0  0  0  0  0  0  0  0
    4.9275    1.0450    4.2265 F   0  0  0  0  0  0  0  0  0  0  0  0
    4.4473   -0.9538    3.0701 C   0  0  0  0  0  0  0  0  0  0  0  0
    4.1156   -1.6012    1.8793 C   0  0  0  0  0  0  0  0  0  0  0  0
    1.3334   -0.1135   -1.7406 C   0  0  0  0  0  0  0  0  0  0  0  0
    2.1190    0.6161   -2.4796 N   0  0  0  0  0  0  0  0  0  0  0  0
   -0.0319    0.1972   -1.6658 N   0  0  0  0  0  0  0  0  0  0  0  0
   -0.5084    1.4456   -2.2953 C   0  0  0  0  0  0  0  0  0  0  0  0
   -0.3630    2.6641   -1.4408 C   0  0  0  0  0  0  0  0  0  0  0  0
    0.7047    3.4900   -1.1518 C   0  0  0  0  0  0  0  0  0  0  0  0
    0.2170    4.4814   -0.2682 C   0  0  0  0  0  0  0  0  0  0  0  0
   -1.1150    4.2002   -0.0754 C   0  0  0  0  0  0  0  0  0  0  0  0
   -1.4781    3.1008   -0.7843 O   0  0  0  0  0  0  0  0  0  0  0  0
   -0.9447   -0.6015   -0.9354 C   0  0  0  0  0  0  0  0  0  0  0  0
   -2.2795   -0.2812   -0.9061 N   0  0  0  0  0  0  0  0  0  0  0  0
   -3.1133   -1.0029   -0.2279 C   0  0  0  0  0  0  0  0  0  0  0  0
   -4.4478    1.4878   -0.5812 H   0  0  0  0  0  0  0  0  0  0  0  0
   -4.7476    0.4928   -2.0256 H   0  0  0  0  0  0  0  0  0  0  0  0
   -6.0492    0.8004   -0.8712 H   0  0  0  0  0  0  0  0  0  0  0  0
   -6.4845   -1.1332    0.5445 H   0  0  0  0  0  0  0  0  0  0  0  0
   -5.7027   -3.1247    1.7687 H   0  0  0  0  0  0  0  0  0  0  0  0
   -3.3223   -3.7458    1.7329 H   0  0  0  0  0  0  0  0  0  0  0  0
    1.2514   -2.8717    0.3126 H   0  0  0  0  0  0  0  0  0  0  0  0
    4.0083    1.1346   -0.1831 H   0  0  0  0  0  0  0  0  0  0  0  0
    4.5920    2.2580    1.9567 H   0  0  0  0  0  0  0  0  0  0  0  0
    4.5851   -1.5168    3.9886 H   0  0  0  0  0  0  0  0  0  0  0  0
    3.9990   -2.6831    1.8720 H   0  0  0  0  0  0  0  0  0  0  0  0
    3.0900    0.2606   -2.5108 H   0  0  0  0  0  0  0  0  0  0  0  0
    0.0180    1.6169   -3.2435 H   0  0  0  0  0  0  0  0  0  0  0  0
   -1.5581    1.3477   -2.6021 H   0  0  0  0  0  0  0  0  0  0  0  0
    1.7091    3.3778   -1.5376 H   0  0  0  0  0  0  0  0  0  0  0  0
    0.7664    5.3005    0.1736 H   0  0  0  0  0  0  0  0  0  0  0  0
   -1.9018    4.6617    0.5046 H   0  0  0  0  0  0  0  0  0  0  0  0
  1  2  1  0
  2  3  2  0
  3  4  1  0
  4  5  2  0
  5  6  1  0
  6  7  1  0
  7  8  2  0
  7  9  1  0
  9 10  1  0
 10 11  2  0
 11 12  1  0
 12 13  2  0
 12 14  2  0
 12 15  1  0
 15 16  2  0
 16 17  1  0
 17 18  2  0
 18 19  1  0
 18 20  1  0
 20 21  2  0
 11 22  1  0
 22 23  2  3
 22 24  1  0
 24 25  1  0
 25 26  1  0
 26 27  2  0
 27 28  1  0
 28 29  2  0
 29 30  1  0
 24 31  1  0
 31 32  1  0
 32 33  2  0
 33  2  1  0
 33  6  1  0
 31  9  2  0
 21 15  1  0
 30 26  1  0
  1 34  1  0
  1 35  1  0
  1 36  1  0
  3 37  1  0
  4 38  1  0
  5 39  1  0
 10 40  1  0
 16 41  1  0
 17 42  1  0
 20 43  1  0
 21 44  1  0
 23 45  1  0
 25 46  1  0
 25 47  1  0
 27 48  1  0
 28 49  1  0
 29 50  1  0
M  END
$$$$
