
     RDKit          3D

 68 71  0  0  0  0  0  0  0  0999 V2000
    0.6982   -3.3746    5.3017 C   0  0  0  0  0  0  0  0  0  0  0  0
    0.1717   -2.8428    4.0030 C   0  0  0  0  0  0  0  0  0  0  0  0
    1.0025   -2.1436    3.1245 C   0  0  0  0  0  0  0  0  0  0  0  0
    0.5100   -1.6618    1.9060 C   0  0  0  0  0  0  0  0  0  0  0  0
   -0.8235   -1.8759    1.5278 C   0  0  0  0  0  0  0  0  0  0  0  0
   -1.4186   -1.3989    0.2036 C   0  0  0  0  0  0  0  0  0  0  0  0
   -2.4783   -0.2587    0.3209 C   0  0  0  0  0  0  0  0  0  0  0  0
   -3.0434    0.0591    1.3657 O   0  0  0  0  0  0  0  0  0  0  0  0
   -2.8815    0.2428   -0.9097 N   0  0  0  0  0  0  0  0  0  0  0  0
   -3.7530    1.3870   -1.0120 C   0  0  0  0  0  0  0  0  0  0  0  0
   -4.2953    1.5792   -2.4229 C   0  0  0  0  0  0  0  0  0  0  0  0
   -4.7910    3.0178   -2.4193 C   0  0  0  0  0  0  0  0  0  0  0  0
   -3.8752    3.7663   -1.4517 C   0  0  0  0  0  0  0  0  0  0  0  0
   -3.0336    2.7065   -0.7446 C   0  0  0  0  0  0  0  0  0  0  0  0
   -0.4372   -1.1976   -0.8943 N   0  0  0  0  0  0  0  0  0  0  0  0
   -0.1858   -2.3496   -1.7604 C   0  0  0  0  0  0  0  0  0  0  0  0
   -0.8334   -2.1413   -3.0837 C   0  0  0  0  0  0  0  0  0  0  0  0
   -0.3909   -2.2801   -4.3847 C   0  0  0  0  0  0  0  0  0  0  0  0
   -1.4816   -1.9318   -5.2181 C   0  0  0  0  0  0  0  0  0  0  0  0
   -2.5194   -1.6060   -4.3770 C   0  0  0  0  0  0  0  0  0  0  0  0
   -2.1358   -1.7283   -3.0806 O   0  0  0  0  0  0  0  0  0  0  0  0
    0.3088   -0.0274   -0.9249 C   0  0  0  0  0  0  0  0  0  0  0  0
    0.1259    0.8819   -0.1141 O   0  0  0  0  0  0  0  0  0  0  0  0
    1.3260    0.1504   -2.0441 C   0  0  0  0  0  0  0  0  0  0  0  0
    2.2349    1.3465   -1.7629 C   0  0  0  0  0  0  0  0  0  0  0  0
    3.1564    1.0596   -0.5882 C   0  0  0  0  0  0  0  0  0  0  0  0
    3.4959   -0.0871   -0.3035 O   0  0  0  0  0  0  0  0  0  0  0  0
    3.5793    2.2062    0.0421 N   0  0  0  0  0  0  0  0  0  0  0  0
    4.4163    2.2481    1.1357 C   0  0  0  0  0  0  0  0  0  0  0  0
    5.0672    1.1926    1.8104 C   0  0  0  0  0  0  0  0  0  0  0  0
    5.7670    1.8058    2.8188 C   0  0  0  0  0  0  0  0  0  0  0  0
    6.6512    1.3308    3.8957 C   0  0  0  0  0  0  0  0  0  0  0  0
    5.5495    3.1463    2.7600 O   0  0  0  0  0  0  0  0  0  0  0  0
    4.7045    3.4266    1.7022 N   0  0  0  0  0  0  0  0  0  0  0  0
   -1.6476   -2.5860    2.4205 C   0  0  0  0  0  0  0  0  0  0  0  0
   -1.1573   -3.0670    3.6378 C   0  0  0  0  0  0  0  0  0  0  0  0
   -0.0180   -3.1948    6.1095 H   0  0  0  0  0  0  0  0  0  0  0  0
    0.8818   -4.4497    5.2197 H   0  0  0  0  0  0  0  0  0  0  0  0
    1.6353   -2.8824    5.5813 H   0  0  0  0  0  0  0  0  0  0  0  0
    2.0425   -1.9558    3.3817 H   0  0  0  0  0  0  0  0  0  0  0  0
    1.1989   -1.1111    1.2722 H   0  0  0  0  0  0  0  0  0  0  0  0
   -2.0447   -2.2379   -0.1408 H   0  0  0  0  0  0  0  0  0  0  0  0
   -2.2944   -0.0008   -1.7032 H   0  0  0  0  0  0  0  0  0  0  0  0
   -4.5808    1.2694   -0.3012 H   0  0  0  0  0  0  0  0  0  0  0  0
   -5.0893    0.8660   -2.6675 H   0  0  0  0  0  0  0  0  0  0  0  0
   -3.4991    1.4595   -3.1696 H   0  0  0  0  0  0  0  0  0  0  0  0
   -4.7788    3.4584   -3.4213 H   0  0  0  0  0  0  0  0  0  0  0  0
   -5.8238    3.0568   -2.0532 H   0  0  0  0  0  0  0  0  0  0  0  0
   -3.2329    4.4783   -1.9805 H   0  0  0  0  0  0  0  0  0  0  0  0
   -4.4718    4.3366   -0.7322 H   0  0  0  0  0  0  0  0  0  0  0  0
   -2.9296    2.9100    0.3254 H   0  0  0  0  0  0  0  0  0  0  0  0
   -2.0239    2.6960   -1.1734 H   0  0  0  0  0  0  0  0  0  0  0  0
   -0.5733   -3.2641   -1.2971 H   0  0  0  0  0  0  0  0  0  0  0  0
    0.8910   -2.4985   -1.8757 H   0  0  0  0  0  0  0  0  0  0  0  0
    0.5966   -2.5979   -4.6929 H   0  0  0  0  0  0  0  0  0  0  0  0
   -1.5124   -1.9228   -6.2986 H   0  0  0  0  0  0  0  0  0  0  0  0
   -3.5402   -1.2839   -4.5347 H   0  0  0  0  0  0  0  0  0  0  0  0
    0.7739    0.3352   -2.9710 H   0  0  0  0  0  0  0  0  0  0  0  0
    1.9337   -0.7474   -2.1702 H   0  0  0  0  0  0  0  0  0  0  0  0
    1.6449    2.2507   -1.5754 H   0  0  0  0  0  0  0  0  0  0  0  0
    2.8695    1.5369   -2.6357 H   0  0  0  0  0  0  0  0  0  0  0  0
    3.1982    3.1069   -0.2131 H   0  0  0  0  0  0  0  0  0  0  0  0
    5.0318    0.1346    1.6000 H   0  0  0  0  0  0  0  0  0  0  0  0
    6.6742    0.2373    3.9314 H   0  0  0  0  0  0  0  0  0  0  0  0
    7.6741    1.6883    3.7369 H   0  0  0  0  0  0  0  0  0  0  0  0
    6.3052    1.6941    4.8688 H   0  0  0  0  0  0  0  0  0  0  0  0
   -2.6955   -2.7568    2.1787 H   0  0  0  0  0  0  0  0  0  0  0  0
   -1.8261   -3.6067    4.3044 H   0  0  0  0  0  0  0  0  0  0  0  0
  1  2  1  0
  2  3  2  0
  3  4  1  0
  4  5  2  0
  5  6  1  0
  6  7  1  0
  7  8  2  0
  7  9  1  0
  9 10  1  0
 10 11  1  0
 11 12  1  0
 12 13  1  0
 13 14  1  0
  6 15  1  0
 15 16  1  0
 16 17  1  0
 17 18  2  0
 18 19  1  0
 19 20  2  0
 20 21  1  0
 15 22  1  0
 22 23  2  0
 22 24  1  0
 24 25  1  0
 25 26  1  0
 26 27  2  0
 26 28  1  0
 28 29  1  0
 29 30  1  0
 30 31  2  0
 31 32  1  0
 31 33  1  0
 33 34  1  0
  5 35  1  0
 35 36  2  0
 36  2  1  0
 14 10  1  0
 21 17  1  0
 34 29  2  0
  1 37  1  0
  1 38  1  0
  1 39  1  0
  3 40  1  0
  4 41  1  0
  6 42  1  0
  9 43  1  0
 10 44  1  0
 11 45  1  0
 11 46  1  0
 12 47  1  0
 12 48  1  0
 13 49  1  0
 13 50  1  0
 14 51  1  0
 14 52  1  0
 16 53  1  0
 16 54  1  0
 18 55  1  0
 19 56  1  0
 20 57  1  0
 24 58  1  0
 24 59  1  0
 25 60  1  0
 25 61  1  0
 28 62  1  0
 30 63  1  0
 32 64  1  0
 32 65  1  0
 32 66  1  0
 35 67  1  0
 36 68  1  0
M  END
$$$$
