
     RDKit          3D

 62 66  0  0  0  0  0  0  0  0999 V2000
   -3.9086    5.6883   -3.2448 C   0  0  0  0  0  0  0  0  0  0  0  0
   -3.1384    4.5506   -2.8782 O   0  0  0  0  0  0  0  0  0  0  0  0
   -3.7353    3.6371   -2.0526 C   0  0  0  0  0  0  0  0  0  0  0  0
   -5.0254    3.7146   -1.5460 C   0  0  0  0  0  0  0  0  0  0  0  0
   -5.5232    2.7121   -0.7056 C   0  0  0  0  0  0  0  0  0  0  0  0
   -4.7012    1.6169   -0.3772 C   0  0  0  0  0  0  0  0  0  0  0  0
   -5.1101    0.2865    0.6298 S   0  0  0  0  0  0  0  0  0  0  0  0
   -3.5787   -0.4460    0.4301 C   0  0  0  0  0  0  0  0  0  0  0  0
   -3.3279   -1.7306    1.0970 C   0  0  0  0  0  0  0  0  0  0  0  0
   -3.5009   -2.9143    0.3609 C   0  0  0  0  0  0  0  0  0  0  0  0
   -3.2645   -4.1554    0.9488 C   0  0  0  0  0  0  0  0  0  0  0  0
   -2.8506   -4.2235    2.2757 C   0  0  0  0  0  0  0  0  0  0  0  0
   -2.6695   -3.0531    3.0187 C   0  0  0  0  0  0  0  0  0  0  0  0
   -2.9040   -1.7998    2.4404 C   0  0  0  0  0  0  0  0  0  0  0  0
   -2.7326   -0.6027    3.0900 O   0  0  0  0  0  0  0  0  0  0  0  0
   -2.3926   -0.6453    4.4686 C   0  0  0  0  0  0  0  0  0  0  0  0
   -2.7571    0.3006   -0.3983 C   0  0  0  0  0  0  0  0  0  0  0  0
   -1.4059   -0.1359   -0.7298 C   0  0  0  0  0  0  0  0  0  0  0  0
   -0.3916   -0.0942    0.2317 C   0  0  0  0  0  0  0  0  0  0  0  0
    0.9061   -0.5101   -0.0882 C   0  0  0  0  0  0  0  0  0  0  0  0
    1.1995   -0.9685   -1.3726 C   0  0  0  0  0  0  0  0  0  0  0  0
    2.4167   -1.3970   -1.8236 O   0  0  0  0  0  0  0  0  0  0  0  0
    3.5007   -1.4853   -0.8939 C   0  0  0  0  0  0  0  0  0  0  0  0
    4.2524   -0.1473   -0.8007 C   0  0  0  0  0  0  0  0  0  0  0  0
    5.3431   -0.1616    0.1819 N   0  0  0  0  0  0  0  0  0  0  0  0
    6.4580   -1.0331   -0.1973 C   0  0  0  0  0  0  0  0  0  0  0  0
    7.6027   -0.5546    0.6861 C   0  0  0  0  0  0  0  0  0  0  0  0
    7.2246    0.8620    1.1029 C   0  0  0  0  0  0  0  0  0  0  0  0
    5.9447    1.1647    0.3425 C   0  0  0  0  0  0  0  0  0  0  0  0
    0.1846   -1.0000   -2.3338 C   0  0  0  0  0  0  0  0  0  0  0  0
   -1.1122   -0.5867   -2.0188 C   0  0  0  0  0  0  0  0  0  0  0  0
   -3.4010    1.5057   -0.8717 C   0  0  0  0  0  0  0  0  0  0  0  0
   -2.9285    2.5429   -1.7183 C   0  0  0  0  0  0  0  0  0  0  0  0
   -4.7999    5.3960   -3.8100 H   0  0  0  0  0  0  0  0  0  0  0  0
   -3.2914    6.3136   -3.8972 H   0  0  0  0  0  0  0  0  0  0  0  0
   -4.1747    6.2850   -2.3661 H   0  0  0  0  0  0  0  0  0  0  0  0
   -5.6826    4.5457   -1.7805 H   0  0  0  0  0  0  0  0  0  0  0  0
   -6.5331    2.7802   -0.3105 H   0  0  0  0  0  0  0  0  0  0  0  0
   -3.8198   -2.8682   -0.6780 H   0  0  0  0  0  0  0  0  0  0  0  0
   -3.4001   -5.0655    0.3705 H   0  0  0  0  0  0  0  0  0  0  0  0
   -2.6625   -5.1909    2.7351 H   0  0  0  0  0  0  0  0  0  0  0  0
   -2.3373   -3.1557    4.0462 H   0  0  0  0  0  0  0  0  0  0  0  0
   -3.1600   -1.1659    5.0510 H   0  0  0  0  0  0  0  0  0  0  0  0
   -1.4064   -1.0974    4.6169 H   0  0  0  0  0  0  0  0  0  0  0  0
   -2.3424    0.3857    4.8320 H   0  0  0  0  0  0  0  0  0  0  0  0
   -0.6054    0.2625    1.2372 H   0  0  0  0  0  0  0  0  0  0  0  0
    1.6585   -0.4536    0.6912 H   0  0  0  0  0  0  0  0  0  0  0  0
    3.1770   -1.8602    0.0840 H   0  0  0  0  0  0  0  0  0  0  0  0
    4.1755   -2.2496   -1.2964 H   0  0  0  0  0  0  0  0  0  0  0  0
    4.6157    0.1320   -1.7989 H   0  0  0  0  0  0  0  0  0  0  0  0
    3.5363    0.6353   -0.5227 H   0  0  0  0  0  0  0  0  0  0  0  0
    6.2381   -2.0902   -0.0193 H   0  0  0  0  0  0  0  0  0  0  0  0
    6.7306   -0.9060   -1.2528 H   0  0  0  0  0  0  0  0  0  0  0  0
    8.5543   -0.5735    0.1449 H   0  0  0  0  0  0  0  0  0  0  0  0
    7.7077   -1.1894    1.5736 H   0  0  0  0  0  0  0  0  0  0  0  0
    7.0475    0.8940    2.1847 H   0  0  0  0  0  0  0  0  0  0  0  0
    8.0159    1.5817    0.8709 H   0  0  0  0  0  0  0  0  0  0  0  0
    5.2970    1.8474    0.9013 H   0  0  0  0  0  0  0  0  0  0  0  0
    6.1848    1.6215   -0.6263 H   0  0  0  0  0  0  0  0  0  0  0  0
    0.4059   -1.3518   -3.3384 H   0  0  0  0  0  0  0  0  0  0  0  0
   -1.8858   -0.6224   -2.7817 H   0  0  0  0  0  0  0  0  0  0  0  0
   -1.9165    2.4909   -2.1144 H   0  0  0  0  0  0  0  0  0  0  0  0
  1  2  1  0
  2  3  1  0
  3  4  2  0
  4  5  1  0
  5  6  2  0
  6  7  1  0
  7  8  1  0
  8  9  1  0
  9 10  2  0
 10 11  1  0
 11 12  2  0
 12 13  1  0
 13 14  2  0
 14 15  1  0
 15 16  1  0
  8 17  2  0
 17 18  1  0
 18 19  2  0
 19 20  1  0
 20 21  2  0
 21 22  1  0
 22 23  1  0
 23 24  1  0
 24 25  1  0
 25 26  1  0
 26 27  1  0
 27 28  1  0
 28 29  1  0
 21 30  1  0
 30 31  2  0
 17 32  1  0
 32 33  2  0
 33  3  1  0
 32  6  1  0
 14  9  1  0
 31 18  1  0
 29 25  1  0
  1 34  1  0
  1 35  1  0
  1 36  1  0
  4 37  1  0
  5 38  1  0
 10 39  1  0
 11 40  1  0
 12 41  1  0
 13 42  1  0
 16 43  1  0
 16 44  1  0
 16 45  1  0
 19 46  1  0
 20 47  1  0
 23 48  1  0
 23 49  1  0
 24 50  1  0
 24 51  1  0
 26 52  1  0
 26 53  1  0
 27 54  1  0
 27 55  1  0
 28 56  1  0
 28 57  1  0
 29 58  1  0
 29 59  1  0
 30 60  1  0
 31 61  1  0
 33 62  1  0
M  END
$$$$
