
     RDKit          3D

 41 42  0  0  0  0  0  0  0  0999 V2000
    1.8159    4.7303    0.2310 C   0  0  0  0  0  0  0  0  0  0  0  0
    1.6190    3.9940    1.5423 C   0  0  0  0  0  0  0  0  0  0  0  0
    1.6472    2.5751    1.3174 O   0  0  0  0  0  0  0  0  0  0  0  0
    0.4471    1.9908    1.0038 C   0  0  0  0  0  0  0  0  0  0  0  0
   -0.5993    2.6117    0.8534 O   0  0  0  0  0  0  0  0  0  0  0  0
    0.6368    0.4630    0.7800 C   0  0  0  0  0  0  0  0  0  0  0  0
   -0.5040   -0.0371    0.0137 N   0  0  0  0  0  0  0  0  0  0  0  0
   -1.7114   -0.3035    0.6060 C   0  0  0  0  0  0  0  0  0  0  0  0
   -1.8711   -0.2810    1.8176 O   0  0  0  0  0  0  0  0  0  0  0  0
   -2.8519   -0.5991   -0.3023 C   0  0  0  0  0  0  0  0  0  0  0  0
   -2.6625   -1.1324   -1.5854 C   0  0  0  0  0  0  0  0  0  0  0  0
   -3.7647   -1.3963   -2.4021 C   0  0  0  0  0  0  0  0  0  0  0  0
   -5.0546   -1.1363   -1.9383 C   0  0  0  0  0  0  0  0  0  0  0  0
   -5.2411   -0.6206   -0.6564 C   0  0  0  0  0  0  0  0  0  0  0  0
   -6.8351   -0.3108   -0.0881 Cl  0  0  0  0  0  0  0  0  0  0  0  0
   -4.1487   -0.3538    0.1651 C   0  0  0  0  0  0  0  0  0  0  0  0
    1.7699    0.2937   -0.1899 N   0  0  0  0  0  0  0  0  0  0  0  0
    2.3818   -0.9185   -0.3067 C   0  0  0  0  0  0  0  0  0  0  0  0
    3.6882   -1.0467   -0.2246 N   0  0  0  0  0  0  0  0  0  0  0  0
    4.1152   -2.3483   -0.3777 N   0  0  0  0  0  0  0  0  0  0  0  0
    3.1152   -3.1718   -0.5991 C   0  0  0  0  0  0  0  0  0  0  0  0
    3.2550   -4.6343   -0.8075 C   0  0  0  0  0  0  0  0  0  0  0  0
    1.5831   -2.4065   -0.6575 S   0  0  0  0  0  0  0  0  0  0  0  0
    0.9149   -0.0905    2.2220 C   0  0  0  0  0  0  0  0  0  0  0  0
    2.2157    0.1268    2.5678 F   0  0  0  0  0  0  0  0  0  0  0  0
    0.7262   -1.4309    2.3026 F   0  0  0  0  0  0  0  0  0  0  0  0
    0.1760    0.4944    3.1900 F   0  0  0  0  0  0  0  0  0  0  0  0
    1.8519    5.8113    0.3939 H   0  0  0  0  0  0  0  0  0  0  0  0
    2.7470    4.4140   -0.2505 H   0  0  0  0  0  0  0  0  0  0  0  0
    1.0048    4.5086   -0.4698 H   0  0  0  0  0  0  0  0  0  0  0  0
    0.6931    4.3009    2.0413 H   0  0  0  0  0  0  0  0  0  0  0  0
    2.4443    4.2256    2.2235 H   0  0  0  0  0  0  0  0  0  0  0  0
   -0.4851    0.2109   -0.9638 H   0  0  0  0  0  0  0  0  0  0  0  0
   -1.6702   -1.3729   -1.9567 H   0  0  0  0  0  0  0  0  0  0  0  0
   -3.6205   -1.8108   -3.3973 H   0  0  0  0  0  0  0  0  0  0  0  0
   -5.9100   -1.3435   -2.5767 H   0  0  0  0  0  0  0  0  0  0  0  0
   -4.3019    0.0478    1.1646 H   0  0  0  0  0  0  0  0  0  0  0  0
    2.4831    0.9954    0.0309 H   0  0  0  0  0  0  0  0  0  0  0  0
    2.3572   -5.1803   -0.4997 H   0  0  0  0  0  0  0  0  0  0  0  0
    4.0963   -5.0203   -0.2225 H   0  0  0  0  0  0  0  0  0  0  0  0
    3.4472   -4.8481   -1.8635 H   0  0  0  0  0  0  0  0  0  0  0  0
  1  2  1  0
  2  3  1  0
  3  4  1  0
  4  5  2  0
  4  6  1  0
  6  7  1  0
  7  8  1  0
  8  9  2  0
  8 10  1  0
 10 11  2  0
 11 12  1  0
 12 13  2  0
 13 14  1  0
 14 15  1  0
 14 16  2  0
  6 17  1  0
 17 18  1  0
 18 19  2  0
 19 20  1  0
 20 21  2  0
 21 22  1  0
 21 23  1  0
  6 24  1  0
 24 25  1  0
 24 26  1  0
 24 27  1  0
 16 10  1  0
 23 18  1  0
  1 28  1  0
  1 29  1  0
  1 30  1  0
  2 31  1  0
  2 32  1  0
  7 33  1  0
 11 34  1  0
 12 35  1  0
 13 36  1  0
 16 37  1  0
 17 38  1  0
 22 39  1  0
 22 40  1  0
 22 41  1  0
M  END
$$$$
