
     RDKit          3D

 36 35  0  0  0  0  0  0  0  0999 V2000
    2.7838   -1.8576   -3.0371 C   0  0  0  0  0  0  0  0  0  0  0  0
    2.1288   -0.6243   -2.4287 C   0  0  0  0  0  0  0  0  0  0  0  0
    1.8689   -0.7574   -0.9815 N   0  0  0  0  0  0  0  0  0  0  0  0
    2.8628   -0.1147   -0.1017 C   0  0  0  0  0  0  0  0  0  0  0  0
    4.1250   -0.9394    0.0952 C   0  0  0  0  0  0  0  0  0  0  0  0
    0.8275   -1.5530   -0.4531 C   0  0  0  0  0  0  0  0  0  0  0  0
    0.7018   -2.0497    1.1556 S   0  0  0  0  0  0  0  0  0  0  0  0
   -0.4391   -2.0825   -1.5779 S   0  0  0  0  0  0  0  0  0  0  0  0
   -1.5986   -0.3768   -1.7331 S   0  0  0  0  0  0  0  0  0  0  0  0
   -2.6053   -0.4897   -0.2725 C   0  0  0  0  0  0  0  0  0  0  0  0
   -3.9131   -1.5582   -0.2850 S   0  0  0  0  0  0  0  0  0  0  0  0
   -2.2545    0.3572    0.8015 N   0  0  0  0  0  0  0  0  0  0  0  0
   -1.3099    1.4832    0.6756 C   0  0  0  0  0  0  0  0  0  0  0  0
   -1.9214    2.7012   -0.0040 C   0  0  0  0  0  0  0  0  0  0  0  0
   -2.8822    0.2071    2.1280 C   0  0  0  0  0  0  0  0  0  0  0  0
   -4.0689    1.1332    2.3415 C   0  0  0  0  0  0  0  0  0  0  0  0
    2.9373   -1.7086   -4.1106 H   0  0  0  0  0  0  0  0  0  0  0  0
    2.1717   -2.7541   -2.9057 H   0  0  0  0  0  0  0  0  0  0  0  0
    3.7584   -2.0589   -2.5853 H   0  0  0  0  0  0  0  0  0  0  0  0
    1.1968   -0.4077   -2.9564 H   0  0  0  0  0  0  0  0  0  0  0  0
    2.7719    0.2475   -2.5950 H   0  0  0  0  0  0  0  0  0  0  0  0
    2.4144    0.1006    0.8729 H   0  0  0  0  0  0  0  0  0  0  0  0
    3.1174    0.8634   -0.5266 H   0  0  0  0  0  0  0  0  0  0  0  0
    4.7000   -1.0075   -0.8325 H   0  0  0  0  0  0  0  0  0  0  0  0
    4.7682   -0.4683    0.8453 H   0  0  0  0  0  0  0  0  0  0  0  0
    3.8983   -1.9565    0.4275 H   0  0  0  0  0  0  0  0  0  0  0  0
   -0.4221    1.1645    0.1232 H   0  0  0  0  0  0  0  0  0  0  0  0
   -0.9538    1.7644    1.6732 H   0  0  0  0  0  0  0  0  0  0  0  0
   -2.2848    2.4699   -1.0091 H   0  0  0  0  0  0  0  0  0  0  0  0
   -2.7663    3.0960    0.5660 H   0  0  0  0  0  0  0  0  0  0  0  0
   -1.1744    3.4967   -0.0897 H   0  0  0  0  0  0  0  0  0  0  0  0
   -2.1203    0.3919    2.8944 H   0  0  0  0  0  0  0  0  0  0  0  0
   -3.1993   -0.8292    2.2785 H   0  0  0  0  0  0  0  0  0  0  0  0
   -3.7513    2.1789    2.3800 H   0  0  0  0  0  0  0  0  0  0  0  0
   -4.5588    0.9034    3.2930 H   0  0  0  0  0  0  0  0  0  0  0  0
   -4.8090    1.0348    1.5419 H   0  0  0  0  0  0  0  0  0  0  0  0
  1  2  1  0
  2  3  1  0
  3  4  1  0
  4  5  1  0
  3  6  1  0
  6  7  2  0
  6  8  1  0
  8  9  1  0
  9 10  1  0
 10 11  2  0
 10 12  1  0
 12 13  1  0
 13 14  1  0
 12 15  1  0
 15 16  1  0
  1 17  1  0
  1 18  1  0
  1 19  1  0
  2 20  1  0
  2 21  1  0
  4 22  1  0
  4 23  1  0
  5 24  1  0
  5 25  1  0
  5 26  1  0
 13 27  1  0
 13 28  1  0
 14 29  1  0
 14 30  1  0
 14 31  1  0
 15 32  1  0
 15 33  1  0
 16 34  1  0
 16 35  1  0
 16 36  1  0
M  END
$$$$
