
     RDKit          3D

 39 42  0  0  0  0  0  0  0  0999 V2000
   -4.6804    1.3792    1.7633 C   0  0  0  0  0  0  0  0  0  0  0  0
   -4.5446   -0.4273    1.7203 S   0  0  0  0  0  0  0  0  0  0  0  0
   -4.8535   -0.6742   -0.0320 C   0  0  0  0  0  0  0  0  0  0  0  0
   -6.1795   -0.8525   -0.4482 C   0  0  0  0  0  0  0  0  0  0  0  0
   -6.4726   -1.0387   -1.7977 C   0  0  0  0  0  0  0  0  0  0  0  0
   -5.4426   -1.0509   -2.7341 C   0  0  0  0  0  0  0  0  0  0  0  0
   -4.1154   -0.8823   -2.3270 C   0  0  0  0  0  0  0  0  0  0  0  0
   -3.8044   -0.6974   -0.9768 C   0  0  0  0  0  0  0  0  0  0  0  0
   -2.4846   -0.5326   -0.5059 N   0  0  0  0  0  0  0  0  0  0  0  0
   -1.3028   -0.5049   -1.2173 C   0  0  0  0  0  0  0  0  0  0  0  0
   -1.1824   -0.6194   -2.4321 O   0  0  0  0  0  0  0  0  0  0  0  0
   -0.1276   -0.3096   -0.3595 C   0  0  0  0  0  0  0  0  0  0  0  0
    1.2308   -0.2556   -0.7624 C   0  0  0  0  0  0  0  0  0  0  0  0
    1.9413   -0.0561    0.3978 C   0  0  0  0  0  0  0  0  0  0  0  0
    3.3554    0.0933    0.7284 C   0  0  0  0  0  0  0  0  0  0  0  0
    3.7789    0.2786    2.0675 C   0  0  0  0  0  0  0  0  0  0  0  0
    5.1336    0.4227    2.3933 C   0  0  0  0  0  0  0  0  0  0  0  0
    6.0464    0.3781    1.3651 C   0  0  0  0  0  0  0  0  0  0  0  0
    5.6529    0.1990    0.0617 C   0  0  0  0  0  0  0  0  0  0  0  0
    4.3251    0.0544   -0.2883 C   0  0  0  0  0  0  0  0  0  0  0  0
    6.7052    0.1844   -0.8002 O   0  0  0  0  0  0  0  0  0  0  0  0
    7.8067    0.3741    0.1129 C   0  0  0  0  0  0  0  0  0  0  0  0
    7.3942    0.4988    1.4898 O   0  0  0  0  0  0  0  0  0  0  0  0
    1.0584    0.0079    1.4361 O   0  0  0  0  0  0  0  0  0  0  0  0
   -0.2342   -0.1483    0.9711 N   0  0  0  0  0  0  0  0  0  0  0  0
   -5.6769    1.6973    1.4448 H   0  0  0  0  0  0  0  0  0  0  0  0
   -3.9289    1.8370    1.1141 H   0  0  0  0  0  0  0  0  0  0  0  0
   -4.5144    1.7273    2.7862 H   0  0  0  0  0  0  0  0  0  0  0  0
   -6.9913   -0.8488    0.2754 H   0  0  0  0  0  0  0  0  0  0  0  0
   -7.5021   -1.1767   -2.1181 H   0  0  0  0  0  0  0  0  0  0  0  0
   -5.6675   -1.1974   -3.7881 H   0  0  0  0  0  0  0  0  0  0  0  0
   -3.3468   -0.9065   -3.0931 H   0  0  0  0  0  0  0  0  0  0  0  0
   -2.3888   -0.4358    0.5043 H   0  0  0  0  0  0  0  0  0  0  0  0
    1.6147   -0.3525   -1.7670 H   0  0  0  0  0  0  0  0  0  0  0  0
    3.0498    0.3119    2.8759 H   0  0  0  0  0  0  0  0  0  0  0  0
    5.4527    0.5640    3.4198 H   0  0  0  0  0  0  0  0  0  0  0  0
    4.0619   -0.0848   -1.3311 H   0  0  0  0  0  0  0  0  0  0  0  0
    8.4854   -0.4823    0.0262 H   0  0  0  0  0  0  0  0  0  0  0  0
    8.3480    1.2827   -0.1749 H   0  0  0  0  0  0  0  0  0  0  0  0
  1  2  1  0
  2  3  1  0
  3  4  2  0
  4  5  1  0
  5  6  2  0
  6  7  1  0
  7  8  2  0
  8  9  1  0
  9 10  1  0
 10 11  2  0
 10 12  1  0
 12 13  1  0
 13 14  2  0
 14 15  1  0
 15 16  2  0
 16 17  1  0
 17 18  2  0
 18 19  1  0
 19 20  2  0
 19 21  1  0
 21 22  1  0
 22 23  1  0
 14 24  1  0
 24 25  1  0
  8  3  1  0
 25 12  2  0
 20 15  1  0
 23 18  1  0
  1 26  1  0
  1 27  1  0
  1 28  1  0
  4 29  1  0
  5 30  1  0
  6 31  1  0
  7 32  1  0
  9 33  1  0
 13 34  1  0
 16 35  1  0
 17 36  1  0
 20 37  1  0
 22 38  1  0
 22 39  1  0
M  END
$$$$
