
     RDKit          3D

 38 39  0  0  0  0  0  0  0  0999 V2000
   -3.8787    3.2048    0.5152 C   0  0  0  0  0  0  0  0  0  0  0  0
   -3.9706    2.0363    1.1639 C   0  0  0  0  0  0  0  0  0  0  0  0
   -4.2023    0.7105    0.4957 C   0  0  0  0  0  0  0  0  0  0  0  0
   -3.0808   -0.2663    0.7605 C   0  0  0  0  0  0  0  0  0  0  0  0
   -3.2095   -1.2527    1.7446 C   0  0  0  0  0  0  0  0  0  0  0  0
   -2.1630   -2.1398    1.9917 C   0  0  0  0  0  0  0  0  0  0  0  0
   -0.9786   -2.0428    1.2640 C   0  0  0  0  0  0  0  0  0  0  0  0
   -0.0091   -2.9571    1.5773 O   0  0  0  0  0  0  0  0  0  0  0  0
   -0.8102   -1.0643    0.2704 C   0  0  0  0  0  0  0  0  0  0  0  0
    0.4228   -0.9368   -0.5245 C   0  0  0  0  0  0  0  0  0  0  0  0
    1.2372    0.1998   -0.3599 C   0  0  0  0  0  0  0  0  0  0  0  0
    2.4291    0.3630   -1.0855 C   0  0  0  0  0  0  0  0  0  0  0  0
    3.2960    1.5820   -0.8759 C   0  0  0  0  0  0  0  0  0  0  0  0
    4.3947    1.3341    0.1184 C   0  0  0  0  0  0  0  0  0  0  0  0
    5.7016    1.4399   -0.1563 C   0  0  0  0  0  0  0  0  0  0  0  0
    2.8189   -0.6379   -1.9832 C   0  0  0  0  0  0  0  0  0  0  0  0
    2.0258   -1.7697   -2.1632 C   0  0  0  0  0  0  0  0  0  0  0  0
    0.8408   -1.9126   -1.4446 C   0  0  0  0  0  0  0  0  0  0  0  0
    0.1308   -3.0580   -1.6857 O   0  0  0  0  0  0  0  0  0  0  0  0
   -1.8794   -0.1795    0.0364 C   0  0  0  0  0  0  0  0  0  0  0  0
   -3.7123    4.1293    1.0599 H   0  0  0  0  0  0  0  0  0  0  0  0
   -3.9649    3.2681   -0.5651 H   0  0  0  0  0  0  0  0  0  0  0  0
   -3.8798    2.0275    2.2484 H   0  0  0  0  0  0  0  0  0  0  0  0
   -4.3244    0.8268   -0.5888 H   0  0  0  0  0  0  0  0  0  0  0  0
   -5.1503    0.2947    0.8591 H   0  0  0  0  0  0  0  0  0  0  0  0
   -4.1241   -1.3362    2.3275 H   0  0  0  0  0  0  0  0  0  0  0  0
   -2.2664   -2.9048    2.7568 H   0  0  0  0  0  0  0  0  0  0  0  0
    0.8007   -2.7509    1.0777 H   0  0  0  0  0  0  0  0  0  0  0  0
    0.9411    0.9676    0.3548 H   0  0  0  0  0  0  0  0  0  0  0  0
    3.7009    1.9046   -1.8437 H   0  0  0  0  0  0  0  0  0  0  0  0
    2.6791    2.4167   -0.5200 H   0  0  0  0  0  0  0  0  0  0  0  0
    4.0901    1.0572    1.1258 H   0  0  0  0  0  0  0  0  0  0  0  0
    6.0585    1.7147   -1.1439 H   0  0  0  0  0  0  0  0  0  0  0  0
    6.4463    1.2480    0.6103 H   0  0  0  0  0  0  0  0  0  0  0  0
    3.7455   -0.5417   -2.5450 H   0  0  0  0  0  0  0  0  0  0  0  0
    2.3308   -2.5424   -2.8639 H   0  0  0  0  0  0  0  0  0  0  0  0
   -0.7089   -3.0245   -1.1945 H   0  0  0  0  0  0  0  0  0  0  0  0
   -1.7776    0.5923   -0.7265 H   0  0  0  0  0  0  0  0  0  0  0  0
  1  2  2  0
  2  3  1  0
  3  4  1  0
  4  5  2  0
  5  6  1  0
  6  7  2  0
  7  8  1  0
  7  9  1  0
  9 10  1  0
 10 11  2  0
 11 12  1  0
 12 13  1  0
 13 14  1  0
 14 15  2  0
 12 16  2  0
 16 17  1  0
 17 18  2  0
 18 19  1  0
  9 20  2  0
 20  4  1  0
 18 10  1  0
  1 21  1  0
  1 22  1  0
  2 23  1  0
  3 24  1  0
  3 25  1  0
  5 26  1  0
  6 27  1  0
  8 28  1  0
 11 29  1  0
 13 30  1  0
 13 31  1  0
 14 32  1  0
 15 33  1  0
 15 34  1  0
 16 35  1  0
 17 36  1  0
 19 37  1  0
 20 38  1  0
M  END
$$$$
