
     RDKit          3D

 50 53  0  0  0  0  0  0  0  0999 V2000
   -3.5646   -3.6972   -2.0097 C   0  0  0  0  0  0  0  0  0  0  0  0
   -4.4647   -2.8246   -1.1524 C   0  0  0  0  0  0  0  0  0  0  0  0
   -3.7691   -2.3642    0.0050 O   0  0  0  0  0  0  0  0  0  0  0  0
   -3.0864   -1.1833   -0.0593 C   0  0  0  0  0  0  0  0  0  0  0  0
   -2.5710   -0.7473    1.1642 C   0  0  0  0  0  0  0  0  0  0  0  0
   -1.8452    0.4428    1.2536 C   0  0  0  0  0  0  0  0  0  0  0  0
   -1.6251    1.2136    0.1095 C   0  0  0  0  0  0  0  0  0  0  0  0
   -0.8298    2.4322    0.1869 C   0  0  0  0  0  0  0  0  0  0  0  0
    0.5453    2.6131    0.3245 C   0  0  0  0  0  0  0  0  0  0  0  0
    1.6473    1.6463    0.4231 C   0  0  0  0  0  0  0  0  0  0  0  0
    2.7555    2.0017    0.8197 O   0  0  0  0  0  0  0  0  0  0  0  0
    1.3466    0.3457    0.0160 N   0  0  0  0  0  0  0  0  0  0  0  0
    2.2475   -0.6853   -0.1125 N   0  0  0  0  0  0  0  0  0  0  0  0
    3.2168   -0.7664    0.7437 C   0  0  0  0  0  0  0  0  0  0  0  0
    4.2513   -1.8175    0.6456 C   0  0  0  0  0  0  0  0  0  0  0  0
    4.2049   -2.7830   -0.3648 C   0  0  0  0  0  0  0  0  0  0  0  0
    5.1952   -3.7644   -0.4301 C   0  0  0  0  0  0  0  0  0  0  0  0
    6.2211   -3.7727    0.5094 C   0  0  0  0  0  0  0  0  0  0  0  0
    7.1666   -4.7492    0.4055 O   0  0  0  0  0  0  0  0  0  0  0  0
    6.2770   -2.8144    1.5183 C   0  0  0  0  0  0  0  0  0  0  0  0
    5.2866   -1.8312    1.5872 C   0  0  0  0  0  0  0  0  0  0  0  0
    0.8084    3.9584    0.3873 N   0  0  0  0  0  0  0  0  0  0  0  0
   -0.3273    4.6202    0.2816 N   0  0  0  0  0  0  0  0  0  0  0  0
   -1.3543    3.7325    0.1890 N   0  0  0  0  0  0  0  0  0  0  0  0
   -2.7018    4.1740    0.1347 C   0  0  0  0  0  0  0  0  0  0  0  0
   -3.7165    3.3094    0.1161 N   0  0  0  0  0  0  0  0  0  0  0  0
   -4.8520    4.1165    0.0861 O   0  0  0  0  0  0  0  0  0  0  0  0
   -4.5126    5.4650    0.0873 N   0  0  0  0  0  0  0  0  0  0  0  0
   -3.1809    5.4979    0.1116 C   0  0  0  0  0  0  0  0  0  0  0  0
   -2.4492    6.6282    0.1090 N   0  0  0  0  0  0  0  0  0  0  0  0
   -2.1301    0.7738   -1.1198 C   0  0  0  0  0  0  0  0  0  0  0  0
   -2.8586   -0.4188   -1.2024 C   0  0  0  0  0  0  0  0  0  0  0  0
   -4.1188   -4.1070   -2.8590 H   0  0  0  0  0  0  0  0  0  0  0  0
   -3.1613   -4.5270   -1.4197 H   0  0  0  0  0  0  0  0  0  0  0  0
   -2.7074   -3.1351   -2.3919 H   0  0  0  0  0  0  0  0  0  0  0  0
   -5.2964   -3.4391   -0.7891 H   0  0  0  0  0  0  0  0  0  0  0  0
   -4.9222   -2.0081   -1.7218 H   0  0  0  0  0  0  0  0  0  0  0  0
   -2.7397   -1.3424    2.0592 H   0  0  0  0  0  0  0  0  0  0  0  0
   -1.4589    0.7526    2.2221 H   0  0  0  0  0  0  0  0  0  0  0  0
    0.5138    0.2003   -0.5432 H   0  0  0  0  0  0  0  0  0  0  0  0
    3.3111   -0.0848    1.6060 H   0  0  0  0  0  0  0  0  0  0  0  0
    3.4050   -2.7774   -1.1008 H   0  0  0  0  0  0  0  0  0  0  0  0
    5.1668   -4.5184   -1.2118 H   0  0  0  0  0  0  0  0  0  0  0  0
    7.8225   -4.6263    1.1111 H   0  0  0  0  0  0  0  0  0  0  0  0
    7.0770   -2.8156    2.2521 H   0  0  0  0  0  0  0  0  0  0  0  0
    5.3331   -1.0804    2.3721 H   0  0  0  0  0  0  0  0  0  0  0  0
   -1.4536    6.6132    0.3278 H   0  0  0  0  0  0  0  0  0  0  0  0
   -2.9074    7.5127    0.3027 H   0  0  0  0  0  0  0  0  0  0  0  0
   -1.9675    1.3525   -2.0272 H   0  0  0  0  0  0  0  0  0  0  0  0
   -3.2267   -0.7214   -2.1769 H   0  0  0  0  0  0  0  0  0  0  0  0
  1  2  1  0
  2  3  1  0
  3  4  1  0
  4  5  2  0
  5  6  1  0
  6  7  2  0
  7  8  1  0
  8  9  2  0
  9 10  1  0
 10 11  2  0
 10 12  1  0
 12 13  1  0
 13 14  2  3
 14 15  1  0
 15 16  2  0
 16 17  1  0
 17 18  2  0
 18 19  1  0
 18 20  1  0
 20 21  2  0
  9 22  1  0
 22 23  2  0
 23 24  1  0
 24 25  1  0
 25 26  2  0
 26 27  1  0
 27 28  1  0
 28 29  2  0
 29 30  1  0
  7 31  1  0
 31 32  2  0
 32  4  1  0
 24  8  1  0
 29 25  1  0
 21 15  1  0
  1 33  1  0
  1 34  1  0
  1 35  1  0
  2 36  1  0
  2 37  1  0
  5 38  1  0
  6 39  1  0
 12 40  1  0
 14 41  1  0
 16 42  1  0
 17 43  1  0
 19 44  1  0
 20 45  1  0
 21 46  1  0
 30 47  1  0
 30 48  1  0
 31 49  1  0
 32 50  1  0
M  END
$$$$
