
     RDKit          3D

 39 41  0  0  0  0  0  0  0  0999 V2000
    4.6606    2.0353    2.1260 C   0  0  0  0  0  0  0  0  0  0  0  0
    4.8488    1.5736    0.6922 C   0  0  0  0  0  0  0  0  0  0  0  0
    4.3197    0.2410    0.4727 N   0  0  0  0  0  0  0  0  0  0  0  0
    5.0263   -0.9245    0.4629 C   0  0  0  0  0  0  0  0  0  0  0  0
    4.1106   -1.9182    0.2142 C   0  0  0  0  0  0  0  0  0  0  0  0
    2.8614   -1.2575    0.0830 C   0  0  0  0  0  0  0  0  0  0  0  0
    1.5491   -1.8767   -0.1892 C   0  0  0  0  0  0  0  0  0  0  0  0
    1.4451   -3.0892   -0.3326 O   0  0  0  0  0  0  0  0  0  0  0  0
    0.5471   -0.9269   -0.2474 N   0  0  0  0  0  0  0  0  0  0  0  0
   -0.8043   -1.1137   -0.4789 C   0  0  0  0  0  0  0  0  0  0  0  0
   -1.4410   -2.6849   -0.7488 S   0  0  0  0  0  0  0  0  0  0  0  0
   -2.9781   -2.0698   -0.9223 C   0  0  0  0  0  0  0  0  0  0  0  0
   -3.0528   -0.7132   -0.7840 C   0  0  0  0  0  0  0  0  0  0  0  0
   -1.7835   -0.1165   -0.5275 C   0  0  0  0  0  0  0  0  0  0  0  0
   -1.4942    1.3027   -0.3395 C   0  0  0  0  0  0  0  0  0  0  0  0
   -0.3713    1.7358   -0.1021 O   0  0  0  0  0  0  0  0  0  0  0  0
   -2.6034    2.0903   -0.4597 O   0  0  0  0  0  0  0  0  0  0  0  0
   -2.3507    3.4837   -0.2830 C   0  0  0  0  0  0  0  0  0  0  0  0
   -4.4538   -0.2440   -0.9525 C   0  0  0  0  0  0  0  0  0  0  0  0
   -5.2663   -1.5747   -0.8750 C   0  0  0  0  0  0  0  0  0  0  0  0
   -4.2731   -2.7298   -1.2021 C   0  0  0  0  0  0  0  0  0  0  0  0
    3.0038    0.0754    0.2418 N   0  0  0  0  0  0  0  0  0  0  0  0
    3.5996    2.0665    2.3957 H   0  0  0  0  0  0  0  0  0  0  0  0
    5.0764    3.0385    2.2601 H   0  0  0  0  0  0  0  0  0  0  0  0
    5.1630    1.3597    2.8265 H   0  0  0  0  0  0  0  0  0  0  0  0
    5.9127    1.5578    0.4316 H   0  0  0  0  0  0  0  0  0  0  0  0
    4.3421    2.2496   -0.0053 H   0  0  0  0  0  0  0  0  0  0  0  0
    6.0937   -0.9524    0.6312 H   0  0  0  0  0  0  0  0  0  0  0  0
    4.2965   -2.9806    0.1345 H   0  0  0  0  0  0  0  0  0  0  0  0
    0.8675    0.0331   -0.0944 H   0  0  0  0  0  0  0  0  0  0  0  0
   -1.9650    3.6796    0.7224 H   0  0  0  0  0  0  0  0  0  0  0  0
   -1.6541    3.8474   -1.0448 H   0  0  0  0  0  0  0  0  0  0  0  0
   -3.2984    4.0169   -0.3990 H   0  0  0  0  0  0  0  0  0  0  0  0
   -4.5841    0.2277   -1.9321 H   0  0  0  0  0  0  0  0  0  0  0  0
   -4.7692    0.4494   -0.1682 H   0  0  0  0  0  0  0  0  0  0  0  0
   -5.6391   -1.7045    0.1498 H   0  0  0  0  0  0  0  0  0  0  0  0
   -6.1345   -1.5708   -1.5413 H   0  0  0  0  0  0  0  0  0  0  0  0
   -4.3465   -3.0123   -2.2572 H   0  0  0  0  0  0  0  0  0  0  0  0
   -4.4605   -3.6040   -0.5728 H   0  0  0  0  0  0  0  0  0  0  0  0
  1  2  1  0
  2  3  1  0
  3  4  1  0
  4  5  2  0
  5  6  1  0
  6  7  1  0
  7  8  2  0
  7  9  1  0
  9 10  1  0
 10 11  1  0
 11 12  1  0
 12 13  2  0
 13 14  1  0
 14 15  1  0
 15 16  2  0
 15 17  1  0
 17 18  1  0
 13 19  1  0
 19 20  1  0
 20 21  1  0
  6 22  2  0
 22  3  1  0
 14 10  2  0
 21 12  1  0
  1 23  1  0
  1 24  1  0
  1 25  1  0
  2 26  1  0
  2 27  1  0
  4 28  1  0
  5 29  1  0
  9 30  1  0
 18 31  1  0
 18 32  1  0
 18 33  1  0
 19 34  1  0
 19 35  1  0
 20 36  1  0
 20 37  1  0
 21 38  1  0
 21 39  1  0
M  END
$$$$
