
     RDKit          3D

 46 49  0  0  0  0  0  0  0  0999 V2000
   -6.8086    0.8416   -0.0464 C   0  0  0  0  0  0  0  0  0  0  0  0
   -6.1096   -0.2843   -0.7881 C   0  0  0  0  0  0  0  0  0  0  0  0
   -4.9054   -0.6535   -0.1221 O   0  0  0  0  0  0  0  0  0  0  0  0
   -3.7240   -0.0632   -0.4874 C   0  0  0  0  0  0  0  0  0  0  0  0
   -3.6099    1.0466   -1.3227 C   0  0  0  0  0  0  0  0  0  0  0  0
   -2.3547    1.5739   -1.6183 C   0  0  0  0  0  0  0  0  0  0  0  0
   -1.2037    0.9964   -1.0782 C   0  0  0  0  0  0  0  0  0  0  0  0
   -1.2658   -0.1225   -0.2225 C   0  0  0  0  0  0  0  0  0  0  0  0
   -0.0216   -0.7038    0.3276 C   0  0  0  0  0  0  0  0  0  0  0  0
   -0.1059   -1.9240    0.9180 N   0  0  0  0  0  0  0  0  0  0  0  0
    1.0541   -2.4438    1.4002 C   0  0  0  0  0  0  0  0  0  0  0  0
    0.9949   -3.8039    2.0057 C   0  0  0  0  0  0  0  0  0  0  0  0
   -0.2080   -4.4532    1.9250 N   0  0  0  0  0  0  0  0  0  0  0  0
    1.9701   -4.3235    2.5344 O   0  0  0  0  0  0  0  0  0  0  0  0
    2.2348   -1.7667    1.3238 C   0  0  0  0  0  0  0  0  0  0  0  0
    3.5250   -2.0784    1.7212 N   0  0  0  0  0  0  0  0  0  0  0  0
    4.3706   -1.0169    1.3722 C   0  0  0  0  0  0  0  0  0  0  0  0
    5.5680   -1.0112    1.6047 O   0  0  0  0  0  0  0  0  0  0  0  0
    3.5465   -0.0307    0.7474 N   0  0  0  0  0  0  0  0  0  0  0  0
    3.9619    1.2208    0.2163 C   0  0  0  0  0  0  0  0  0  0  0  0
    5.3296    1.5101    0.0635 C   0  0  0  0  0  0  0  0  0  0  0  0
    5.7739    2.7305   -0.4621 C   0  0  0  0  0  0  0  0  0  0  0  0
    4.8557    3.6989   -0.8470 C   0  0  0  0  0  0  0  0  0  0  0  0
    3.4998    3.4397   -0.6971 C   0  0  0  0  0  0  0  0  0  0  0  0
    2.3487    4.6346   -1.1607 Cl  0  0  0  0  0  0  0  0  0  0  0  0
    3.0564    2.2213   -0.1700 C   0  0  0  0  0  0  0  0  0  0  0  0
    2.2190   -0.5300    0.7272 C   0  0  0  0  0  0  0  0  0  0  0  0
    1.1146    0.0175    0.2096 N   0  0  0  0  0  0  0  0  0  0  0  0
   -2.5549   -0.6316    0.0602 C   0  0  0  0  0  0  0  0  0  0  0  0
   -2.7326   -1.7136    0.8979 O   0  0  0  0  0  0  0  0  0  0  0  0
   -6.1956    1.7474   -0.0230 H   0  0  0  0  0  0  0  0  0  0  0  0
   -6.9924    0.5574    0.9951 H   0  0  0  0  0  0  0  0  0  0  0  0
   -7.7655    1.0804   -0.5192 H   0  0  0  0  0  0  0  0  0  0  0  0
   -5.9545   -0.0548   -1.8480 H   0  0  0  0  0  0  0  0  0  0  0  0
   -6.7590   -1.1669   -0.7657 H   0  0  0  0  0  0  0  0  0  0  0  0
   -4.4777    1.5355   -1.7514 H   0  0  0  0  0  0  0  0  0  0  0  0
   -2.2697    2.4411   -2.2696 H   0  0  0  0  0  0  0  0  0  0  0  0
   -0.2418    1.4371   -1.3389 H   0  0  0  0  0  0  0  0  0  0  0  0
   -0.2661   -5.4046    2.2643 H   0  0  0  0  0  0  0  0  0  0  0  0
   -0.9795   -4.0849    1.3827 H   0  0  0  0  0  0  0  0  0  0  0  0
    3.8146   -2.9310    2.1874 H   0  0  0  0  0  0  0  0  0  0  0  0
    6.0971    0.7888    0.3323 H   0  0  0  0  0  0  0  0  0  0  0  0
    6.8404    2.9152   -0.5694 H   0  0  0  0  0  0  0  0  0  0  0  0
    5.2001    4.6449   -1.2548 H   0  0  0  0  0  0  0  0  0  0  0  0
    1.9871    2.1003   -0.0492 H   0  0  0  0  0  0  0  0  0  0  0  0
   -1.8562   -1.9827    1.2273 H   0  0  0  0  0  0  0  0  0  0  0  0
  1  2  1  0
  2  3  1  0
  3  4  1  0
  4  5  2  0
  5  6  1  0
  6  7  2  0
  7  8  1  0
  8  9  1  0
  9 10  2  0
 10 11  1  0
 11 12  1  0
 12 13  1  0
 12 14  2  0
 11 15  2  0
 15 16  1  0
 16 17  1  0
 17 18  2  0
 17 19  1  0
 19 20  1  0
 20 21  2  0
 21 22  1  0
 22 23  2  0
 23 24  1  0
 24 25  1  0
 24 26  2  0
 19 27  1  0
 27 28  2  0
  8 29  2  0
 29 30  1  0
 29  4  1  0
 28  9  1  0
 27 15  1  0
 26 20  1  0
  1 31  1  0
  1 32  1  0
  1 33  1  0
  2 34  1  0
  2 35  1  0
  5 36  1  0
  6 37  1  0
  7 38  1  0
 13 39  1  0
 13 40  1  0
 16 41  1  0
 21 42  1  0
 22 43  1  0
 23 44  1  0
 26 45  1  0
 30 46  1  0
M  END
$$$$
