
     RDKit          3D

 34 36  0  0  0  0  0  0  0  0999 V2000
    0.4615    1.1338   -2.5437 O   0  0  0  0  0  0  0  0  0  0  0  0
    0.3865    0.5294   -1.4776 C   0  0  0  0  0  0  0  0  0  0  0  0
    1.5070   -0.3526   -1.1387 C   0  0  0  0  0  0  0  0  0  0  0  0
    2.5980    0.1702   -0.4375 C   0  0  0  0  0  0  0  0  0  0  0  0
    3.6991   -0.6468   -0.1738 C   0  0  0  0  0  0  0  0  0  0  0  0
    3.7094   -1.9655   -0.6323 C   0  0  0  0  0  0  0  0  0  0  0  0
    5.0672   -2.9705   -0.3056 Cl  0  0  0  0  0  0  0  0  0  0  0  0
    2.6342   -2.4726   -1.3647 C   0  0  0  0  0  0  0  0  0  0  0  0
    1.5313   -1.6592   -1.6327 C   0  0  0  0  0  0  0  0  0  0  0  0
   -0.6742    0.6632   -0.6122 N   0  0  0  0  0  0  0  0  0  0  0  0
   -1.7259    1.6406   -0.9196 C   0  0  0  0  0  0  0  0  0  0  0  0
   -1.5522    2.7464    0.0944 C   0  0  0  0  0  0  0  0  0  0  0  0
   -1.9582    2.2786    1.2869 C   0  0  0  0  0  0  0  0  0  0  0  0
   -2.3255    0.8200    1.0691 C   0  0  0  0  0  0  0  0  0  0  0  0
   -2.9700    0.9921   -0.3186 C   0  0  0  0  0  0  0  0  0  0  0  0
   -1.0231   -0.0079    0.7271 C   0  0  0  0  0  0  0  0  0  0  0  0
   -1.3644   -1.4950    0.6619 C   0  0  0  0  0  0  0  0  0  0  0  0
   -2.2285   -1.7786   -0.3409 F   0  0  0  0  0  0  0  0  0  0  0  0
   -0.2904   -2.2831    0.4591 F   0  0  0  0  0  0  0  0  0  0  0  0
   -1.9560   -1.9158    1.8041 F   0  0  0  0  0  0  0  0  0  0  0  0
   -0.0079    0.1066    1.8619 C   0  0  0  0  0  0  0  0  0  0  0  0
    0.5590    1.3343    1.9324 F   0  0  0  0  0  0  0  0  0  0  0  0
   -0.5928   -0.1189    3.0635 F   0  0  0  0  0  0  0  0  0  0  0  0
    1.0102   -0.7717    1.7587 F   0  0  0  0  0  0  0  0  0  0  0  0
    2.5950    1.2045   -0.1015 H   0  0  0  0  0  0  0  0  0  0  0  0
    4.5453   -0.2505    0.3815 H   0  0  0  0  0  0  0  0  0  0  0  0
    2.6538   -3.4946   -1.7344 H   0  0  0  0  0  0  0  0  0  0  0  0
    0.7031   -2.0432   -2.2229 H   0  0  0  0  0  0  0  0  0  0  0  0
   -1.8032    1.9591   -1.9599 H   0  0  0  0  0  0  0  0  0  0  0  0
   -1.1615    3.7299   -0.1203 H   0  0  0  0  0  0  0  0  0  0  0  0
   -1.9413    2.8063    2.2297 H   0  0  0  0  0  0  0  0  0  0  0  0
   -2.9860    0.4036    1.8316 H   0  0  0  0  0  0  0  0  0  0  0  0
   -3.8501    1.6495   -0.3152 H   0  0  0  0  0  0  0  0  0  0  0  0
   -3.2495    0.0584   -0.8100 H   0  0  0  0  0  0  0  0  0  0  0  0
  1  2  2  0
  2  3  1  0
  3  4  2  0
  4  5  1  0
  5  6  2  0
  6  7  1  0
  6  8  1  0
  8  9  2  0
  2 10  1  0
 10 11  1  0
 11 12  1  0
 12 13  2  0
 13 14  1  0
 14 15  1  0
 14 16  1  0
 16 17  1  0
 17 18  1  0
 17 19  1  0
 17 20  1  0
 16 21  1  0
 21 22  1  0
 21 23  1  0
 21 24  1  0
  9  3  1  0
 16 10  1  0
 15 11  1  0
  4 25  1  0
  5 26  1  0
  8 27  1  0
  9 28  1  0
 11 29  1  0
 12 30  1  0
 13 31  1  0
 14 32  1  0
 15 33  1  0
 15 34  1  0
M  END
$$$$
