
     RDKit          3D

 23 23  0  0  0  0  0  0  0  0999 V2000
   -2.4678    0.4866   -0.6899 C   0  0  0  0  0  0  0  0  0  0  0  0
   -1.2696    0.7081    0.1932 C   0  0  0  0  0  0  0  0  0  0  0  0
   -0.4142    1.8107   -0.2262 C   0  0  0  0  0  0  0  0  0  0  0  0
    0.8911    1.7989   -0.5415 C   0  0  0  0  0  0  0  0  0  0  0  0
    1.7414    0.6598   -0.5973 C   0  0  0  0  0  0  0  0  0  0  0  0
    1.4842   -0.6842   -0.8525 C   0  0  0  0  0  0  0  0  0  0  0  0
    2.7115   -1.3874   -0.8036 C   0  0  0  0  0  0  0  0  0  0  0  0
    3.6693   -0.4447   -0.5395 C   0  0  0  0  0  0  0  0  0  0  0  0
    3.1059    0.7810   -0.4265 O   0  0  0  0  0  0  0  0  0  0  0  0
   -0.9981    0.0386    1.3304 C   0  0  0  0  0  0  0  0  0  0  0  0
   -1.7266   -1.1044    1.8951 C   0  0  0  0  0  0  0  0  0  0  0  0
   -1.7423   -1.3940    3.0781 O   0  0  0  0  0  0  0  0  0  0  0  0
   -2.3256   -1.8772    0.9783 O   0  0  0  0  0  0  0  0  0  0  0  0
   -2.8318    1.4321   -1.1091 H   0  0  0  0  0  0  0  0  0  0  0  0
   -2.2082   -0.1746   -1.5230 H   0  0  0  0  0  0  0  0  0  0  0  0
   -3.3140    0.0561   -0.1468 H   0  0  0  0  0  0  0  0  0  0  0  0
   -0.9263    2.7728   -0.2749 H   0  0  0  0  0  0  0  0  0  0  0  0
    1.3685    2.7475   -0.7765 H   0  0  0  0  0  0  0  0  0  0  0  0
    0.5131   -1.1109   -1.0621 H   0  0  0  0  0  0  0  0  0  0  0  0
    2.8744   -2.4451   -0.9524 H   0  0  0  0  0  0  0  0  0  0  0  0
    4.7423   -0.4795   -0.4138 H   0  0  0  0  0  0  0  0  0  0  0  0
   -0.1568    0.3362    1.9515 H   0  0  0  0  0  0  0  0  0  0  0  0
   -2.7204   -2.5995    1.5089 H   0  0  0  0  0  0  0  0  0  0  0  0
  1  2  1  0
  2  3  1  0
  3  4  2  3
  4  5  1  0
  5  6  2  0
  6  7  1  0
  7  8  2  0
  8  9  1  0
  2 10  2  3
 10 11  1  0
 11 12  2  0
 11 13  1  0
  9  5  1  0
  1 14  1  0
  1 15  1  0
  1 16  1  0
  3 17  1  0
  4 18  1  0
  6 19  1  0
  7 20  1  0
  8 21  1  0
 10 22  1  0
 13 23  1  0
M  END
$$$$
