
     RDKit          3D

 40 42  0  0  0  0  0  0  0  0999 V2000
   -4.0238   -2.4809   -0.4138 C   0  0  0  0  0  0  0  0  0  0  0  0
   -4.8038   -1.2020   -0.2644 C   0  0  0  0  0  0  0  0  0  0  0  0
   -6.2077   -1.2699   -0.3308 C   0  0  0  0  0  0  0  0  0  0  0  0
   -6.9861   -0.1227   -0.1982 C   0  0  0  0  0  0  0  0  0  0  0  0
   -6.3708    1.1063    0.0008 C   0  0  0  0  0  0  0  0  0  0  0  0
   -4.9776    1.1905    0.0692 C   0  0  0  0  0  0  0  0  0  0  0  0
   -4.1782    0.0483   -0.0571 C   0  0  0  0  0  0  0  0  0  0  0  0
   -2.7647    0.1033    0.0001 N   0  0  0  0  0  0  0  0  0  0  0  0
   -1.9691    1.1998    0.2810 C   0  0  0  0  0  0  0  0  0  0  0  0
   -2.3359    2.3205    0.6099 O   0  0  0  0  0  0  0  0  0  0  0  0
   -0.5047    0.9358    0.2027 C   0  0  0  0  0  0  0  0  0  0  0  0
    0.0420    0.1187   -0.7920 C   0  0  0  0  0  0  0  0  0  0  0  0
    1.4235   -0.1010   -0.8318 C   0  0  0  0  0  0  0  0  0  0  0  0
    2.2733    0.4931    0.1117 C   0  0  0  0  0  0  0  0  0  0  0  0
    3.6471    0.2150   -0.0017 N   0  0  0  0  0  0  0  0  0  0  0  0
    4.6853    0.6587    0.7992 C   0  0  0  0  0  0  0  0  0  0  0  0
    4.5691    1.3868    1.7790 O   0  0  0  0  0  0  0  0  0  0  0  0
    5.9772    0.1599    0.3594 C   0  0  0  0  0  0  0  0  0  0  0  0
    7.2489    0.3574    0.8636 C   0  0  0  0  0  0  0  0  0  0  0  0
    8.1349   -0.3716    0.0353 C   0  0  0  0  0  0  0  0  0  0  0  0
    7.3553   -0.9713   -0.9248 C   0  0  0  0  0  0  0  0  0  0  0  0
    6.0462   -0.6591   -0.7410 O   0  0  0  0  0  0  0  0  0  0  0  0
    1.7211    1.3213    1.0908 C   0  0  0  0  0  0  0  0  0  0  0  0
    0.3400    1.5477    1.1328 C   0  0  0  0  0  0  0  0  0  0  0  0
   -4.6829   -3.3421   -0.5674 H   0  0  0  0  0  0  0  0  0  0  0  0
   -3.4367   -2.6755    0.4895 H   0  0  0  0  0  0  0  0  0  0  0  0
   -3.3579   -2.4208   -1.2807 H   0  0  0  0  0  0  0  0  0  0  0  0
   -6.7067   -2.2242   -0.4863 H   0  0  0  0  0  0  0  0  0  0  0  0
   -8.0696   -0.1879   -0.2504 H   0  0  0  0  0  0  0  0  0  0  0  0
   -6.9697    2.0075    0.1036 H   0  0  0  0  0  0  0  0  0  0  0  0
   -4.5452    2.1749    0.2187 H   0  0  0  0  0  0  0  0  0  0  0  0
   -2.2856   -0.7787   -0.1064 H   0  0  0  0  0  0  0  0  0  0  0  0
   -0.5859   -0.3268   -1.5590 H   0  0  0  0  0  0  0  0  0  0  0  0
    1.8267   -0.7356   -1.6177 H   0  0  0  0  0  0  0  0  0  0  0  0
    3.9379   -0.3886   -0.7637 H   0  0  0  0  0  0  0  0  0  0  0  0
    7.4925    0.9605    1.7284 H   0  0  0  0  0  0  0  0  0  0  0  0
    9.2094   -0.4497    0.1266 H   0  0  0  0  0  0  0  0  0  0  0  0
    7.5698   -1.6174   -1.7652 H   0  0  0  0  0  0  0  0  0  0  0  0
    2.3352    1.8161    1.8373 H   0  0  0  0  0  0  0  0  0  0  0  0
   -0.0726    2.2038    1.8975 H   0  0  0  0  0  0  0  0  0  0  0  0
  1  2  1  0
  2  3  2  0
  3  4  1  0
  4  5  2  0
  5  6  1  0
  6  7  2  0
  7  8  1  0
  8  9  1  0
  9 10  2  0
  9 11  1  0
 11 12  2  0
 12 13  1  0
 13 14  2  0
 14 15  1  0
 15 16  1  0
 16 17  2  0
 16 18  1  0
 18 19  2  0
 19 20  1  0
 20 21  2  0
 21 22  1  0
 14 23  1  0
 23 24  2  0
  7  2  1  0
 24 11  1  0
 22 18  1  0
  1 25  1  0
  1 26  1  0
  1 27  1  0
  3 28  1  0
  4 29  1  0
  5 30  1  0
  6 31  1  0
  8 32  1  0
 12 33  1  0
 13 34  1  0
 15 35  1  0
 19 36  1  0
 20 37  1  0
 21 38  1  0
 23 39  1  0
 24 40  1  0
M  END
$$$$
