
     RDKit          3D

 60 65  0  0  0  0  0  0  0  0999 V2000
    4.2247    2.1820   -4.3064 O   0  0  0  0  0  0  0  0  0  0  0  0
    3.7377    1.6604   -3.3106 C   0  0  0  0  0  0  0  0  0  0  0  0
    2.7311    2.2739   -2.5732 N   0  0  0  0  0  0  0  0  0  0  0  0
    2.1416    1.7221   -1.4367 C   0  0  0  0  0  0  0  0  0  0  0  0
    1.0325    2.5695   -0.8252 C   0  0  0  0  0  0  0  0  0  0  0  0
   -0.2904    2.2629   -1.5471 C   0  0  0  0  0  0  0  0  0  0  0  0
   -1.1084    1.2215   -0.7918 C   0  0  0  0  0  0  0  0  0  0  0  0
   -1.4572    1.6924    0.5768 N   0  0  0  0  0  0  0  0  0  0  0  0
   -3.0960    2.0972    0.8454 S   0  0  0  0  0  6  0  0  0  0  0  0
   -3.2473    2.4769    2.2332 O   0  0  0  0  0  0  0  0  0  0  0  0
   -3.4963    2.9852   -0.2256 O   0  0  0  0  0  0  0  0  0  0  0  0
   -3.9139    0.5371    0.6356 C   0  0  0  0  0  0  0  0  0  0  0  0
   -3.6794   -0.4797    1.5695 C   0  0  0  0  0  0  0  0  0  0  0  0
   -4.3211   -1.7100    1.4219 C   0  0  0  0  0  0  0  0  0  0  0  0
   -5.1937   -1.9127    0.3527 C   0  0  0  0  0  0  0  0  0  0  0  0
   -5.4070   -0.8961   -0.5882 C   0  0  0  0  0  0  0  0  0  0  0  0
   -4.7837    0.3405   -0.4396 C   0  0  0  0  0  0  0  0  0  0  0  0
   -6.2230   -1.0436   -1.6807 O   0  0  0  0  0  0  0  0  0  0  0  0
   -6.5432   -2.4200   -1.9157 C   0  0  0  0  0  0  0  0  0  0  0  0
   -6.9206   -3.1129   -0.6160 C   0  0  0  0  0  0  0  0  0  0  0  0
   -5.8053   -3.1386    0.2832 O   0  0  0  0  0  0  0  0  0  0  0  0
   -0.5033    2.6663    1.1712 C   0  0  0  0  0  0  0  0  0  0  0  0
    0.9139    2.3794    0.6942 C   0  0  0  0  0  0  0  0  0  0  0  0
    2.4472    0.5486   -0.9560 N   0  0  0  0  0  0  0  0  0  0  0  0
    3.4397   -0.0632   -1.6472 C   0  0  0  0  0  0  0  0  0  0  0  0
    4.1027    0.3818   -2.7650 C   0  0  0  0  0  0  0  0  0  0  0  0
    5.0295   -0.5296   -3.1675 N   0  0  0  0  0  0  0  0  0  0  0  0
    4.9738   -1.5541   -2.3157 N   0  0  0  0  0  0  0  0  0  0  0  0
    4.0275   -1.2677   -1.3871 N   0  0  0  0  0  0  0  0  0  0  0  0
    3.7172   -2.2046   -0.3269 C   0  0  0  0  0  0  0  0  0  0  0  0
    4.3455   -1.7871    0.9798 C   0  0  0  0  0  0  0  0  0  0  0  0
    5.7040   -2.0396    1.2331 C   0  0  0  0  0  0  0  0  0  0  0  0
    6.2908   -1.6369    2.4356 C   0  0  0  0  0  0  0  0  0  0  0  0
    5.5272   -0.9737    3.3948 C   0  0  0  0  0  0  0  0  0  0  0  0
    4.1853   -0.7156    3.1428 C   0  0  0  0  0  0  0  0  0  0  0  0
    3.4530   -0.0694    4.0598 F   0  0  0  0  0  0  0  0  0  0  0  0
    3.5896   -1.1129    1.9503 C   0  0  0  0  0  0  0  0  0  0  0  0
    2.4507    3.1808   -2.9180 H   0  0  0  0  0  0  0  0  0  0  0  0
    1.2781    3.6220   -1.0239 H   0  0  0  0  0  0  0  0  0  0  0  0
   -0.8758    3.1883   -1.6275 H   0  0  0  0  0  0  0  0  0  0  0  0
   -0.1146    1.9161   -2.5723 H   0  0  0  0  0  0  0  0  0  0  0  0
   -0.5487    0.2833   -0.6946 H   0  0  0  0  0  0  0  0  0  0  0  0
   -2.0047    0.9818   -1.3715 H   0  0  0  0  0  0  0  0  0  0  0  0
   -3.0086   -0.3137    2.4099 H   0  0  0  0  0  0  0  0  0  0  0  0
   -4.1535   -2.5046    2.1455 H   0  0  0  0  0  0  0  0  0  0  0  0
   -4.9711    1.1303   -1.1630 H   0  0  0  0  0  0  0  0  0  0  0  0
   -7.3815   -2.4498   -2.6197 H   0  0  0  0  0  0  0  0  0  0  0  0
   -5.6794   -2.9028   -2.3913 H   0  0  0  0  0  0  0  0  0  0  0  0
   -7.2127   -4.1498   -0.8110 H   0  0  0  0  0  0  0  0  0  0  0  0
   -7.7592   -2.6079   -0.1195 H   0  0  0  0  0  0  0  0  0  0  0  0
   -0.7880    3.6917    0.9072 H   0  0  0  0  0  0  0  0  0  0  0  0
   -0.5361    2.5693    2.2620 H   0  0  0  0  0  0  0  0  0  0  0  0
    1.6201    3.0510    1.1973 H   0  0  0  0  0  0  0  0  0  0  0  0
    1.1892    1.3641    1.0030 H   0  0  0  0  0  0  0  0  0  0  0  0
    2.6256   -2.2659   -0.2439 H   0  0  0  0  0  0  0  0  0  0  0  0
    4.0732   -3.1980   -0.6258 H   0  0  0  0  0  0  0  0  0  0  0  0
    6.3177   -2.5457    0.4876 H   0  0  0  0  0  0  0  0  0  0  0  0
    7.3439   -1.8358    2.6196 H   0  0  0  0  0  0  0  0  0  0  0  0
    5.9701   -0.6526    4.3316 H   0  0  0  0  0  0  0  0  0  0  0  0
    2.5405   -0.8819    1.7864 H   0  0  0  0  0  0  0  0  0  0  0  0
  1  2  2  0
  2  3  1  0
  3  4  1  0
  4  5  1  0
  5  6  1  0
  6  7  1  0
  7  8  1  0
  8  9  1  0
  9 10  2  0
  9 11  2  0
  9 12  1  0
 12 13  2  0
 13 14  1  0
 14 15  2  0
 15 16  1  0
 16 17  2  0
 16 18  1  0
 18 19  1  0
 19 20  1  0
 20 21  1  0
  8 22  1  0
 22 23  1  0
  4 24  2  0
 24 25  1  0
 25 26  2  0
 26 27  1  0
 27 28  2  0
 28 29  1  0
 29 30  1  0
 30 31  1  0
 31 32  2  0
 32 33  1  0
 33 34  2  0
 34 35  1  0
 35 36  1  0
 35 37  2  0
 26  2  1  0
 37 31  1  0
 23  5  1  0
 29 25  1  0
 17 12  1  0
 21 15  1  0
  3 38  1  0
  5 39  1  0
  6 40  1  0
  6 41  1  0
  7 42  1  0
  7 43  1  0
 13 44  1  0
 14 45  1  0
 17 46  1  0
 19 47  1  0
 19 48  1  0
 20 49  1  0
 20 50  1  0
 22 51  1  0
 22 52  1  0
 23 53  1  0
 23 54  1  0
 30 55  1  0
 30 56  1  0
 32 57  1  0
 33 58  1  0
 34 59  1  0
 37 60  1  0
M  END
$$$$
