
     RDKit          3D

 47 50  0  0  0  0  0  0  0  0999 V2000
   -5.1558    1.4644    0.7076 N   0  0  0  0  0  0  0  0  0  0  0  0
   -4.8011    2.5090    1.4812 C   0  0  0  0  0  0  0  0  0  0  0  0
   -5.7079    3.3387    1.9969 N   0  0  0  0  0  0  0  0  0  0  0  0
   -4.9878    4.3340    2.6356 O   0  0  0  0  0  0  0  0  0  0  0  0
   -3.6249    4.1109    2.5221 N   0  0  0  0  0  0  0  0  0  0  0  0
   -3.5171    2.9602    1.8449 C   0  0  0  0  0  0  0  0  0  0  0  0
   -2.2016    2.4576    1.6280 N   0  0  0  0  0  0  0  0  0  0  0  0
   -1.1108    3.2620    1.8326 N   0  0  0  0  0  0  0  0  0  0  0  0
   -0.0163    2.6318    1.4516 N   0  0  0  0  0  0  0  0  0  0  0  0
   -0.3637    1.3649    1.0824 C   0  0  0  0  0  0  0  0  0  0  0  0
    0.6303    0.3856    0.6487 C   0  0  0  0  0  0  0  0  0  0  0  0
    0.3319   -0.7679    0.3560 O   0  0  0  0  0  0  0  0  0  0  0  0
    1.9111    0.9173    0.6222 N   0  0  0  0  0  0  0  0  0  0  0  0
    2.9777    0.1547    0.2504 N   0  0  0  0  0  0  0  0  0  0  0  0
    4.1230    0.7583    0.2692 C   0  0  0  0  0  0  0  0  0  0  0  0
    5.3726    0.0676   -0.1071 C   0  0  0  0  0  0  0  0  0  0  0  0
    6.5771    0.7787   -0.0625 C   0  0  0  0  0  0  0  0  0  0  0  0
    7.7717    0.1446   -0.4146 C   0  0  0  0  0  0  0  0  0  0  0  0
    7.7484   -1.1915   -0.8068 C   0  0  0  0  0  0  0  0  0  0  0  0
    8.8902   -1.8478   -1.1582 O   0  0  0  0  0  0  0  0  0  0  0  0
    6.5541   -1.9033   -0.8532 C   0  0  0  0  0  0  0  0  0  0  0  0
    5.3592   -1.2736   -0.5023 C   0  0  0  0  0  0  0  0  0  0  0  0
   -1.7349    1.2050    1.2305 C   0  0  0  0  0  0  0  0  0  0  0  0
   -2.5433   -0.0246    1.0667 C   0  0  0  0  0  0  0  0  0  0  0  0
   -2.9826   -0.0131   -0.2902 O   0  0  0  0  0  0  0  0  0  0  0  0
   -3.5066   -1.1825   -0.7733 C   0  0  0  0  0  0  0  0  0  0  0  0
   -3.9857   -2.2407    0.0035 C   0  0  0  0  0  0  0  0  0  0  0  0
   -4.5251   -3.3715   -0.6166 C   0  0  0  0  0  0  0  0  0  0  0  0
   -4.5880   -3.4346   -2.0038 C   0  0  0  0  0  0  0  0  0  0  0  0
   -5.1085   -4.5190   -2.5924 F   0  0  0  0  0  0  0  0  0  0  0  0
   -4.1242   -2.3858   -2.7865 C   0  0  0  0  0  0  0  0  0  0  0  0
   -3.5863   -1.2565   -2.1683 C   0  0  0  0  0  0  0  0  0  0  0  0
   -6.1293    1.4499    0.4105 H   0  0  0  0  0  0  0  0  0  0  0  0
   -4.5465    1.1624   -0.0527 H   0  0  0  0  0  0  0  0  0  0  0  0
    2.0422    1.8879    0.8940 H   0  0  0  0  0  0  0  0  0  0  0  0
    4.2147    1.8183    0.5683 H   0  0  0  0  0  0  0  0  0  0  0  0
    6.5986    1.8212    0.2432 H   0  0  0  0  0  0  0  0  0  0  0  0
    8.7022    0.7027   -0.3774 H   0  0  0  0  0  0  0  0  0  0  0  0
    9.6414   -1.2373   -1.0812 H   0  0  0  0  0  0  0  0  0  0  0  0
    6.5519   -2.9453   -1.1613 H   0  0  0  0  0  0  0  0  0  0  0  0
    4.4261   -1.8320   -0.5393 H   0  0  0  0  0  0  0  0  0  0  0  0
   -1.9330   -0.9107    1.2747 H   0  0  0  0  0  0  0  0  0  0  0  0
   -3.3875   -0.0408    1.7631 H   0  0  0  0  0  0  0  0  0  0  0  0
   -3.9632   -2.2161    1.0880 H   0  0  0  0  0  0  0  0  0  0  0  0
   -4.8976   -4.2028   -0.0261 H   0  0  0  0  0  0  0  0  0  0  0  0
   -4.1800   -2.4540   -3.8680 H   0  0  0  0  0  0  0  0  0  0  0  0
   -3.2153   -0.4361   -2.7779 H   0  0  0  0  0  0  0  0  0  0  0  0
  1  2  1  0
  2  3  2  0
  3  4  1  0
  4  5  1  0
  5  6  2  0
  6  7  1  0
  7  8  1  0
  8  9  2  0
  9 10  1  0
 10 11  1  0
 11 12  2  0
 11 13  1  0
 13 14  1  0
 14 15  2  3
 15 16  1  0
 16 17  2  0
 17 18  1  0
 18 19  2  0
 19 20  1  0
 19 21  1  0
 21 22  2  0
 10 23  2  0
 23 24  1  0
 24 25  1  0
 25 26  1  0
 26 27  2  0
 27 28  1  0
 28 29  2  0
 29 30  1  0
 29 31  1  0
 31 32  2  0
  6  2  1  0
 23  7  1  0
 32 26  1  0
 22 16  1  0
  1 33  1  0
  1 34  1  0
 13 35  1  0
 15 36  1  0
 17 37  1  0
 18 38  1  0
 20 39  1  0
 21 40  1  0
 22 41  1  0
 24 42  1  0
 24 43  1  0
 27 44  1  0
 28 45  1  0
 31 46  1  0
 32 47  1  0
M  END
$$$$
