
     RDKit          3D

 48 51  0  0  0  0  0  0  0  0999 V2000
    1.9438   -1.6496    3.3107 C   0  0  0  0  0  0  0  0  0  0  0  0
    1.9151   -0.8707    2.0357 C   0  0  0  0  0  0  0  0  0  0  0  0
    0.9943   -0.9040    1.0596 C   0  0  0  0  0  0  0  0  0  0  0  0
   -0.2078   -1.5334    0.8890 N   0  0  0  0  0  0  0  0  0  0  0  0
   -1.0662   -2.0213    1.8467 C   0  0  0  0  0  0  0  0  0  0  0  0
   -0.8730   -1.9493    3.0621 O   0  0  0  0  0  0  0  0  0  0  0  0
   -2.3089   -2.7353    1.3245 C   0  0  0  0  0  0  0  0  0  0  0  0
   -2.7186   -2.4227   -0.4238 S   0  0  0  0  0  0  0  0  0  0  0  0
   -3.4634   -0.7921   -0.3003 C   0  0  0  0  0  0  0  0  0  0  0  0
   -2.9581   -0.0154    0.6748 N   0  0  0  0  0  0  0  0  0  0  0  0
   -3.4656    1.2146    0.7684 C   0  0  0  0  0  0  0  0  0  0  0  0
   -4.4163    1.7327   -0.0136 N   0  0  0  0  0  0  0  0  0  0  0  0
   -4.9017    0.9496   -0.9841 C   0  0  0  0  0  0  0  0  0  0  0  0
   -5.8886    1.4644   -1.8181 C   0  0  0  0  0  0  0  0  0  0  0  0
   -6.4515    0.7134   -2.8534 C   0  0  0  0  0  0  0  0  0  0  0  0
   -6.0247   -0.5885   -3.0694 C   0  0  0  0  0  0  0  0  0  0  0  0
   -5.0361   -1.1276   -2.2484 C   0  0  0  0  0  0  0  0  0  0  0  0
   -4.4604   -0.3637   -1.1946 C   0  0  0  0  0  0  0  0  0  0  0  0
    1.5412   -0.0476   -0.0415 C   0  0  0  0  0  0  0  0  0  0  0  0
    0.9690    0.0746   -1.1150 O   0  0  0  0  0  0  0  0  0  0  0  0
    2.7636    0.4548    0.4114 N   0  0  0  0  0  0  0  0  0  0  0  0
    3.8222    0.9307   -0.4041 C   0  0  0  0  0  0  0  0  0  0  0  0
    3.5640    1.4940   -1.6617 C   0  0  0  0  0  0  0  0  0  0  0  0
    4.6045    1.9762   -2.4649 C   0  0  0  0  0  0  0  0  0  0  0  0
    5.9218    1.8961   -2.0242 C   0  0  0  0  0  0  0  0  0  0  0  0
    6.2007    1.3292   -0.7841 C   0  0  0  0  0  0  0  0  0  0  0  0
    5.1588    0.8490    0.0171 C   0  0  0  0  0  0  0  0  0  0  0  0
    2.9938   -0.0121    1.7395 N   0  0  0  0  0  0  0  0  0  0  0  0
    3.2585    1.0746    2.7027 C   0  0  0  0  0  0  0  0  0  0  0  0
    2.9770   -1.8599    3.6041 H   0  0  0  0  0  0  0  0  0  0  0  0
    1.4707   -1.0890    4.1201 H   0  0  0  0  0  0  0  0  0  0  0  0
    1.4581   -2.6231    3.2059 H   0  0  0  0  0  0  0  0  0  0  0  0
   -0.6170   -1.4014   -0.0368 H   0  0  0  0  0  0  0  0  0  0  0  0
   -3.1649   -2.4721    1.9554 H   0  0  0  0  0  0  0  0  0  0  0  0
   -2.1293   -3.8110    1.4326 H   0  0  0  0  0  0  0  0  0  0  0  0
   -3.0709    1.8538    1.5507 H   0  0  0  0  0  0  0  0  0  0  0  0
   -6.2301    2.4846   -1.6570 H   0  0  0  0  0  0  0  0  0  0  0  0
   -7.2213    1.1500   -3.4848 H   0  0  0  0  0  0  0  0  0  0  0  0
   -6.4562   -1.1831   -3.8701 H   0  0  0  0  0  0  0  0  0  0  0  0
   -4.7159   -2.1507   -2.4323 H   0  0  0  0  0  0  0  0  0  0  0  0
    2.5476    1.5881   -2.0375 H   0  0  0  0  0  0  0  0  0  0  0  0
    4.3780    2.4144   -3.4339 H   0  0  0  0  0  0  0  0  0  0  0  0
    6.7295    2.2693   -2.6495 H   0  0  0  0  0  0  0  0  0  0  0  0
    7.2287    1.2508   -0.4390 H   0  0  0  0  0  0  0  0  0  0  0  0
    5.4144    0.3812    0.9646 H   0  0  0  0  0  0  0  0  0  0  0  0
    4.0768    1.7229    2.3747 H   0  0  0  0  0  0  0  0  0  0  0  0
    2.3666    1.6967    2.8420 H   0  0  0  0  0  0  0  0  0  0  0  0
    3.5479    0.6578    3.6741 H   0  0  0  0  0  0  0  0  0  0  0  0
  1  2  1  0
  2  3  2  0
  3  4  1  0
  4  5  1  0
  5  6  2  0
  5  7  1  0
  7  8  1  0
  8  9  1  0
  9 10  2  0
 10 11  1  0
 11 12  2  0
 12 13  1  0
 13 14  2  0
 14 15  1  0
 15 16  2  0
 16 17  1  0
 17 18  2  0
  3 19  1  0
 19 20  2  0
 19 21  1  0
 21 22  1  0
 22 23  2  0
 23 24  1  0
 24 25  2  0
 25 26  1  0
 26 27  2  0
 21 28  1  0
 28 29  1  0
 28  2  1  0
 18  9  1  0
 27 22  1  0
 18 13  1  0
  1 30  1  0
  1 31  1  0
  1 32  1  0
  4 33  1  0
  7 34  1  0
  7 35  1  0
 11 36  1  0
 14 37  1  0
 15 38  1  0
 16 39  1  0
 17 40  1  0
 23 41  1  0
 24 42  1  0
 25 43  1  0
 26 44  1  0
 27 45  1  0
 29 46  1  0
 29 47  1  0
 29 48  1  0
M  END
$$$$
