
     RDKit          3D

 43 46  0  0  0  0  0  0  0  0999 V2000
   -1.6372   -2.3269    0.9897 O   0  0  0  0  0  0  0  0  0  0  0  0
   -1.9349   -1.2750    0.4373 C   0  0  0  0  0  0  0  0  0  0  0  0
   -1.0659   -0.3306   -0.0787 N   0  0  0  0  0  0  0  0  0  0  0  0
    0.3422   -0.3363   -0.0088 C   0  0  0  0  0  0  0  0  0  0  0  0
    1.0220    0.6864   -0.6784 C   0  0  0  0  0  0  0  0  0  0  0  0
    2.4215    0.7585   -0.6545 C   0  0  0  0  0  0  0  0  0  0  0  0
    3.1656   -0.1913    0.0420 C   0  0  0  0  0  0  0  0  0  0  0  0
    4.5711   -0.1979    0.1200 N   0  0  0  0  0  0  0  0  0  0  0  0
    5.4707    0.6912   -0.4449 C   0  0  0  0  0  0  0  0  0  0  0  0
    5.1520    1.6618   -1.1262 O   0  0  0  0  0  0  0  0  0  0  0  0
    6.8780    0.3928   -0.1689 C   0  0  0  0  0  0  0  0  0  0  0  0
    7.9742    1.1145   -0.6094 C   0  0  0  0  0  0  0  0  0  0  0  0
    9.2119    0.5640   -0.1688 C   0  0  0  0  0  0  0  0  0  0  0  0
    9.0268   -0.5642    0.5970 C   0  0  0  0  0  0  0  0  0  0  0  0
    7.3720   -0.9506    0.7791 S   0  0  0  0  0  0  0  0  0  0  0  0
    2.4852   -1.2121    0.7142 C   0  0  0  0  0  0  0  0  0  0  0  0
    1.0860   -1.2838    0.6907 C   0  0  0  0  0  0  0  0  0  0  0  0
   -3.3788   -0.9640    0.2439 C   0  0  0  0  0  0  0  0  0  0  0  0
   -4.2567   -2.0158   -0.0301 C   0  0  0  0  0  0  0  0  0  0  0  0
   -5.6158   -1.7603   -0.2223 C   0  0  0  0  0  0  0  0  0  0  0  0
   -6.1182   -0.4528   -0.1312 C   0  0  0  0  0  0  0  0  0  0  0  0
   -7.4821   -0.1812   -0.3223 C   0  0  0  0  0  0  0  0  0  0  0  0
   -7.9712    1.1219   -0.2190 C   0  0  0  0  0  0  0  0  0  0  0  0
   -7.1043    2.1690    0.0786 C   0  0  0  0  0  0  0  0  0  0  0  0
   -5.7451    1.9167    0.2716 C   0  0  0  0  0  0  0  0  0  0  0  0
   -5.2353    0.6122    0.1672 C   0  0  0  0  0  0  0  0  0  0  0  0
   -3.8694    0.3439    0.3574 C   0  0  0  0  0  0  0  0  0  0  0  0
   -1.4725    0.4157   -0.6278 H   0  0  0  0  0  0  0  0  0  0  0  0
    0.4795    1.4468   -1.2344 H   0  0  0  0  0  0  0  0  0  0  0  0
    2.8937    1.5730   -1.1945 H   0  0  0  0  0  0  0  0  0  0  0  0
    4.9875   -0.9483    0.6576 H   0  0  0  0  0  0  0  0  0  0  0  0
    7.8818    2.0031   -1.2247 H   0  0  0  0  0  0  0  0  0  0  0  0
   10.1864    0.9755   -0.4025 H   0  0  0  0  0  0  0  0  0  0  0  0
    9.7852   -1.1816    1.0593 H   0  0  0  0  0  0  0  0  0  0  0  0
    3.0271   -1.9726    1.2711 H   0  0  0  0  0  0  0  0  0  0  0  0
    0.6102   -2.0938    1.2348 H   0  0  0  0  0  0  0  0  0  0  0  0
   -3.8841   -3.0362   -0.0971 H   0  0  0  0  0  0  0  0  0  0  0  0
   -6.2812   -2.5933   -0.4396 H   0  0  0  0  0  0  0  0  0  0  0  0
   -8.1771   -0.9863   -0.5512 H   0  0  0  0  0  0  0  0  0  0  0  0
   -9.0301    1.3174   -0.3680 H   0  0  0  0  0  0  0  0  0  0  0  0
   -7.4859    3.1834    0.1624 H   0  0  0  0  0  0  0  0  0  0  0  0
   -5.0868    2.7505    0.5059 H   0  0  0  0  0  0  0  0  0  0  0  0
   -3.1981    1.1567    0.6234 H   0  0  0  0  0  0  0  0  0  0  0  0
  1  2  2  0
  2  3  1  0
  3  4  1  0
  4  5  2  0
  5  6  1  0
  6  7  2  0
  7  8  1  0
  8  9  1  0
  9 10  2  0
  9 11  1  0
 11 12  2  0
 12 13  1  0
 13 14  2  0
 14 15  1  0
  7 16  1  0
 16 17  2  0
  2 18  1  0
 18 19  2  0
 19 20  1  0
 20 21  2  0
 21 22  1  0
 22 23  2  0
 23 24  1  0
 24 25  2  0
 25 26  1  0
 26 27  2  0
 17  4  1  0
 27 18  1  0
 15 11  1  0
 26 21  1  0
  3 28  1  0
  5 29  1  0
  6 30  1  0
  8 31  1  0
 12 32  1  0
 13 33  1  0
 14 34  1  0
 16 35  1  0
 17 36  1  0
 19 37  1  0
 20 38  1  0
 22 39  1  0
 23 40  1  0
 24 41  1  0
 25 42  1  0
 27 43  1  0
M  END
$$$$
