
     RDKit          3D

 54 57  0  0  0  0  0  0  0  0999 V2000
    6.6707    0.8830    3.1025 C   0  0  0  0  0  0  0  0  0  0  0  0
    6.9941   -0.1717    2.0400 C   0  0  0  0  0  0  0  0  0  0  0  0
    8.2160    0.2432    1.2155 C   0  0  0  0  0  0  0  0  0  0  0  0
    5.8015   -0.4602    1.1462 C   0  0  0  0  0  0  0  0  0  0  0  0
    5.2978   -1.7643    1.0555 C   0  0  0  0  0  0  0  0  0  0  0  0
    4.2048   -2.0604    0.2317 C   0  0  0  0  0  0  0  0  0  0  0  0
    3.5911   -1.0574   -0.5154 C   0  0  0  0  0  0  0  0  0  0  0  0
    2.4917   -1.2681   -1.3691 N   0  0  0  0  0  0  0  0  0  0  0  0
    1.7786   -2.4373   -1.5666 C   0  0  0  0  0  0  0  0  0  0  0  0
    1.9675   -3.5136   -1.0056 O   0  0  0  0  0  0  0  0  0  0  0  0
    0.6627   -2.2842   -2.6087 C   0  0  0  0  0  0  0  0  0  0  0  0
   -0.5050   -1.6222   -2.1179 O   0  0  0  0  0  0  0  0  0  0  0  0
   -0.4208   -0.2741   -2.0403 C   0  0  0  0  0  0  0  0  0  0  0  0
    0.5595    0.3938   -2.3385 O   0  0  0  0  0  0  0  0  0  0  0  0
   -1.6839    0.3053   -1.5096 C   0  0  0  0  0  0  0  0  0  0  0  0
   -1.7310    1.6822   -1.2636 C   0  0  0  0  0  0  0  0  0  0  0  0
   -2.8964    2.2724   -0.7587 C   0  0  0  0  0  0  0  0  0  0  0  0
   -4.0384    1.5004   -0.4925 C   0  0  0  0  0  0  0  0  0  0  0  0
   -3.9798    0.1381   -0.7471 C   0  0  0  0  0  0  0  0  0  0  0  0
   -2.8177   -0.4706   -1.2503 C   0  0  0  0  0  0  0  0  0  0  0  0
   -5.3711   -0.8784   -0.4507 S   0  0  0  0  0  6  0  0  0  0  0  0
   -4.9852   -1.7907    0.6062 O   0  0  0  0  0  0  0  0  0  0  0  0
   -5.8071   -1.3491   -1.7493 O   0  0  0  0  0  0  0  0  0  0  0  0
   -6.6676    0.1036    0.1861 C   0  0  0  0  0  0  0  0  0  0  0  0
   -7.8768   -0.5298    0.5067 C   0  0  0  0  0  0  0  0  0  0  0  0
   -8.9324    0.2180    1.0211 C   0  0  0  0  0  0  0  0  0  0  0  0
   -8.7781    1.5892    1.2124 C   0  0  0  0  0  0  0  0  0  0  0  0
   -7.5678    2.2104    0.8880 C   0  0  0  0  0  0  0  0  0  0  0  0
   -6.4941    1.4684    0.3685 C   0  0  0  0  0  0  0  0  0  0  0  0
   -5.2379    2.1851    0.0455 C   0  0  0  0  0  0  0  0  0  0  0  0
   -5.1849    3.3988    0.2336 O   0  0  0  0  0  0  0  0  0  0  0  0
    4.0915    0.2460   -0.4320 C   0  0  0  0  0  0  0  0  0  0  0  0
    5.1848    0.5426    0.3882 C   0  0  0  0  0  0  0  0  0  0  0  0
    6.4735    1.8668    2.6600 H   0  0  0  0  0  0  0  0  0  0  0  0
    7.5101    0.9964    3.7974 H   0  0  0  0  0  0  0  0  0  0  0  0
    5.7878    0.5970    3.6873 H   0  0  0  0  0  0  0  0  0  0  0  0
    7.2598   -1.0937    2.5754 H   0  0  0  0  0  0  0  0  0  0  0  0
    8.0550    1.1955    0.6957 H   0  0  0  0  0  0  0  0  0  0  0  0
    9.0935    0.3607    1.8606 H   0  0  0  0  0  0  0  0  0  0  0  0
    8.4540   -0.5135    0.4579 H   0  0  0  0  0  0  0  0  0  0  0  0
    5.7533   -2.5721    1.6246 H   0  0  0  0  0  0  0  0  0  0  0  0
    3.8631   -3.0892    0.1955 H   0  0  0  0  0  0  0  0  0  0  0  0
    2.1336   -0.4403   -1.8472 H   0  0  0  0  0  0  0  0  0  0  0  0
    0.3577   -3.2889   -2.9211 H   0  0  0  0  0  0  0  0  0  0  0  0
    1.0502   -1.7888   -3.5073 H   0  0  0  0  0  0  0  0  0  0  0  0
   -0.8606    2.3078   -1.4585 H   0  0  0  0  0  0  0  0  0  0  0  0
   -2.9024    3.3472   -0.5739 H   0  0  0  0  0  0  0  0  0  0  0  0
   -2.8131   -1.5440   -1.4335 H   0  0  0  0  0  0  0  0  0  0  0  0
   -7.9965   -1.6020    0.3574 H   0  0  0  0  0  0  0  0  0  0  0  0
   -9.8738   -0.2665    1.2735 H   0  0  0  0  0  0  0  0  0  0  0  0
   -9.5993    2.1782    1.6149 H   0  0  0  0  0  0  0  0  0  0  0  0
   -7.4700    3.2843    1.0470 H   0  0  0  0  0  0  0  0  0  0  0  0
    3.6369    1.0510   -1.0034 H   0  0  0  0  0  0  0  0  0  0  0  0
    5.5510    1.5656    0.4243 H   0  0  0  0  0  0  0  0  0  0  0  0
  1  2  1  0
  2  3  1  0
  2  4  1  0
  4  5  2  0
  5  6  1  0
  6  7  2  0
  7  8  1  0
  8  9  1  0
  9 10  2  0
  9 11  1  0
 11 12  1  0
 12 13  1  0
 13 14  2  0
 13 15  1  0
 15 16  2  0
 16 17  1  0
 17 18  2  0
 18 19  1  0
 19 20  2  0
 19 21  1  0
 21 22  2  0
 21 23  2  0
 21 24  1  0
 24 25  2  0
 25 26  1  0
 26 27  2  0
 27 28  1  0
 28 29  2  0
 29 30  1  0
 30 31  2  0
  7 32  1  0
 32 33  2  0
 33  4  1  0
 20 15  1  0
 29 24  1  0
 30 18  1  0
  1 34  1  0
  1 35  1  0
  1 36  1  0
  2 37  1  0
  3 38  1  0
  3 39  1  0
  3 40  1  0
  5 41  1  0
  6 42  1  0
  8 43  1  0
 11 44  1  0
 11 45  1  0
 16 46  1  0
 17 47  1  0
 20 48  1  0
 25 49  1  0
 26 50  1  0
 27 51  1  0
 28 52  1  0
 32 53  1  0
 33 54  1  0
M  END
$$$$
