
     RDKit          3D

 61 66  0  0  0  0  0  0  0  0999 V2000
   -3.8531   -2.3332    1.2066 C   0  0  0  0  0  0  0  0  0  0  0  0
   -3.6605   -1.0836    0.3416 C   0  0  0  0  0  0  0  0  0  0  0  0
   -4.9091   -0.8283   -0.5100 C   0  0  0  0  0  0  0  0  0  0  0  0
   -2.3943   -1.1969   -0.5023 C   0  0  0  0  0  0  0  0  0  0  0  0
   -2.3483   -2.1608   -1.5303 C   0  0  0  0  0  0  0  0  0  0  0  0
   -1.1868   -2.3895   -2.2727 C   0  0  0  0  0  0  0  0  0  0  0  0
   -0.0323   -1.6658   -2.0031 C   0  0  0  0  0  0  0  0  0  0  0  0
   -0.0415   -0.7056   -0.9968 C   0  0  0  0  0  0  0  0  0  0  0  0
   -1.2130   -0.4637   -0.2555 C   0  0  0  0  0  0  0  0  0  0  0  0
   -1.1502    0.5553    0.7261 N   0  0  0  0  0  0  0  0  0  0  0  0
   -0.3118    0.6215    1.8212 C   0  0  0  0  0  0  0  0  0  0  0  0
    0.7996   -0.6211    2.2942 S   0  0  0  0  0  0  0  0  0  0  0  0
    2.2071    0.3843    2.8557 C   0  0  0  0  0  0  0  0  0  0  0  0
    2.8458    1.1615    1.7282 C   0  0  0  0  0  0  0  0  0  0  0  0
    2.7267    2.5014    1.7949 C   0  0  0  0  0  0  0  0  0  0  0  0
    3.1690    3.4304    0.7576 C   0  0  0  0  0  0  0  0  0  0  0  0
    3.1275    4.6422    0.9202 O   0  0  0  0  0  0  0  0  0  0  0  0
    3.5794    2.8506   -0.4176 O   0  0  0  0  0  0  0  0  0  0  0  0
    3.7988    1.4606   -0.5119 C   0  0  0  0  0  0  0  0  0  0  0  0
    4.3291    1.0764   -1.7395 C   0  0  0  0  0  0  0  0  0  0  0  0
    4.6426   -0.2510   -1.9539 C   0  0  0  0  0  0  0  0  0  0  0  0
    4.4651   -1.1922   -0.9392 C   0  0  0  0  0  0  0  0  0  0  0  0
    4.8434   -2.5161   -1.2182 C   0  0  0  0  0  0  0  0  0  0  0  0
    4.7375   -3.5136   -0.2593 C   0  0  0  0  0  0  0  0  0  0  0  0
    4.2625   -3.1890    0.9970 C   0  0  0  0  0  0  0  0  0  0  0  0
    3.8822   -1.8715    1.2848 C   0  0  0  0  0  0  0  0  0  0  0  0
    3.9343   -0.8143    0.3359 C   0  0  0  0  0  0  0  0  0  0  0  0
    3.5381    0.5615    0.5427 C   0  0  0  0  0  0  0  0  0  0  0  0
   -0.5359    1.7180    2.5045 N   0  0  0  0  0  0  0  0  0  0  0  0
   -1.5116    2.4197    1.8504 N   0  0  0  0  0  0  0  0  0  0  0  0
   -1.8521    1.7586    0.7551 C   0  0  0  0  0  0  0  0  0  0  0  0
   -2.7864    2.2644   -0.2464 C   0  0  0  0  0  0  0  0  0  0  0  0
   -2.5399    2.2061   -1.6208 C   0  0  0  0  0  0  0  0  0  0  0  0
   -3.4742    2.7250   -2.5161 C   0  0  0  0  0  0  0  0  0  0  0  0
   -4.6307    3.2927   -2.0076 C   0  0  0  0  0  0  0  0  0  0  0  0
   -4.9023    3.3808   -0.6893 N   0  0  0  0  0  0  0  0  0  0  0  0
   -3.9684    2.8814    0.1577 C   0  0  0  0  0  0  0  0  0  0  0  0
   -4.7411   -2.2293    1.8388 H   0  0  0  0  0  0  0  0  0  0  0  0
   -3.9824   -3.2360    0.6001 H   0  0  0  0  0  0  0  0  0  0  0  0
   -2.9928   -2.4931    1.8639 H   0  0  0  0  0  0  0  0  0  0  0  0
   -3.5781   -0.2439    1.0359 H   0  0  0  0  0  0  0  0  0  0  0  0
   -5.1696   -1.6919   -1.1307 H   0  0  0  0  0  0  0  0  0  0  0  0
   -5.7716   -0.6164    0.1313 H   0  0  0  0  0  0  0  0  0  0  0  0
   -4.7684    0.0278   -1.1756 H   0  0  0  0  0  0  0  0  0  0  0  0
   -3.2219   -2.7734   -1.7501 H   0  0  0  0  0  0  0  0  0  0  0  0
   -1.1833   -3.1473   -3.0522 H   0  0  0  0  0  0  0  0  0  0  0  0
    0.8757   -1.8498   -2.5714 H   0  0  0  0  0  0  0  0  0  0  0  0
    0.8683   -0.1371   -0.8185 H   0  0  0  0  0  0  0  0  0  0  0  0
    1.8260    1.0544    3.6375 H   0  0  0  0  0  0  0  0  0  0  0  0
    2.9442   -0.2233    3.3834 H   0  0  0  0  0  0  0  0  0  0  0  0
    2.2329    2.9960    2.6266 H   0  0  0  0  0  0  0  0  0  0  0  0
    4.5056    1.8138   -2.5182 H   0  0  0  0  0  0  0  0  0  0  0  0
    5.0607   -0.5375   -2.9180 H   0  0  0  0  0  0  0  0  0  0  0  0
    5.2413   -2.7848   -2.1963 H   0  0  0  0  0  0  0  0  0  0  0  0
    5.0379   -4.5317   -0.4891 H   0  0  0  0  0  0  0  0  0  0  0  0
    4.1905   -3.9537    1.7670 H   0  0  0  0  0  0  0  0  0  0  0  0
    3.5595   -1.7115    2.3022 H   0  0  0  0  0  0  0  0  0  0  0  0
   -1.6208    1.7786   -2.0116 H   0  0  0  0  0  0  0  0  0  0  0  0
   -3.2991    2.6938   -3.5852 H   0  0  0  0  0  0  0  0  0  0  0  0
   -5.3872    3.7103   -2.6661 H   0  0  0  0  0  0  0  0  0  0  0  0
   -4.2125    2.9900    1.2122 H   0  0  0  0  0  0  0  0  0  0  0  0
  1  2  1  0
  2  3  1  0
  2  4  1  0
  4  5  2  0
  5  6  1  0
  6  7  2  0
  7  8  1  0
  8  9  2  0
  9 10  1  0
 10 11  1  0
 11 12  1  0
 12 13  1  0
 13 14  1  0
 14 15  2  0
 15 16  1  0
 16 17  2  0
 16 18  1  0
 18 19  1  0
 19 20  2  0
 20 21  1  0
 21 22  2  0
 22 23  1  0
 23 24  2  0
 24 25  1  0
 25 26  2  0
 26 27  1  0
 27 28  2  0
 11 29  2  0
 29 30  1  0
 30 31  2  0
 31 32  1  0
 32 33  2  0
 33 34  1  0
 34 35  2  0
 35 36  1  0
 36 37  2  0
  9  4  1  0
 31 10  1  0
 37 32  1  0
 28 14  1  0
 28 19  1  0
 27 22  1  0
  1 38  1  0
  1 39  1  0
  1 40  1  0
  2 41  1  0
  3 42  1  0
  3 43  1  0
  3 44  1  0
  5 45  1  0
  6 46  1  0
  7 47  1  0
  8 48  1  0
 13 49  1  0
 13 50  1  0
 15 51  1  0
 20 52  1  0
 21 53  1  0
 23 54  1  0
 24 55  1  0
 25 56  1  0
 26 57  1  0
 33 58  1  0
 34 59  1  0
 35 60  1  0
 37 61  1  0
M  END
$$$$
