
     RDKit          3D

 36 37  0  0  0  0  0  0  0  0999 V2000
   -0.8281   -0.1237   -0.3439 O   0  0  0  0  0  0  0  0  0  0  0  0
   -0.9938    0.2433    0.8189 C   0  0  0  0  0  0  0  0  0  0  0  0
    0.1195    0.7733    1.7180 C   0  0  0  0  0  0  0  0  0  0  0  0
    1.3567    0.8042    1.0099 O   0  0  0  0  0  0  0  0  0  0  0  0
    2.3989    1.2426    1.7511 C   0  0  0  0  0  0  0  0  0  0  0  0
    2.3420    1.5916    2.9190 O   0  0  0  0  0  0  0  0  0  0  0  0
    3.6507    1.2463    0.9491 C   0  0  0  0  0  0  0  0  0  0  0  0
    4.8361    1.6440    1.5823 C   0  0  0  0  0  0  0  0  0  0  0  0
    6.0326    1.6620    0.8674 C   0  0  0  0  0  0  0  0  0  0  0  0
    7.4852    2.1487    1.6510 Cl  0  0  0  0  0  0  0  0  0  0  0  0
    6.0645    1.2896   -0.4740 C   0  0  0  0  0  0  0  0  0  0  0  0
    4.8845    0.8956   -1.1006 C   0  0  0  0  0  0  0  0  0  0  0  0
    4.9162    0.4364   -2.7589 Cl  0  0  0  0  0  0  0  0  0  0  0  0
    3.6779    0.8692   -0.4004 C   0  0  0  0  0  0  0  0  0  0  0  0
   -2.2338    0.1874    1.4284 N   0  0  0  0  0  0  0  0  0  0  0  0
   -3.4136   -0.1608    0.6545 C   0  0  0  0  0  0  0  0  0  0  0  0
   -3.4142   -1.6212    0.1739 C   0  0  0  0  0  0  0  0  0  0  0  0
   -3.9374   -1.7457   -1.1707 N   0  0  0  0  0  0  0  0  0  0  0  0
   -3.1802   -1.7766   -2.3179 C   0  0  0  0  0  0  0  0  0  0  0  0
   -1.8213   -1.6745   -2.2921 O   0  0  0  0  0  0  0  0  0  0  0  0
   -3.8869   -1.9155   -3.4433 C   0  0  0  0  0  0  0  0  0  0  0  0
   -5.5915   -1.9847   -3.1224 S   0  0  0  0  0  0  0  0  0  0  0  0
   -5.3076   -1.8141   -1.3829 C   0  0  0  0  0  0  0  0  0  0  0  0
   -6.1946   -1.7531   -0.5465 O   0  0  0  0  0  0  0  0  0  0  0  0
   -0.1521    1.7868    2.0350 H   0  0  0  0  0  0  0  0  0  0  0  0
    0.2014    0.1074    2.5849 H   0  0  0  0  0  0  0  0  0  0  0  0
    4.8256    1.9379    2.6308 H   0  0  0  0  0  0  0  0  0  0  0  0
    7.0003    1.3065   -1.0267 H   0  0  0  0  0  0  0  0  0  0  0  0
    2.7700    0.5567   -0.9125 H   0  0  0  0  0  0  0  0  0  0  0  0
   -2.3667    0.6507    2.3203 H   0  0  0  0  0  0  0  0  0  0  0  0
   -3.4627    0.5380   -0.1894 H   0  0  0  0  0  0  0  0  0  0  0  0
   -4.2874    0.0263    1.2883 H   0  0  0  0  0  0  0  0  0  0  0  0
   -4.0506   -2.2076    0.8492 H   0  0  0  0  0  0  0  0  0  0  0  0
   -2.4249   -2.0891    0.2209 H   0  0  0  0  0  0  0  0  0  0  0  0
   -1.5484   -1.1147   -1.5332 H   0  0  0  0  0  0  0  0  0  0  0  0
   -3.4661   -1.9632   -4.4373 H   0  0  0  0  0  0  0  0  0  0  0  0
  1  2  2  0
  2  3  1  0
  3  4  1  0
  4  5  1  0
  5  6  2  0
  5  7  1  0
  7  8  2  0
  8  9  1  0
  9 10  1  0
  9 11  2  0
 11 12  1  0
 12 13  1  0
 12 14  2  0
  2 15  1  0
 15 16  1  0
 16 17  1  0
 17 18  1  0
 18 19  1  0
 19 20  1  0
 19 21  2  0
 21 22  1  0
 22 23  1  0
 23 24  2  0
 14  7  1  0
 23 18  1  0
  3 25  1  0
  3 26  1  0
  8 27  1  0
 11 28  1  0
 14 29  1  0
 15 30  1  0
 16 31  1  0
 16 32  1  0
 17 33  1  0
 17 34  1  0
 20 35  1  0
 21 36  1  0
M  END
$$$$
