
     RDKit          3D

 57 60  0  0  0  0  0  0  0  0999 V2000
   -6.7789    2.5770    2.1969 C   0  0  0  0  0  0  0  0  0  0  0  0
   -6.1126    1.3721    2.5344 O   0  0  0  0  0  0  0  0  0  0  0  0
   -5.2027    0.8860    1.6359 C   0  0  0  0  0  0  0  0  0  0  0  0
   -4.5160   -0.2491    2.0667 C   0  0  0  0  0  0  0  0  0  0  0  0
   -3.5514   -0.8555    1.2592 C   0  0  0  0  0  0  0  0  0  0  0  0
   -3.2714   -0.3319   -0.0002 C   0  0  0  0  0  0  0  0  0  0  0  0
   -2.3181   -0.8789   -0.8867 N   0  0  0  0  0  0  0  0  0  0  0  0
   -1.4900   -1.9683   -0.6924 C   0  0  0  0  0  0  0  0  0  0  0  0
   -1.4366   -2.6635    0.3177 O   0  0  0  0  0  0  0  0  0  0  0  0
   -0.5910   -2.2449   -1.8814 C   0  0  0  0  0  0  0  0  0  0  0  0
    0.7186   -1.6383   -1.7102 N   0  0  0  0  0  0  0  0  0  0  0  0
    1.0021   -0.3346   -2.0205 C   0  0  0  0  0  0  0  0  0  0  0  0
    2.3417   -0.1203   -1.7663 C   0  0  0  0  0  0  0  0  0  0  0  0
    3.1506    1.3965   -1.9525 S   0  0  0  0  0  6  0  0  0  0  0  0
    4.5394    1.0889   -2.2258 O   0  0  0  0  0  0  0  0  0  0  0  0
    2.3425    2.1028   -2.9324 O   0  0  0  0  0  0  0  0  0  0  0  0
    2.9694    2.2318   -0.3869 C   0  0  0  0  0  0  0  0  0  0  0  0
    3.6117    1.4728    0.7410 C   0  0  0  0  0  0  0  0  0  0  0  0
    2.8361    0.6804    1.6018 C   0  0  0  0  0  0  0  0  0  0  0  0
    3.4353   -0.0329    2.6411 C   0  0  0  0  0  0  0  0  0  0  0  0
    4.8112    0.0447    2.8379 C   0  0  0  0  0  0  0  0  0  0  0  0
    5.5903    0.8367    1.9961 C   0  0  0  0  0  0  0  0  0  0  0  0
    4.9950    1.5486    0.9533 C   0  0  0  0  0  0  0  0  0  0  0  0
    2.9015   -1.3455   -1.3040 C   0  0  0  0  0  0  0  0  0  0  0  0
    4.1875   -1.7646   -0.9020 C   0  0  0  0  0  0  0  0  0  0  0  0
    4.3898   -3.0734   -0.4571 C   0  0  0  0  0  0  0  0  0  0  0  0
    3.3319   -3.9717   -0.4036 C   0  0  0  0  0  0  0  0  0  0  0  0
    2.0483   -3.5910   -0.7991 C   0  0  0  0  0  0  0  0  0  0  0  0
    1.8538   -2.2765   -1.2547 C   0  0  0  0  0  0  0  0  0  0  0  0
   -3.9697    0.8097   -0.4485 C   0  0  0  0  0  0  0  0  0  0  0  0
   -3.6206    1.2485   -1.7072 O   0  0  0  0  0  0  0  0  0  0  0  0
   -4.4192    2.2776   -2.2803 C   0  0  0  0  0  0  0  0  0  0  0  0
   -4.9265    1.4170    0.3740 C   0  0  0  0  0  0  0  0  0  0  0  0
   -6.0672    3.3970    2.0634 H   0  0  0  0  0  0  0  0  0  0  0  0
   -7.4004    2.4442    1.3074 H   0  0  0  0  0  0  0  0  0  0  0  0
   -7.4403    2.8399    3.0322 H   0  0  0  0  0  0  0  0  0  0  0  0
   -4.7288   -0.6660    3.0484 H   0  0  0  0  0  0  0  0  0  0  0  0
   -3.0430   -1.7307    1.6455 H   0  0  0  0  0  0  0  0  0  0  0  0
   -2.2501   -0.3641   -1.7601 H   0  0  0  0  0  0  0  0  0  0  0  0
   -1.0241   -1.8521   -2.8062 H   0  0  0  0  0  0  0  0  0  0  0  0
   -0.4806   -3.3240   -2.0137 H   0  0  0  0  0  0  0  0  0  0  0  0
    0.2456    0.3414   -2.3983 H   0  0  0  0  0  0  0  0  0  0  0  0
    1.9011    2.3858   -0.2078 H   0  0  0  0  0  0  0  0  0  0  0  0
    3.4283    3.2191   -0.4950 H   0  0  0  0  0  0  0  0  0  0  0  0
    1.7602    0.5947    1.4654 H   0  0  0  0  0  0  0  0  0  0  0  0
    2.8283   -0.6578    3.2929 H   0  0  0  0  0  0  0  0  0  0  0  0
    5.2754   -0.5170    3.6446 H   0  0  0  0  0  0  0  0  0  0  0  0
    6.6647    0.8943    2.1465 H   0  0  0  0  0  0  0  0  0  0  0  0
    5.6242    2.1517    0.2992 H   0  0  0  0  0  0  0  0  0  0  0  0
    5.0290   -1.0775   -0.9286 H   0  0  0  0  0  0  0  0  0  0  0  0
    5.3836   -3.3834   -0.1465 H   0  0  0  0  0  0  0  0  0  0  0  0
    3.5032   -4.9840   -0.0471 H   0  0  0  0  0  0  0  0  0  0  0  0
    1.2290   -4.3013   -0.7397 H   0  0  0  0  0  0  0  0  0  0  0  0
   -5.4771    1.9906   -2.3146 H   0  0  0  0  0  0  0  0  0  0  0  0
   -4.0829    2.4245   -3.3105 H   0  0  0  0  0  0  0  0  0  0  0  0
   -4.2812    3.2228   -1.7471 H   0  0  0  0  0  0  0  0  0  0  0  0
   -5.4491    2.3017    0.0372 H   0  0  0  0  0  0  0  0  0  0  0  0
  1  2  1  0
  2  3  1  0
  3  4  2  0
  4  5  1  0
  5  6  2  0
  6  7  1  0
  7  8  1  0
  8  9  2  0
  8 10  1  0
 10 11  1  0
 11 12  1  0
 12 13  2  0
 13 14  1  0
 14 15  2  0
 14 16  2  0
 14 17  1  0
 17 18  1  0
 18 19  2  0
 19 20  1  0
 20 21  2  0
 21 22  1  0
 22 23  2  0
 13 24  1  0
 24 25  2  0
 25 26  1  0
 26 27  2  0
 27 28  1  0
 28 29  2  0
  6 30  1  0
 30 31  1  0
 31 32  1  0
 30 33  2  0
 33  3  1  0
 29 11  1  0
 23 18  1  0
 29 24  1  0
  1 34  1  0
  1 35  1  0
  1 36  1  0
  4 37  1  0
  5 38  1  0
  7 39  1  0
 10 40  1  0
 10 41  1  0
 12 42  1  0
 17 43  1  0
 17 44  1  0
 19 45  1  0
 20 46  1  0
 21 47  1  0
 22 48  1  0
 23 49  1  0
 25 50  1  0
 26 51  1  0
 27 52  1  0
 28 53  1  0
 32 54  1  0
 32 55  1  0
 32 56  1  0
 33 57  1  0
M  END
$$$$
