
     RDKit          3D

 60 63  0  0  0  0  0  0  0  0999 V2000
    7.9490    1.7369    2.0609 C   0  0  0  0  0  0  0  0  0  0  0  0
    7.8062    0.3567    1.7498 O   0  0  0  0  0  0  0  0  0  0  0  0
    6.5481   -0.1685    1.8393 C   0  0  0  0  0  0  0  0  0  0  0  0
    5.4150    0.4871    2.3219 C   0  0  0  0  0  0  0  0  0  0  0  0
    4.1787   -0.1675    2.3438 C   0  0  0  0  0  0  0  0  0  0  0  0
    4.0607   -1.4927    1.8871 C   0  0  0  0  0  0  0  0  0  0  0  0
    2.7193   -2.1826    1.8551 C   0  0  0  0  0  0  0  0  0  0  0  0
    2.0325   -1.8826    0.6240 N   0  0  0  0  0  0  0  0  0  0  0  0
    2.1872   -2.6538   -0.5103 C   0  0  0  0  0  0  0  0  0  0  0  0
    2.7733   -3.7322   -0.5074 O   0  0  0  0  0  0  0  0  0  0  0  0
    1.7456   -1.9621   -1.8151 C   0  0  0  0  0  0  0  0  0  0  0  0
    2.9465   -1.2335   -2.4234 C   0  0  0  0  0  0  0  0  0  0  0  0
    0.6103   -1.0543   -1.5603 N   0  0  0  0  0  0  0  0  0  0  0  0
    0.9105    0.2310   -1.0666 N   0  0  0  0  0  0  0  0  0  0  0  0
   -0.0360    1.0893   -0.7992 C   0  0  0  0  0  0  0  0  0  0  0  0
    0.3550    2.4463   -0.2859 C   0  0  0  0  0  0  0  0  0  0  0  0
   -1.4124    0.7078   -0.9893 C   0  0  0  0  0  0  0  0  0  0  0  0
   -2.6233    1.3723   -0.8755 C   0  0  0  0  0  0  0  0  0  0  0  0
   -2.9014    2.8148   -0.6487 C   0  0  0  0  0  0  0  0  0  0  0  0
   -3.6042    0.3936   -1.0863 N   0  0  0  0  0  0  0  0  0  0  0  0
   -5.0177    0.4275   -0.8722 C   0  0  0  0  0  0  0  0  0  0  0  0
   -5.8148   -0.5759   -1.4492 C   0  0  0  0  0  0  0  0  0  0  0  0
   -7.1983   -0.5961   -1.2470 C   0  0  0  0  0  0  0  0  0  0  0  0
   -7.8138    0.3766   -0.4593 C   0  0  0  0  0  0  0  0  0  0  0  0
   -9.2909    0.3213   -0.1956 C   0  0  0  0  0  0  0  0  0  0  0  0
   -7.0186    1.3538    0.1463 C   0  0  0  0  0  0  0  0  0  0  0  0
   -5.6319    1.3828   -0.0570 C   0  0  0  0  0  0  0  0  0  0  0  0
   -3.0458   -0.7566   -1.5542 N   0  0  0  0  0  0  0  0  0  0  0  0
   -1.7287   -0.5825   -1.4252 C   0  0  0  0  0  0  0  0  0  0  0  0
   -0.6964   -1.5661   -1.7253 C   0  0  0  0  0  0  0  0  0  0  0  0
   -0.9372   -2.7128   -2.0954 O   0  0  0  0  0  0  0  0  0  0  0  0
    5.2012   -2.1433    1.4054 C   0  0  0  0  0  0  0  0  0  0  0  0
    6.4343   -1.4863    1.3896 C   0  0  0  0  0  0  0  0  0  0  0  0
    8.9869    2.0217    1.8665 H   0  0  0  0  0  0  0  0  0  0  0  0
    7.7435    1.9235    3.1238 H   0  0  0  0  0  0  0  0  0  0  0  0
    7.3132    2.3571    1.4214 H   0  0  0  0  0  0  0  0  0  0  0  0
    5.4602    1.5078    2.6884 H   0  0  0  0  0  0  0  0  0  0  0  0
    3.3049    0.3626    2.7144 H   0  0  0  0  0  0  0  0  0  0  0  0
    2.0918   -1.8205    2.6779 H   0  0  0  0  0  0  0  0  0  0  0  0
    2.8357   -3.2653    1.9799 H   0  0  0  0  0  0  0  0  0  0  0  0
    1.7572   -0.9190    0.4485 H   0  0  0  0  0  0  0  0  0  0  0  0
    1.4184   -2.7486   -2.5056 H   0  0  0  0  0  0  0  0  0  0  0  0
    3.4092   -0.5534   -1.7041 H   0  0  0  0  0  0  0  0  0  0  0  0
    3.7149   -1.9497   -2.7238 H   0  0  0  0  0  0  0  0  0  0  0  0
    2.6572   -0.6557   -3.3040 H   0  0  0  0  0  0  0  0  0  0  0  0
    1.4080    2.4520    0.0186 H   0  0  0  0  0  0  0  0  0  0  0  0
    0.2189    3.1875   -1.0797 H   0  0  0  0  0  0  0  0  0  0  0  0
   -0.2571    2.7123    0.5812 H   0  0  0  0  0  0  0  0  0  0  0  0
   -3.8116    3.1404   -1.1583 H   0  0  0  0  0  0  0  0  0  0  0  0
   -2.9809    3.0346    0.4194 H   0  0  0  0  0  0  0  0  0  0  0  0
   -2.1001    3.4324   -1.0574 H   0  0  0  0  0  0  0  0  0  0  0  0
   -5.3733   -1.3591   -2.0649 H   0  0  0  0  0  0  0  0  0  0  0  0
   -7.7853   -1.3894   -1.6996 H   0  0  0  0  0  0  0  0  0  0  0  0
   -9.6891    1.3211    0.0107 H   0  0  0  0  0  0  0  0  0  0  0  0
   -9.8304   -0.0718   -1.0643 H   0  0  0  0  0  0  0  0  0  0  0  0
   -9.4951   -0.3236    0.6662 H   0  0  0  0  0  0  0  0  0  0  0  0
   -7.4737    2.0899    0.8034 H   0  0  0  0  0  0  0  0  0  0  0  0
   -5.0692    2.1308    0.4878 H   0  0  0  0  0  0  0  0  0  0  0  0
    5.1313   -3.1611    1.0286 H   0  0  0  0  0  0  0  0  0  0  0  0
    7.3129   -2.0048    1.0132 H   0  0  0  0  0  0  0  0  0  0  0  0
  1  2  1  0
  2  3  1  0
  3  4  2  0
  4  5  1  0
  5  6  2  0
  6  7  1  0
  7  8  1  0
  8  9  1  0
  9 10  2  0
  9 11  1  0
 11 12  1  0
 11 13  1  0
 13 14  1  0
 14 15  2  0
 15 16  1  0
 15 17  1  0
 17 18  2  0
 18 19  1  0
 18 20  1  0
 20 21  1  0
 21 22  2  0
 22 23  1  0
 23 24  2  0
 24 25  1  0
 24 26  1  0
 26 27  2  0
 20 28  1  0
 28 29  2  0
 29 30  1  0
 30 31  2  0
  6 32  1  0
 32 33  2  0
 33  3  1  0
 30 13  1  0
 29 17  1  0
 27 21  1  0
  1 34  1  0
  1 35  1  0
  1 36  1  0
  4 37  1  0
  5 38  1  0
  7 39  1  0
  7 40  1  0
  8 41  1  0
 11 42  1  0
 12 43  1  0
 12 44  1  0
 12 45  1  0
 16 46  1  0
 16 47  1  0
 16 48  1  0
 19 49  1  0
 19 50  1  0
 19 51  1  0
 22 52  1  0
 23 53  1  0
 25 54  1  0
 25 55  1  0
 25 56  1  0
 26 57  1  0
 27 58  1  0
 32 59  1  0
 33 60  1  0
M  END
$$$$
