
     RDKit          3D

 54 57  0  0  0  0  0  0  0  0999 V2000
   -6.0949   -0.5227   -1.7674 C   0  0  0  0  0  0  0  0  0  0  0  0
   -5.8288    0.8164   -1.3739 O   0  0  0  0  0  0  0  0  0  0  0  0
   -4.5718    1.0976   -0.9037 C   0  0  0  0  0  0  0  0  0  0  0  0
   -3.4981    0.2019   -0.9051 C   0  0  0  0  0  0  0  0  0  0  0  0
   -2.2292    0.5594   -0.4010 C   0  0  0  0  0  0  0  0  0  0  0  0
   -1.1154   -0.4153   -0.4285 C   0  0  0  0  0  0  0  0  0  0  0  0
   -0.0924   -0.4277    0.5026 C   0  0  0  0  0  0  0  0  0  0  0  0
    0.9163   -1.3841    0.3734 C   0  0  0  0  0  0  0  0  0  0  0  0
    2.0197   -1.3029    1.3584 C   0  0  0  0  0  0  0  0  0  0  0  0
    1.7318   -1.3503    2.5462 O   0  0  0  0  0  0  0  0  0  0  0  0
    3.2653   -1.1134    0.7915 N   0  0  0  0  0  0  0  0  0  0  0  0
    4.5011   -1.0021    1.4608 C   0  0  0  0  0  0  0  0  0  0  0  0
    5.6378   -0.7734    0.6715 C   0  0  0  0  0  0  0  0  0  0  0  0
    6.9031   -0.6540    1.2554 C   0  0  0  0  0  0  0  0  0  0  0  0
    7.0300   -0.7663    2.6342 C   0  0  0  0  0  0  0  0  0  0  0  0
    8.2409   -0.6585    3.2492 O   0  0  0  0  0  0  0  0  0  0  0  0
    5.9158   -0.9956    3.4301 C   0  0  0  0  0  0  0  0  0  0  0  0
    4.6512   -1.1137    2.8444 C   0  0  0  0  0  0  0  0  0  0  0  0
    0.8772   -2.3590   -0.6458 C   0  0  0  0  0  0  0  0  0  0  0  0
    1.8121   -3.4149   -0.8061 C   0  0  0  0  0  0  0  0  0  0  0  0
    1.6943   -4.3262   -1.8534 C   0  0  0  0  0  0  0  0  0  0  0  0
    0.6416   -4.2037   -2.7482 C   0  0  0  0  0  0  0  0  0  0  0  0
   -0.2920   -3.1785   -2.5810 C   0  0  0  0  0  0  0  0  0  0  0  0
   -0.2001   -2.2604   -1.5432 C   0  0  0  0  0  0  0  0  0  0  0  0
   -1.1520   -1.3171   -1.4414 N   0  0  0  0  0  0  0  0  0  0  0  0
   -2.0687    1.8633    0.1098 C   0  0  0  0  0  0  0  0  0  0  0  0
   -3.1304    2.7743    0.1321 C   0  0  0  0  0  0  0  0  0  0  0  0
   -3.0379    4.0577    0.6076 O   0  0  0  0  0  0  0  0  0  0  0  0
   -1.9889    4.3244    1.5298 C   0  0  0  0  0  0  0  0  0  0  0  0
   -4.3697    2.3905   -0.4002 C   0  0  0  0  0  0  0  0  0  0  0  0
   -5.4246    3.2752   -0.3522 O   0  0  0  0  0  0  0  0  0  0  0  0
   -5.4844    4.0198   -1.5671 C   0  0  0  0  0  0  0  0  0  0  0  0
   -7.1507   -0.5845   -2.0485 H   0  0  0  0  0  0  0  0  0  0  0  0
   -5.9299   -1.2208   -0.9400 H   0  0  0  0  0  0  0  0  0  0  0  0
   -5.5013   -0.7997   -2.6448 H   0  0  0  0  0  0  0  0  0  0  0  0
   -3.6203   -0.8029   -1.3012 H   0  0  0  0  0  0  0  0  0  0  0  0
   -0.0637    0.2776    1.3274 H   0  0  0  0  0  0  0  0  0  0  0  0
    3.2986   -1.0184   -0.2168 H   0  0  0  0  0  0  0  0  0  0  0  0
    5.5558   -0.6833   -0.4087 H   0  0  0  0  0  0  0  0  0  0  0  0
    7.7665   -0.4743    0.6233 H   0  0  0  0  0  0  0  0  0  0  0  0
    8.9216   -0.4960    2.5760 H   0  0  0  0  0  0  0  0  0  0  0  0
    6.0247   -1.0837    4.5076 H   0  0  0  0  0  0  0  0  0  0  0  0
    3.8055   -1.2960    3.4998 H   0  0  0  0  0  0  0  0  0  0  0  0
    2.6300   -3.5510   -0.1003 H   0  0  0  0  0  0  0  0  0  0  0  0
    2.4154   -5.1328   -1.9621 H   0  0  0  0  0  0  0  0  0  0  0  0
    0.5334   -4.9080   -3.5690 H   0  0  0  0  0  0  0  0  0  0  0  0
   -1.1227   -3.0982   -3.2795 H   0  0  0  0  0  0  0  0  0  0  0  0
   -1.0916    2.1722    0.4661 H   0  0  0  0  0  0  0  0  0  0  0  0
   -1.9612    3.5832    2.3362 H   0  0  0  0  0  0  0  0  0  0  0  0
   -2.1823    5.3017    1.9823 H   0  0  0  0  0  0  0  0  0  0  0  0
   -1.0250    4.3818    1.0142 H   0  0  0  0  0  0  0  0  0  0  0  0
   -4.5652    4.5927   -1.7317 H   0  0  0  0  0  0  0  0  0  0  0  0
   -5.6833    3.3691   -2.4254 H   0  0  0  0  0  0  0  0  0  0  0  0
   -6.3131    4.7295   -1.4838 H   0  0  0  0  0  0  0  0  0  0  0  0
  1  2  1  0
  2  3  1  0
  3  4  2  0
  4  5  1  0
  5  6  1  0
  6  7  2  0
  7  8  1  0
  8  9  1  0
  9 10  2  0
  9 11  1  0
 11 12  1  0
 12 13  2  0
 13 14  1  0
 14 15  2  0
 15 16  1  0
 15 17  1  0
 17 18  2  0
  8 19  2  0
 19 20  1  0
 20 21  2  0
 21 22  1  0
 22 23  2  0
 23 24  1  0
 24 25  2  0
  5 26  2  0
 26 27  1  0
 27 28  1  0
 28 29  1  0
 27 30  2  0
 30 31  1  0
 31 32  1  0
 30  3  1  0
 25  6  1  0
 18 12  1  0
 24 19  1  0
  1 33  1  0
  1 34  1  0
  1 35  1  0
  4 36  1  0
  7 37  1  0
 11 38  1  0
 13 39  1  0
 14 40  1  0
 16 41  1  0
 17 42  1  0
 18 43  1  0
 20 44  1  0
 21 45  1  0
 22 46  1  0
 23 47  1  0
 26 48  1  0
 29 49  1  0
 29 50  1  0
 29 51  1  0
 32 52  1  0
 32 53  1  0
 32 54  1  0
M  END
$$$$
