
     RDKit          3D

 58 62  0  0  0  0  0  0  0  0999 V2000
    6.1296    4.3866    2.0041 C   0  0  0  0  0  0  0  0  0  0  0  0
    6.1792    3.0213    1.6100 O   0  0  0  0  0  0  0  0  0  0  0  0
    4.9814    2.3755    1.4736 C   0  0  0  0  0  0  0  0  0  0  0  0
    5.0795    1.0145    1.1783 C   0  0  0  0  0  0  0  0  0  0  0  0
    3.9333    0.2319    1.0209 C   0  0  0  0  0  0  0  0  0  0  0  0
    2.6654    0.8060    1.1548 C   0  0  0  0  0  0  0  0  0  0  0  0
    1.4214   -0.0281    0.9760 C   0  0  0  0  0  0  0  0  0  0  0  0
    1.1007   -0.2706   -0.5018 C   0  0  0  0  0  0  0  0  0  0  0  0
   -0.2223   -0.9108   -0.6419 N   0  0  0  0  0  0  0  0  0  0  0  0
   -1.3986   -0.1397   -0.6777 C   0  0  0  0  0  0  0  0  0  0  0  0
   -1.4199    1.1624   -0.5899 N   0  0  0  0  0  0  0  0  0  0  0  0
   -2.7382   -0.8218   -0.8203 C   0  0  0  0  0  0  0  0  0  0  0  0
   -4.0717   -0.1484   -0.9072 C   0  0  0  0  0  0  0  0  0  0  0  0
   -5.1148   -0.7846   -1.0348 O   0  0  0  0  0  0  0  0  0  0  0  0
   -4.0484    1.2141   -0.8375 N   0  0  0  0  0  0  0  0  0  0  0  0
   -5.2382    2.0063   -1.0161 C   0  0  0  0  0  0  0  0  0  0  0  0
   -4.9058    3.4386   -0.8361 C   0  0  0  0  0  0  0  0  0  0  0  0
   -4.6648    4.2281    0.2697 C   0  0  0  0  0  0  0  0  0  0  0  0
   -4.3973    5.5307   -0.2180 C   0  0  0  0  0  0  0  0  0  0  0  0
   -4.4914    5.4531   -1.5878 C   0  0  0  0  0  0  0  0  0  0  0  0
   -4.7979    4.1893   -1.9726 O   0  0  0  0  0  0  0  0  0  0  0  0
   -2.7103   -2.1645   -0.8688 C   0  0  0  0  0  0  0  0  0  0  0  0
   -1.4823   -2.9353   -0.7739 C   0  0  0  0  0  0  0  0  0  0  0  0
   -1.5501   -4.4249   -0.7999 C   0  0  0  0  0  0  0  0  0  0  0  0
   -2.6392   -4.9928   -0.9103 O   0  0  0  0  0  0  0  0  0  0  0  0
   -0.3404   -5.0879   -0.6935 N   0  0  0  0  0  0  0  0  0  0  0  0
   -0.3185   -6.4785   -0.7128 C   0  0  0  0  0  0  0  0  0  0  0  0
    0.8248   -7.1665   -0.6071 C   0  0  0  0  0  0  0  0  0  0  0  0
    2.0728   -6.4646   -0.4681 C   0  0  0  0  0  0  0  0  0  0  0  0
    2.0978   -5.1273   -0.4456 C   0  0  0  0  0  0  0  0  0  0  0  0
    0.8259   -4.3582   -0.5663 C   0  0  0  0  0  0  0  0  0  0  0  0
    0.8820   -3.0659   -0.5453 N   0  0  0  0  0  0  0  0  0  0  0  0
   -0.2778   -2.3312   -0.6571 C   0  0  0  0  0  0  0  0  0  0  0  0
    2.5689    2.1728    1.4407 C   0  0  0  0  0  0  0  0  0  0  0  0
    3.7199    2.9527    1.6001 C   0  0  0  0  0  0  0  0  0  0  0  0
    5.6291    4.5033    2.9700 H   0  0  0  0  0  0  0  0  0  0  0  0
    5.6517    5.0008    1.2333 H   0  0  0  0  0  0  0  0  0  0  0  0
    7.1585    4.7394    2.1191 H   0  0  0  0  0  0  0  0  0  0  0  0
    6.0602    0.5592    1.0746 H   0  0  0  0  0  0  0  0  0  0  0  0
    4.0403   -0.8268    0.7980 H   0  0  0  0  0  0  0  0  0  0  0  0
    0.5771    0.4654    1.4749 H   0  0  0  0  0  0  0  0  0  0  0  0
    1.5499   -0.9835    1.5009 H   0  0  0  0  0  0  0  0  0  0  0  0
    1.8874   -0.8810   -0.9626 H   0  0  0  0  0  0  0  0  0  0  0  0
    1.1365    0.6637   -1.0735 H   0  0  0  0  0  0  0  0  0  0  0  0
   -0.4831    1.5502   -0.4907 H   0  0  0  0  0  0  0  0  0  0  0  0
   -3.1315    1.6695   -0.8002 H   0  0  0  0  0  0  0  0  0  0  0  0
   -5.9893    1.6853   -0.2868 H   0  0  0  0  0  0  0  0  0  0  0  0
   -5.6368    1.8115   -2.0169 H   0  0  0  0  0  0  0  0  0  0  0  0
   -4.6774    3.8993    1.2999 H   0  0  0  0  0  0  0  0  0  0  0  0
   -4.1655    6.4158    0.3569 H   0  0  0  0  0  0  0  0  0  0  0  0
   -4.3753    6.1677   -2.3888 H   0  0  0  0  0  0  0  0  0  0  0  0
   -3.6359   -2.7296   -0.9713 H   0  0  0  0  0  0  0  0  0  0  0  0
   -1.2741   -6.9876   -0.8184 H   0  0  0  0  0  0  0  0  0  0  0  0
    0.8307   -8.2516   -0.6228 H   0  0  0  0  0  0  0  0  0  0  0  0
    2.9867   -7.0433   -0.3831 H   0  0  0  0  0  0  0  0  0  0  0  0
    3.0164   -4.5630   -0.3429 H   0  0  0  0  0  0  0  0  0  0  0  0
    1.5954    2.6465    1.5490 H   0  0  0  0  0  0  0  0  0  0  0  0
    3.5944    4.0066    1.8226 H   0  0  0  0  0  0  0  0  0  0  0  0
  1  2  1  0
  2  3  1  0
  3  4  2  0
  4  5  1  0
  5  6  2  0
  6  7  1  0
  7  8  1  0
  8  9  1  0
  9 10  1  0
 10 11  2  3
 10 12  1  0
 12 13  1  0
 13 14  2  0
 13 15  1  0
 15 16  1  0
 16 17  1  0
 17 18  2  0
 18 19  1  0
 19 20  2  0
 20 21  1  0
 12 22  2  0
 22 23  1  0
 23 24  1  0
 24 25  2  0
 24 26  1  0
 26 27  1  0
 27 28  2  0
 28 29  1  0
 29 30  2  0
 30 31  1  0
 31 32  2  0
 32 33  1  0
  6 34  1  0
 34 35  2  0
 35  3  1  0
 33  9  1  0
 21 17  1  0
 33 23  2  0
 31 26  1  0
  1 36  1  0
  1 37  1  0
  1 38  1  0
  4 39  1  0
  5 40  1  0
  7 41  1  0
  7 42  1  0
  8 43  1  0
  8 44  1  0
 11 45  1  0
 15 46  1  0
 16 47  1  0
 16 48  1  0
 18 49  1  0
 19 50  1  0
 20 51  1  0
 22 52  1  0
 27 53  1  0
 28 54  1  0
 29 55  1  0
 30 56  1  0
 34 57  1  0
 35 58  1  0
M  END
$$$$
