
     RDKit          3D

 46 48  0  0  0  0  0  0  0  0999 V2000
   -3.3276   -2.3093    0.4988 C   0  0  0  0  0  0  0  0  0  0  0  0
   -3.9257   -1.1501   -0.2815 C   0  0  0  0  0  0  0  0  0  0  0  0
   -3.7124    0.1337    0.4032 N   0  0  0  0  0  4  0  0  0  0  0  0
   -2.6514    0.9010    0.1800 C   0  0  0  0  0  0  0  0  0  0  0  0
   -1.6142    0.6499   -0.7530 C   0  0  0  0  0  0  0  0  0  0  0  0
   -0.3286    0.5637   -0.3742 C   0  0  0  0  0  0  0  0  0  0  0  0
    0.7270    0.2605   -1.3190 C   0  0  0  0  0  0  0  0  0  0  0  0
    2.0124    0.1058   -0.9629 C   0  0  0  0  0  0  0  0  0  0  0  0
    3.0867   -0.2259   -1.8028 N   0  0  0  0  0  0  0  0  0  0  0  0
    2.8686   -0.7100   -3.1134 C   0  0  0  0  0  0  0  0  0  0  0  0
    3.9816   -0.4993   -4.1218 C   0  0  0  0  0  0  0  0  0  0  0  0
    1.8167   -1.2335   -3.4976 O   0  0  0  0  0  0  0  0  0  0  0  0
    4.4204   -0.1836   -1.2532 C   0  0  0  0  0  0  0  0  0  0  0  0
    5.3378   -1.2169   -1.4956 C   0  0  0  0  0  0  0  0  0  0  0  0
    6.6207   -1.1778   -0.9420 C   0  0  0  0  0  0  0  0  0  0  0  0
    7.0006   -0.1099   -0.1333 C   0  0  0  0  0  0  0  0  0  0  0  0
    6.0973    0.9162    0.1299 C   0  0  0  0  0  0  0  0  0  0  0  0
    4.8134    0.8769   -0.4204 C   0  0  0  0  0  0  0  0  0  0  0  0
   -2.6960    2.3088    1.1605 S   0  0  0  0  0  0  0  0  0  0  0  0
   -4.1745    1.8354    1.8984 C   0  0  0  0  0  0  0  0  0  0  0  0
   -4.9136    2.5042    2.8864 C   0  0  0  0  0  0  0  0  0  0  0  0
   -6.0939    1.9109    3.3401 C   0  0  0  0  0  0  0  0  0  0  0  0
   -6.5230    0.6906    2.8279 C   0  0  0  0  0  0  0  0  0  0  0  0
   -5.7827    0.0280    1.8404 C   0  0  0  0  0  0  0  0  0  0  0  0
   -4.5907    0.6159    1.3681 C   0  0  0  0  0  0  0  0  0  0  0  0
   -3.4981   -3.2526   -0.0290 H   0  0  0  0  0  0  0  0  0  0  0  0
   -3.7762   -2.3867    1.4942 H   0  0  0  0  0  0  0  0  0  0  0  0
   -2.2488   -2.1789    0.6302 H   0  0  0  0  0  0  0  0  0  0  0  0
   -4.9992   -1.3079   -0.4327 H   0  0  0  0  0  0  0  0  0  0  0  0
   -3.4958   -1.1170   -1.2885 H   0  0  0  0  0  0  0  0  0  0  0  0
   -1.8859    0.4948   -1.7949 H   0  0  0  0  0  0  0  0  0  0  0  0
   -0.0312    0.6980    0.6658 H   0  0  0  0  0  0  0  0  0  0  0  0
    0.4280    0.1581   -2.3599 H   0  0  0  0  0  0  0  0  0  0  0  0
    2.2851    0.2408    0.0829 H   0  0  0  0  0  0  0  0  0  0  0  0
    4.5518   -1.4217   -4.2517 H   0  0  0  0  0  0  0  0  0  0  0  0
    3.5288   -0.2327   -5.0829 H   0  0  0  0  0  0  0  0  0  0  0  0
    4.6417    0.3268   -3.8450 H   0  0  0  0  0  0  0  0  0  0  0  0
    5.0600   -2.0898   -2.0809 H   0  0  0  0  0  0  0  0  0  0  0  0
    7.3209   -1.9876   -1.1344 H   0  0  0  0  0  0  0  0  0  0  0  0
    7.9997   -0.0803    0.2954 H   0  0  0  0  0  0  0  0  0  0  0  0
    6.3951    1.7517    0.7592 H   0  0  0  0  0  0  0  0  0  0  0  0
    4.1410    1.7067   -0.2190 H   0  0  0  0  0  0  0  0  0  0  0  0
   -4.5824    3.4576    3.2937 H   0  0  0  0  0  0  0  0  0  0  0  0
   -6.6839    2.4117    4.1082 H   0  0  0  0  0  0  0  0  0  0  0  0
   -7.4462    0.2485    3.2024 H   0  0  0  0  0  0  0  0  0  0  0  0
   -6.1530   -0.9246    1.4714 H   0  0  0  0  0  0  0  0  0  0  0  0
  1  2  1  0
  2  3  1  0
  3  4  2  0
  4  5  1  0
  5  6  2  3
  6  7  1  0
  7  8  2  3
  8  9  1  0
  9 10  1  0
 10 11  1  0
 10 12  2  0
  9 13  1  0
 13 14  2  0
 14 15  1  0
 15 16  2  0
 16 17  1  0
 17 18  2  0
  4 19  1  0
 19 20  1  0
 20 21  2  0
 21 22  1  0
 22 23  2  0
 23 24  1  0
 24 25  2  0
 25  3  1  0
 18 13  1  0
 25 20  1  0
  1 26  1  0
  1 27  1  0
  1 28  1  0
  2 29  1  0
  2 30  1  0
  5 31  1  0
  6 32  1  0
  7 33  1  0
  8 34  1  0
 11 35  1  0
 11 36  1  0
 11 37  1  0
 14 38  1  0
 15 39  1  0
 16 40  1  0
 17 41  1  0
 18 42  1  0
 21 43  1  0
 22 44  1  0
 23 45  1  0
 24 46  1  0
M  CHG  1   3   1
M  END
$$$$
