
     RDKit          3D

 52 51  0  0  0  0  0  0  0  0999 V2000
   -6.3684    0.8976   -3.0902 C   0  0  0  0  0  0  0  0  0  0  0  0
   -5.4614    0.5350   -2.3906 C   0  0  0  0  0  0  0  0  0  0  0  0
   -4.3482    0.0790   -1.5535 C   0  0  0  0  0  0  0  0  0  0  0  0
   -4.3151    0.7739   -0.1674 N   0  0  0  0  0  4  0  0  0  0  0  0
   -4.1537    2.2785   -0.3552 C   0  0  0  0  0  0  0  0  0  0  0  0
   -5.6137    0.4801    0.5781 C   0  0  0  0  0  0  0  0  0  0  0  0
   -3.1020    0.1759    0.5828 C   0  0  0  0  0  0  0  0  0  0  0  0
   -2.8421    0.7977    1.9551 C   0  0  0  0  0  0  0  0  0  0  0  0
   -1.7383    0.0815    2.7478 C   0  0  0  0  0  0  0  0  0  0  0  0
   -0.3467    0.1471    2.1067 C   0  0  0  0  0  0  0  0  0  0  0  0
    0.0073   -1.1218    1.3243 C   0  0  0  0  0  0  0  0  0  0  0  0
    1.3298   -1.0117    0.5577 C   0  0  0  0  0  0  0  0  0  0  0  0
    2.5480   -0.8464    1.4700 C   0  0  0  0  0  0  0  0  0  0  0  0
    3.8820   -0.9615    0.7234 C   0  0  0  0  0  0  0  0  0  0  0  0
    4.0981    0.1549   -0.3017 C   0  0  0  0  0  0  0  0  0  0  0  0
    5.5131    0.1718   -0.8889 C   0  0  0  0  0  0  0  0  0  0  0  0
    5.8390   -1.0684   -1.7222 C   0  0  0  0  0  0  0  0  0  0  0  0
    7.2086   -0.9539   -2.3741 C   0  0  0  0  0  0  0  0  0  0  0  0
   -7.1704    1.2113   -3.7221 H   0  0  0  0  0  0  0  0  0  0  0  0
   -4.4193   -0.9990   -1.3690 H   0  0  0  0  0  0  0  0  0  0  0  0
   -3.3891    0.2897   -2.0405 H   0  0  0  0  0  0  0  0  0  0  0  0
   -3.2057    2.4637   -0.8682 H   0  0  0  0  0  0  0  0  0  0  0  0
   -4.1637    2.7596    0.6262 H   0  0  0  0  0  0  0  0  0  0  0  0
   -4.9924    2.6620   -0.9419 H   0  0  0  0  0  0  0  0  0  0  0  0
   -5.6983   -0.6018    0.7140 H   0  0  0  0  0  0  0  0  0  0  0  0
   -5.5931    0.9905    1.5434 H   0  0  0  0  0  0  0  0  0  0  0  0
   -6.4577    0.8637   -0.0010 H   0  0  0  0  0  0  0  0  0  0  0  0
   -2.2349    0.3283   -0.0693 H   0  0  0  0  0  0  0  0  0  0  0  0
   -3.2903   -0.9001    0.6769 H   0  0  0  0  0  0  0  0  0  0  0  0
   -3.7472    0.7694    2.5693 H   0  0  0  0  0  0  0  0  0  0  0  0
   -2.5611    1.8514    1.8492 H   0  0  0  0  0  0  0  0  0  0  0  0
   -2.0293   -0.9574    2.9437 H   0  0  0  0  0  0  0  0  0  0  0  0
   -1.6801    0.5734    3.7276 H   0  0  0  0  0  0  0  0  0  0  0  0
    0.3862    0.2688    2.9134 H   0  0  0  0  0  0  0  0  0  0  0  0
   -0.2588    1.0325    1.4665 H   0  0  0  0  0  0  0  0  0  0  0  0
    0.0541   -1.9745    2.0128 H   0  0  0  0  0  0  0  0  0  0  0  0
   -0.7824   -1.3510    0.6017 H   0  0  0  0  0  0  0  0  0  0  0  0
    1.4522   -1.9206   -0.0441 H   0  0  0  0  0  0  0  0  0  0  0  0
    1.2668   -0.1721   -0.1441 H   0  0  0  0  0  0  0  0  0  0  0  0
    2.5234   -1.6202    2.2471 H   0  0  0  0  0  0  0  0  0  0  0  0
    2.5074    0.1212    1.9830 H   0  0  0  0  0  0  0  0  0  0  0  0
    3.9341   -1.9402    0.2332 H   0  0  0  0  0  0  0  0  0  0  0  0
    4.6914   -0.9327    1.4632 H   0  0  0  0  0  0  0  0  0  0  0  0
    3.3727    0.0636   -1.1182 H   0  0  0  0  0  0  0  0  0  0  0  0
    3.9160    1.1240    0.1789 H   0  0  0  0  0  0  0  0  0  0  0  0
    6.2460    0.2779   -0.0798 H   0  0  0  0  0  0  0  0  0  0  0  0
    5.6101    1.0638   -1.5204 H   0  0  0  0  0  0  0  0  0  0  0  0
    5.0804   -1.2042   -2.5016 H   0  0  0  0  0  0  0  0  0  0  0  0
    5.8251   -1.9645   -1.0927 H   0  0  0  0  0  0  0  0  0  0  0  0
    7.9941   -0.8436   -1.6196 H   0  0  0  0  0  0  0  0  0  0  0  0
    7.2528   -0.0908   -3.0459 H   0  0  0  0  0  0  0  0  0  0  0  0
    7.4249   -1.8519   -2.9612 H   0  0  0  0  0  0  0  0  0  0  0  0
  1  2  3  0
  2  3  1  0
  3  4  1  0
  4  5  1  0
  4  6  1  0
  4  7  1  0
  7  8  1  0
  8  9  1  0
  9 10  1  0
 10 11  1  0
 11 12  1  0
 12 13  1  0
 13 14  1  0
 14 15  1  0
 15 16  1  0
 16 17  1  0
 17 18  1  0
  1 19  1  0
  3 20  1  0
  3 21  1  0
  5 22  1  0
  5 23  1  0
  5 24  1  0
  6 25  1  0
  6 26  1  0
  6 27  1  0
  7 28  1  0
  7 29  1  0
  8 30  1  0
  8 31  1  0
  9 32  1  0
  9 33  1  0
 10 34  1  0
 10 35  1  0
 11 36  1  0
 11 37  1  0
 12 38  1  0
 12 39  1  0
 13 40  1  0
 13 41  1  0
 14 42  1  0
 14 43  1  0
 15 44  1  0
 15 45  1  0
 16 46  1  0
 16 47  1  0
 17 48  1  0
 17 49  1  0
 18 50  1  0
 18 51  1  0
 18 52  1  0
M  CHG  1   4   1
M  END
$$$$
