
     RDKit          3D

 37 39  0  0  0  0  0  0  0  0999 V2000
    7.9142    0.6030   -0.1360 C   0  0  0  0  0  0  0  0  0  0  0  0
    6.4106    0.5285   -0.3502 C   0  0  0  0  0  0  0  0  0  0  0  0
    5.7680   -0.5241    0.5536 C   0  0  0  0  0  0  0  0  0  0  0  0
    4.2964   -0.6174    0.3169 C   0  0  0  0  0  0  0  0  0  0  0  0
    3.7324   -1.3527   -0.6189 N   0  0  0  0  0  0  0  0  0  0  0  0
    2.3565   -1.2376   -0.6043 N   0  0  0  0  0  0  0  0  0  0  0  0
    1.9355   -0.4238    0.3385 C   0  0  0  0  0  0  0  0  0  0  0  0
    0.6063   -0.1604    0.5346 N   0  0  0  0  0  0  0  0  0  0  0  0
    0.0434    0.6671    1.4776 C   0  0  0  0  0  0  0  0  0  0  0  0
    0.6332    1.3303    2.3260 O   0  0  0  0  0  0  0  0  0  0  0  0
   -1.4861    0.7078    1.3932 C   0  0  0  0  0  0  0  0  0  0  0  0
   -1.9668   -0.1314    0.3447 O   0  0  0  0  0  0  0  0  0  0  0  0
   -3.3245   -0.1987    0.1806 C   0  0  0  0  0  0  0  0  0  0  0  0
   -3.7421   -1.0605   -0.8543 C   0  0  0  0  0  0  0  0  0  0  0  0
   -5.0987   -1.2384   -1.1439 C   0  0  0  0  0  0  0  0  0  0  0  0
   -6.0081   -0.5411   -0.3823 C   0  0  0  0  0  0  0  0  0  0  0  0
   -5.6062    0.3017    0.6264 C   0  0  0  0  0  0  0  0  0  0  0  0
   -4.2739    0.4966    0.9345 C   0  0  0  0  0  0  0  0  0  0  0  0
   -6.6579    0.8937    1.2558 O   0  0  0  0  0  0  0  0  0  0  0  0
   -7.7665    0.3254    0.5267 C   0  0  0  0  0  0  0  0  0  0  0  0
   -7.3600   -0.5866   -0.5144 O   0  0  0  0  0  0  0  0  0  0  0  0
    3.1783    0.2614    1.2802 S   0  0  0  0  0  0  0  0  0  0  0  0
    8.3899   -0.3600   -0.3504 H   0  0  0  0  0  0  0  0  0  0  0  0
    8.1496    0.8808    0.8967 H   0  0  0  0  0  0  0  0  0  0  0  0
    8.3547    1.3545   -0.7987 H   0  0  0  0  0  0  0  0  0  0  0  0
    5.9708    1.5139   -0.1538 H   0  0  0  0  0  0  0  0  0  0  0  0
    6.2084    0.2959   -1.4030 H   0  0  0  0  0  0  0  0  0  0  0  0
    5.9756   -0.2927    1.6056 H   0  0  0  0  0  0  0  0  0  0  0  0
    6.2174   -1.5048    0.3554 H   0  0  0  0  0  0  0  0  0  0  0  0
   -0.0188   -0.6419   -0.1027 H   0  0  0  0  0  0  0  0  0  0  0  0
   -1.8687    0.3619    2.3605 H   0  0  0  0  0  0  0  0  0  0  0  0
   -1.7699    1.7493    1.2028 H   0  0  0  0  0  0  0  0  0  0  0  0
   -2.9992   -1.5994   -1.4390 H   0  0  0  0  0  0  0  0  0  0  0  0
   -5.4229   -1.9015   -1.9377 H   0  0  0  0  0  0  0  0  0  0  0  0
   -4.0172    1.1729    1.7396 H   0  0  0  0  0  0  0  0  0  0  0  0
   -8.3430    1.1403    0.0739 H   0  0  0  0  0  0  0  0  0  0  0  0
   -8.4109   -0.2120    1.2319 H   0  0  0  0  0  0  0  0  0  0  0  0
  1  2  1  0
  2  3  1  0
  3  4  1  0
  4  5  2  0
  5  6  1  0
  6  7  2  0
  7  8  1  0
  8  9  1  0
  9 10  2  0
  9 11  1  0
 11 12  1  0
 12 13  1  0
 13 14  2  0
 14 15  1  0
 15 16  2  0
 16 17  1  0
 17 18  2  0
 17 19  1  0
 19 20  1  0
 20 21  1  0
  7 22  1  0
 22  4  1  0
 18 13  1  0
 21 16  1  0
  1 23  1  0
  1 24  1  0
  1 25  1  0
  2 26  1  0
  2 27  1  0
  3 28  1  0
  3 29  1  0
  8 30  1  0
 11 31  1  0
 11 32  1  0
 14 33  1  0
 15 34  1  0
 18 35  1  0
 20 36  1  0
 20 37  1  0
M  END
$$$$
