
     RDKit          3D

 48 51  0  0  0  0  0  0  0  0999 V2000
    0.3770   -0.9792    2.2941 C   0  0  0  0  0  0  0  0  0  0  0  0
    1.2323   -0.0062    1.5469 C   0  0  0  0  0  0  0  0  0  0  0  0
    0.8487    0.9599    0.6955 C   0  0  0  0  0  0  0  0  0  0  0  0
   -0.3525    1.4618    0.2763 N   0  0  0  0  0  0  0  0  0  0  0  0
   -1.6008    1.3112    0.8401 C   0  0  0  0  0  0  0  0  0  0  0  0
   -1.8362    0.7649    1.9153 O   0  0  0  0  0  0  0  0  0  0  0  0
   -2.7114    2.0121    0.0723 C   0  0  0  0  0  0  0  0  0  0  0  0
   -2.7981    1.4957   -1.6687 S   0  0  0  0  0  0  0  0  0  0  0  0
   -3.2520   -0.2145   -1.4050 C   0  0  0  0  0  0  0  0  0  0  0  0
   -2.1986   -1.0230   -1.1838 N   0  0  0  0  0  0  0  0  0  0  0  0
   -2.4897   -2.3032   -0.9463 C   0  0  0  0  0  0  0  0  0  0  0  0
   -3.7150   -2.8402   -0.9156 N   0  0  0  0  0  0  0  0  0  0  0  0
   -4.7451   -2.0197   -1.1505 C   0  0  0  0  0  0  0  0  0  0  0  0
   -6.0303   -2.5467   -1.1246 C   0  0  0  0  0  0  0  0  0  0  0  0
   -7.1608   -1.7587   -1.3599 C   0  0  0  0  0  0  0  0  0  0  0  0
   -7.0127   -0.4057   -1.6275 C   0  0  0  0  0  0  0  0  0  0  0  0
   -5.7351    0.1481   -1.6567 C   0  0  0  0  0  0  0  0  0  0  0  0
   -4.5861   -0.6538   -1.4163 C   0  0  0  0  0  0  0  0  0  0  0  0
    2.1141    1.5183    0.1179 C   0  0  0  0  0  0  0  0  0  0  0  0
    2.1045    2.3831   -0.7474 O   0  0  0  0  0  0  0  0  0  0  0  0
    3.1669    0.8255    0.7180 N   0  0  0  0  0  0  0  0  0  0  0  0
    4.4753    0.6885    0.1863 C   0  0  0  0  0  0  0  0  0  0  0  0
    5.2521   -0.4505    0.4481 C   0  0  0  0  0  0  0  0  0  0  0  0
    6.5410   -0.5828   -0.0780 C   0  0  0  0  0  0  0  0  0  0  0  0
    7.0760    0.4264   -0.8728 C   0  0  0  0  0  0  0  0  0  0  0  0
    6.3175    1.5590   -1.1524 C   0  0  0  0  0  0  0  0  0  0  0  0
    5.0260    1.6854   -0.6306 C   0  0  0  0  0  0  0  0  0  0  0  0
    2.6352   -0.1084    1.6568 N   0  0  0  0  0  0  0  0  0  0  0  0
    3.2089    0.0365    3.0096 C   0  0  0  0  0  0  0  0  0  0  0  0
    0.9245   -1.9125    2.4746 H   0  0  0  0  0  0  0  0  0  0  0  0
   -0.5104   -1.2619    1.7200 H   0  0  0  0  0  0  0  0  0  0  0  0
    0.0773   -0.5722    3.2651 H   0  0  0  0  0  0  0  0  0  0  0  0
   -0.2774    2.0862   -0.5246 H   0  0  0  0  0  0  0  0  0  0  0  0
   -3.6705    1.8124    0.5618 H   0  0  0  0  0  0  0  0  0  0  0  0
   -2.5313    3.0906    0.1117 H   0  0  0  0  0  0  0  0  0  0  0  0
   -1.6554   -2.9709   -0.7590 H   0  0  0  0  0  0  0  0  0  0  0  0
   -6.1578   -3.6074   -0.9142 H   0  0  0  0  0  0  0  0  0  0  0  0
   -8.1506   -2.2061   -1.3297 H   0  0  0  0  0  0  0  0  0  0  0  0
   -7.8856    0.2159   -1.8145 H   0  0  0  0  0  0  0  0  0  0  0  0
   -5.6378    1.2102   -1.8730 H   0  0  0  0  0  0  0  0  0  0  0  0
    4.8509   -1.2725    1.0375 H   0  0  0  0  0  0  0  0  0  0  0  0
    7.1218   -1.4782    0.1283 H   0  0  0  0  0  0  0  0  0  0  0  0
    8.0792    0.3281   -1.2796 H   0  0  0  0  0  0  0  0  0  0  0  0
    6.7270    2.3528   -1.7735 H   0  0  0  0  0  0  0  0  0  0  0  0
    4.4698    2.5914   -0.8609 H   0  0  0  0  0  0  0  0  0  0  0  0
    4.2987   -0.0718    3.0035 H   0  0  0  0  0  0  0  0  0  0  0  0
    2.9643    1.0212    3.4334 H   0  0  0  0  0  0  0  0  0  0  0  0
    2.8121   -0.7389    3.6760 H   0  0  0  0  0  0  0  0  0  0  0  0
  1  2  1  0
  2  3  2  0
  3  4  1  0
  4  5  1  0
  5  6  2  0
  5  7  1  0
  7  8  1  0
  8  9  1  0
  9 10  2  0
 10 11  1  0
 11 12  2  0
 12 13  1  0
 13 14  2  0
 14 15  1  0
 15 16  2  0
 16 17  1  0
 17 18  2  0
  3 19  1  0
 19 20  2  0
 19 21  1  0
 21 22  1  0
 22 23  2  0
 23 24  1  0
 24 25  2  0
 25 26  1  0
 26 27  2  0
 21 28  1  0
 28 29  1  0
 28  2  1  0
 18  9  1  0
 27 22  1  0
 18 13  1  0
  1 30  1  0
  1 31  1  0
  1 32  1  0
  4 33  1  0
  7 34  1  0
  7 35  1  0
 11 36  1  0
 14 37  1  0
 15 38  1  0
 16 39  1  0
 17 40  1  0
 23 41  1  0
 24 42  1  0
 25 43  1  0
 26 44  1  0
 27 45  1  0
 29 46  1  0
 29 47  1  0
 29 48  1  0
M  END
$$$$
