
     RDKit          3D

 59 62  0  0  0  0  0  0  0  0999 V2000
    7.3741    1.3828    3.3275 C   0  0  0  0  0  0  0  0  0  0  0  0
    7.0763    0.0704    2.8677 O   0  0  0  0  0  0  0  0  0  0  0  0
    5.7983   -0.1636    2.4394 C   0  0  0  0  0  0  0  0  0  0  0  0
    5.5812   -1.4508    1.9379 C   0  0  0  0  0  0  0  0  0  0  0  0
    4.3232   -1.8329    1.4636 C   0  0  0  0  0  0  0  0  0  0  0  0
    3.2663   -0.9227    1.4920 C   0  0  0  0  0  0  0  0  0  0  0  0
    1.9344   -1.2777    1.0034 C   0  0  0  0  0  0  0  0  0  0  0  0
    0.9237   -0.3890    1.0197 C   0  0  0  0  0  0  0  0  0  0  0  0
   -0.4684   -0.6869    0.5389 C   0  0  0  0  0  0  0  0  0  0  0  0
   -0.5517   -0.8169   -0.9274 N   0  0  0  0  0  0  0  0  0  0  0  0
   -0.3395   -2.1619   -1.5061 C   0  0  0  0  0  0  0  0  0  0  0  0
   -1.6554   -2.7194   -2.0576 C   0  0  0  0  0  0  0  0  0  0  0  0
   -1.4750   -4.0266   -2.8109 C   0  0  0  0  0  0  0  0  0  0  0  0
   -2.8557   -4.6246   -2.7069 C   0  0  0  0  0  0  0  0  0  0  0  0
   -3.2707   -4.2299   -1.3046 C   0  0  0  0  0  0  0  0  0  0  0  0
   -2.5665   -3.0225   -0.9772 O   0  0  0  0  0  0  0  0  0  0  0  0
   -0.3769    0.5197   -1.9311 S   0  0  0  0  0  6  0  0  0  0  0  0
    0.8708    1.1766   -1.6069 O   0  0  0  0  0  0  0  0  0  0  0  0
   -0.6591    0.1047   -3.2906 O   0  0  0  0  0  0  0  0  0  0  0  0
   -1.7199    1.5714   -1.4319 C   0  0  0  0  0  0  0  0  0  0  0  0
   -1.4620    2.7991   -0.8208 C   0  0  0  0  0  0  0  0  0  0  0  0
   -2.5267    3.6164   -0.4279 C   0  0  0  0  0  0  0  0  0  0  0  0
   -3.8482    3.2111   -0.6555 C   0  0  0  0  0  0  0  0  0  0  0  0
   -5.0181    4.0464   -0.2485 C   0  0  0  0  0  0  0  0  0  0  0  0
   -4.7701    5.3794    0.4089 C   0  0  0  0  0  0  0  0  0  0  0  0
   -6.1613    3.6406   -0.4503 O   0  0  0  0  0  0  0  0  0  0  0  0
   -4.0931    1.9805   -1.2828 C   0  0  0  0  0  0  0  0  0  0  0  0
   -3.0323    1.1605   -1.6741 C   0  0  0  0  0  0  0  0  0  0  0  0
    1.1520    0.9699    1.6025 C   0  0  0  0  0  0  0  0  0  0  0  0
    0.2455    1.7911    1.7115 O   0  0  0  0  0  0  0  0  0  0  0  0
    2.4163    1.2645    2.0387 N   0  0  0  0  0  0  0  0  0  0  0  0
    3.4845    0.3621    1.9979 C   0  0  0  0  0  0  0  0  0  0  0  0
    4.7422    0.7486    2.4695 C   0  0  0  0  0  0  0  0  0  0  0  0
    7.2139    2.1241    2.5379 H   0  0  0  0  0  0  0  0  0  0  0  0
    6.7940    1.6277    4.2236 H   0  0  0  0  0  0  0  0  0  0  0  0
    8.4331    1.4105    3.5995 H   0  0  0  0  0  0  0  0  0  0  0  0
    6.4041   -2.1619    1.9132 H   0  0  0  0  0  0  0  0  0  0  0  0
    4.1856   -2.8391    1.0762 H   0  0  0  0  0  0  0  0  0  0  0  0
    1.7962   -2.2804    0.6180 H   0  0  0  0  0  0  0  0  0  0  0  0
   -0.8131   -1.6207    1.0034 H   0  0  0  0  0  0  0  0  0  0  0  0
   -1.1969    0.0567    0.8777 H   0  0  0  0  0  0  0  0  0  0  0  0
    0.4237   -2.1114   -2.2912 H   0  0  0  0  0  0  0  0  0  0  0  0
    0.0457   -2.8427   -0.7393 H   0  0  0  0  0  0  0  0  0  0  0  0
   -2.1587   -1.9874   -2.7000 H   0  0  0  0  0  0  0  0  0  0  0  0
   -1.1416   -3.8806   -3.8422 H   0  0  0  0  0  0  0  0  0  0  0  0
   -0.7526   -4.6769   -2.3027 H   0  0  0  0  0  0  0  0  0  0  0  0
   -3.5213   -4.1533   -3.4400 H   0  0  0  0  0  0  0  0  0  0  0  0
   -2.8813   -5.7055   -2.8703 H   0  0  0  0  0  0  0  0  0  0  0  0
   -2.9789   -4.9923   -0.5748 H   0  0  0  0  0  0  0  0  0  0  0  0
   -4.3479   -4.0608   -1.2196 H   0  0  0  0  0  0  0  0  0  0  0  0
   -0.4401    3.1191   -0.6281 H   0  0  0  0  0  0  0  0  0  0  0  0
   -2.2937    4.5576    0.0605 H   0  0  0  0  0  0  0  0  0  0  0  0
   -4.2074    6.0342   -0.2613 H   0  0  0  0  0  0  0  0  0  0  0  0
   -4.2430    5.2424    1.3562 H   0  0  0  0  0  0  0  0  0  0  0  0
   -5.7300    5.8596    0.6217 H   0  0  0  0  0  0  0  0  0  0  0  0
   -5.1149    1.6536   -1.4678 H   0  0  0  0  0  0  0  0  0  0  0  0
   -3.2353    0.2086   -2.1581 H   0  0  0  0  0  0  0  0  0  0  0  0
    2.5468    2.1952    2.4091 H   0  0  0  0  0  0  0  0  0  0  0  0
    4.8755    1.7535    2.8531 H   0  0  0  0  0  0  0  0  0  0  0  0
  1  2  1  0
  2  3  1  0
  3  4  2  0
  4  5  1  0
  5  6  2  0
  6  7  1  0
  7  8  2  0
  8  9  1  0
  9 10  1  0
 10 11  1  0
 11 12  1  0
 12 13  1  0
 13 14  1  0
 14 15  1  0
 15 16  1  0
 10 17  1  0
 17 18  2  0
 17 19  2  0
 17 20  1  0
 20 21  2  0
 21 22  1  0
 22 23  2  0
 23 24  1  0
 24 25  1  0
 24 26  2  0
 23 27  1  0
 27 28  2  0
  8 29  1  0
 29 30  2  0
 29 31  1  0
 31 32  1  0
 32 33  2  0
 33  3  1  0
 32  6  1  0
 16 12  1  0
 28 20  1  0
  1 34  1  0
  1 35  1  0
  1 36  1  0
  4 37  1  0
  5 38  1  0
  7 39  1  0
  9 40  1  0
  9 41  1  0
 11 42  1  0
 11 43  1  0
 12 44  1  0
 13 45  1  0
 13 46  1  0
 14 47  1  0
 14 48  1  0
 15 49  1  0
 15 50  1  0
 21 51  1  0
 22 52  1  0
 25 53  1  0
 25 54  1  0
 25 55  1  0
 27 56  1  0
 28 57  1  0
 31 58  1  0
 33 59  1  0
M  END
$$$$
