
     RDKit          3D

 57 60  0  0  0  0  0  0  0  0999 V2000
   -7.9551    2.8134    2.0120 C   0  0  0  0  0  0  0  0  0  0  0  0
   -7.2472    1.7009    2.7679 C   0  0  0  0  0  0  0  0  0  0  0  0
   -6.1346    1.0890    1.9566 C   0  0  0  0  0  0  0  0  0  0  0  0
   -6.4130    0.1486    0.9618 C   0  0  0  0  0  0  0  0  0  0  0  0
   -5.3792   -0.4011    0.1960 C   0  0  0  0  0  0  0  0  0  0  0  0
   -4.0356   -0.0373    0.3983 C   0  0  0  0  0  0  0  0  0  0  0  0
   -2.9618   -0.6285   -0.4281 C   0  0  0  0  0  0  0  0  0  0  0  0
   -1.6718   -0.8252    0.0323 C   0  0  0  0  0  0  0  0  0  0  0  0
   -0.7324   -1.3635   -0.8463 C   0  0  0  0  0  0  0  0  0  0  0  0
    0.6444   -1.5146   -0.3357 C   0  0  0  0  0  0  0  0  0  0  0  0
    0.8524   -2.3578    0.5234 O   0  0  0  0  0  0  0  0  0  0  0  0
    1.5365   -0.6151   -0.8864 N   0  0  0  0  0  0  0  0  0  0  0  0
    2.9211   -0.5330   -0.6394 C   0  0  0  0  0  0  0  0  0  0  0  0
    3.6136    0.5419   -1.2181 C   0  0  0  0  0  0  0  0  0  0  0  0
    4.9901    0.6900   -1.0260 C   0  0  0  0  0  0  0  0  0  0  0  0
    5.6801   -0.2432   -0.2494 C   0  0  0  0  0  0  0  0  0  0  0  0
    7.4335   -0.0918   -0.0321 S   0  0  0  0  0  6  0  0  0  0  0  0
    7.9601    0.8396   -1.0044 O   0  0  0  0  0  0  0  0  0  0  0  0
    7.9720   -1.4332    0.0777 O   0  0  0  0  0  0  0  0  0  0  0  0
    7.5773    0.5609    1.4871 N   0  0  0  0  0  0  0  0  0  0  0  0
    7.0951    1.8145    1.8780 C   0  0  0  0  0  0  0  0  0  0  0  0
    7.4155    2.1734    3.3027 C   0  0  0  0  0  0  0  0  0  0  0  0
    6.4674    2.5579    1.1383 O   0  0  0  0  0  0  0  0  0  0  0  0
    5.0080   -1.3307    0.3156 C   0  0  0  0  0  0  0  0  0  0  0  0
    3.6291   -1.4673    0.1246 C   0  0  0  0  0  0  0  0  0  0  0  0
   -1.0772   -1.7413   -2.1588 C   0  0  0  0  0  0  0  0  0  0  0  0
   -0.1909   -2.3349   -3.0933 C   0  0  0  0  0  0  0  0  0  0  0  0
   -0.6258   -2.6803   -4.3707 C   0  0  0  0  0  0  0  0  0  0  0  0
   -1.9447   -2.4417   -4.7296 C   0  0  0  0  0  0  0  0  0  0  0  0
   -2.8203   -1.8637   -3.8074 C   0  0  0  0  0  0  0  0  0  0  0  0
   -2.4130   -1.5127   -2.5275 C   0  0  0  0  0  0  0  0  0  0  0  0
   -3.3161   -0.9689   -1.6939 N   0  0  0  0  0  0  0  0  0  0  0  0
   -3.7748    0.9164    1.3981 C   0  0  0  0  0  0  0  0  0  0  0  0
   -4.8067    1.4719    2.1652 C   0  0  0  0  0  0  0  0  0  0  0  0
   -8.7361    3.2557    2.6378 H   0  0  0  0  0  0  0  0  0  0  0  0
   -7.2560    3.6067    1.7259 H   0  0  0  0  0  0  0  0  0  0  0  0
   -8.4268    2.4359    1.0977 H   0  0  0  0  0  0  0  0  0  0  0  0
   -7.9657    0.9224    3.0469 H   0  0  0  0  0  0  0  0  0  0  0  0
   -6.8484    2.0959    3.7086 H   0  0  0  0  0  0  0  0  0  0  0  0
   -7.4373   -0.1613    0.7685 H   0  0  0  0  0  0  0  0  0  0  0  0
   -5.6311   -1.1280   -0.5744 H   0  0  0  0  0  0  0  0  0  0  0  0
   -1.3867   -0.5819    1.0505 H   0  0  0  0  0  0  0  0  0  0  0  0
    1.1525    0.0837   -1.5126 H   0  0  0  0  0  0  0  0  0  0  0  0
    3.0928    1.2854   -1.8196 H   0  0  0  0  0  0  0  0  0  0  0  0
    5.5118    1.5365   -1.4723 H   0  0  0  0  0  0  0  0  0  0  0  0
    8.0529   -0.0529    2.1403 H   0  0  0  0  0  0  0  0  0  0  0  0
    6.8697    3.0777    3.5872 H   0  0  0  0  0  0  0  0  0  0  0  0
    7.1180    1.3583    3.9681 H   0  0  0  0  0  0  0  0  0  0  0  0
    8.4914    2.3545    3.4018 H   0  0  0  0  0  0  0  0  0  0  0  0
    5.5435   -2.0807    0.8960 H   0  0  0  0  0  0  0  0  0  0  0  0
    3.1373   -2.3279    0.5714 H   0  0  0  0  0  0  0  0  0  0  0  0
    0.8425   -2.5494   -2.8255 H   0  0  0  0  0  0  0  0  0  0  0  0
    0.0603   -3.1404   -5.0772 H   0  0  0  0  0  0  0  0  0  0  0  0
   -2.3017   -2.7103   -5.7206 H   0  0  0  0  0  0  0  0  0  0  0  0
   -3.8552   -1.6877   -4.0941 H   0  0  0  0  0  0  0  0  0  0  0  0
   -2.7606    1.2620    1.5851 H   0  0  0  0  0  0  0  0  0  0  0  0
   -4.5629    2.2131    2.9230 H   0  0  0  0  0  0  0  0  0  0  0  0
  1  2  1  0
  2  3  1  0
  3  4  2  0
  4  5  1  0
  5  6  2  0
  6  7  1  0
  7  8  2  0
  8  9  1  0
  9 10  1  0
 10 11  2  0
 10 12  1  0
 12 13  1  0
 13 14  2  0
 14 15  1  0
 15 16  2  0
 16 17  1  0
 17 18  2  0
 17 19  2  0
 17 20  1  0
 20 21  1  0
 21 22  1  0
 21 23  2  0
 16 24  1  0
 24 25  2  0
  9 26  2  0
 26 27  1  0
 27 28  2  0
 28 29  1  0
 29 30  2  0
 30 31  1  0
 31 32  2  0
  6 33  1  0
 33 34  2  0
 34  3  1  0
 32  7  1  0
 25 13  1  0
 31 26  1  0
  1 35  1  0
  1 36  1  0
  1 37  1  0
  2 38  1  0
  2 39  1  0
  4 40  1  0
  5 41  1  0
  8 42  1  0
 12 43  1  0
 14 44  1  0
 15 45  1  0
 20 46  1  0
 22 47  1  0
 22 48  1  0
 22 49  1  0
 24 50  1  0
 25 51  1  0
 27 52  1  0
 28 53  1  0
 29 54  1  0
 30 55  1  0
 33 56  1  0
 34 57  1  0
M  END
$$$$
