
     RDKit          3D

 33 33  0  0  0  0  0  0  0  0999 V2000
   -2.9725    3.3170   -1.3604 C   0  0  0  0  0  0  0  0  0  0  0  0
   -3.2652    2.5124   -0.1185 C   0  0  0  0  0  0  0  0  0  0  0  0
   -4.2577    2.7495    0.5618 O   0  0  0  0  0  0  0  0  0  0  0  0
   -2.2988    1.5624    0.1315 N   0  0  0  0  0  0  0  0  0  0  0  0
   -2.2357    0.6344    1.1955 C   0  0  0  0  0  0  0  0  0  0  0  0
   -3.2053    0.5317    2.1938 C   0  0  0  0  0  0  0  0  0  0  0  0
   -3.0689   -0.4164    3.2100 C   0  0  0  0  0  0  0  0  0  0  0  0
   -1.9652   -1.2658    3.2334 C   0  0  0  0  0  0  0  0  0  0  0  0
   -0.9878   -1.1735    2.2407 C   0  0  0  0  0  0  0  0  0  0  0  0
   -1.1166   -0.2265    1.2212 C   0  0  0  0  0  0  0  0  0  0  0  0
   -0.2210   -0.0430    0.1960 O   0  0  0  0  0  0  0  0  0  0  0  0
    0.9336   -0.8679    0.1688 C   0  0  0  0  0  0  0  0  0  0  0  0
    1.7996   -0.4998   -1.0385 C   0  0  0  0  0  0  0  0  0  0  0  0
    1.4938    0.3509   -1.8693 O   0  0  0  0  0  0  0  0  0  0  0  0
    2.9744   -1.2238   -1.1234 N   0  0  0  0  0  0  0  0  0  0  0  0
    3.9586   -0.9114   -2.1655 C   0  0  0  0  0  0  0  0  0  0  0  0
    5.0541   -1.9590   -2.3406 C   0  0  0  0  0  0  0  0  0  0  0  0
    5.6904   -2.1785   -1.1651 F   0  0  0  0  0  0  0  0  0  0  0  0
    5.9770   -1.5610   -3.2410 F   0  0  0  0  0  0  0  0  0  0  0  0
    4.5479   -3.1406   -2.7554 F   0  0  0  0  0  0  0  0  0  0  0  0
   -2.4398    2.7183   -2.1048 H   0  0  0  0  0  0  0  0  0  0  0  0
   -2.3685    4.1876   -1.0917 H   0  0  0  0  0  0  0  0  0  0  0  0
   -3.9147    3.6490   -1.8060 H   0  0  0  0  0  0  0  0  0  0  0  0
   -1.5120    1.4982   -0.5100 H   0  0  0  0  0  0  0  0  0  0  0  0
   -4.0796    1.1748    2.2072 H   0  0  0  0  0  0  0  0  0  0  0  0
   -3.8304   -0.4887    3.9830 H   0  0  0  0  0  0  0  0  0  0  0  0
   -1.8678   -2.0020    4.0276 H   0  0  0  0  0  0  0  0  0  0  0  0
   -0.1459   -1.8542    2.2947 H   0  0  0  0  0  0  0  0  0  0  0  0
    1.5354   -0.7108    1.0715 H   0  0  0  0  0  0  0  0  0  0  0  0
    0.6491   -1.9213    0.0635 H   0  0  0  0  0  0  0  0  0  0  0  0
    3.3004   -1.7206   -0.3009 H   0  0  0  0  0  0  0  0  0  0  0  0
    3.4288   -0.7706   -3.1140 H   0  0  0  0  0  0  0  0  0  0  0  0
    4.4104    0.0494   -1.8951 H   0  0  0  0  0  0  0  0  0  0  0  0
  1  2  1  0
  2  3  2  0
  2  4  1  0
  4  5  1  0
  5  6  2  0
  6  7  1  0
  7  8  2  0
  8  9  1  0
  9 10  2  0
 10 11  1  0
 11 12  1  0
 12 13  1  0
 13 14  2  0
 13 15  1  0
 15 16  1  0
 16 17  1  0
 17 18  1  0
 17 19  1  0
 17 20  1  0
 10  5  1  0
  1 21  1  0
  1 22  1  0
  1 23  1  0
  4 24  1  0
  6 25  1  0
  7 26  1  0
  8 27  1  0
  9 28  1  0
 12 29  1  0
 12 30  1  0
 15 31  1  0
 16 32  1  0
 16 33  1  0
M  END
$$$$
