
     RDKit          3D

 52 56  0  0  0  0  0  0  0  0999 V2000
    2.9008    1.3178   -1.5851 O   0  0  0  0  0  0  0  0  0  0  0  0
    2.0823    1.5789   -0.7090 C   0  0  0  0  0  0  0  0  0  0  0  0
    0.6126    1.7665   -1.0458 C   0  0  0  0  0  0  0  0  0  0  0  0
   -0.2617    0.1950   -0.7917 S   0  0  0  0  0  0  0  0  0  0  0  0
   -1.8828    0.6820   -1.1713 C   0  0  0  0  0  0  0  0  0  0  0  0
   -2.2891    1.9300   -1.1737 N   0  0  0  0  0  0  0  0  0  0  0  0
   -3.5791    1.9511   -1.6180 N   0  0  0  0  0  0  0  0  0  0  0  0
   -3.9523    0.7092   -1.8707 C   0  0  0  0  0  0  0  0  0  0  0  0
   -5.3539    0.3084   -2.2037 C   0  0  0  0  0  0  0  0  0  0  0  0
   -6.0512   -0.3538   -1.0478 C   0  0  0  0  0  0  0  0  0  0  0  0
   -6.3346    0.1772    0.1969 C   0  0  0  0  0  0  0  0  0  0  0  0
   -7.0008   -0.7527    1.0455 C   0  0  0  0  0  0  0  0  0  0  0  0
   -7.2097   -1.9612    0.4208 C   0  0  0  0  0  0  0  0  0  0  0  0
   -6.6261   -1.9622   -1.1850 S   0  0  0  0  0  0  0  0  0  0  0  0
   -2.8859   -0.1526   -1.6328 N   0  0  0  0  0  0  0  0  0  0  0  0
   -2.8488   -1.5564   -1.8295 C   0  0  0  0  0  0  0  0  0  0  0  0
   -3.3187   -2.1058   -3.0293 C   0  0  0  0  0  0  0  0  0  0  0  0
   -3.2813   -3.4881   -3.2237 C   0  0  0  0  0  0  0  0  0  0  0  0
   -2.7797   -4.3220   -2.2260 C   0  0  0  0  0  0  0  0  0  0  0  0
   -2.3087   -3.7768   -1.0324 C   0  0  0  0  0  0  0  0  0  0  0  0
   -2.3380   -2.3955   -0.8317 C   0  0  0  0  0  0  0  0  0  0  0  0
    2.3456    1.7342    0.6447 N   0  0  0  0  0  0  0  0  0  0  0  0
    3.5915    1.6321    1.2973 C   0  0  0  0  0  0  0  0  0  0  0  0
    3.5991    1.8290    2.6866 C   0  0  0  0  0  0  0  0  0  0  0  0
    4.7904    1.7525    3.4144 C   0  0  0  0  0  0  0  0  0  0  0  0
    5.9848    1.4782    2.7574 C   0  0  0  0  0  0  0  0  0  0  0  0
    5.9825    1.2525    1.3783 C   0  0  0  0  0  0  0  0  0  0  0  0
    4.7947    1.3467    0.6483 C   0  0  0  0  0  0  0  0  0  0  0  0
    7.1168    0.9389    0.6717 O   0  0  0  0  0  0  0  0  0  0  0  0
    8.1710    0.5147    1.5417 C   0  0  0  0  0  0  0  0  0  0  0  0
    8.3015    1.4654    2.7202 C   0  0  0  0  0  0  0  0  0  0  0  0
    7.1178    1.4350    3.5281 O   0  0  0  0  0  0  0  0  0  0  0  0
    0.5291    2.0860   -2.0896 H   0  0  0  0  0  0  0  0  0  0  0  0
    0.1904    2.5549   -0.4143 H   0  0  0  0  0  0  0  0  0  0  0  0
   -5.9197    1.2155   -2.4567 H   0  0  0  0  0  0  0  0  0  0  0  0
   -5.3866   -0.3053   -3.1075 H   0  0  0  0  0  0  0  0  0  0  0  0
   -6.0670    1.1878    0.4876 H   0  0  0  0  0  0  0  0  0  0  0  0
   -7.3067   -0.5467    2.0635 H   0  0  0  0  0  0  0  0  0  0  0  0
   -7.6855   -2.8440    0.8257 H   0  0  0  0  0  0  0  0  0  0  0  0
   -3.6724   -1.4809   -3.8450 H   0  0  0  0  0  0  0  0  0  0  0  0
   -3.6350   -3.9156   -4.1593 H   0  0  0  0  0  0  0  0  0  0  0  0
   -2.7521   -5.3979   -2.3796 H   0  0  0  0  0  0  0  0  0  0  0  0
   -1.9202   -4.4302   -0.2545 H   0  0  0  0  0  0  0  0  0  0  0  0
   -1.9922   -2.0046    0.1228 H   0  0  0  0  0  0  0  0  0  0  0  0
    1.5478    1.9159    1.2413 H   0  0  0  0  0  0  0  0  0  0  0  0
    2.6804    2.0477    3.2242 H   0  0  0  0  0  0  0  0  0  0  0  0
    4.7859    1.9137    4.4884 H   0  0  0  0  0  0  0  0  0  0  0  0
    4.8433    1.1765   -0.4220 H   0  0  0  0  0  0  0  0  0  0  0  0
    9.0977    0.5025    0.9591 H   0  0  0  0  0  0  0  0  0  0  0  0
    7.9606   -0.5099    1.8736 H   0  0  0  0  0  0  0  0  0  0  0  0
    9.1430    1.1690    3.3541 H   0  0  0  0  0  0  0  0  0  0  0  0
    8.4702    2.4975    2.3874 H   0  0  0  0  0  0  0  0  0  0  0  0
  1  2  2  0
  2  3  1  0
  3  4  1  0
  4  5  1  0
  5  6  2  0
  6  7  1  0
  7  8  2  0
  8  9  1  0
  9 10  1  0
 10 11  2  0
 11 12  1  0
 12 13  2  0
 13 14  1  0
  8 15  1  0
 15 16  1  0
 16 17  2  0
 17 18  1  0
 18 19  2  0
 19 20  1  0
 20 21  2  0
  2 22  1  0
 22 23  1  0
 23 24  2  0
 24 25  1  0
 25 26  2  0
 26 27  1  0
 27 28  2  0
 27 29  1  0
 29 30  1  0
 30 31  1  0
 31 32  1  0
 15  5  1  0
 21 16  1  0
 28 23  1  0
 14 10  1  0
 32 26  1  0
  3 33  1  0
  3 34  1  0
  9 35  1  0
  9 36  1  0
 11 37  1  0
 12 38  1  0
 13 39  1  0
 17 40  1  0
 18 41  1  0
 19 42  1  0
 20 43  1  0
 21 44  1  0
 22 45  1  0
 24 46  1  0
 25 47  1  0
 28 48  1  0
 30 49  1  0
 30 50  1  0
 31 51  1  0
 31 52  1  0
M  END
$$$$
