
     RDKit          3D

 46 48  0  0  0  0  0  0  0  0999 V2000
    1.0316    3.9983    0.6379 O   0  0  0  0  0  0  0  0  0  0  0  0
    1.0459    3.4457    1.7373 C   0  0  0  0  0  0  0  0  0  0  0  0
   -0.1183    3.4627    2.7312 C   0  0  0  0  0  0  0  0  0  0  0  0
   -1.4070    3.4889    2.1406 O   0  0  0  0  0  0  0  0  0  0  0  0
   -1.8688    2.3441    1.5530 C   0  0  0  0  0  0  0  0  0  0  0  0
   -1.2350    1.1032    1.5375 C   0  0  0  0  0  0  0  0  0  0  0  0
   -1.8324    0.0144    0.8872 C   0  0  0  0  0  0  0  0  0  0  0  0
   -3.0728    0.1382    0.2424 C   0  0  0  0  0  0  0  0  0  0  0  0
   -3.6922   -1.0085   -0.4419 C   0  0  0  0  0  0  0  0  0  0  0  0
   -3.8911   -2.2292    0.2248 C   0  0  0  0  0  0  0  0  0  0  0  0
   -4.4789   -3.3182   -0.4247 C   0  0  0  0  0  0  0  0  0  0  0  0
   -4.8772   -3.2051   -1.7541 C   0  0  0  0  0  0  0  0  0  0  0  0
   -4.6888   -2.0046   -2.4340 C   0  0  0  0  0  0  0  0  0  0  0  0
   -4.1019   -0.9162   -1.7826 C   0  0  0  0  0  0  0  0  0  0  0  0
   -3.7002    1.3916    0.2708 C   0  0  0  0  0  0  0  0  0  0  0  0
   -3.1048    2.4788    0.9190 C   0  0  0  0  0  0  0  0  0  0  0  0
    2.1529    2.7351    2.1838 N   0  0  0  0  0  0  0  0  0  0  0  0
    3.0672    2.3423    1.1622 N   0  0  0  0  0  0  0  0  0  0  0  0
    3.1090    0.9728    0.9183 C   0  0  0  0  0  0  0  0  0  0  0  0
    2.5527    0.1769    1.6701 O   0  0  0  0  0  0  0  0  0  0  0  0
    3.8428    0.6824   -0.2058 N   0  0  0  0  0  0  0  0  0  0  0  0
    4.0614   -0.5812   -0.7916 C   0  0  0  0  0  0  0  0  0  0  0  0
    3.4584   -1.7641   -0.3586 C   0  0  0  0  0  0  0  0  0  0  0  0
    3.7353   -2.9701   -1.0125 C   0  0  0  0  0  0  0  0  0  0  0  0
    4.6096   -2.9897   -2.0951 C   0  0  0  0  0  0  0  0  0  0  0  0
    4.8674   -4.1493   -2.7129 F   0  0  0  0  0  0  0  0  0  0  0  0
    5.2163   -1.8271   -2.5440 C   0  0  0  0  0  0  0  0  0  0  0  0
    4.9351   -0.6346   -1.8888 C   0  0  0  0  0  0  0  0  0  0  0  0
    5.5194    0.4953   -2.3195 F   0  0  0  0  0  0  0  0  0  0  0  0
   -0.0409    2.6505    3.4636 H   0  0  0  0  0  0  0  0  0  0  0  0
   -0.0130    4.3932    3.3017 H   0  0  0  0  0  0  0  0  0  0  0  0
   -0.2754    0.9295    2.0107 H   0  0  0  0  0  0  0  0  0  0  0  0
   -1.3062   -0.9388    0.8762 H   0  0  0  0  0  0  0  0  0  0  0  0
   -3.5978   -2.3356    1.2672 H   0  0  0  0  0  0  0  0  0  0  0  0
   -4.6274   -4.2525    0.1103 H   0  0  0  0  0  0  0  0  0  0  0  0
   -5.3341   -4.0516   -2.2599 H   0  0  0  0  0  0  0  0  0  0  0  0
   -4.9955   -1.9132   -3.4726 H   0  0  0  0  0  0  0  0  0  0  0  0
   -3.9533    0.0090   -2.3360 H   0  0  0  0  0  0  0  0  0  0  0  0
   -4.6677    1.5316   -0.2069 H   0  0  0  0  0  0  0  0  0  0  0  0
   -3.6112    3.4412    0.9246 H   0  0  0  0  0  0  0  0  0  0  0  0
    2.0110    2.0068    2.8858 H   0  0  0  0  0  0  0  0  0  0  0  0
    2.9875    2.9315    0.3318 H   0  0  0  0  0  0  0  0  0  0  0  0
    4.3570    1.4502   -0.6215 H   0  0  0  0  0  0  0  0  0  0  0  0
    2.7669   -1.7822    0.4781 H   0  0  0  0  0  0  0  0  0  0  0  0
    3.2701   -3.8942   -0.6817 H   0  0  0  0  0  0  0  0  0  0  0  0
    5.8945   -1.8482   -3.3882 H   0  0  0  0  0  0  0  0  0  0  0  0
  1  2  2  0
  2  3  1  0
  3  4  1  0
  4  5  1  0
  5  6  2  0
  6  7  1  0
  7  8  2  0
  8  9  1  0
  9 10  2  0
 10 11  1  0
 11 12  2  0
 12 13  1  0
 13 14  2  0
  8 15  1  0
 15 16  2  0
  2 17  1  0
 17 18  1  0
 18 19  1  0
 19 20  2  0
 19 21  1  0
 21 22  1  0
 22 23  2  0
 23 24  1  0
 24 25  2  0
 25 26  1  0
 25 27  1  0
 27 28  2  0
 28 29  1  0
 16  5  1  0
 28 22  1  0
 14  9  1  0
  3 30  1  0
  3 31  1  0
  6 32  1  0
  7 33  1  0
 10 34  1  0
 11 35  1  0
 12 36  1  0
 13 37  1  0
 14 38  1  0
 15 39  1  0
 16 40  1  0
 17 41  1  0
 18 42  1  0
 21 43  1  0
 23 44  1  0
 24 45  1  0
 27 46  1  0
M  END
$$$$
