
     RDKit          3D

 52 56  0  0  0  0  0  0  0  0999 V2000
    3.0520   -3.2384    1.1663 O   0  0  0  0  0  0  0  0  0  0  0  0
    2.2073   -2.3866    1.4310 C   0  0  0  0  0  0  0  0  0  0  0  0
    0.8515   -2.7931    1.9852 C   0  0  0  0  0  0  0  0  0  0  0  0
   -0.3875   -2.8939    0.6621 S   0  0  0  0  0  0  0  0  0  0  0  0
   -0.9187   -1.2455    0.5695 C   0  0  0  0  0  0  0  0  0  0  0  0
   -0.3519   -0.2571    1.2213 N   0  0  0  0  0  0  0  0  0  0  0  0
   -0.9434    0.9035    0.8306 N   0  0  0  0  0  0  0  0  0  0  0  0
   -1.8908    0.6124   -0.0444 C   0  0  0  0  0  0  0  0  0  0  0  0
   -2.9173    1.5871   -0.5321 C   0  0  0  0  0  0  0  0  0  0  0  0
   -4.2433    1.4109    0.1582 C   0  0  0  0  0  0  0  0  0  0  0  0
   -5.3659    0.7360   -0.2857 C   0  0  0  0  0  0  0  0  0  0  0  0
   -6.4316    0.7712    0.6576 C   0  0  0  0  0  0  0  0  0  0  0  0
   -6.0950    1.4814    1.7885 C   0  0  0  0  0  0  0  0  0  0  0  0
   -4.5041    2.1027    1.7072 S   0  0  0  0  0  0  0  0  0  0  0  0
   -1.8849   -0.7574   -0.2912 N   0  0  0  0  0  0  0  0  0  0  0  0
   -2.6953   -1.4715   -1.2099 C   0  0  0  0  0  0  0  0  0  0  0  0
   -2.8233   -1.0092   -2.5266 C   0  0  0  0  0  0  0  0  0  0  0  0
   -3.6174   -1.7099   -3.4358 C   0  0  0  0  0  0  0  0  0  0  0  0
   -4.2863   -2.8644   -3.0341 C   0  0  0  0  0  0  0  0  0  0  0  0
   -4.1568   -3.3272   -1.7252 C   0  0  0  0  0  0  0  0  0  0  0  0
   -3.3612   -2.6368   -0.8101 C   0  0  0  0  0  0  0  0  0  0  0  0
    2.3573   -1.0176    1.2899 N   0  0  0  0  0  0  0  0  0  0  0  0
    3.5021   -0.3067    0.8811 C   0  0  0  0  0  0  0  0  0  0  0  0
    4.7424   -0.9009    0.6388 C   0  0  0  0  0  0  0  0  0  0  0  0
    5.8347   -0.1235    0.2427 C   0  0  0  0  0  0  0  0  0  0  0  0
    5.6937    1.2520    0.0874 C   0  0  0  0  0  0  0  0  0  0  0  0
    4.4604    1.8552    0.3442 C   0  0  0  0  0  0  0  0  0  0  0  0
    3.3675    1.0794    0.7276 C   0  0  0  0  0  0  0  0  0  0  0  0
    4.2510    3.2085    0.2423 O   0  0  0  0  0  0  0  0  0  0  0  0
    5.4918    3.9205    0.2313 C   0  0  0  0  0  0  0  0  0  0  0  0
    6.4782    3.2737   -0.7271 C   0  0  0  0  0  0  0  0  0  0  0  0
    6.8078    1.9468   -0.3036 O   0  0  0  0  0  0  0  0  0  0  0  0
    0.9561   -3.7844    2.4374 H   0  0  0  0  0  0  0  0  0  0  0  0
    0.5433   -2.1155    2.7885 H   0  0  0  0  0  0  0  0  0  0  0  0
   -3.0545    1.5197   -1.6149 H   0  0  0  0  0  0  0  0  0  0  0  0
   -2.5474    2.6083   -0.3602 H   0  0  0  0  0  0  0  0  0  0  0  0
   -5.4215    0.2322   -1.2419 H   0  0  0  0  0  0  0  0  0  0  0  0
   -7.3970    0.2986    0.5184 H   0  0  0  0  0  0  0  0  0  0  0  0
   -6.7067    1.6714    2.6591 H   0  0  0  0  0  0  0  0  0  0  0  0
   -2.2757   -0.1402   -2.8836 H   0  0  0  0  0  0  0  0  0  0  0  0
   -3.7012   -1.3652   -4.4637 H   0  0  0  0  0  0  0  0  0  0  0  0
   -4.9026   -3.4114   -3.7422 H   0  0  0  0  0  0  0  0  0  0  0  0
   -4.6813   -4.2294   -1.4170 H   0  0  0  0  0  0  0  0  0  0  0  0
   -3.3062   -3.0055    0.2110 H   0  0  0  0  0  0  0  0  0  0  0  0
    1.5158   -0.4559    1.4329 H   0  0  0  0  0  0  0  0  0  0  0  0
    4.8952   -1.9715    0.7430 H   0  0  0  0  0  0  0  0  0  0  0  0
    6.7932   -0.5975    0.0523 H   0  0  0  0  0  0  0  0  0  0  0  0
    2.4139    1.5706    0.9120 H   0  0  0  0  0  0  0  0  0  0  0  0
    5.2821    4.9492   -0.0808 H   0  0  0  0  0  0  0  0  0  0  0  0
    5.8830    3.9477    1.2558 H   0  0  0  0  0  0  0  0  0  0  0  0
    6.0793    3.2272   -1.7497 H   0  0  0  0  0  0  0  0  0  0  0  0
    7.4092    3.8499   -0.7497 H   0  0  0  0  0  0  0  0  0  0  0  0
  1  2  2  0
  2  3  1  0
  3  4  1  0
  4  5  1  0
  5  6  2  0
  6  7  1  0
  7  8  2  0
  8  9  1  0
  9 10  1  0
 10 11  2  0
 11 12  1  0
 12 13  2  0
 13 14  1  0
  8 15  1  0
 15 16  1  0
 16 17  2  0
 17 18  1  0
 18 19  2  0
 19 20  1  0
 20 21  2  0
  2 22  1  0
 22 23  1  0
 23 24  2  0
 24 25  1  0
 25 26  2  0
 26 27  1  0
 27 28  2  0
 27 29  1  0
 29 30  1  0
 30 31  1  0
 31 32  1  0
 15  5  1  0
 21 16  1  0
 28 23  1  0
 14 10  1  0
 32 26  1  0
  3 33  1  0
  3 34  1  0
  9 35  1  0
  9 36  1  0
 11 37  1  0
 12 38  1  0
 13 39  1  0
 17 40  1  0
 18 41  1  0
 19 42  1  0
 20 43  1  0
 21 44  1  0
 22 45  1  0
 24 46  1  0
 25 47  1  0
 28 48  1  0
 30 49  1  0
 30 50  1  0
 31 51  1  0
 31 52  1  0
M  END
$$$$
