
     RDKit          3D

 36 37  0  0  0  0  0  0  0  0999 V2000
   -2.2561    0.8449    1.5870 C   0  0  0  0  0  0  0  0  0  0  0  0
   -1.9812    0.6984    0.0949 C   0  0  0  0  0  0  0  0  0  0  0  0
   -2.0655   -0.7065   -0.3377 N   0  0  0  0  0  0  0  0  0  0  0  0
   -2.4386   -0.8319   -1.7599 C   0  0  0  0  0  0  0  0  0  0  0  0
   -3.9486   -1.0773   -1.9304 C   0  0  0  0  0  0  0  0  0  0  0  0
   -4.7324   -0.0865   -1.2780 O   0  0  0  0  0  0  0  0  0  0  0  0
   -0.8895   -1.5216    0.0307 C   0  0  0  0  0  0  0  0  0  0  0  0
    0.4240   -1.0356   -0.5403 C   0  0  0  0  0  0  0  0  0  0  0  0
    0.8306   -1.2405   -1.8465 C   0  0  0  0  0  0  0  0  0  0  0  0
    2.3506   -0.5661   -2.1974 S   0  0  0  0  0  0  0  0  0  0  0  0
    2.5608   -0.0219   -0.5820 C   0  0  0  0  0  0  0  0  0  0  0  0
    3.6809    0.6658   -0.0689 C   0  0  0  0  0  0  0  0  0  0  0  0
    3.7070    1.0370    1.2811 C   0  0  0  0  0  0  0  0  0  0  0  0
    4.9072    1.7389    1.8460 C   0  0  0  0  0  0  0  0  0  0  0  0
    2.6389    0.6941    2.1034 C   0  0  0  0  0  0  0  0  0  0  0  0
    1.5294    0.0138    1.5876 C   0  0  0  0  0  0  0  0  0  0  0  0
    1.4627   -0.3516    0.2181 C   0  0  0  0  0  0  0  0  0  0  0  0
   -3.2457    0.4510    1.8427 H   0  0  0  0  0  0  0  0  0  0  0  0
   -1.5164    0.3262    2.2004 H   0  0  0  0  0  0  0  0  0  0  0  0
   -2.2363    1.9031    1.8675 H   0  0  0  0  0  0  0  0  0  0  0  0
   -2.7403    1.3016   -0.4181 H   0  0  0  0  0  0  0  0  0  0  0  0
   -1.0232    1.1598   -0.1668 H   0  0  0  0  0  0  0  0  0  0  0  0
   -2.1333    0.0586   -2.3232 H   0  0  0  0  0  0  0  0  0  0  0  0
   -1.9470   -1.6898   -2.2318 H   0  0  0  0  0  0  0  0  0  0  0  0
   -4.2282   -2.0545   -1.5216 H   0  0  0  0  0  0  0  0  0  0  0  0
   -4.2095   -1.0712   -2.9933 H   0  0  0  0  0  0  0  0  0  0  0  0
   -4.4460   -0.1194   -0.3464 H   0  0  0  0  0  0  0  0  0  0  0  0
   -1.0549   -2.5590   -0.2910 H   0  0  0  0  0  0  0  0  0  0  0  0
   -0.8245   -1.5874    1.1223 H   0  0  0  0  0  0  0  0  0  0  0  0
    0.2964   -1.7538   -2.6329 H   0  0  0  0  0  0  0  0  0  0  0  0
    4.5171    0.9012   -0.7228 H   0  0  0  0  0  0  0  0  0  0  0  0
    5.3797    2.3745    1.0896 H   0  0  0  0  0  0  0  0  0  0  0  0
    4.6236    2.3866    2.6823 H   0  0  0  0  0  0  0  0  0  0  0  0
    5.6382    1.0049    2.1988 H   0  0  0  0  0  0  0  0  0  0  0  0
    2.6540    0.9524    3.1603 H   0  0  0  0  0  0  0  0  0  0  0  0
    0.7160   -0.2379    2.2617 H   0  0  0  0  0  0  0  0  0  0  0  0
  1  2  1  0
  2  3  1  0
  3  4  1  0
  4  5  1  0
  5  6  1  0
  3  7  1  0
  7  8  1  0
  8  9  2  0
  9 10  1  0
 10 11  1  0
 11 12  2  0
 12 13  1  0
 13 14  1  0
 13 15  2  0
 15 16  1  0
 16 17  2  0
 17  8  1  0
 17 11  1  0
  1 18  1  0
  1 19  1  0
  1 20  1  0
  2 21  1  0
  2 22  1  0
  4 23  1  0
  4 24  1  0
  5 25  1  0
  5 26  1  0
  6 27  1  0
  7 28  1  0
  7 29  1  0
  9 30  1  0
 12 31  1  0
 14 32  1  0
 14 33  1  0
 14 34  1  0
 15 35  1  0
 16 36  1  0
M  END
$$$$
