
     RDKit          3D

 68 71  0  0  0  0  0  0  0  0999 V2000
   -2.1314   -6.8732    1.0688 C   0  0  0  0  0  0  0  0  0  0  0  0
   -2.1945   -5.3801    0.9377 C   0  0  0  0  0  0  0  0  0  0  0  0
   -1.5263   -4.5562    1.8489 C   0  0  0  0  0  0  0  0  0  0  0  0
   -1.5599   -3.1672    1.7039 C   0  0  0  0  0  0  0  0  0  0  0  0
   -2.2538   -2.5682    0.6360 C   0  0  0  0  0  0  0  0  0  0  0  0
   -2.1967   -1.0450    0.4836 C   0  0  0  0  0  0  0  0  0  0  0  0
   -3.3570   -0.3997   -0.3268 C   0  0  0  0  0  0  0  0  0  0  0  0
   -4.5273   -0.7728   -0.2372 O   0  0  0  0  0  0  0  0  0  0  0  0
   -3.0010    0.6937   -1.0922 N   0  0  0  0  0  0  0  0  0  0  0  0
   -3.9901    1.5489   -1.7081 C   0  0  0  0  0  0  0  0  0  0  0  0
   -3.3982    2.4774   -2.7618 C   0  0  0  0  0  0  0  0  0  0  0  0
   -4.4664    3.5491   -2.9021 C   0  0  0  0  0  0  0  0  0  0  0  0
   -4.9212    3.7998   -1.4691 C   0  0  0  0  0  0  0  0  0  0  0  0
   -4.6536    2.5008   -0.7067 C   0  0  0  0  0  0  0  0  0  0  0  0
   -0.8417   -0.6114    0.0414 N   0  0  0  0  0  0  0  0  0  0  0  0
   -0.2982   -1.2595   -1.1610 C   0  0  0  0  0  0  0  0  0  0  0  0
    0.2919   -0.2993   -2.1342 C   0  0  0  0  0  0  0  0  0  0  0  0
    1.3877   -0.3822   -2.9695 C   0  0  0  0  0  0  0  0  0  0  0  0
    1.4360    0.8371   -3.6866 C   0  0  0  0  0  0  0  0  0  0  0  0
    0.3737    1.5872   -3.2414 C   0  0  0  0  0  0  0  0  0  0  0  0
   -0.3359    0.9028   -2.3084 O   0  0  0  0  0  0  0  0  0  0  0  0
   -0.0804    0.1095    0.9558 C   0  0  0  0  0  0  0  0  0  0  0  0
   -0.5835    0.6144    1.9598 O   0  0  0  0  0  0  0  0  0  0  0  0
    1.4051    0.2729    0.6860 C   0  0  0  0  0  0  0  0  0  0  0  0
    2.1262    0.8739    1.8912 C   0  0  0  0  0  0  0  0  0  0  0  0
    3.6183    0.9831    1.6515 C   0  0  0  0  0  0  0  0  0  0  0  0
    4.1567    0.5381    0.6403 O   0  0  0  0  0  0  0  0  0  0  0  0
    4.2563    1.6185    2.6930 N   0  0  0  0  0  0  0  0  0  0  0  0
    5.6078    1.8747    2.7595 C   0  0  0  0  0  0  0  0  0  0  0  0
    6.6298    1.5543    1.8396 C   0  0  0  0  0  0  0  0  0  0  0  0
    7.7761    2.0519    2.4083 C   0  0  0  0  0  0  0  0  0  0  0  0
    9.1941    2.0801    2.0066 C   0  0  0  0  0  0  0  0  0  0  0  0
    7.4649    2.6361    3.5950 O   0  0  0  0  0  0  0  0  0  0  0  0
    6.1056    2.5210    3.8197 N   0  0  0  0  0  0  0  0  0  0  0  0
   -2.9108   -3.4034   -0.2799 C   0  0  0  0  0  0  0  0  0  0  0  0
   -2.8794   -4.7929   -0.1310 C   0  0  0  0  0  0  0  0  0  0  0  0
   -1.9604   -7.1706    2.1087 H   0  0  0  0  0  0  0  0  0  0  0  0
   -3.0735   -7.3309    0.7500 H   0  0  0  0  0  0  0  0  0  0  0  0
   -1.3175   -7.2674    0.4520 H   0  0  0  0  0  0  0  0  0  0  0  0
   -0.9748   -4.9895    2.6807 H   0  0  0  0  0  0  0  0  0  0  0  0
   -1.0343   -2.5471    2.4301 H   0  0  0  0  0  0  0  0  0  0  0  0
   -2.3852   -0.6507    1.4920 H   0  0  0  0  0  0  0  0  0  0  0  0
   -2.0373    1.0132   -1.0295 H   0  0  0  0  0  0  0  0  0  0  0  0
   -4.7613    0.9172   -2.1667 H   0  0  0  0  0  0  0  0  0  0  0  0
   -3.1987    1.9607   -3.7052 H   0  0  0  0  0  0  0  0  0  0  0  0
   -2.4589    2.9244   -2.4129 H   0  0  0  0  0  0  0  0  0  0  0  0
   -4.0895    4.4570   -3.3822 H   0  0  0  0  0  0  0  0  0  0  0  0
   -5.3043    3.1715   -3.5012 H   0  0  0  0  0  0  0  0  0  0  0  0
   -4.3347    4.6119   -1.0233 H   0  0  0  0  0  0  0  0  0  0  0  0
   -5.9763    4.0893   -1.4260 H   0  0  0  0  0  0  0  0  0  0  0  0
   -4.0033    2.7043    0.1530 H   0  0  0  0  0  0  0  0  0  0  0  0
   -5.5814    2.0696   -0.3153 H   0  0  0  0  0  0  0  0  0  0  0  0
   -1.0988   -1.7889   -1.6875 H   0  0  0  0  0  0  0  0  0  0  0  0
    0.4458   -1.9976   -0.8436 H   0  0  0  0  0  0  0  0  0  0  0  0
    2.0653   -1.2211   -3.0524 H   0  0  0  0  0  0  0  0  0  0  0  0
    2.1597    1.1323   -4.4322 H   0  0  0  0  0  0  0  0  0  0  0  0
    0.0014    2.5740   -3.4809 H   0  0  0  0  0  0  0  0  0  0  0  0
    1.8405   -0.7041    0.4510 H   0  0  0  0  0  0  0  0  0  0  0  0
    1.5396    0.9446   -0.1669 H   0  0  0  0  0  0  0  0  0  0  0  0
    1.9645    0.2508    2.7796 H   0  0  0  0  0  0  0  0  0  0  0  0
    1.7322    1.8763    2.1019 H   0  0  0  0  0  0  0  0  0  0  0  0
    3.7332    1.9668    3.4878 H   0  0  0  0  0  0  0  0  0  0  0  0
    6.5481    1.0316    0.8971 H   0  0  0  0  0  0  0  0  0  0  0  0
    9.3809    2.9199    1.3294 H   0  0  0  0  0  0  0  0  0  0  0  0
    9.4655    1.1528    1.4912 H   0  0  0  0  0  0  0  0  0  0  0  0
    9.8508    2.1877    2.8761 H   0  0  0  0  0  0  0  0  0  0  0  0
   -3.4614   -2.9903   -1.1242 H   0  0  0  0  0  0  0  0  0  0  0  0
   -3.3988   -5.4117   -0.8589 H   0  0  0  0  0  0  0  0  0  0  0  0
  1  2  1  0
  2  3  2  0
  3  4  1  0
  4  5  2  0
  5  6  1  0
  6  7  1  0
  7  8  2  0
  7  9  1  0
  9 10  1  0
 10 11  1  0
 11 12  1  0
 12 13  1  0
 13 14  1  0
  6 15  1  0
 15 16  1  0
 16 17  1  0
 17 18  2  0
 18 19  1  0
 19 20  2  0
 20 21  1  0
 15 22  1  0
 22 23  2  0
 22 24  1  0
 24 25  1  0
 25 26  1  0
 26 27  2  0
 26 28  1  0
 28 29  1  0
 29 30  1  0
 30 31  2  0
 31 32  1  0
 31 33  1  0
 33 34  1  0
  5 35  1  0
 35 36  2  0
 36  2  1  0
 14 10  1  0
 21 17  1  0
 34 29  2  0
  1 37  1  0
  1 38  1  0
  1 39  1  0
  3 40  1  0
  4 41  1  0
  6 42  1  0
  9 43  1  0
 10 44  1  0
 11 45  1  0
 11 46  1  0
 12 47  1  0
 12 48  1  0
 13 49  1  0
 13 50  1  0
 14 51  1  0
 14 52  1  0
 16 53  1  0
 16 54  1  0
 18 55  1  0
 19 56  1  0
 20 57  1  0
 24 58  1  0
 24 59  1  0
 25 60  1  0
 25 61  1  0
 28 62  1  0
 30 63  1  0
 32 64  1  0
 32 65  1  0
 32 66  1  0
 35 67  1  0
 36 68  1  0
M  END
$$$$
