
     RDKit          3D

 63 67  0  0  0  0  0  0  0  0999 V2000
    7.4211    1.9635   -3.6854 C   0  0  0  0  0  0  0  0  0  0  0  0
    6.8065    2.8166   -2.5922 C   0  0  0  0  0  0  0  0  0  0  0  0
    6.1429    1.9871   -1.6304 O   0  0  0  0  0  0  0  0  0  0  0  0
    4.8296    1.7112   -1.8856 C   0  0  0  0  0  0  0  0  0  0  0  0
    4.2152    2.0973   -2.8733 O   0  0  0  0  0  0  0  0  0  0  0  0
    4.2125    0.8991   -0.8430 C   0  0  0  0  0  0  0  0  0  0  0  0
    2.8567    0.4562   -0.7920 C   0  0  0  0  0  0  0  0  0  0  0  0
    2.6723   -0.2579    0.3781 C   0  0  0  0  0  0  0  0  0  0  0  0
    1.5047   -0.9213    0.9407 C   0  0  0  0  0  0  0  0  0  0  0  0
    0.2347   -0.8480    0.3772 N   0  0  0  0  0  0  0  0  0  0  0  0
   -0.3141    0.4363   -0.0934 C   0  0  0  0  0  0  0  0  0  0  0  0
   -1.7529    0.6563    0.4192 C   0  0  0  0  0  0  0  0  0  0  0  0
   -2.7058   -0.3805   -0.0358 N   0  0  0  0  0  0  0  0  0  0  0  0
   -3.9208   -0.3614    0.7962 C   0  0  0  0  0  0  0  0  0  0  0  0
   -5.1414   -1.0313    0.1322 C   0  0  0  0  0  0  0  0  0  0  0  0
   -5.7971   -0.1696   -0.9324 C   0  0  0  0  0  0  0  0  0  0  0  0
   -5.2733   -0.2084   -2.2378 C   0  0  0  0  0  0  0  0  0  0  0  0
   -5.8273    0.5656   -3.2583 C   0  0  0  0  0  0  0  0  0  0  0  0
   -6.9115    1.3924   -2.9918 C   0  0  0  0  0  0  0  0  0  0  0  0
   -7.4419    1.4479   -1.7024 C   0  0  0  0  0  0  0  0  0  0  0  0
   -6.8953    0.6791   -0.6559 C   0  0  0  0  0  0  0  0  0  0  0  0
   -7.5191    0.7676    0.7192 C   0  0  0  0  0  0  0  0  0  0  0  0
   -8.4152    1.7863    0.8516 F   0  0  0  0  0  0  0  0  0  0  0  0
   -8.1995   -0.3632    1.0523 F   0  0  0  0  0  0  0  0  0  0  0  0
   -6.6051    0.9610    1.7114 F   0  0  0  0  0  0  0  0  0  0  0  0
   -2.0566   -1.7101   -0.0836 C   0  0  0  0  0  0  0  0  0  0  0  0
   -0.7754   -1.8473    0.7658 C   0  0  0  0  0  0  0  0  0  0  0  0
    1.6602   -1.6355    2.0289 N   0  0  0  0  0  0  0  0  0  0  0  0
    2.9122   -1.7129    2.6678 C   0  0  0  0  0  0  0  0  0  0  0  0
    3.0138   -2.4648    3.8401 C   0  0  0  0  0  0  0  0  0  0  0  0
    4.2295   -2.5647    4.5224 C   0  0  0  0  0  0  0  0  0  0  0  0
    5.3611   -1.9087    4.0351 C   0  0  0  0  0  0  0  0  0  0  0  0
    5.2834   -1.1514    2.8658 C   0  0  0  0  0  0  0  0  0  0  0  0
    4.0595   -1.0604    2.1951 C   0  0  0  0  0  0  0  0  0  0  0  0
    3.8937   -0.3250    1.0107 N   0  0  0  0  0  0  0  0  0  0  0  0
    4.8203    0.3973    0.2968 C   0  0  0  0  0  0  0  0  0  0  0  0
    8.1347    1.2506   -3.2638 H   0  0  0  0  0  0  0  0  0  0  0  0
    7.9389    2.5898   -4.4142 H   0  0  0  0  0  0  0  0  0  0  0  0
    6.6591    1.3779   -4.2049 H   0  0  0  0  0  0  0  0  0  0  0  0
    6.1278    3.5699   -3.0072 H   0  0  0  0  0  0  0  0  0  0  0  0
    7.5942    3.3590   -2.0593 H   0  0  0  0  0  0  0  0  0  0  0  0
    2.1034    0.6524   -1.5443 H   0  0  0  0  0  0  0  0  0  0  0  0
    0.2984    1.2752    0.2580 H   0  0  0  0  0  0  0  0  0  0  0  0
   -0.3053    0.4500   -1.1903 H   0  0  0  0  0  0  0  0  0  0  0  0
   -1.7211    0.6907    1.5169 H   0  0  0  0  0  0  0  0  0  0  0  0
   -2.1073    1.6337    0.0729 H   0  0  0  0  0  0  0  0  0  0  0  0
   -4.1907    0.6771    1.0302 H   0  0  0  0  0  0  0  0  0  0  0  0
   -3.7174   -0.8536    1.7551 H   0  0  0  0  0  0  0  0  0  0  0  0
   -5.8750   -1.2735    0.9100 H   0  0  0  0  0  0  0  0  0  0  0  0
   -4.8752   -2.0051   -0.3019 H   0  0  0  0  0  0  0  0  0  0  0  0
   -4.4178   -0.8448   -2.4621 H   0  0  0  0  0  0  0  0  0  0  0  0
   -5.4079    0.5232   -4.2614 H   0  0  0  0  0  0  0  0  0  0  0  0
   -7.3436    1.9956   -3.7862 H   0  0  0  0  0  0  0  0  0  0  0  0
   -8.2924    2.1028   -1.5170 H   0  0  0  0  0  0  0  0  0  0  0  0
   -2.7510   -2.5118    0.1914 H   0  0  0  0  0  0  0  0  0  0  0  0
   -1.7895   -1.8902   -1.1318 H   0  0  0  0  0  0  0  0  0  0  0  0
   -1.0238   -1.7430    1.8298 H   0  0  0  0  0  0  0  0  0  0  0  0
   -0.3665   -2.8536    0.6128 H   0  0  0  0  0  0  0  0  0  0  0  0
    2.1332   -2.9728    4.2244 H   0  0  0  0  0  0  0  0  0  0  0  0
    4.2915   -3.1532    5.4343 H   0  0  0  0  0  0  0  0  0  0  0  0
    6.3046   -1.9890    4.5709 H   0  0  0  0  0  0  0  0  0  0  0  0
    6.1771   -0.6515    2.5074 H   0  0  0  0  0  0  0  0  0  0  0  0
    5.8441    0.4957    0.6330 H   0  0  0  0  0  0  0  0  0  0  0  0
  1  2  1  0
  2  3  1  0
  3  4  1  0
  4  5  2  0
  4  6  1  0
  6  7  1  0
  7  8  2  0
  8  9  1  0
  9 10  1  0
 10 11  1  0
 11 12  1  0
 12 13  1  0
 13 14  1  0
 14 15  1  0
 15 16  1  0
 16 17  2  0
 17 18  1  0
 18 19  2  0
 19 20  1  0
 20 21  2  0
 21 22  1  0
 22 23  1  0
 22 24  1  0
 22 25  1  0
 13 26  1  0
 26 27  1  0
  9 28  2  0
 28 29  1  0
 29 30  2  0
 30 31  1  0
 31 32  2  0
 32 33  1  0
 33 34  2  0
 34 35  1  0
 35 36  1  0
 36  6  2  0
 35  8  1  0
 27 10  1  0
 34 29  1  0
 21 16  1  0
  1 37  1  0
  1 38  1  0
  1 39  1  0
  2 40  1  0
  2 41  1  0
  7 42  1  0
 11 43  1  0
 11 44  1  0
 12 45  1  0
 12 46  1  0
 14 47  1  0
 14 48  1  0
 15 49  1  0
 15 50  1  0
 17 51  1  0
 18 52  1  0
 19 53  1  0
 20 54  1  0
 26 55  1  0
 26 56  1  0
 27 57  1  0
 27 58  1  0
 30 59  1  0
 31 60  1  0
 32 61  1  0
 33 62  1  0
 36 63  1  0
M  END
$$$$
