
     RDKit          3D

 31 31  0  0  0  0  0  0  0  0999 V2000
    4.9225    1.0912    1.4964 C   0  0  0  0  0  0  0  0  0  0  0  0
    4.1267    0.3242    0.6070 O   0  0  0  0  0  0  0  0  0  0  0  0
    2.7535    0.3311    1.0005 C   0  0  0  0  0  0  0  0  0  0  0  0
    1.9584   -0.2695   -0.0227 O   0  0  0  0  0  0  0  0  0  0  0  0
    0.7090   -0.6030    0.4298 C   0  0  0  0  0  0  0  0  0  0  0  0
   -0.4427   -0.3006   -0.1913 C   0  0  0  0  0  0  0  0  0  0  0  0
   -0.5860    0.5244   -1.2869 N   0  0  0  0  0  0  0  0  0  0  0  0
    0.1953    1.6163   -1.6211 C   0  0  0  0  0  0  0  0  0  0  0  0
   -0.1408    2.1689   -2.9829 C   0  0  0  0  0  0  0  0  0  0  0  0
    1.0190    2.1727   -0.9020 O   0  0  0  0  0  0  0  0  0  0  0  0
   -1.6790   -0.9489    0.2864 C   0  0  0  0  0  0  0  0  0  0  0  0
   -1.8800   -2.3257    0.1180 C   0  0  0  0  0  0  0  0  0  0  0  0
   -3.0603   -2.9251    0.5620 C   0  0  0  0  0  0  0  0  0  0  0  0
   -4.0472   -2.1539    1.1747 C   0  0  0  0  0  0  0  0  0  0  0  0
   -3.8571   -0.7830    1.3444 C   0  0  0  0  0  0  0  0  0  0  0  0
   -2.6780   -0.1813    0.9007 C   0  0  0  0  0  0  0  0  0  0  0  0
    4.8559    0.6930    2.5136 H   0  0  0  0  0  0  0  0  0  0  0  0
    5.9632    1.0319    1.1665 H   0  0  0  0  0  0  0  0  0  0  0  0
    4.6128    2.1407    1.4815 H   0  0  0  0  0  0  0  0  0  0  0  0
    2.6699   -0.2319    1.9390 H   0  0  0  0  0  0  0  0  0  0  0  0
    2.4142    1.3614    1.1593 H   0  0  0  0  0  0  0  0  0  0  0  0
    0.7544   -1.2621    1.2898 H   0  0  0  0  0  0  0  0  0  0  0  0
   -1.4733    0.4531   -1.7712 H   0  0  0  0  0  0  0  0  0  0  0  0
    0.7692    2.5585   -3.4478 H   0  0  0  0  0  0  0  0  0  0  0  0
   -0.8732    2.9730   -2.8748 H   0  0  0  0  0  0  0  0  0  0  0  0
   -0.5491    1.3920   -3.6359 H   0  0  0  0  0  0  0  0  0  0  0  0
   -1.1199   -2.9369   -0.3644 H   0  0  0  0  0  0  0  0  0  0  0  0
   -3.2096   -3.9937    0.4290 H   0  0  0  0  0  0  0  0  0  0  0  0
   -4.9651   -2.6221    1.5215 H   0  0  0  0  0  0  0  0  0  0  0  0
   -4.6257   -0.1829    1.8248 H   0  0  0  0  0  0  0  0  0  0  0  0
   -2.5370    0.8882    1.0438 H   0  0  0  0  0  0  0  0  0  0  0  0
  1  2  1  0
  2  3  1  0
  3  4  1  0
  4  5  1  0
  5  6  2  3
  6  7  1  0
  7  8  1  0
  8  9  1  0
  8 10  2  0
  6 11  1  0
 11 12  2  0
 12 13  1  0
 13 14  2  0
 14 15  1  0
 15 16  2  0
 16 11  1  0
  1 17  1  0
  1 18  1  0
  1 19  1  0
  3 20  1  0
  3 21  1  0
  5 22  1  0
  7 23  1  0
  9 24  1  0
  9 25  1  0
  9 26  1  0
 12 27  1  0
 13 28  1  0
 14 29  1  0
 15 30  1  0
 16 31  1  0
M  END
$$$$
