
     RDKit          3D

 60 64  0  0  0  0  0  0  0  0999 V2000
   -2.4006    2.4609   -1.1627 C   0  0  0  0  0  0  0  0  0  0  0  0
   -2.4794    1.0652   -1.5809 N   0  0  0  0  0  0  0  0  0  0  0  0
   -3.7136    0.4258   -1.4299 C   0  0  0  0  0  0  0  0  0  0  0  0
   -4.7231    1.0204   -1.0489 O   0  0  0  0  0  0  0  0  0  0  0  0
   -3.7767   -1.0458   -1.7068 C   0  0  0  0  0  0  0  0  0  0  0  0
   -4.5011   -1.9003   -0.9608 C   0  0  0  0  0  0  0  0  0  0  0  0
   -5.2543   -1.5724    0.2529 C   0  0  0  0  0  0  0  0  0  0  0  0
   -4.5939   -1.2683    1.4486 C   0  0  0  0  0  0  0  0  0  0  0  0
   -5.3275   -0.9686    2.6011 C   0  0  0  0  0  0  0  0  0  0  0  0
   -6.7307   -0.9599    2.5737 C   0  0  0  0  0  0  0  0  0  0  0  0
   -7.5213   -0.6439    3.8194 C   0  0  0  0  0  0  0  0  0  0  0  0
   -8.7153   -0.0408    3.5602 F   0  0  0  0  0  0  0  0  0  0  0  0
   -7.8175   -1.7612    4.5397 F   0  0  0  0  0  0  0  0  0  0  0  0
   -6.8655    0.1878    4.6781 F   0  0  0  0  0  0  0  0  0  0  0  0
   -7.3859   -1.2799    1.3743 C   0  0  0  0  0  0  0  0  0  0  0  0
   -6.6528   -1.5824    0.2230 C   0  0  0  0  0  0  0  0  0  0  0  0
   -2.9345   -1.6254   -3.0952 S   0  0  0  0  0  0  0  0  0  0  0  0
   -1.3937   -0.7833   -2.8210 C   0  0  0  0  0  0  0  0  0  0  0  0
   -0.2449   -1.3621   -3.3910 C   0  0  0  0  0  0  0  0  0  0  0  0
    0.9987   -0.7495   -3.2653 C   0  0  0  0  0  0  0  0  0  0  0  0
    1.0917    0.4423   -2.5562 C   0  0  0  0  0  0  0  0  0  0  0  0
    2.4022    1.1083   -2.4346 C   0  0  0  0  0  0  0  0  0  0  0  0
    2.8833    1.6001   -3.4511 O   0  0  0  0  0  0  0  0  0  0  0  0
    2.9999    1.1656   -1.1768 N   0  0  0  0  0  0  0  0  0  0  0  0
    4.3567    1.7265   -1.1227 C   0  0  0  0  0  0  0  0  0  0  0  0
    4.7321    2.2374    0.2805 C   0  0  0  0  0  0  0  0  0  0  0  0
    4.5042    1.2075    1.3180 N   0  0  0  0  0  0  0  0  0  0  0  0
    5.5051    0.2259    1.3959 C   0  0  0  0  0  0  0  0  0  0  0  0
    6.8182    0.6001    1.6866 C   0  0  0  0  0  0  0  0  0  0  0  0
    7.8199   -0.3661    1.7722 C   0  0  0  0  0  0  0  0  0  0  0  0
    7.4930   -1.6968    1.5697 C   0  0  0  0  0  0  0  0  0  0  0  0
    6.1726   -1.9988    1.3074 C   0  0  0  0  0  0  0  0  0  0  0  0
    5.1865   -1.0755    1.2258 N   0  0  0  0  0  0  0  0  0  0  0  0
    3.1228    0.6844    1.2881 C   0  0  0  0  0  0  0  0  0  0  0  0
    2.6967    0.1939   -0.1100 C   0  0  0  0  0  0  0  0  0  0  0  0
   -0.0471    1.0435   -2.0038 C   0  0  0  0  0  0  0  0  0  0  0  0
   -1.3100    0.4367   -2.1235 C   0  0  0  0  0  0  0  0  0  0  0  0
   -1.9457    3.0616   -1.9575 H   0  0  0  0  0  0  0  0  0  0  0  0
   -3.3860    2.8881   -0.9554 H   0  0  0  0  0  0  0  0  0  0  0  0
   -1.8080    2.5264   -0.2445 H   0  0  0  0  0  0  0  0  0  0  0  0
   -4.5554   -2.9529   -1.2328 H   0  0  0  0  0  0  0  0  0  0  0  0
   -3.5066   -1.2579    1.4946 H   0  0  0  0  0  0  0  0  0  0  0  0
   -4.7972   -0.7301    3.5223 H   0  0  0  0  0  0  0  0  0  0  0  0
   -8.4744   -1.2796    1.3302 H   0  0  0  0  0  0  0  0  0  0  0  0
   -7.1834   -1.8101   -0.6995 H   0  0  0  0  0  0  0  0  0  0  0  0
   -0.3173   -2.2910   -3.9537 H   0  0  0  0  0  0  0  0  0  0  0  0
    1.8811   -1.1906   -3.7225 H   0  0  0  0  0  0  0  0  0  0  0  0
    4.4451    2.5492   -1.8403 H   0  0  0  0  0  0  0  0  0  0  0  0
    5.0469    0.9365   -1.4448 H   0  0  0  0  0  0  0  0  0  0  0  0
    4.0949    3.0983    0.5218 H   0  0  0  0  0  0  0  0  0  0  0  0
    5.7609    2.6149    0.2806 H   0  0  0  0  0  0  0  0  0  0  0  0
    7.0635    1.6395    1.8773 H   0  0  0  0  0  0  0  0  0  0  0  0
    8.8395   -0.0757    2.0047 H   0  0  0  0  0  0  0  0  0  0  0  0
    8.2425   -2.4777    1.6288 H   0  0  0  0  0  0  0  0  0  0  0  0
    5.8568   -3.0258    1.1507 H   0  0  0  0  0  0  0  0  0  0  0  0
    2.9683   -0.0991    2.0393 H   0  0  0  0  0  0  0  0  0  0  0  0
    2.4563    1.5064    1.5771 H   0  0  0  0  0  0  0  0  0  0  0  0
    1.6273   -0.0333   -0.0897 H   0  0  0  0  0  0  0  0  0  0  0  0
    3.2101   -0.7352   -0.3783 H   0  0  0  0  0  0  0  0  0  0  0  0
    0.0869    1.9868   -1.4831 H   0  0  0  0  0  0  0  0  0  0  0  0
  1  2  1  0
  2  3  1  0
  3  4  2  0
  3  5  1  0
  5  6  2  3
  6  7  1  0
  7  8  2  0
  8  9  1  0
  9 10  2  0
 10 11  1  0
 11 12  1  0
 11 13  1  0
 11 14  1  0
 10 15  1  0
 15 16  2  0
  5 17  1  0
 17 18  1  0
 18 19  2  0
 19 20  1  0
 20 21  2  0
 21 22  1  0
 22 23  2  0
 22 24  1  0
 24 25  1  0
 25 26  1  0
 26 27  1  0
 27 28  1  0
 28 29  2  0
 29 30  1  0
 30 31  2  0
 31 32  1  0
 32 33  2  0
 27 34  1  0
 34 35  1  0
 21 36  1  0
 36 37  2  0
 37  2  1  0
 16  7  1  0
 37 18  1  0
 35 24  1  0
 33 28  1  0
  1 38  1  0
  1 39  1  0
  1 40  1  0
  6 41  1  0
  8 42  1  0
  9 43  1  0
 15 44  1  0
 16 45  1  0
 19 46  1  0
 20 47  1  0
 25 48  1  0
 25 49  1  0
 26 50  1  0
 26 51  1  0
 29 52  1  0
 30 53  1  0
 31 54  1  0
 32 55  1  0
 34 56  1  0
 34 57  1  0
 35 58  1  0
 35 59  1  0
 36 60  1  0
M  END
$$$$
