
     RDKit          3D

 57 60  0  0  0  0  0  0  0  0999 V2000
    9.2465    0.0354    2.1653 C   0  0  0  0  0  0  0  0  0  0  0  0
    7.7354    0.1889    2.1693 C   0  0  0  0  0  0  0  0  0  0  0  0
    7.3201    0.4629    0.8315 O   0  0  0  0  0  0  0  0  0  0  0  0
    6.0010    0.7723    0.6470 C   0  0  0  0  0  0  0  0  0  0  0  0
    4.9821    0.6081    1.5821 C   0  0  0  0  0  0  0  0  0  0  0  0
    3.6683    0.9722    1.2582 C   0  0  0  0  0  0  0  0  0  0  0  0
    3.3544    1.5046    0.0010 C   0  0  0  0  0  0  0  0  0  0  0  0
    2.0116    1.8692   -0.2228 N   0  0  0  0  0  0  0  0  0  0  0  0
    1.4467    2.3751   -1.3700 C   0  0  0  0  0  0  0  0  0  0  0  0
    2.0401    2.5399   -2.4371 O   0  0  0  0  0  0  0  0  0  0  0  0
   -0.0365    2.7289   -1.3113 C   0  0  0  0  0  0  0  0  0  0  0  0
   -0.8337    2.6406    0.3141 S   0  0  0  0  0  0  0  0  0  0  0  0
   -1.0321    0.9253    0.4794 C   0  0  0  0  0  0  0  0  0  0  0  0
   -0.1474    0.1817    1.0986 N   0  0  0  0  0  0  0  0  0  0  0  0
   -0.4934   -1.1233    0.8988 N   0  0  0  0  0  0  0  0  0  0  0  0
   -1.5945   -1.1602    0.1686 C   0  0  0  0  0  0  0  0  0  0  0  0
   -2.3579   -2.4124   -0.1334 C   0  0  0  0  0  0  0  0  0  0  0  0
   -3.7434   -2.4297    0.4492 C   0  0  0  0  0  0  0  0  0  0  0  0
   -4.1963   -1.9520    1.6700 C   0  0  0  0  0  0  0  0  0  0  0  0
   -5.5884   -2.1785    1.7443 C   0  0  0  0  0  0  0  0  0  0  0  0
   -5.9548   -2.8187    0.5831 C   0  0  0  0  0  0  0  0  0  0  0  0
   -4.8304   -2.9965   -0.1855 N   0  0  0  0  0  0  0  0  0  0  0  0
   -4.8181   -3.6978   -1.4505 C   0  0  0  0  0  0  0  0  0  0  0  0
   -1.9792    0.1387   -0.1523 N   0  0  0  0  0  0  0  0  0  0  0  0
   -3.0782    0.5569   -0.9477 C   0  0  0  0  0  0  0  0  0  0  0  0
   -3.3450   -0.0767   -2.1702 C   0  0  0  0  0  0  0  0  0  0  0  0
   -4.4248    0.3443   -2.9497 C   0  0  0  0  0  0  0  0  0  0  0  0
   -5.2310    1.3862   -2.5058 C   0  0  0  0  0  0  0  0  0  0  0  0
   -6.2654    1.7849   -3.2575 F   0  0  0  0  0  0  0  0  0  0  0  0
   -4.9758    2.0229   -1.2976 C   0  0  0  0  0  0  0  0  0  0  0  0
   -3.8944    1.6126   -0.5145 C   0  0  0  0  0  0  0  0  0  0  0  0
    4.3760    1.6549   -0.9353 C   0  0  0  0  0  0  0  0  0  0  0  0
    5.6877    1.2850   -0.6135 C   0  0  0  0  0  0  0  0  0  0  0  0
    9.6221   -0.1541    3.1740 H   0  0  0  0  0  0  0  0  0  0  0  0
    9.5486   -0.7907    1.5114 H   0  0  0  0  0  0  0  0  0  0  0  0
    9.7240    0.9392    1.7745 H   0  0  0  0  0  0  0  0  0  0  0  0
    7.4623    1.0196    2.8307 H   0  0  0  0  0  0  0  0  0  0  0  0
    7.2803   -0.7428    2.5239 H   0  0  0  0  0  0  0  0  0  0  0  0
    5.1694    0.1935    2.5684 H   0  0  0  0  0  0  0  0  0  0  0  0
    2.8920    0.8283    2.0063 H   0  0  0  0  0  0  0  0  0  0  0  0
    1.3798    1.6957    0.5568 H   0  0  0  0  0  0  0  0  0  0  0  0
   -0.1294    3.7653   -1.6508 H   0  0  0  0  0  0  0  0  0  0  0  0
   -0.5687    2.0945   -2.0260 H   0  0  0  0  0  0  0  0  0  0  0  0
   -1.8081   -3.2660    0.2873 H   0  0  0  0  0  0  0  0  0  0  0  0
   -2.3689   -2.5778   -1.2151 H   0  0  0  0  0  0  0  0  0  0  0  0
   -3.5886   -1.4696    2.4249 H   0  0  0  0  0  0  0  0  0  0  0  0
   -6.2525   -1.9089    2.5537 H   0  0  0  0  0  0  0  0  0  0  0  0
   -6.9238   -3.1692    0.2543 H   0  0  0  0  0  0  0  0  0  0  0  0
   -4.5831   -2.9836   -2.2438 H   0  0  0  0  0  0  0  0  0  0  0  0
   -4.0641   -4.4880   -1.4027 H   0  0  0  0  0  0  0  0  0  0  0  0
   -5.8009   -4.1426   -1.6351 H   0  0  0  0  0  0  0  0  0  0  0  0
   -2.7039   -0.8615   -2.5614 H   0  0  0  0  0  0  0  0  0  0  0  0
   -4.6388   -0.1248   -3.9056 H   0  0  0  0  0  0  0  0  0  0  0  0
   -5.6248    2.8287   -0.9681 H   0  0  0  0  0  0  0  0  0  0  0  0
   -3.7387    2.0997    0.4458 H   0  0  0  0  0  0  0  0  0  0  0  0
    4.1934    2.0606   -1.9260 H   0  0  0  0  0  0  0  0  0  0  0  0
    6.4734    1.4087   -1.3548 H   0  0  0  0  0  0  0  0  0  0  0  0
  1  2  1  0
  2  3  1  0
  3  4  1  0
  4  5  2  0
  5  6  1  0
  6  7  2  0
  7  8  1  0
  8  9  1  0
  9 10  2  0
  9 11  1  0
 11 12  1  0
 12 13  1  0
 13 14  2  0
 14 15  1  0
 15 16  2  0
 16 17  1  0
 17 18  1  0
 18 19  2  0
 19 20  1  0
 20 21  2  0
 21 22  1  0
 22 23  1  0
 16 24  1  0
 24 25  1  0
 25 26  2  0
 26 27  1  0
 27 28  2  0
 28 29  1  0
 28 30  1  0
 30 31  2  0
  7 32  1  0
 32 33  2  0
 33  4  1  0
 24 13  1  0
 31 25  1  0
 22 18  1  0
  1 34  1  0
  1 35  1  0
  1 36  1  0
  2 37  1  0
  2 38  1  0
  5 39  1  0
  6 40  1  0
  8 41  1  0
 11 42  1  0
 11 43  1  0
 17 44  1  0
 17 45  1  0
 19 46  1  0
 20 47  1  0
 21 48  1  0
 23 49  1  0
 23 50  1  0
 23 51  1  0
 26 52  1  0
 27 53  1  0
 30 54  1  0
 31 55  1  0
 32 56  1  0
 33 57  1  0
M  END
$$$$
