
     RDKit          3D

 54 57  0  0  0  0  0  0  0  0999 V2000
    8.0758   -0.6668    1.6729 C   0  0  0  0  0  0  0  0  0  0  0  0
    7.0225    0.4388    1.7784 C   0  0  0  0  0  0  0  0  0  0  0  0
    6.5735    0.6278    3.2296 C   0  0  0  0  0  0  0  0  0  0  0  0
    5.8444    0.1740    0.8585 C   0  0  0  0  0  0  0  0  0  0  0  0
    5.0193   -0.9462    1.0173 C   0  0  0  0  0  0  0  0  0  0  0  0
    3.9404   -1.1656    0.1547 C   0  0  0  0  0  0  0  0  0  0  0  0
    3.6611   -0.2722   -0.8852 C   0  0  0  0  0  0  0  0  0  0  0  0
    2.5567   -0.5702   -1.7060 N   0  0  0  0  0  0  0  0  0  0  0  0
    2.0499    0.1741   -2.7567 C   0  0  0  0  0  0  0  0  0  0  0  0
    2.4813    1.2475   -3.1681 O   0  0  0  0  0  0  0  0  0  0  0  0
    0.8378   -0.4883   -3.4247 C   0  0  0  0  0  0  0  0  0  0  0  0
   -0.3742   -0.3803   -2.6747 O   0  0  0  0  0  0  0  0  0  0  0  0
   -0.5095   -1.2598   -1.6560 C   0  0  0  0  0  0  0  0  0  0  0  0
    0.3205   -2.0944   -1.3277 O   0  0  0  0  0  0  0  0  0  0  0  0
   -1.8105   -1.0694   -0.9598 C   0  0  0  0  0  0  0  0  0  0  0  0
   -2.0924   -1.8729    0.1511 C   0  0  0  0  0  0  0  0  0  0  0  0
   -3.3035   -1.7309    0.8392 C   0  0  0  0  0  0  0  0  0  0  0  0
   -4.2581   -0.7855    0.4310 C   0  0  0  0  0  0  0  0  0  0  0  0
   -3.9671    0.0025   -0.6732 C   0  0  0  0  0  0  0  0  0  0  0  0
   -2.7556   -0.1251   -1.3732 C   0  0  0  0  0  0  0  0  0  0  0  0
   -5.1179    1.1909   -1.2409 S   0  0  0  0  0  6  0  0  0  0  0  0
   -5.5686    0.7253   -2.5368 O   0  0  0  0  0  0  0  0  0  0  0  0
   -4.4827    2.4814   -1.0681 O   0  0  0  0  0  0  0  0  0  0  0  0
   -6.5142    1.1767   -0.1911 C   0  0  0  0  0  0  0  0  0  0  0  0
   -7.5498    2.0827   -0.4594 C   0  0  0  0  0  0  0  0  0  0  0  0
   -8.6795    2.0998    0.3547 C   0  0  0  0  0  0  0  0  0  0  0  0
   -8.7708    1.2171    1.4279 C   0  0  0  0  0  0  0  0  0  0  0  0
   -7.7316    0.3183    1.6863 C   0  0  0  0  0  0  0  0  0  0  0  0
   -6.5859    0.2900    0.8742 C   0  0  0  0  0  0  0  0  0  0  0  0
   -5.5200   -0.6856    1.2018 C   0  0  0  0  0  0  0  0  0  0  0  0
   -5.6850   -1.4443    2.1535 O   0  0  0  0  0  0  0  0  0  0  0  0
    4.4803    0.8428   -1.0496 C   0  0  0  0  0  0  0  0  0  0  0  0
    5.5606    1.0638   -0.1861 C   0  0  0  0  0  0  0  0  0  0  0  0
    7.6918   -1.6331    2.0181 H   0  0  0  0  0  0  0  0  0  0  0  0
    8.4098   -0.7916    0.6368 H   0  0  0  0  0  0  0  0  0  0  0  0
    8.9535   -0.4216    2.2807 H   0  0  0  0  0  0  0  0  0  0  0  0
    7.5051    1.3748    1.4670 H   0  0  0  0  0  0  0  0  0  0  0  0
    5.8272    1.4263    3.3076 H   0  0  0  0  0  0  0  0  0  0  0  0
    7.4244    0.9013    3.8629 H   0  0  0  0  0  0  0  0  0  0  0  0
    6.1309   -0.2844    3.6444 H   0  0  0  0  0  0  0  0  0  0  0  0
    5.2069   -1.6619    1.8144 H   0  0  0  0  0  0  0  0  0  0  0  0
    3.3217   -2.0462    0.3101 H   0  0  0  0  0  0  0  0  0  0  0  0
    2.0330   -1.4114   -1.4597 H   0  0  0  0  0  0  0  0  0  0  0  0
    0.6694    0.0131   -4.3844 H   0  0  0  0  0  0  0  0  0  0  0  0
    1.0655   -1.5351   -3.6619 H   0  0  0  0  0  0  0  0  0  0  0  0
   -1.3723   -2.6162    0.4923 H   0  0  0  0  0  0  0  0  0  0  0  0
   -3.4947   -2.3699    1.7020 H   0  0  0  0  0  0  0  0  0  0  0  0
   -2.5662    0.5153   -2.2341 H   0  0  0  0  0  0  0  0  0  0  0  0
   -7.4779    2.7726   -1.2990 H   0  0  0  0  0  0  0  0  0  0  0  0
   -9.4879    2.7995    0.1534 H   0  0  0  0  0  0  0  0  0  0  0  0
   -9.6512    1.2257    2.0673 H   0  0  0  0  0  0  0  0  0  0  0  0
   -7.8249   -0.3628    2.5320 H   0  0  0  0  0  0  0  0  0  0  0  0
    4.3099    1.5647   -1.8418 H   0  0  0  0  0  0  0  0  0  0  0  0
    6.1791    1.9451   -0.3434 H   0  0  0  0  0  0  0  0  0  0  0  0
  1  2  1  0
  2  3  1  0
  2  4  1  0
  4  5  2  0
  5  6  1  0
  6  7  2  0
  7  8  1  0
  8  9  1  0
  9 10  2  0
  9 11  1  0
 11 12  1  0
 12 13  1  0
 13 14  2  0
 13 15  1  0
 15 16  2  0
 16 17  1  0
 17 18  2  0
 18 19  1  0
 19 20  2  0
 19 21  1  0
 21 22  2  0
 21 23  2  0
 21 24  1  0
 24 25  2  0
 25 26  1  0
 26 27  2  0
 27 28  1  0
 28 29  2  0
 29 30  1  0
 30 31  2  0
  7 32  1  0
 32 33  2  0
 33  4  1  0
 20 15  1  0
 29 24  1  0
 30 18  1  0
  1 34  1  0
  1 35  1  0
  1 36  1  0
  2 37  1  0
  3 38  1  0
  3 39  1  0
  3 40  1  0
  5 41  1  0
  6 42  1  0
  8 43  1  0
 11 44  1  0
 11 45  1  0
 16 46  1  0
 17 47  1  0
 20 48  1  0
 25 49  1  0
 26 50  1  0
 27 51  1  0
 28 52  1  0
 32 53  1  0
 33 54  1  0
M  END
$$$$
