
     RDKit          3D

 44 44  0  0  0  0  0  0  0  0999 V2000
   -5.5911   -0.7263   -0.3493 C   0  0  0  0  0  0  0  0  0  0  0  0
   -4.8368   -0.1638    0.8457 C   0  0  0  0  0  0  0  0  0  0  0  0
   -3.7185    0.6899    0.4253 N   0  0  0  0  0  0  0  0  0  0  0  0
   -4.0321    2.1002    0.1551 C   0  0  0  0  0  0  0  0  0  0  0  0
   -3.9944    2.4157   -1.3344 C   0  0  0  0  0  0  0  0  0  0  0  0
   -2.4283    0.1830    0.2835 C   0  0  0  0  0  0  0  0  0  0  0  0
   -2.1653   -1.1969    0.2387 C   0  0  0  0  0  0  0  0  0  0  0  0
   -0.8704   -1.7092    0.0853 C   0  0  0  0  0  0  0  0  0  0  0  0
    0.2173   -0.8500   -0.0153 C   0  0  0  0  0  0  0  0  0  0  0  0
    0.0062    0.5204    0.0479 C   0  0  0  0  0  0  0  0  0  0  0  0
    0.9879    1.4704   -0.0485 O   0  0  0  0  0  0  0  0  0  0  0  0
    2.2492    1.1246    0.5086 C   0  0  0  0  0  0  0  0  0  0  0  0
    3.2638    0.4990   -0.4653 C   0  0  0  0  0  0  0  0  0  0  0  0
    3.0112    0.3588   -1.6628 O   0  0  0  0  0  0  0  0  0  0  0  0
    4.4896    0.0839    0.0704 N   0  0  0  0  0  0  0  0  0  0  0  0
    4.8420    0.2033    1.4793 C   0  0  0  0  0  0  0  0  0  0  0  0
    5.4038   -0.6743   -0.7943 C   0  0  0  0  0  0  0  0  0  0  0  0
    5.4962   -2.1644   -0.4641 C   0  0  0  0  0  0  0  0  0  0  0  0
    4.2074   -2.8534   -0.5936 C   0  0  0  0  0  0  0  0  0  0  0  0
    3.1997   -3.4262   -0.6501 N   0  0  0  0  0  0  0  0  0  0  0  0
   -1.3002    1.0179    0.1752 C   0  0  0  0  0  0  0  0  0  0  0  0
   -6.0592    0.0735   -0.9314 H   0  0  0  0  0  0  0  0  0  0  0  0
   -4.9322   -1.2858   -1.0200 H   0  0  0  0  0  0  0  0  0  0  0  0
   -6.3846   -1.3999   -0.0107 H   0  0  0  0  0  0  0  0  0  0  0  0
   -4.5031   -0.9732    1.5053 H   0  0  0  0  0  0  0  0  0  0  0  0
   -5.5358    0.4185    1.4595 H   0  0  0  0  0  0  0  0  0  0  0  0
   -5.0395    2.3370    0.5200 H   0  0  0  0  0  0  0  0  0  0  0  0
   -3.3672    2.7683    0.7137 H   0  0  0  0  0  0  0  0  0  0  0  0
   -4.2785    3.4592   -1.5039 H   0  0  0  0  0  0  0  0  0  0  0  0
   -4.6904    1.7818   -1.8922 H   0  0  0  0  0  0  0  0  0  0  0  0
   -2.9981    2.2678   -1.7608 H   0  0  0  0  0  0  0  0  0  0  0  0
   -2.9714   -1.9219    0.2888 H   0  0  0  0  0  0  0  0  0  0  0  0
   -0.7161   -2.7838    0.0247 H   0  0  0  0  0  0  0  0  0  0  0  0
    1.2005   -1.2781   -0.1750 H   0  0  0  0  0  0  0  0  0  0  0  0
    2.6870    2.0698    0.8495 H   0  0  0  0  0  0  0  0  0  0  0  0
    2.1286    0.4850    1.3920 H   0  0  0  0  0  0  0  0  0  0  0  0
    4.3503    1.0583    1.9463 H   0  0  0  0  0  0  0  0  0  0  0  0
    4.5355   -0.7108    1.9953 H   0  0  0  0  0  0  0  0  0  0  0  0
    5.9237    0.3362    1.5739 H   0  0  0  0  0  0  0  0  0  0  0  0
    5.1207   -0.5537   -1.8461 H   0  0  0  0  0  0  0  0  0  0  0  0
    6.3955   -0.2178   -0.6892 H   0  0  0  0  0  0  0  0  0  0  0  0
    5.8766   -2.2989    0.5549 H   0  0  0  0  0  0  0  0  0  0  0  0
    6.2264   -2.6313   -1.1351 H   0  0  0  0  0  0  0  0  0  0  0  0
   -1.4059    2.0974    0.2032 H   0  0  0  0  0  0  0  0  0  0  0  0
  1  2  1  0
  2  3  1  0
  3  4  1  0
  4  5  1  0
  3  6  1  0
  6  7  2  0
  7  8  1  0
  8  9  2  0
  9 10  1  0
 10 11  1  0
 11 12  1  0
 12 13  1  0
 13 14  2  0
 13 15  1  0
 15 16  1  0
 15 17  1  0
 17 18  1  0
 18 19  1  0
 19 20  3  0
 10 21  2  0
 21  6  1  0
  1 22  1  0
  1 23  1  0
  1 24  1  0
  2 25  1  0
  2 26  1  0
  4 27  1  0
  4 28  1  0
  5 29  1  0
  5 30  1  0
  5 31  1  0
  7 32  1  0
  8 33  1  0
  9 34  1  0
 12 35  1  0
 12 36  1  0
 16 37  1  0
 16 38  1  0
 16 39  1  0
 17 40  1  0
 17 41  1  0
 18 42  1  0
 18 43  1  0
 21 44  1  0
M  END
$$$$
