
     RDKit          3D

 64 69  0  0  0  0  0  0  0  0999 V2000
    7.4074   -0.5865   -1.6774 F   0  0  0  0  0  0  0  0  0  0  0  0
    7.1941   -1.2580   -0.5106 C   0  0  0  0  0  0  0  0  0  0  0  0
    6.1574   -2.1099   -0.7442 F   0  0  0  0  0  0  0  0  0  0  0  0
    8.2895   -2.0557   -0.3431 F   0  0  0  0  0  0  0  0  0  0  0  0
    6.9365   -0.3256    0.6562 C   0  0  0  0  0  0  0  0  0  0  0  0
    7.8575   -0.2982    1.7228 C   0  0  0  0  0  0  0  0  0  0  0  0
    7.6667    0.5443    2.8190 C   0  0  0  0  0  0  0  0  0  0  0  0
    6.5589    1.3825    2.8625 C   0  0  0  0  0  0  0  0  0  0  0  0
    5.6397    1.3767    1.8133 C   0  0  0  0  0  0  0  0  0  0  0  0
    5.8121    0.5312    0.7007 C   0  0  0  0  0  0  0  0  0  0  0  0
    4.7569    0.5525   -0.3906 C   0  0  0  0  0  0  0  0  0  0  0  0
    3.5117   -0.2617    0.0098 C   0  0  0  0  0  0  0  0  0  0  0  0
    2.5604   -0.4637   -1.0938 N   0  0  0  0  0  0  0  0  0  0  0  0
    1.4556   -1.3664   -0.7056 C   0  0  0  0  0  0  0  0  0  0  0  0
    0.1635   -0.6581   -0.2461 C   0  0  0  0  0  0  0  0  0  0  0  0
   -0.3563    0.2657   -1.2707 N   0  0  0  0  0  0  0  0  0  0  0  0
   -1.7031    0.2385   -1.6287 C   0  0  0  0  0  0  0  0  0  0  0  0
   -2.0116    0.3273   -2.8996 N   0  0  0  0  0  0  0  0  0  0  0  0
   -3.3508    0.2390   -3.3259 C   0  0  0  0  0  0  0  0  0  0  0  0
   -3.6179    0.3299   -4.6930 C   0  0  0  0  0  0  0  0  0  0  0  0
   -4.9271    0.2260   -5.1733 C   0  0  0  0  0  0  0  0  0  0  0  0
   -5.9848    0.0281   -4.2843 C   0  0  0  0  0  0  0  0  0  0  0  0
   -5.7411   -0.0634   -2.9139 C   0  0  0  0  0  0  0  0  0  0  0  0
   -4.4267    0.0443   -2.4486 C   0  0  0  0  0  0  0  0  0  0  0  0
   -4.0930   -0.0092   -1.0856 N   0  0  0  0  0  0  0  0  0  0  0  0
   -4.9113   -0.1618    0.0080 C   0  0  0  0  0  0  0  0  0  0  0  0
   -4.1456   -0.0389    1.1535 C   0  0  0  0  0  0  0  0  0  0  0  0
   -4.6745   -0.1064    2.5100 C   0  0  0  0  0  0  0  0  0  0  0  0
   -3.8698   -0.5824    3.5552 C   0  0  0  0  0  0  0  0  0  0  0  0
   -4.3585   -0.6410    4.8639 C   0  0  0  0  0  0  0  0  0  0  0  0
   -5.6563   -0.2226    5.1434 C   0  0  0  0  0  0  0  0  0  0  0  0
   -6.4660    0.2558    4.1158 C   0  0  0  0  0  0  0  0  0  0  0  0
   -5.9782    0.3136    2.8064 C   0  0  0  0  0  0  0  0  0  0  0  0
   -2.8062    0.1546    0.7179 C   0  0  0  0  0  0  0  0  0  0  0  0
   -2.7879    0.1174   -0.6650 C   0  0  0  0  0  0  0  0  0  0  0  0
    0.6383    0.6816   -2.2788 C   0  0  0  0  0  0  0  0  0  0  0  0
    2.0393    0.8076   -1.6425 C   0  0  0  0  0  0  0  0  0  0  0  0
    8.7403   -0.9389    1.6999 H   0  0  0  0  0  0  0  0  0  0  0  0
    8.3889    0.5504    3.6326 H   0  0  0  0  0  0  0  0  0  0  0  0
    6.4110    2.0453    3.7111 H   0  0  0  0  0  0  0  0  0  0  0  0
    4.7812    2.0440    1.8644 H   0  0  0  0  0  0  0  0  0  0  0  0
    4.4841    1.5977   -0.5884 H   0  0  0  0  0  0  0  0  0  0  0  0
    5.1688    0.1716   -1.3300 H   0  0  0  0  0  0  0  0  0  0  0  0
    3.8501   -1.2448    0.3619 H   0  0  0  0  0  0  0  0  0  0  0  0
    3.0122    0.2136    0.8660 H   0  0  0  0  0  0  0  0  0  0  0  0
    1.2150   -1.9779   -1.5856 H   0  0  0  0  0  0  0  0  0  0  0  0
    1.7766   -2.0798    0.0631 H   0  0  0  0  0  0  0  0  0  0  0  0
    0.3607   -0.0921    0.6714 H   0  0  0  0  0  0  0  0  0  0  0  0
   -0.5718   -1.4341   -0.0072 H   0  0  0  0  0  0  0  0  0  0  0  0
   -2.7931    0.4792   -5.3845 H   0  0  0  0  0  0  0  0  0  0  0  0
   -5.1234    0.3003   -6.2406 H   0  0  0  0  0  0  0  0  0  0  0  0
   -7.0010   -0.0542   -4.6634 H   0  0  0  0  0  0  0  0  0  0  0  0
   -6.5810   -0.2115   -2.2434 H   0  0  0  0  0  0  0  0  0  0  0  0
   -5.9721   -0.3298   -0.1081 H   0  0  0  0  0  0  0  0  0  0  0  0
   -2.8559   -0.9233    3.3619 H   0  0  0  0  0  0  0  0  0  0  0  0
   -3.7245   -1.0162    5.6624 H   0  0  0  0  0  0  0  0  0  0  0  0
   -6.0356   -0.2675    6.1609 H   0  0  0  0  0  0  0  0  0  0  0  0
   -7.4780    0.5894    4.3315 H   0  0  0  0  0  0  0  0  0  0  0  0
   -6.6253    0.7064    2.0276 H   0  0  0  0  0  0  0  0  0  0  0  0
   -1.9447    0.3112    1.3524 H   0  0  0  0  0  0  0  0  0  0  0  0
    0.3526    1.6546   -2.6945 H   0  0  0  0  0  0  0  0  0  0  0  0
    0.6654   -0.0424   -3.1005 H   0  0  0  0  0  0  0  0  0  0  0  0
    2.7395    1.1713   -2.4020 H   0  0  0  0  0  0  0  0  0  0  0  0
    1.9810    1.5704   -0.8558 H   0  0  0  0  0  0  0  0  0  0  0  0
  1  2  1  0
  2  3  1  0
  2  4  1  0
  2  5  1  0
  5  6  2  0
  6  7  1  0
  7  8  2  0
  8  9  1  0
  9 10  2  0
 10 11  1  0
 11 12  1  0
 12 13  1  0
 13 14  1  0
 14 15  1  0
 15 16  1  0
 16 17  1  0
 17 18  2  0
 18 19  1  0
 19 20  2  0
 20 21  1  0
 21 22  2  0
 22 23  1  0
 23 24  2  0
 24 25  1  0
 25 26  1  0
 26 27  2  0
 27 28  1  0
 28 29  2  0
 29 30  1  0
 30 31  2  0
 31 32  1  0
 32 33  2  0
 27 34  1  0
 34 35  2  0
 16 36  1  0
 36 37  1  0
 10  5  1  0
 37 13  1  0
 35 17  1  0
 24 19  1  0
 35 25  1  0
 33 28  1  0
  6 38  1  0
  7 39  1  0
  8 40  1  0
  9 41  1  0
 11 42  1  0
 11 43  1  0
 12 44  1  0
 12 45  1  0
 14 46  1  0
 14 47  1  0
 15 48  1  0
 15 49  1  0
 20 50  1  0
 21 51  1  0
 22 52  1  0
 23 53  1  0
 26 54  1  0
 29 55  1  0
 30 56  1  0
 31 57  1  0
 32 58  1  0
 33 59  1  0
 34 60  1  0
 36 61  1  0
 36 62  1  0
 37 63  1  0
 37 64  1  0
M  END
$$$$
