
     RDKit          3D

 55 58  0  0  0  0  0  0  0  0999 V2000
    8.5830    2.1549    0.7007 C   0  0  0  0  0  0  0  0  0  0  0  0
    7.8994    0.9432    0.9860 O   0  0  0  0  0  0  0  0  0  0  0  0
    6.5687    0.8660    0.6594 C   0  0  0  0  0  0  0  0  0  0  0  0
    5.8438    1.8953    0.0492 C   0  0  0  0  0  0  0  0  0  0  0  0
    4.4883    1.7271   -0.2510 C   0  0  0  0  0  0  0  0  0  0  0  0
    3.8488    0.5210    0.0477 C   0  0  0  0  0  0  0  0  0  0  0  0
    2.4050    0.2967   -0.2544 C   0  0  0  0  0  0  0  0  0  0  0  0
    1.8636    0.9348   -1.4975 C   0  0  0  0  0  0  0  0  0  0  0  0
    0.5564    0.7322   -1.7555 C   0  0  0  0  0  0  0  0  0  0  0  0
   -0.1452    1.2786   -2.9389 C   0  0  0  0  0  0  0  0  0  0  0  0
   -1.1563    2.1206   -2.6109 F   0  0  0  0  0  0  0  0  0  0  0  0
    0.7012    2.0048   -3.7242 F   0  0  0  0  0  0  0  0  0  0  0  0
   -0.6562    0.3126   -3.7428 F   0  0  0  0  0  0  0  0  0  0  0  0
   -0.2040   -0.0424   -0.8879 N   0  0  0  0  0  0  0  0  0  0  0  0
   -1.5180   -0.3540   -0.9735 N   0  0  0  0  0  0  0  0  0  0  0  0
   -1.7845   -1.1386    0.0850 C   0  0  0  0  0  0  0  0  0  0  0  0
   -3.1146   -1.7029    0.4251 C   0  0  0  0  0  0  0  0  0  0  0  0
   -3.2736   -2.2129    1.5376 O   0  0  0  0  0  0  0  0  0  0  0  0
   -4.1723   -1.6586   -0.4965 N   0  0  0  0  0  0  0  0  0  0  0  0
   -4.0791   -1.0987   -1.8369 C   0  0  0  0  0  0  0  0  0  0  0  0
   -5.5122   -1.9717   -0.0092 C   0  0  0  0  0  0  0  0  0  0  0  0
   -6.3012   -0.7318    0.3444 C   0  0  0  0  0  0  0  0  0  0  0  0
   -7.2659   -0.2198   -0.5353 C   0  0  0  0  0  0  0  0  0  0  0  0
   -7.9808    0.9341   -0.2088 C   0  0  0  0  0  0  0  0  0  0  0  0
   -7.7374    1.5889    0.9973 C   0  0  0  0  0  0  0  0  0  0  0  0
   -6.7789    1.0917    1.8780 C   0  0  0  0  0  0  0  0  0  0  0  0
   -6.0634   -0.0616    1.5535 C   0  0  0  0  0  0  0  0  0  0  0  0
   -0.6163   -1.3164    0.8705 C   0  0  0  0  0  0  0  0  0  0  0  0
    0.3822   -0.6197    0.2379 C   0  0  0  0  0  0  0  0  0  0  0  0
    1.6993   -0.4486    0.5487 N   0  0  0  0  0  0  0  0  0  0  0  0
    4.5654   -0.5069    0.6759 C   0  0  0  0  0  0  0  0  0  0  0  0
    5.9209   -0.3437    0.9829 C   0  0  0  0  0  0  0  0  0  0  0  0
    6.6985   -1.3021    1.5851 O   0  0  0  0  0  0  0  0  0  0  0  0
    6.0487   -2.4723    2.0628 C   0  0  0  0  0  0  0  0  0  0  0  0
    8.5968    2.3565   -0.3754 H   0  0  0  0  0  0  0  0  0  0  0  0
    9.6201    2.0395    1.0302 H   0  0  0  0  0  0  0  0  0  0  0  0
    8.1494    2.9934    1.2557 H   0  0  0  0  0  0  0  0  0  0  0  0
    6.3042    2.8462   -0.1985 H   0  0  0  0  0  0  0  0  0  0  0  0
    3.9505    2.5608   -0.6936 H   0  0  0  0  0  0  0  0  0  0  0  0
    2.5094    1.5004   -2.1568 H   0  0  0  0  0  0  0  0  0  0  0  0
   -4.0574   -0.0072   -1.7735 H   0  0  0  0  0  0  0  0  0  0  0  0
   -3.1877   -1.4753   -2.3440 H   0  0  0  0  0  0  0  0  0  0  0  0
   -4.9430   -1.4073   -2.4339 H   0  0  0  0  0  0  0  0  0  0  0  0
   -5.4687   -2.6254    0.8700 H   0  0  0  0  0  0  0  0  0  0  0  0
   -6.0310   -2.5536   -0.7811 H   0  0  0  0  0  0  0  0  0  0  0  0
   -7.4661   -0.7159   -1.4821 H   0  0  0  0  0  0  0  0  0  0  0  0
   -8.7270    1.3237   -0.8962 H   0  0  0  0  0  0  0  0  0  0  0  0
   -8.2934    2.4876    1.2506 H   0  0  0  0  0  0  0  0  0  0  0  0
   -6.5859    1.6019    2.8181 H   0  0  0  0  0  0  0  0  0  0  0  0
   -5.3158   -0.4388    2.2495 H   0  0  0  0  0  0  0  0  0  0  0  0
   -0.5247   -1.8822    1.7871 H   0  0  0  0  0  0  0  0  0  0  0  0
    4.0448   -1.4306    0.9095 H   0  0  0  0  0  0  0  0  0  0  0  0
    5.2674   -2.2251    2.7893 H   0  0  0  0  0  0  0  0  0  0  0  0
    6.7971   -3.0842    2.5755 H   0  0  0  0  0  0  0  0  0  0  0  0
    5.6473   -3.0644    1.2340 H   0  0  0  0  0  0  0  0  0  0  0  0
  1  2  1  0
  2  3  1  0
  3  4  2  0
  4  5  1  0
  5  6  2  0
  6  7  1  0
  7  8  1  0
  8  9  2  0
  9 10  1  0
 10 11  1  0
 10 12  1  0
 10 13  1  0
  9 14  1  0
 14 15  1  0
 15 16  2  0
 16 17  1  0
 17 18  2  0
 17 19  1  0
 19 20  1  0
 19 21  1  0
 21 22  1  0
 22 23  2  0
 23 24  1  0
 24 25  2  0
 25 26  1  0
 26 27  2  0
 16 28  1  0
 28 29  2  0
 29 30  1  0
  6 31  1  0
 31 32  2  0
 32 33  1  0
 33 34  1  0
 32  3  1  0
 30  7  2  0
 29 14  1  0
 27 22  1  0
  1 35  1  0
  1 36  1  0
  1 37  1  0
  4 38  1  0
  5 39  1  0
  8 40  1  0
 20 41  1  0
 20 42  1  0
 20 43  1  0
 21 44  1  0
 21 45  1  0
 23 46  1  0
 24 47  1  0
 25 48  1  0
 26 49  1  0
 27 50  1  0
 28 51  1  0
 31 52  1  0
 34 53  1  0
 34 54  1  0
 34 55  1  0
M  END
$$$$
