
     RDKit          3D

 36 37  0  0  0  0  0  0  0  0999 V2000
    0.8247    2.0585    3.1025 O   0  0  0  0  0  0  0  0  0  0  0  0
    0.7417    1.8394    1.8978 C   0  0  0  0  0  0  0  0  0  0  0  0
   -0.2145    2.6143    0.9851 C   0  0  0  0  0  0  0  0  0  0  0  0
   -1.4463    1.9301    0.7494 O   0  0  0  0  0  0  0  0  0  0  0  0
   -1.3807    0.8965   -0.1233 C   0  0  0  0  0  0  0  0  0  0  0  0
   -0.3670    0.5216   -0.6952 O   0  0  0  0  0  0  0  0  0  0  0  0
   -2.7086    0.2489   -0.2893 C   0  0  0  0  0  0  0  0  0  0  0  0
   -3.8298    0.6298    0.4609 C   0  0  0  0  0  0  0  0  0  0  0  0
   -5.0543   -0.0190    0.2728 C   0  0  0  0  0  0  0  0  0  0  0  0
   -5.1580   -1.0476   -0.6626 C   0  0  0  0  0  0  0  0  0  0  0  0
   -6.8153   -1.9214   -0.9138 Br  0  0  0  0  0  0  0  0  0  0  0  0
   -4.0491   -1.4384   -1.4115 C   0  0  0  0  0  0  0  0  0  0  0  0
   -2.8253   -0.7907   -1.2245 C   0  0  0  0  0  0  0  0  0  0  0  0
    1.5006    0.8859    1.2441 N   0  0  0  0  0  0  0  0  0  0  0  0
    2.2269   -0.1284    1.9968 C   0  0  0  0  0  0  0  0  0  0  0  0
    3.5014   -0.5816    1.2811 C   0  0  0  0  0  0  0  0  0  0  0  0
    3.2445   -1.0895   -0.0565 N   0  0  0  0  0  0  0  0  0  0  0  0
    3.2576   -0.3421   -1.2106 C   0  0  0  0  0  0  0  0  0  0  0  0
    3.4612    1.0048   -1.1801 O   0  0  0  0  0  0  0  0  0  0  0  0
    3.0183   -1.0340   -2.3276 C   0  0  0  0  0  0  0  0  0  0  0  0
    2.7330   -2.7117   -1.9853 S   0  0  0  0  0  0  0  0  0  0  0  0
    2.9441   -2.4330   -0.2480 C   0  0  0  0  0  0  0  0  0  0  0  0
    2.8296   -3.3016    0.6012 O   0  0  0  0  0  0  0  0  0  0  0  0
   -0.4529    3.5635    1.4769 H   0  0  0  0  0  0  0  0  0  0  0  0
    0.2815    2.8682    0.0404 H   0  0  0  0  0  0  0  0  0  0  0  0
   -3.7679    1.4258    1.1994 H   0  0  0  0  0  0  0  0  0  0  0  0
   -5.9173    0.2830    0.8612 H   0  0  0  0  0  0  0  0  0  0  0  0
   -4.1253   -2.2435   -2.1388 H   0  0  0  0  0  0  0  0  0  0  0  0
   -1.9635   -1.1023   -1.8124 H   0  0  0  0  0  0  0  0  0  0  0  0
    1.1026    0.5718    0.3533 H   0  0  0  0  0  0  0  0  0  0  0  0
    1.5387   -0.9707    2.1297 H   0  0  0  0  0  0  0  0  0  0  0  0
    2.4800    0.2533    2.9927 H   0  0  0  0  0  0  0  0  0  0  0  0
    4.2285    0.2367    1.2217 H   0  0  0  0  0  0  0  0  0  0  0  0
    3.9703   -1.3768    1.8732 H   0  0  0  0  0  0  0  0  0  0  0  0
    3.2150    1.3162   -0.2923 H   0  0  0  0  0  0  0  0  0  0  0  0
    2.9757   -0.6159   -3.3227 H   0  0  0  0  0  0  0  0  0  0  0  0
  1  2  2  0
  2  3  1  0
  3  4  1  0
  4  5  1  0
  5  6  2  0
  5  7  1  0
  7  8  2  0
  8  9  1  0
  9 10  2  0
 10 11  1  0
 10 12  1  0
 12 13  2  0
  2 14  1  0
 14 15  1  0
 15 16  1  0
 16 17  1  0
 17 18  1  0
 18 19  1  0
 18 20  2  0
 20 21  1  0
 21 22  1  0
 22 23  2  0
 13  7  1  0
 22 17  1  0
  3 24  1  0
  3 25  1  0
  8 26  1  0
  9 27  1  0
 12 28  1  0
 13 29  1  0
 14 30  1  0
 15 31  1  0
 15 32  1  0
 16 33  1  0
 16 34  1  0
 19 35  1  0
 20 36  1  0
M  END
$$$$
