
     RDKit          3D

 23 23  0  0  0  0  0  0  0  0999 V2000
   -0.0506    2.4612   -0.1341 O   0  0  0  0  0  0  0  0  0  0  0  0
   -1.0978    1.9484   -0.4834 C   0  0  0  0  0  0  0  0  0  0  0  0
   -2.1350    2.7068   -0.8904 O   0  0  0  0  0  0  0  0  0  0  0  0
   -1.4295    0.5021   -0.5174 C   0  0  0  0  0  0  0  0  0  0  0  0
   -2.7594    0.0973   -0.3049 C   0  0  0  0  0  0  0  0  0  0  0  0
   -3.0965   -1.2566   -0.3128 C   0  0  0  0  0  0  0  0  0  0  0  0
   -2.1120   -2.2141   -0.5371 C   0  0  0  0  0  0  0  0  0  0  0  0
   -0.7903   -1.8179   -0.7511 C   0  0  0  0  0  0  0  0  0  0  0  0
   -0.4277   -0.4636   -0.7324 C   0  0  0  0  0  0  0  0  0  0  0  0
    0.9169   -0.1510   -1.0061 N   0  0  0  0  0  0  0  0  0  0  0  0
    1.6498    0.1603    0.0167 C   0  0  0  0  0  0  0  0  0  0  0  0
    3.0738    0.5693   -0.1617 C   0  0  0  0  0  0  0  0  0  0  0  0
    3.8752   -0.3751    0.6596 N   0  0  0  0  0  4  0  0  0  0  0  0
    4.4569   -1.2939    0.0695 O   0  0  0  0  0  0  0  0  0  0  0  0
    3.9044   -0.1741    1.8815 O   0  0  0  0  0  1  0  0  0  0  0  0
   -1.7911    3.6235   -0.8486 H   0  0  0  0  0  0  0  0  0  0  0  0
   -3.5396    0.8352   -0.1304 H   0  0  0  0  0  0  0  0  0  0  0  0
   -4.1275   -1.5622   -0.1501 H   0  0  0  0  0  0  0  0  0  0  0  0
   -2.3709   -3.2701   -0.5551 H   0  0  0  0  0  0  0  0  0  0  0  0
   -0.0304   -2.5720   -0.9452 H   0  0  0  0  0  0  0  0  0  0  0  0
    1.2452    0.1716    1.0472 H   0  0  0  0  0  0  0  0  0  0  0  0
    3.3996    0.4997   -1.2020 H   0  0  0  0  0  0  0  0  0  0  0  0
    3.2366    1.5752    0.2321 H   0  0  0  0  0  0  0  0  0  0  0  0
  1  2  2  0
  2  3  1  0
  2  4  1  0
  4  5  2  0
  5  6  1  0
  6  7  2  0
  7  8  1  0
  8  9  2  0
  9 10  1  0
 10 11  2  3
 11 12  1  0
 12 13  1  0
 13 14  2  0
 13 15  1  0
  9  4  1  0
  3 16  1  0
  5 17  1  0
  6 18  1  0
  7 19  1  0
  8 20  1  0
 11 21  1  0
 12 22  1  0
 12 23  1  0
M  CHG  2  13   1  15  -1
M  END
$$$$
