
     RDKit          3D

 51 55  0  0  0  0  0  0  0  0999 V2000
   -8.4904   -0.3268    1.5351 F   0  0  0  0  0  0  0  0  0  0  0  0
   -7.5311    0.3579    0.8984 C   0  0  0  0  0  0  0  0  0  0  0  0
   -7.6872    1.7234    0.6935 C   0  0  0  0  0  0  0  0  0  0  0  0
   -6.6877    2.4365    0.0344 C   0  0  0  0  0  0  0  0  0  0  0  0
   -5.5404    1.7768   -0.4150 C   0  0  0  0  0  0  0  0  0  0  0  0
   -5.3846    0.3969   -0.2125 C   0  0  0  0  0  0  0  0  0  0  0  0
   -4.1351   -0.3114   -0.6806 C   0  0  0  0  0  0  0  0  0  0  0  0
   -3.0360   -0.2884    0.3957 C   0  0  0  0  0  0  0  0  0  0  0  0
   -1.8270   -1.0179   -0.0190 N   0  0  0  0  0  0  0  0  0  0  0  0
   -1.0088   -0.2855   -1.0101 C   0  0  0  0  0  0  0  0  0  0  0  0
    0.2048    0.4853   -0.4400 C   0  0  0  0  0  0  0  0  0  0  0  0
    1.0957   -0.3825    0.3428 N   0  0  0  0  0  0  0  0  0  0  0  0
    2.4803   -0.3209    0.2140 C   0  0  0  0  0  0  0  0  0  0  0  0
    3.1512   -1.4466    0.2562 N   0  0  0  0  0  0  0  0  0  0  0  0
    4.5485   -1.4646    0.0912 C   0  0  0  0  0  0  0  0  0  0  0  0
    5.2046   -2.6967    0.1272 C   0  0  0  0  0  0  0  0  0  0  0  0
    6.5894   -2.7734   -0.0435 C   0  0  0  0  0  0  0  0  0  0  0  0
    7.3338   -1.6123   -0.2535 C   0  0  0  0  0  0  0  0  0  0  0  0
    6.6988   -0.3704   -0.2929 C   0  0  0  0  0  0  0  0  0  0  0  0
    5.3123   -0.3100   -0.1210 C   0  0  0  0  0  0  0  0  0  0  0  0
    4.5950    0.8969   -0.1312 N   0  0  0  0  0  0  0  0  0  0  0  0
    5.0570    2.1827   -0.2847 C   0  0  0  0  0  0  0  0  0  0  0  0
    3.9912    3.0430   -0.1429 C   0  0  0  0  0  0  0  0  0  0  0  0
    2.8430    2.2503    0.0877 C   0  0  0  0  0  0  0  0  0  0  0  0
    3.2275    0.9205    0.0493 C   0  0  0  0  0  0  0  0  0  0  0  0
    0.4743   -1.6229    0.8409 C   0  0  0  0  0  0  0  0  0  0  0  0
   -1.0141   -1.3871    1.1640 C   0  0  0  0  0  0  0  0  0  0  0  0
   -6.3934   -0.3095    0.4554 C   0  0  0  0  0  0  0  0  0  0  0  0
   -8.5839    2.2210    1.0483 H   0  0  0  0  0  0  0  0  0  0  0  0
   -6.8008    3.5051   -0.1301 H   0  0  0  0  0  0  0  0  0  0  0  0
   -4.7680    2.3471   -0.9273 H   0  0  0  0  0  0  0  0  0  0  0  0
   -3.7943    0.1571   -1.6111 H   0  0  0  0  0  0  0  0  0  0  0  0
   -4.3831   -1.3488   -0.9409 H   0  0  0  0  0  0  0  0  0  0  0  0
   -2.7886    0.7436    0.6781 H   0  0  0  0  0  0  0  0  0  0  0  0
   -3.4503   -0.7646    1.2953 H   0  0  0  0  0  0  0  0  0  0  0  0
   -1.6145    0.4028   -1.6093 H   0  0  0  0  0  0  0  0  0  0  0  0
   -0.6297   -1.0327   -1.7201 H   0  0  0  0  0  0  0  0  0  0  0  0
    0.7398    0.9281   -1.2878 H   0  0  0  0  0  0  0  0  0  0  0  0
   -0.1501    1.3010    0.2002 H   0  0  0  0  0  0  0  0  0  0  0  0
    4.6265   -3.6027    0.2880 H   0  0  0  0  0  0  0  0  0  0  0  0
    7.0845   -3.7406   -0.0129 H   0  0  0  0  0  0  0  0  0  0  0  0
    8.4112   -1.6764   -0.3854 H   0  0  0  0  0  0  0  0  0  0  0  0
    7.2992    0.5184   -0.4545 H   0  0  0  0  0  0  0  0  0  0  0  0
    6.1011    2.3960   -0.4611 H   0  0  0  0  0  0  0  0  0  0  0  0
    4.0398    4.1235   -0.1875 H   0  0  0  0  0  0  0  0  0  0  0  0
    1.8436    2.6205    0.2664 H   0  0  0  0  0  0  0  0  0  0  0  0
    0.5780   -2.4237    0.0980 H   0  0  0  0  0  0  0  0  0  0  0  0
    0.9802   -1.9459    1.7587 H   0  0  0  0  0  0  0  0  0  0  0  0
   -1.0706   -0.5976    1.9265 H   0  0  0  0  0  0  0  0  0  0  0  0
   -1.4355   -2.2975    1.6055 H   0  0  0  0  0  0  0  0  0  0  0  0
   -6.3058   -1.3769    0.6361 H   0  0  0  0  0  0  0  0  0  0  0  0
  1  2  1  0
  2  3  2  0
  3  4  1  0
  4  5  2  0
  5  6  1  0
  6  7  1  0
  7  8  1  0
  8  9  1  0
  9 10  1  0
 10 11  1  0
 11 12  1  0
 12 13  1  0
 13 14  2  0
 14 15  1  0
 15 16  2  0
 16 17  1  0
 17 18  2  0
 18 19  1  0
 19 20  2  0
 20 21  1  0
 21 22  1  0
 22 23  2  0
 23 24  1  0
 24 25  2  0
 12 26  1  0
 26 27  1  0
  6 28  2  0
 28  2  1  0
 27  9  1  0
 25 13  1  0
 20 15  1  0
 25 21  1  0
  3 29  1  0
  4 30  1  0
  5 31  1  0
  7 32  1  0
  7 33  1  0
  8 34  1  0
  8 35  1  0
 10 36  1  0
 10 37  1  0
 11 38  1  0
 11 39  1  0
 16 40  1  0
 17 41  1  0
 18 42  1  0
 19 43  1  0
 22 44  1  0
 23 45  1  0
 24 46  1  0
 26 47  1  0
 26 48  1  0
 27 49  1  0
 27 50  1  0
 28 51  1  0
M  END
$$$$
