
     RDKit          3D

 55 60  0  0  0  0  0  0  0  0999 V2000
    3.0838    2.8728    2.2134 O   0  0  0  0  0  0  0  0  0  0  0  0
    3.4269    1.8195    1.6773 C   0  0  0  0  0  0  0  0  0  0  0  0
    4.7347    1.2446    1.9595 C   0  0  0  0  0  0  0  0  0  0  0  0
    5.6255    0.4744    1.1540 C   0  0  0  0  0  0  0  0  0  0  0  0
    6.7408    0.2288    1.9204 C   0  0  0  0  0  0  0  0  0  0  0  0
    6.6142    0.8118    3.1379 O   0  0  0  0  0  0  0  0  0  0  0  0
    5.4121    1.4402    3.1485 C   0  0  0  0  0  0  0  0  0  0  0  0
    2.5790    1.1580    0.7807 N   0  0  0  0  0  0  0  0  0  0  0  0
    2.6558   -0.2740    0.4898 C   0  0  0  0  0  0  0  0  0  0  0  0
    1.2665   -0.8906    0.3420 C   0  0  0  0  0  0  0  0  0  0  0  0
    0.4787   -0.2351   -0.8240 C   0  0  0  0  0  0  0  0  0  0  0  0
    0.7808    1.2866   -0.9105 C   0  0  0  0  0  0  0  0  0  0  0  0
    1.3653    1.8551    0.3766 C   0  0  0  0  0  0  0  0  0  0  0  0
    1.0695   -0.8607   -2.0004 O   0  0  0  0  0  0  0  0  0  0  0  0
    0.3562   -0.8428   -3.1608 C   0  0  0  0  0  0  0  0  0  0  0  0
    1.0544   -1.2025   -4.3139 C   0  0  0  0  0  0  0  0  0  0  0  0
    0.4127   -1.1934   -5.5550 C   0  0  0  0  0  0  0  0  0  0  0  0
   -0.9301   -0.8267   -5.6389 C   0  0  0  0  0  0  0  0  0  0  0  0
   -1.7153   -0.8100   -7.1687 Cl  0  0  0  0  0  0  0  0  0  0  0  0
   -1.6384   -0.4776   -4.4926 C   0  0  0  0  0  0  0  0  0  0  0  0
   -0.9874   -0.4999   -3.2544 C   0  0  0  0  0  0  0  0  0  0  0  0
   -1.7142   -0.1590   -2.0256 C   0  0  0  0  0  0  0  0  0  0  0  0
   -2.7940    0.4221   -2.0994 O   0  0  0  0  0  0  0  0  0  0  0  0
   -1.0399   -0.5523   -0.7150 C   0  0  0  0  0  0  0  0  0  0  0  0
   -1.7562    0.0777    0.4722 C   0  0  0  0  0  0  0  0  0  0  0  0
   -2.6606   -1.0564    0.8197 C   0  0  0  0  0  0  0  0  0  0  0  0
   -3.8054   -0.8977    1.7476 C   0  0  0  0  0  0  0  0  0  0  0  0
   -4.6589   -1.9889    1.9624 C   0  0  0  0  0  0  0  0  0  0  0  0
   -5.7458   -1.8750    2.8336 C   0  0  0  0  0  0  0  0  0  0  0  0
   -5.9800   -0.6705    3.4922 C   0  0  0  0  0  0  0  0  0  0  0  0
   -7.3159   -0.5272    4.5658 Cl  0  0  0  0  0  0  0  0  0  0  0  0
   -5.1363    0.4203    3.2872 C   0  0  0  0  0  0  0  0  0  0  0  0
   -4.0475    0.3088    2.4154 C   0  0  0  0  0  0  0  0  0  0  0  0
   -2.3435   -2.1886    0.2767 N   0  0  0  0  0  0  0  0  0  0  0  0
   -1.2211   -1.9684   -0.5498 O   0  0  0  0  0  0  0  0  0  0  0  0
    5.4855    0.1522    0.1325 H   0  0  0  0  0  0  0  0  0  0  0  0
    7.6677   -0.3014    1.7500 H   0  0  0  0  0  0  0  0  0  0  0  0
    5.1728    1.9781    4.0562 H   0  0  0  0  0  0  0  0  0  0  0  0
    3.1872   -0.7929    1.2933 H   0  0  0  0  0  0  0  0  0  0  0  0
    3.2275   -0.3925   -0.4370 H   0  0  0  0  0  0  0  0  0  0  0  0
    1.3828   -1.9672    0.1637 H   0  0  0  0  0  0  0  0  0  0  0  0
    0.7414   -0.7803    1.2964 H   0  0  0  0  0  0  0  0  0  0  0  0
    1.4959    1.4774   -1.7224 H   0  0  0  0  0  0  0  0  0  0  0  0
   -0.1200    1.8551   -1.1686 H   0  0  0  0  0  0  0  0  0  0  0  0
    0.6481    1.7848    1.2018 H   0  0  0  0  0  0  0  0  0  0  0  0
    1.5895    2.9194    0.2376 H   0  0  0  0  0  0  0  0  0  0  0  0
    2.1027   -1.4853   -4.2502 H   0  0  0  0  0  0  0  0  0  0  0  0
    0.9647   -1.4716   -6.4496 H   0  0  0  0  0  0  0  0  0  0  0  0
   -2.6884   -0.2015   -4.5567 H   0  0  0  0  0  0  0  0  0  0  0  0
   -2.2978    0.9955    0.2327 H   0  0  0  0  0  0  0  0  0  0  0  0
   -1.1100    0.2608    1.3332 H   0  0  0  0  0  0  0  0  0  0  0  0
   -4.4859   -2.9346    1.4512 H   0  0  0  0  0  0  0  0  0  0  0  0
   -6.4016   -2.7275    2.9904 H   0  0  0  0  0  0  0  0  0  0  0  0
   -5.3209    1.3598    3.8025 H   0  0  0  0  0  0  0  0  0  0  0  0
   -3.4073    1.1751    2.2791 H   0  0  0  0  0  0  0  0  0  0  0  0
  1  2  2  0
  2  3  1  0
  3  4  1  0
  4  5  2  0
  5  6  1  0
  6  7  1  0
  2  8  1  0
  8  9  1  0
  9 10  1  0
 10 11  1  0
 11 12  1  0
 12 13  1  0
 11 14  1  0
 14 15  1  0
 15 16  2  0
 16 17  1  0
 17 18  2  0
 18 19  1  0
 18 20  1  0
 20 21  2  0
 21 22  1  0
 22 23  2  0
 22 24  1  0
 24 25  1  0
 25 26  1  0
 26 27  1  0
 27 28  2  0
 28 29  1  0
 29 30  2  0
 30 31  1  0
 30 32  1  0
 32 33  2  0
 26 34  2  0
 34 35  1  0
  7  3  2  0
 13  8  1  0
 21 15  1  0
 35 24  1  0
 24 11  1  0
 33 27  1  0
  4 36  1  0
  5 37  1  0
  7 38  1  0
  9 39  1  0
  9 40  1  0
 10 41  1  0
 10 42  1  0
 12 43  1  0
 12 44  1  0
 13 45  1  0
 13 46  1  0
 16 47  1  0
 17 48  1  0
 20 49  1  0
 25 50  1  0
 25 51  1  0
 28 52  1  0
 29 53  1  0
 32 54  1  0
 33 55  1  0
M  END
$$$$
