
     RDKit          3D

 97 99  0  0  0  0  0  0  0  0999 V2000
   -1.0792   -2.3007   -1.0422 C   0  0  0  0  0  0  0  0  0  0  0  0
   -1.0145   -1.0352   -0.5806 C   0  0  0  0  0  0  0  0  0  0  0  0
   -2.1984   -0.4300    0.1902 C   0  0  1  0  0  0  0  0  0  0  0  0
   -3.3845   -0.6761   -0.6102 O   0  0  0  0  0  0  0  0  0  0  0  0
   -3.9793    0.4049   -1.1829 C   0  0  0  0  0  0  0  0  0  0  0  0
   -3.6218    1.5660   -1.0368 O   0  0  0  0  0  0  0  0  0  0  0  0
   -5.1389   -0.0444   -2.0551 C   0  0  0  0  0  0  0  0  0  0  0  0
   -5.6034    1.0873   -2.9684 C   0  0  0  0  0  0  0  0  0  0  0  0
   -6.2853   -0.5510   -1.1895 C   0  0  0  0  0  0  0  0  0  0  0  0
   -2.4439   -1.0157    1.6144 C   0  0  0  0  0  0  0  0  0  0  0  0
   -2.5835   -2.4373    1.5678 O   0  0  0  0  0  0  0  0  0  0  0  0
   -3.8505   -2.9326    1.5973 C   0  0  0  0  0  0  0  0  0  0  0  0
   -3.8212   -4.4224    1.4470 C   0  0  0  0  0  0  0  0  0  0  0  0
   -4.8691   -2.2785    1.7512 O   0  0  0  0  0  0  0  0  0  0  0  0
   -1.3951   -0.4604    2.5901 C   0  0  0  0  0  0  0  0  0  0  0  0
   -1.3366    0.7732    2.7260 O   0  0  0  0  0  0  0  0  0  0  0  0
   -0.3832   -1.3788    3.3332 C   0  0  0  0  0  0  0  0  0  0  0  0
   -0.9628   -2.7198    3.8073 C   0  0  0  0  0  0  0  0  0  0  0  0
    0.0337   -0.6271    4.6244 C   0  0  0  0  0  0  0  0  0  0  0  0
    0.7762   -1.6219    2.3700 C   0  0  0  0  0  0  0  0  0  0  0  0
    1.9711   -1.0093    2.4015 C   0  0  0  0  0  0  0  0  0  0  0  0
    3.0883   -1.1653    1.3873 C   0  0  2  0  0  0  0  0  0  0  0  0
    4.3811   -1.5041    2.1441 C   0  0  0  0  0  0  0  0  0  0  0  0
    3.2883    0.1118    0.5014 C   0  0  2  0  0  0  0  0  0  0  0  0
    2.6332    1.2606    1.1052 O   0  0  0  0  0  0  0  0  0  0  0  0
    3.4055    2.0447    1.9017 C   0  0  0  0  0  0  0  0  0  0  0  0
    4.5976    1.8826    2.1195 O   0  0  0  0  0  0  0  0  0  0  0  0
    2.6168    3.1448    2.5156 C   0  0  0  0  0  0  0  0  0  0  0  0
    3.3123    4.1695    3.1751 C   0  0  0  0  0  0  0  0  0  0  0  0
    2.6177    5.2188    3.7803 C   0  0  0  0  0  0  0  0  0  0  0  0
    1.2245    5.2438    3.7372 C   0  0  0  0  0  0  0  0  0  0  0  0
    0.5260    4.2230    3.0928 C   0  0  0  0  0  0  0  0  0  0  0  0
    1.2188    3.1750    2.4832 C   0  0  0  0  0  0  0  0  0  0  0  0
    2.8102    0.0027   -0.9839 C   0  0  1  0  0  0  0  0  0  0  0  0
    2.8270    1.3203   -1.5507 O   0  0  0  0  0  0  0  0  0  0  0  0
    3.8378   -0.8103   -1.8086 C   0  0  0  0  0  0  0  0  0  0  0  0
    3.0555   -1.5195   -2.9320 C   0  0  2  0  0  0  0  0  0  0  0  0
    3.7218   -1.3431   -4.2908 C   0  0  0  0  0  0  0  0  0  0  0  0
    1.6003   -1.0223   -2.8150 C   0  0  2  0  0  0  0  0  0  0  0  0
    1.3705    0.1400   -3.6204 O   0  0  0  0  0  0  0  0  0  0  0  0
    0.8267   -0.0673   -4.8495 C   0  0  0  0  0  0  0  0  0  0  0  0
    0.6034    1.2415   -5.5448 C   0  0  0  0  0  0  0  0  0  0  0  0
    0.5311   -1.1539   -5.3267 O   0  0  0  0  0  0  0  0  0  0  0  0
    1.4734   -0.7245   -1.2968 C   0  0  2  0  0  0  0  0  0  0  0  0
    0.1556   -0.0609   -0.8175 C   0  0  1  0  0  0  0  0  0  0  0  0
   -0.3798    0.8896   -1.7560 O   0  0  0  0  0  0  0  0  0  0  0  0
   -0.1186    2.2021   -1.5415 C   0  0  0  0  0  0  0  0  0  0  0  0
   -0.8523    3.0603   -2.5230 C   0  0  0  0  0  0  0  0  0  0  0  0
    0.6434    2.6389   -0.6908 O   0  0  0  0  0  0  0  0  0  0  0  0
   -0.2947   -2.7800   -1.6116 H   0  0  0  0  0  0  0  0  0  0  0  0
   -1.9653   -2.9125   -0.8875 H   0  0  0  0  0  0  0  0  0  0  0  0
   -2.0347    0.6482    0.2992 H   0  0  0  0  0  0  0  0  0  0  0  0
   -4.7710   -0.8546   -2.6963 H   0  0  0  0  0  0  0  0  0  0  0  0
   -4.7743    1.4539   -3.5839 H   0  0  0  0  0  0  0  0  0  0  0  0
   -6.3947    0.7442   -3.6436 H   0  0  0  0  0  0  0  0  0  0  0  0
   -5.9874    1.9353   -2.3925 H   0  0  0  0  0  0  0  0  0  0  0  0
   -6.6199    0.2177   -0.4850 H   0  0  0  0  0  0  0  0  0  0  0  0
   -7.1414   -0.8472   -1.8075 H   0  0  0  0  0  0  0  0  0  0  0  0
   -5.9783   -1.4252   -0.6079 H   0  0  0  0  0  0  0  0  0  0  0  0
   -3.3808   -0.5774    1.9888 H   0  0  0  0  0  0  0  0  0  0  0  0
   -3.3744   -4.8776    2.3339 H   0  0  0  0  0  0  0  0  0  0  0  0
   -4.8404   -4.7937    1.3344 H   0  0  0  0  0  0  0  0  0  0  0  0
   -3.2566   -4.6968    0.5534 H   0  0  0  0  0  0  0  0  0  0  0  0
   -1.9696   -2.5947    4.2200 H   0  0  0  0  0  0  0  0  0  0  0  0
   -1.0132   -3.4633    3.0046 H   0  0  0  0  0  0  0  0  0  0  0  0
   -0.3405   -3.1705    4.5914 H   0  0  0  0  0  0  0  0  0  0  0  0
    0.8057   -1.1768    5.1764 H   0  0  0  0  0  0  0  0  0  0  0  0
   -0.8275   -0.4965    5.2936 H   0  0  0  0  0  0  0  0  0  0  0  0
    0.4265    0.3758    4.4204 H   0  0  0  0  0  0  0  0  0  0  0  0
    0.5838   -2.3317    1.5711 H   0  0  0  0  0  0  0  0  0  0  0  0
    2.1865   -0.2968    3.1960 H   0  0  0  0  0  0  0  0  0  0  0  0
    2.8971   -2.0355    0.7501 H   0  0  0  0  0  0  0  0  0  0  0  0
    4.2557   -2.4198    2.7342 H   0  0  0  0  0  0  0  0  0  0  0  0
    4.6766   -0.7021    2.8287 H   0  0  0  0  0  0  0  0  0  0  0  0
    5.2050   -1.6759    1.4448 H   0  0  0  0  0  0  0  0  0  0  0  0
    4.3622    0.3299    0.4335 H   0  0  0  0  0  0  0  0  0  0  0  0
    4.3997    4.1599    3.2141 H   0  0  0  0  0  0  0  0  0  0  0  0
    3.1641    6.0097    4.2886 H   0  0  0  0  0  0  0  0  0  0  0  0
    0.6812    6.0607    4.2063 H   0  0  0  0  0  0  0  0  0  0  0  0
   -0.5603    4.2377    3.0593 H   0  0  0  0  0  0  0  0  0  0  0  0
    0.6488    2.3956    1.9844 H   0  0  0  0  0  0  0  0  0  0  0  0
    2.3232    1.9048   -0.9437 H   0  0  0  0  0  0  0  0  0  0  0  0
    4.6236   -0.1584   -2.2124 H   0  0  0  0  0  0  0  0  0  0  0  0
    4.3315   -1.5776   -1.1963 H   0  0  0  0  0  0  0  0  0  0  0  0
    3.0585   -2.5952   -2.6981 H   0  0  0  0  0  0  0  0  0  0  0  0
    3.8068   -0.2871   -4.5698 H   0  0  0  0  0  0  0  0  0  0  0  0
    3.1620   -1.8663   -5.0723 H   0  0  0  0  0  0  0  0  0  0  0  0
    4.7347   -1.7589   -4.2737 H   0  0  0  0  0  0  0  0  0  0  0  0
    0.9115   -1.8214   -3.1028 H   0  0  0  0  0  0  0  0  0  0  0  0
    1.3513    1.9782   -5.2309 H   0  0  0  0  0  0  0  0  0  0  0  0
    0.7129    1.1011   -6.6251 H   0  0  0  0  0  0  0  0  0  0  0  0
   -0.4004    1.6066   -5.3161 H   0  0  0  0  0  0  0  0  0  0  0  0
    1.5415   -1.6958   -0.7919 H   0  0  0  0  0  0  0  0  0  0  0  0
    0.3465    0.4185    0.1490 H   0  0  0  0  0  0  0  0  0  0  0  0
   -1.2483    3.9390   -2.0059 H   0  0  0  0  0  0  0  0  0  0  0  0
   -0.1698    3.3655   -3.3181 H   0  0  0  0  0  0  0  0  0  0  0  0
   -1.6997    2.5180   -2.9536 H   0  0  0  0  0  0  0  0  0  0  0  0
  1  2  2  0
  2  3  1  0
  3  4  1  0
  4  5  1  0
  5  6  2  0
  5  7  1  0
  7  8  1  0
  7  9  1  0
  3 10  1  0
 10 11  1  0
 11 12  1  0
 12 13  1  0
 12 14  2  0
 10 15  1  0
 15 16  2  0
 15 17  1  0
 17 18  1  0
 17 19  1  0
 17 20  1  0
 20 21  2  0
 21 22  1  0
 22 23  1  0
 22 24  1  0
 24 25  1  0
 25 26  1  0
 26 27  2  0
 26 28  1  0
 28 29  2  0
 29 30  1  0
 30 31  2  0
 31 32  1  0
 32 33  2  0
 24 34  1  0
 34 35  1  6
 34 36  1  0
 36 37  1  0
 37 38  1  0
 37 39  1  0
 39 40  1  0
 40 41  1  0
 41 42  1  0
 41 43  2  0
 39 44  1  0
 44 45  1  0
 45 46  1  0
 46 47  1  0
 47 48  1  0
 47 49  2  0
 45  2  1  0
 33 28  1  0
 44 34  1  0
  1 50  1  0
  1 51  1  0
  3 52  1  1
  7 53  1  0
  8 54  1  0
  8 55  1  0
  8 56  1  0
  9 57  1  0
  9 58  1  0
  9 59  1  0
 10 60  1  0
 13 61  1  0
 13 62  1  0
 13 63  1  0
 18 64  1  0
 18 65  1  0
 18 66  1  0
 19 67  1  0
 19 68  1  0
 19 69  1  0
 20 70  1  0
 21 71  1  0
 22 72  1  6
 23 73  1  0
 23 74  1  0
 23 75  1  0
 24 76  1  6
 29 77  1  0
 30 78  1  0
 31 79  1  0
 32 80  1  0
 33 81  1  0
 35 82  1  0
 36 83  1  0
 36 84  1  0
 37 85  1  1
 38 86  1  0
 38 87  1  0
 38 88  1  0
 39 89  1  6
 42 90  1  0
 42 91  1  0
 42 92  1  0
 44 93  1  1
 45 94  1  1
 48 95  1  0
 48 96  1  0
 48 97  1  0
M  END
$$$$
