
     RDKit          3D

 58 62  0  0  0  0  0  0  0  0999 V2000
    6.8798    3.8873    0.2053 C   0  0  0  0  0  0  0  0  0  0  0  0
    6.6573    2.5443    0.6137 O   0  0  0  0  0  0  0  0  0  0  0  0
    5.3626    2.1047    0.6170 C   0  0  0  0  0  0  0  0  0  0  0  0
    4.2353    2.8647    0.3078 C   0  0  0  0  0  0  0  0  0  0  0  0
    2.9612    2.2880    0.3575 C   0  0  0  0  0  0  0  0  0  0  0  0
    2.7998    0.9447    0.7178 C   0  0  0  0  0  0  0  0  0  0  0  0
    1.4302    0.3159    0.7522 C   0  0  0  0  0  0  0  0  0  0  0  0
    1.0714   -0.3368   -0.5860 C   0  0  0  0  0  0  0  0  0  0  0  0
   -0.2830   -0.9204   -0.5322 N   0  0  0  0  0  0  0  0  0  0  0  0
   -1.4210   -0.1553   -0.8419 C   0  0  0  0  0  0  0  0  0  0  0  0
   -1.3858    1.1172   -1.1307 N   0  0  0  0  0  0  0  0  0  0  0  0
   -2.7833   -0.8084   -0.8466 C   0  0  0  0  0  0  0  0  0  0  0  0
   -4.0798   -0.1534   -1.2087 C   0  0  0  0  0  0  0  0  0  0  0  0
   -5.1242   -0.7917   -1.2964 O   0  0  0  0  0  0  0  0  0  0  0  0
   -4.0118    1.1909   -1.4308 N   0  0  0  0  0  0  0  0  0  0  0  0
   -5.1412    1.9663   -1.8749 C   0  0  0  0  0  0  0  0  0  0  0  0
   -5.0010    3.3589   -1.3833 C   0  0  0  0  0  0  0  0  0  0  0  0
   -4.1608    4.4054   -1.7109 C   0  0  0  0  0  0  0  0  0  0  0  0
   -4.5330    5.4925   -0.8837 C   0  0  0  0  0  0  0  0  0  0  0  0
   -5.5748    5.0426   -0.1059 C   0  0  0  0  0  0  0  0  0  0  0  0
   -5.8667    3.7512   -0.4022 O   0  0  0  0  0  0  0  0  0  0  0  0
   -2.8165   -2.1007   -0.4826 C   0  0  0  0  0  0  0  0  0  0  0  0
   -1.6321   -2.8400   -0.0828 C   0  0  0  0  0  0  0  0  0  0  0  0
   -1.7693   -4.2538    0.3686 C   0  0  0  0  0  0  0  0  0  0  0  0
   -2.8755   -4.7962    0.3717 O   0  0  0  0  0  0  0  0  0  0  0  0
   -0.6009   -4.8794    0.7674 N   0  0  0  0  0  0  0  0  0  0  0  0
   -0.6487   -6.1923    1.2248 C   0  0  0  0  0  0  0  0  0  0  0  0
    0.4534   -6.8425    1.6175 C   0  0  0  0  0  0  0  0  0  0  0  0
    1.7300   -6.1828    1.5658 C   0  0  0  0  0  0  0  0  0  0  0  0
    1.8226   -4.9209    1.1284 C   0  0  0  0  0  0  0  0  0  0  0  0
    0.5952   -4.1919    0.6980 C   0  0  0  0  0  0  0  0  0  0  0  0
    0.7142   -2.9702    0.2880 N   0  0  0  0  0  0  0  0  0  0  0  0
   -0.4055   -2.2708   -0.1051 C   0  0  0  0  0  0  0  0  0  0  0  0
    3.9338    0.1842    1.0210 C   0  0  0  0  0  0  0  0  0  0  0  0
    5.2030    0.7642    0.9732 C   0  0  0  0  0  0  0  0  0  0  0  0
    7.9566    4.0740    0.2423 H   0  0  0  0  0  0  0  0  0  0  0  0
    6.5492    4.0479   -0.8267 H   0  0  0  0  0  0  0  0  0  0  0  0
    6.3963    4.5929    0.8893 H   0  0  0  0  0  0  0  0  0  0  0  0
    4.3110    3.9094    0.0275 H   0  0  0  0  0  0  0  0  0  0  0  0
    2.0964    2.9021    0.1170 H   0  0  0  0  0  0  0  0  0  0  0  0
    0.6865    1.0757    1.0201 H   0  0  0  0  0  0  0  0  0  0  0  0
    1.3940   -0.4232    1.5611 H   0  0  0  0  0  0  0  0  0  0  0  0
    1.8163   -1.0990   -0.8463 H   0  0  0  0  0  0  0  0  0  0  0  0
    1.1480    0.3854   -1.4066 H   0  0  0  0  0  0  0  0  0  0  0  0
   -0.4357    1.4814   -1.0845 H   0  0  0  0  0  0  0  0  0  0  0  0
   -3.0834    1.6167   -1.4025 H   0  0  0  0  0  0  0  0  0  0  0  0
   -6.0754    1.5124   -1.5274 H   0  0  0  0  0  0  0  0  0  0  0  0
   -5.1421    1.9508   -2.9692 H   0  0  0  0  0  0  0  0  0  0  0  0
   -3.3782    4.3816   -2.4536 H   0  0  0  0  0  0  0  0  0  0  0  0
   -4.0998    6.4824   -0.8552 H   0  0  0  0  0  0  0  0  0  0  0  0
   -6.1853    5.4932    0.6638 H   0  0  0  0  0  0  0  0  0  0  0  0
   -3.7624   -2.6410   -0.4604 H   0  0  0  0  0  0  0  0  0  0  0  0
   -1.6242   -6.6717    1.2529 H   0  0  0  0  0  0  0  0  0  0  0  0
    0.4041   -7.8659    1.9746 H   0  0  0  0  0  0  0  0  0  0  0  0
    2.6112   -6.7318    1.8838 H   0  0  0  0  0  0  0  0  0  0  0  0
    2.7649   -4.3912    1.0721 H   0  0  0  0  0  0  0  0  0  0  0  0
    3.8394   -0.8632    1.2998 H   0  0  0  0  0  0  0  0  0  0  0  0
    6.0778    0.1656    1.2163 H   0  0  0  0  0  0  0  0  0  0  0  0
  1  2  1  0
  2  3  1  0
  3  4  2  0
  4  5  1  0
  5  6  2  0
  6  7  1  0
  7  8  1  0
  8  9  1  0
  9 10  1  0
 10 11  2  3
 10 12  1  0
 12 13  1  0
 13 14  2  0
 13 15  1  0
 15 16  1  0
 16 17  1  0
 17 18  2  0
 18 19  1  0
 19 20  2  0
 20 21  1  0
 12 22  2  0
 22 23  1  0
 23 24  1  0
 24 25  2  0
 24 26  1  0
 26 27  1  0
 27 28  2  0
 28 29  1  0
 29 30  2  0
 30 31  1  0
 31 32  2  0
 32 33  1  0
  6 34  1  0
 34 35  2  0
 35  3  1  0
 33  9  1  0
 21 17  1  0
 33 23  2  0
 31 26  1  0
  1 36  1  0
  1 37  1  0
  1 38  1  0
  4 39  1  0
  5 40  1  0
  7 41  1  0
  7 42  1  0
  8 43  1  0
  8 44  1  0
 11 45  1  0
 15 46  1  0
 16 47  1  0
 16 48  1  0
 18 49  1  0
 19 50  1  0
 20 51  1  0
 22 52  1  0
 27 53  1  0
 28 54  1  0
 29 55  1  0
 30 56  1  0
 34 57  1  0
 35 58  1  0
M  END
$$$$
