
     RDKit          3D

 37 39  0  0  0  0  0  0  0  0999 V2000
    6.4228   -0.4936   -1.6476 C   0  0  0  0  0  0  0  0  0  0  0  0
    6.5455   -0.2052   -0.1574 C   0  0  0  0  0  0  0  0  0  0  0  0
    5.8134    1.0673    0.2738 C   0  0  0  0  0  0  0  0  0  0  0  0
    4.3282    0.9536    0.1571 C   0  0  0  0  0  0  0  0  0  0  0  0
    3.6226    1.3680   -0.8749 N   0  0  0  0  0  0  0  0  0  0  0  0
    2.2731    1.1329   -0.7038 N   0  0  0  0  0  0  0  0  0  0  0  0
    2.0104    0.5576    0.4487 C   0  0  0  0  0  0  0  0  0  0  0  0
    0.7356    0.2327    0.8287 N   0  0  0  0  0  0  0  0  0  0  0  0
    0.3347   -0.3677    1.9987 C   0  0  0  0  0  0  0  0  0  0  0  0
    1.0509   -0.7274    2.9288 O   0  0  0  0  0  0  0  0  0  0  0  0
   -1.1818   -0.5742    2.0710 C   0  0  0  0  0  0  0  0  0  0  0  0
   -1.8256   -0.0911    0.8946 O   0  0  0  0  0  0  0  0  0  0  0  0
   -3.1874   -0.2175    0.8344 C   0  0  0  0  0  0  0  0  0  0  0  0
   -4.0048   -0.7823    1.8322 C   0  0  0  0  0  0  0  0  0  0  0  0
   -5.3931   -0.8583    1.6590 C   0  0  0  0  0  0  0  0  0  0  0  0
   -5.9249   -0.3653    0.4883 C   0  0  0  0  0  0  0  0  0  0  0  0
   -5.1306    0.1862   -0.4868 C   0  0  0  0  0  0  0  0  0  0  0  0
   -3.7623    0.2741   -0.3436 C   0  0  0  0  0  0  0  0  0  0  0  0
   -5.8479    0.6123   -1.5606 O   0  0  0  0  0  0  0  0  0  0  0  0
   -7.1864    0.2651   -1.1482 C   0  0  0  0  0  0  0  0  0  0  0  0
   -7.2419   -0.3566    0.1531 O   0  0  0  0  0  0  0  0  0  0  0  0
    3.3826    0.2591    1.4118 S   0  0  0  0  0  0  0  0  0  0  0  0
    5.3876   -0.7062   -1.9313 H   0  0  0  0  0  0  0  0  0  0  0  0
    6.7775    0.3542   -2.2422 H   0  0  0  0  0  0  0  0  0  0  0  0
    7.0264   -1.3679   -1.9116 H   0  0  0  0  0  0  0  0  0  0  0  0
    6.1815   -1.0704    0.4092 H   0  0  0  0  0  0  0  0  0  0  0  0
    7.6091   -0.0922    0.0848 H   0  0  0  0  0  0  0  0  0  0  0  0
    6.0848    1.3019    1.3106 H   0  0  0  0  0  0  0  0  0  0  0  0
    6.1575    1.9148   -0.3317 H   0  0  0  0  0  0  0  0  0  0  0  0
    0.0189    0.4715    0.1518 H   0  0  0  0  0  0  0  0  0  0  0  0
   -1.5380   -0.0241    2.9496 H   0  0  0  0  0  0  0  0  0  0  0  0
   -1.3531   -1.6514    2.1800 H   0  0  0  0  0  0  0  0  0  0  0  0
   -3.5926   -1.1729    2.7575 H   0  0  0  0  0  0  0  0  0  0  0  0
   -6.0317   -1.2913    2.4211 H   0  0  0  0  0  0  0  0  0  0  0  0
   -3.1541    0.7134   -1.1264 H   0  0  0  0  0  0  0  0  0  0  0  0
   -7.6123   -0.4256   -1.8851 H   0  0  0  0  0  0  0  0  0  0  0  0
   -7.7946    1.1767   -1.1275 H   0  0  0  0  0  0  0  0  0  0  0  0
  1  2  1  0
  2  3  1  0
  3  4  1  0
  4  5  2  0
  5  6  1  0
  6  7  2  0
  7  8  1  0
  8  9  1  0
  9 10  2  0
  9 11  1  0
 11 12  1  0
 12 13  1  0
 13 14  2  0
 14 15  1  0
 15 16  2  0
 16 17  1  0
 17 18  2  0
 17 19  1  0
 19 20  1  0
 20 21  1  0
  7 22  1  0
 22  4  1  0
 18 13  1  0
 21 16  1  0
  1 23  1  0
  1 24  1  0
  1 25  1  0
  2 26  1  0
  2 27  1  0
  3 28  1  0
  3 29  1  0
  8 30  1  0
 11 31  1  0
 11 32  1  0
 14 33  1  0
 15 34  1  0
 18 35  1  0
 20 36  1  0
 20 37  1  0
M  END
$$$$
