
     RDKit          3D

 29 30  0  0  0  0  0  0  0  0999 V2000
    4.2047    0.9280   -0.6669 C   0  0  0  0  0  0  0  0  0  0  0  0
    2.9405    0.5412    0.0796 C   0  0  0  0  0  0  0  0  0  0  0  0
    2.7232   -0.8972   -0.0671 N   0  0  0  0  0  0  0  0  0  0  0  0
    1.7695   -1.7071    1.0525 S   0  0  0  0  0  6  0  0  0  0  0  0
    1.5799   -3.0472    0.5436 O   0  0  0  0  0  0  0  0  0  0  0  0
    2.3164   -1.4602    2.3683 O   0  0  0  0  0  0  0  0  0  0  0  0
    0.2179   -0.8557    0.9256 C   0  0  0  0  0  0  0  0  0  0  0  0
   -0.1857    0.0221    1.9487 C   0  0  0  0  0  0  0  0  0  0  0  0
   -1.4114    0.6834    1.8554 C   0  0  0  0  0  0  0  0  0  0  0  0
   -2.1927    0.4548    0.7340 C   0  0  0  0  0  0  0  0  0  0  0  0
   -1.7849   -0.4106   -0.2796 C   0  0  0  0  0  0  0  0  0  0  0  0
   -0.5906   -1.0971   -0.1907 C   0  0  0  0  0  0  0  0  0  0  0  0
   -2.7309   -0.5538   -1.3252 N   0  0  0  0  0  0  0  0  0  0  0  0
   -3.7288    0.4970   -1.0250 C   0  0  0  0  0  0  0  0  0  0  0  0
   -3.5582    0.9610    0.4316 C   0  0  0  0  0  0  0  0  0  0  0  0
    4.1237    0.6833   -1.7314 H   0  0  0  0  0  0  0  0  0  0  0  0
    5.0746    0.3961   -0.2671 H   0  0  0  0  0  0  0  0  0  0  0  0
    4.3880    2.0030   -0.5759 H   0  0  0  0  0  0  0  0  0  0  0  0
    2.0896    1.0849   -0.3422 H   0  0  0  0  0  0  0  0  0  0  0  0
    3.0479    0.8154    1.1334 H   0  0  0  0  0  0  0  0  0  0  0  0
    2.6642   -1.2881   -1.0060 H   0  0  0  0  0  0  0  0  0  0  0  0
    0.4450    0.1812    2.8213 H   0  0  0  0  0  0  0  0  0  0  0  0
   -1.7458    1.3450    2.6485 H   0  0  0  0  0  0  0  0  0  0  0  0
   -0.2911   -1.7904   -0.9697 H   0  0  0  0  0  0  0  0  0  0  0  0
   -3.1342   -1.4894   -1.2675 H   0  0  0  0  0  0  0  0  0  0  0  0
   -4.7452    0.1339   -1.2127 H   0  0  0  0  0  0  0  0  0  0  0  0
   -3.5537    1.3392   -1.7064 H   0  0  0  0  0  0  0  0  0  0  0  0
   -3.6376    2.0481    0.5190 H   0  0  0  0  0  0  0  0  0  0  0  0
   -4.2942    0.4790    1.0833 H   0  0  0  0  0  0  0  0  0  0  0  0
  1  2  1  0
  2  3  1  0
  3  4  1  0
  4  5  2  0
  4  6  2  0
  4  7  1  0
  7  8  2  0
  8  9  1  0
  9 10  2  0
 10 11  1  0
 11 12  2  0
 11 13  1  0
 13 14  1  0
 14 15  1  0
 12  7  1  0
 15 10  1  0
  1 16  1  0
  1 17  1  0
  1 18  1  0
  2 19  1  0
  2 20  1  0
  3 21  1  0
  8 22  1  0
  9 23  1  0
 12 24  1  0
 13 25  1  0
 14 26  1  0
 14 27  1  0
 15 28  1  0
 15 29  1  0
M  END
$$$$
