
     RDKit          3D

 60 63  0  0  0  0  0  0  0  0999 V2000
    9.2985   -1.1452   -1.9403 C   0  0  0  0  0  0  0  0  0  0  0  0
    8.5100   -2.4277   -2.1329 C   0  0  0  0  0  0  0  0  0  0  0  0
    7.2283   -2.1467   -2.6940 O   0  0  0  0  0  0  0  0  0  0  0  0
    6.1596   -2.0707   -1.8456 C   0  0  0  0  0  0  0  0  0  0  0  0
    6.2209   -1.8557   -0.4702 C   0  0  0  0  0  0  0  0  0  0  0  0
    5.0446   -1.7963    0.2856 C   0  0  0  0  0  0  0  0  0  0  0  0
    3.7914   -1.9526   -0.3227 C   0  0  0  0  0  0  0  0  0  0  0  0
    2.5318   -1.8803    0.5009 C   0  0  0  0  0  0  0  0  0  0  0  0
    2.0228   -0.5328    0.5565 N   0  0  0  0  0  0  0  0  0  0  0  0
    2.3516    0.3409    1.5716 C   0  0  0  0  0  0  0  0  0  0  0  0
    3.0655    0.0280    2.5237 O   0  0  0  0  0  0  0  0  0  0  0  0
    1.8032    1.7566    1.3939 C   0  0  0  0  0  0  0  0  0  0  0  0
    0.3440    1.7637    1.4364 N   0  0  0  0  0  0  0  0  0  0  0  0
   -0.2334    2.1060    2.6654 N   0  0  0  0  0  0  0  0  0  0  0  0
   -1.5281    2.1206    2.8211 C   0  0  0  0  0  0  0  0  0  0  0  0
   -2.0829    2.4866    4.1679 C   0  0  0  0  0  0  0  0  0  0  0  0
   -2.3780    1.7878    1.7040 C   0  0  0  0  0  0  0  0  0  0  0  0
   -3.7488    1.7534    1.5099 C   0  0  0  0  0  0  0  0  0  0  0  0
   -4.8471    2.2087    2.4011 C   0  0  0  0  0  0  0  0  0  0  0  0
   -3.9280    1.2302    0.2234 N   0  0  0  0  0  0  0  0  0  0  0  0
   -5.1056    0.7544   -0.4322 C   0  0  0  0  0  0  0  0  0  0  0  0
   -5.0902    0.6041   -1.8293 C   0  0  0  0  0  0  0  0  0  0  0  0
   -6.2182    0.1360   -2.5099 C   0  0  0  0  0  0  0  0  0  0  0  0
   -7.3738   -0.2154   -1.8071 C   0  0  0  0  0  0  0  0  0  0  0  0
   -8.5957   -0.6868   -2.5394 C   0  0  0  0  0  0  0  0  0  0  0  0
   -7.3872   -0.0795   -0.4148 C   0  0  0  0  0  0  0  0  0  0  0  0
   -6.2590    0.3888    0.2709 C   0  0  0  0  0  0  0  0  0  0  0  0
   -2.7445    1.1841   -0.4491 N   0  0  0  0  0  0  0  0  0  0  0  0
   -1.8146    1.4481    0.4707 C   0  0  0  0  0  0  0  0  0  0  0  0
   -0.3729    1.4212    0.2747 C   0  0  0  0  0  0  0  0  0  0  0  0
    0.1748    1.1015   -0.7807 O   0  0  0  0  0  0  0  0  0  0  0  0
    3.7339   -2.1359   -1.7091 C   0  0  0  0  0  0  0  0  0  0  0  0
    4.9110   -2.1933   -2.4612 C   0  0  0  0  0  0  0  0  0  0  0  0
   10.2993   -1.3613   -1.5563 H   0  0  0  0  0  0  0  0  0  0  0  0
    8.7969   -0.4680   -1.2436 H   0  0  0  0  0  0  0  0  0  0  0  0
    9.3965   -0.6075   -2.8894 H   0  0  0  0  0  0  0  0  0  0  0  0
    9.0371   -3.0525   -2.8626 H   0  0  0  0  0  0  0  0  0  0  0  0
    8.4530   -3.0228   -1.2139 H   0  0  0  0  0  0  0  0  0  0  0  0
    7.1638   -1.7140    0.0469 H   0  0  0  0  0  0  0  0  0  0  0  0
    5.1086   -1.6165    1.3580 H   0  0  0  0  0  0  0  0  0  0  0  0
    1.7515   -2.5087    0.0553 H   0  0  0  0  0  0  0  0  0  0  0  0
    2.7124   -2.2610    1.5143 H   0  0  0  0  0  0  0  0  0  0  0  0
    1.5690   -0.1627   -0.2774 H   0  0  0  0  0  0  0  0  0  0  0  0
    2.1512    2.1537    0.4337 H   0  0  0  0  0  0  0  0  0  0  0  0
    2.1925    2.3986    2.1923 H   0  0  0  0  0  0  0  0  0  0  0  0
   -2.5290    3.4835    4.1198 H   0  0  0  0  0  0  0  0  0  0  0  0
   -1.2857    2.4977    4.9175 H   0  0  0  0  0  0  0  0  0  0  0  0
   -2.8387    1.7596    4.4763 H   0  0  0  0  0  0  0  0  0  0  0  0
   -4.5270    3.0636    3.0046 H   0  0  0  0  0  0  0  0  0  0  0  0
   -5.1491    1.4083    3.0852 H   0  0  0  0  0  0  0  0  0  0  0  0
   -5.7183    2.5587    1.8385 H   0  0  0  0  0  0  0  0  0  0  0  0
   -4.2050    0.8608   -2.4105 H   0  0  0  0  0  0  0  0  0  0  0  0
   -6.1815    0.0439   -3.5933 H   0  0  0  0  0  0  0  0  0  0  0  0
   -9.2255    0.1685   -2.8047 H   0  0  0  0  0  0  0  0  0  0  0  0
   -8.3221   -1.2222   -3.4552 H   0  0  0  0  0  0  0  0  0  0  0  0
   -9.1785   -1.3779   -1.9215 H   0  0  0  0  0  0  0  0  0  0  0  0
   -8.2758   -0.3539    0.1511 H   0  0  0  0  0  0  0  0  0  0  0  0
   -6.3091    0.4060    1.3540 H   0  0  0  0  0  0  0  0  0  0  0  0
    2.7754   -2.2349   -2.2145 H   0  0  0  0  0  0  0  0  0  0  0  0
    4.8544   -2.3409   -3.5376 H   0  0  0  0  0  0  0  0  0  0  0  0
  1  2  1  0
  2  3  1  0
  3  4  1  0
  4  5  2  0
  5  6  1  0
  6  7  2  0
  7  8  1  0
  8  9  1  0
  9 10  1  0
 10 11  2  0
 10 12  1  0
 12 13  1  0
 13 14  1  0
 14 15  2  0
 15 16  1  0
 15 17  1  0
 17 18  2  0
 18 19  1  0
 18 20  1  0
 20 21  1  0
 21 22  2  0
 22 23  1  0
 23 24  2  0
 24 25  1  0
 24 26  1  0
 26 27  2  0
 20 28  1  0
 28 29  2  0
 29 30  1  0
 30 31  2  0
  7 32  1  0
 32 33  2  0
 33  4  1  0
 30 13  1  0
 29 17  1  0
 27 21  1  0
  1 34  1  0
  1 35  1  0
  1 36  1  0
  2 37  1  0
  2 38  1  0
  5 39  1  0
  6 40  1  0
  8 41  1  0
  8 42  1  0
  9 43  1  0
 12 44  1  0
 12 45  1  0
 16 46  1  0
 16 47  1  0
 16 48  1  0
 19 49  1  0
 19 50  1  0
 19 51  1  0
 22 52  1  0
 23 53  1  0
 25 54  1  0
 25 55  1  0
 25 56  1  0
 26 57  1  0
 27 58  1  0
 32 59  1  0
 33 60  1  0
M  END
$$$$
