
     RDKit          3D

 55 58  0  0  0  0  0  0  0  0999 V2000
    1.3049    0.0906   -0.6689 O   0  0  0  0  0  0  0  0  0  0  0  0
    1.8899    0.9537   -1.3329 C   0  0  0  0  0  0  0  0  0  0  0  0
    1.2776    1.6513   -2.5396 C   0  0  0  0  0  0  0  0  0  0  0  0
   -0.2547    2.5062   -2.0679 S   0  0  0  0  0  0  0  0  0  0  0  0
   -1.2988    1.1355   -1.9382 C   0  0  0  0  0  0  0  0  0  0  0  0
   -1.5457    0.2876   -2.9052 N   0  0  0  0  0  0  0  0  0  0  0  0
   -2.3356   -0.7074   -2.3899 N   0  0  0  0  0  0  0  0  0  0  0  0
   -2.5470   -0.4490   -1.1144 C   0  0  0  0  0  0  0  0  0  0  0  0
   -3.2871   -1.2925   -0.1892 C   0  0  0  0  0  0  0  0  0  0  0  0
   -4.6876   -1.2384   -0.1860 C   0  0  0  0  0  0  0  0  0  0  0  0
   -5.4241   -1.9936    0.7302 C   0  0  0  0  0  0  0  0  0  0  0  0
   -4.7653   -2.8163    1.6407 C   0  0  0  0  0  0  0  0  0  0  0  0
   -3.3732   -2.8833    1.6426 C   0  0  0  0  0  0  0  0  0  0  0  0
   -2.6394   -2.1360    0.7244 C   0  0  0  0  0  0  0  0  0  0  0  0
   -1.2774   -2.2582    0.7902 O   0  0  0  0  0  0  0  0  0  0  0  0
   -1.9391    0.7478   -0.7947 N   0  0  0  0  0  0  0  0  0  0  0  0
   -1.9461    1.4010    0.5026 C   0  0  0  0  0  0  0  0  0  0  0  0
   -3.2588    2.1038    0.7674 C   0  0  0  0  0  0  0  0  0  0  0  0
   -3.6404    3.2278    0.0141 C   0  0  0  0  0  0  0  0  0  0  0  0
   -4.8669    3.8530    0.2486 C   0  0  0  0  0  0  0  0  0  0  0  0
   -5.7263    3.3675    1.2335 C   0  0  0  0  0  0  0  0  0  0  0  0
   -5.3542    2.2595    1.9960 C   0  0  0  0  0  0  0  0  0  0  0  0
   -4.1265    1.6335    1.7675 C   0  0  0  0  0  0  0  0  0  0  0  0
    3.1751    1.3813   -1.0370 N   0  0  0  0  0  0  0  0  0  0  0  0
    3.9565    0.5533   -0.2062 N   0  0  0  0  0  0  0  0  0  0  0  0
    5.2657    0.3418   -0.6048 C   0  0  0  0  0  0  0  0  0  0  0  0
    5.7958    1.0414   -1.4727 O   0  0  0  0  0  0  0  0  0  0  0  0
    6.0158   -0.7681    0.0550 C   0  0  0  0  0  0  0  0  0  0  0  0
    7.4016   -0.8129   -0.1503 C   0  0  0  0  0  0  0  0  0  0  0  0
    8.1773   -1.8173    0.4332 C   0  0  0  0  0  0  0  0  0  0  0  0
    7.5722   -2.7884    1.2280 C   0  0  0  0  0  0  0  0  0  0  0  0
    6.1933   -2.7552    1.4454 C   0  0  0  0  0  0  0  0  0  0  0  0
    5.4194   -1.7533    0.8549 C   0  0  0  0  0  0  0  0  0  0  0  0
    4.0656   -1.7577    1.0773 O   0  0  0  0  0  0  0  0  0  0  0  0
    1.9694    2.3964   -2.9440 H   0  0  0  0  0  0  0  0  0  0  0  0
    1.1020    0.9075   -3.3206 H   0  0  0  0  0  0  0  0  0  0  0  0
   -5.2063   -0.5824   -0.8816 H   0  0  0  0  0  0  0  0  0  0  0  0
   -6.5102   -1.9220    0.7434 H   0  0  0  0  0  0  0  0  0  0  0  0
   -5.3386   -3.4012    2.3548 H   0  0  0  0  0  0  0  0  0  0  0  0
   -2.8569   -3.5186    2.3563 H   0  0  0  0  0  0  0  0  0  0  0  0
   -0.8801   -1.9217   -0.0378 H   0  0  0  0  0  0  0  0  0  0  0  0
   -1.7418    0.6382    1.2639 H   0  0  0  0  0  0  0  0  0  0  0  0
   -1.1208    2.1185    0.5634 H   0  0  0  0  0  0  0  0  0  0  0  0
   -2.9904    3.6325   -0.7583 H   0  0  0  0  0  0  0  0  0  0  0  0
   -5.1568    4.7175   -0.3484 H   0  0  0  0  0  0  0  0  0  0  0  0
   -6.6860    3.8520    1.4051 H   0  0  0  0  0  0  0  0  0  0  0  0
   -6.0239    1.8741    2.7587 H   0  0  0  0  0  0  0  0  0  0  0  0
   -3.8630    0.7588    2.3581 H   0  0  0  0  0  0  0  0  0  0  0  0
    3.7270    1.8956   -1.7335 H   0  0  0  0  0  0  0  0  0  0  0  0
    3.4654   -0.1871    0.3118 H   0  0  0  0  0  0  0  0  0  0  0  0
    7.8892   -0.0596   -0.7684 H   0  0  0  0  0  0  0  0  0  0  0  0
    9.2519   -1.8361    0.2685 H   0  0  0  0  0  0  0  0  0  0  0  0
    8.1763   -3.5665    1.6910 H   0  0  0  0  0  0  0  0  0  0  0  0
    5.7442   -3.5193    2.0750 H   0  0  0  0  0  0  0  0  0  0  0  0
    3.8333   -2.5854    1.5378 H   0  0  0  0  0  0  0  0  0  0  0  0
  1  2  2  0
  2  3  1  0
  3  4  1  0
  4  5  1  0
  5  6  2  0
  6  7  1  0
  7  8  2  0
  8  9  1  0
  9 10  2  0
 10 11  1  0
 11 12  2  0
 12 13  1  0
 13 14  2  0
 14 15  1  0
  8 16  1  0
 16 17  1  0
 17 18  1  0
 18 19  2  0
 19 20  1  0
 20 21  2  0
 21 22  1  0
 22 23  2  0
  2 24  1  0
 24 25  1  0
 25 26  1  0
 26 27  2  0
 26 28  1  0
 28 29  2  0
 29 30  1  0
 30 31  2  0
 31 32  1  0
 32 33  2  0
 33 34  1  0
 16  5  1  0
 23 18  1  0
 33 28  1  0
 14  9  1  0
  3 35  1  0
  3 36  1  0
 10 37  1  0
 11 38  1  0
 12 39  1  0
 13 40  1  0
 15 41  1  0
 17 42  1  0
 17 43  1  0
 19 44  1  0
 20 45  1  0
 21 46  1  0
 22 47  1  0
 23 48  1  0
 24 49  1  0
 25 50  1  0
 29 51  1  0
 30 52  1  0
 31 53  1  0
 32 54  1  0
 34 55  1  0
M  END
$$$$
