
     RDKit          3D

 47 49  0  0  0  0  0  0  0  0999 V2000
   -2.5989    2.3893   -0.5879 O   0  0  0  0  0  0  0  0  0  0  0  0
   -3.0399    1.2689   -0.3463 C   0  0  0  0  0  0  0  0  0  0  0  0
   -4.5447    0.9921   -0.4329 C   0  0  0  0  0  0  0  0  0  0  0  0
   -4.8457   -0.3626   -0.1011 O   0  0  0  0  0  0  0  0  0  0  0  0
   -6.1620   -0.7311   -0.1416 C   0  0  0  0  0  0  0  0  0  0  0  0
   -7.2369    0.0958   -0.4738 C   0  0  0  0  0  0  0  0  0  0  0  0
   -8.5407   -0.4129   -0.4745 C   0  0  0  0  0  0  0  0  0  0  0  0
   -8.7677   -1.7475   -0.1446 C   0  0  0  0  0  0  0  0  0  0  0  0
  -10.5299   -2.4301   -0.1473 Br  0  0  0  0  0  0  0  0  0  0  0  0
   -7.7029   -2.5803    0.1859 C   0  0  0  0  0  0  0  0  0  0  0  0
   -6.4030   -2.0689    0.1872 C   0  0  0  0  0  0  0  0  0  0  0  0
   -2.3056    0.1538    0.0136 N   0  0  0  0  0  0  0  0  0  0  0  0
   -0.9147    0.0443    0.1866 C   0  0  0  0  0  0  0  0  0  0  0  0
   -0.4139   -1.2106    0.5531 C   0  0  0  0  0  0  0  0  0  0  0  0
    0.9583   -1.4028    0.7437 C   0  0  0  0  0  0  0  0  0  0  0  0
    1.8531   -0.3426    0.5614 C   0  0  0  0  0  0  0  0  0  0  0  0
    3.3088   -0.5973    0.7816 C   0  0  0  0  0  0  0  0  0  0  0  0
    3.6273   -1.4831    1.5666 O   0  0  0  0  0  0  0  0  0  0  0  0
    4.1652    0.1879    0.0350 N   0  0  0  0  0  0  0  0  0  0  0  0
    5.5850    0.2032    0.0463 C   0  0  0  0  0  0  0  0  0  0  0  0
    6.3312   -0.5905    0.9266 C   0  0  0  0  0  0  0  0  0  0  0  0
    7.7296   -0.5580    0.9195 C   0  0  0  0  0  0  0  0  0  0  0  0
    8.4083    0.2709    0.0339 C   0  0  0  0  0  0  0  0  0  0  0  0
    7.6885    1.0737   -0.8481 C   0  0  0  0  0  0  0  0  0  0  0  0
    6.2819    1.0495   -0.8499 C   0  0  0  0  0  0  0  0  0  0  0  0
    5.5348    1.9240   -1.7958 C   0  0  0  0  0  0  0  0  0  0  0  0
    4.3205    2.0218   -1.8613 O   0  0  0  0  0  0  0  0  0  0  0  0
    6.3295    2.6326   -2.6173 O   0  0  0  0  0  0  0  0  0  0  0  0
    1.3540    0.9169    0.2109 C   0  0  0  0  0  0  0  0  0  0  0  0
   -0.0221    1.1046    0.0206 C   0  0  0  0  0  0  0  0  0  0  0  0
   -5.0356    1.6717    0.2734 H   0  0  0  0  0  0  0  0  0  0  0  0
   -4.8492    1.2035   -1.4646 H   0  0  0  0  0  0  0  0  0  0  0  0
   -7.1019    1.1403   -0.7368 H   0  0  0  0  0  0  0  0  0  0  0  0
   -9.3699    0.2409   -0.7337 H   0  0  0  0  0  0  0  0  0  0  0  0
   -7.8704   -3.6225    0.4436 H   0  0  0  0  0  0  0  0  0  0  0  0
   -5.5734   -2.7219    0.4471 H   0  0  0  0  0  0  0  0  0  0  0  0
   -2.8598   -0.6839    0.1699 H   0  0  0  0  0  0  0  0  0  0  0  0
   -1.0807   -2.0568    0.6992 H   0  0  0  0  0  0  0  0  0  0  0  0
    1.3280   -2.3850    1.0332 H   0  0  0  0  0  0  0  0  0  0  0  0
    3.7412    0.8021   -0.6608 H   0  0  0  0  0  0  0  0  0  0  0  0
    5.8529   -1.2519    1.6426 H   0  0  0  0  0  0  0  0  0  0  0  0
    8.2844   -1.1860    1.6132 H   0  0  0  0  0  0  0  0  0  0  0  0
    9.4953    0.2936    0.0315 H   0  0  0  0  0  0  0  0  0  0  0  0
    8.2359    1.7187   -1.5315 H   0  0  0  0  0  0  0  0  0  0  0  0
    5.7101    3.1491   -3.1747 H   0  0  0  0  0  0  0  0  0  0  0  0
    2.0092    1.7775    0.1016 H   0  0  0  0  0  0  0  0  0  0  0  0
   -0.3635    2.0993   -0.2502 H   0  0  0  0  0  0  0  0  0  0  0  0
  1  2  2  0
  2  3  1  0
  3  4  1  0
  4  5  1  0
  5  6  2  0
  6  7  1  0
  7  8  2  0
  8  9  1  0
  8 10  1  0
 10 11  2  0
  2 12  1  0
 12 13  1  0
 13 14  2  0
 14 15  1  0
 15 16  2  0
 16 17  1  0
 17 18  2  0
 17 19  1  0
 19 20  1  0
 20 21  2  0
 21 22  1  0
 22 23  2  0
 23 24  1  0
 24 25  2  0
 25 26  1  0
 26 27  2  0
 26 28  1  0
 16 29  1  0
 29 30  2  0
 11  5  1  0
 30 13  1  0
 25 20  1  0
  3 31  1  0
  3 32  1  0
  6 33  1  0
  7 34  1  0
 10 35  1  0
 11 36  1  0
 12 37  1  0
 14 38  1  0
 15 39  1  0
 19 40  1  0
 21 41  1  0
 22 42  1  0
 23 43  1  0
 24 44  1  0
 28 45  1  0
 29 46  1  0
 30 47  1  0
M  END
$$$$
