
     RDKit          3D

 37 39  0  0  0  0  0  0  0  0999 V2000
    4.5008   -0.7355    0.5105 N   0  0  0  0  0  0  0  0  0  0  0  0
    4.2111    0.5082   -0.1914 C   0  0  0  0  0  0  0  0  0  0  0  0
    2.9418    0.3919   -1.0355 C   0  0  0  0  0  0  0  0  0  0  0  0
    1.6773    0.2035   -0.1901 C   0  0  0  0  0  0  0  0  0  0  0  0
    0.4344    0.0893   -1.0850 C   0  0  0  0  0  0  0  0  0  0  0  0
   -0.8129   -0.0112   -0.2919 N   0  0  0  0  0  0  0  0  0  0  0  0
   -1.2873   -1.3217    0.0092 C   0  0  0  0  0  0  0  0  0  0  0  0
   -0.4583   -2.4634   -0.0835 C   0  0  0  0  0  0  0  0  0  0  0  0
   -0.9107   -3.7531    0.2221 C   0  0  0  0  0  0  0  0  0  0  0  0
   -2.2164   -3.9481    0.6374 C   0  0  0  0  0  0  0  0  0  0  0  0
   -3.0607   -2.8500    0.7483 C   0  0  0  0  0  0  0  0  0  0  0  0
   -2.6085   -1.5498    0.4449 C   0  0  0  0  0  0  0  0  0  0  0  0
   -3.8230   -0.2639    0.6138 S   0  0  0  0  0  0  0  0  0  0  0  0
   -2.8437    1.2070    0.4345 C   0  0  0  0  0  0  0  0  0  0  0  0
   -3.5108    2.4136    0.7292 C   0  0  0  0  0  0  0  0  0  0  0  0
   -2.8650    3.6384    0.6063 C   0  0  0  0  0  0  0  0  0  0  0  0
   -1.5462    3.6578    0.1875 C   0  0  0  0  0  0  0  0  0  0  0  0
   -0.7216    5.1616    0.0349 Cl  0  0  0  0  0  0  0  0  0  0  0  0
   -0.8766    2.4663   -0.1094 C   0  0  0  0  0  0  0  0  0  0  0  0
   -1.5021    1.2031   -0.0025 C   0  0  0  0  0  0  0  0  0  0  0  0
    5.3499   -0.6214    1.0637 H   0  0  0  0  0  0  0  0  0  0  0  0
    4.7000   -1.4741   -0.1630 H   0  0  0  0  0  0  0  0  0  0  0  0
    5.0580    0.7584   -0.8397 H   0  0  0  0  0  0  0  0  0  0  0  0
    4.1041    1.3196    0.5365 H   0  0  0  0  0  0  0  0  0  0  0  0
    3.0425   -0.4393   -1.7448 H   0  0  0  0  0  0  0  0  0  0  0  0
    2.8393    1.3059   -1.6337 H   0  0  0  0  0  0  0  0  0  0  0  0
    1.5781    1.0458    0.5037 H   0  0  0  0  0  0  0  0  0  0  0  0
    1.7740   -0.6885    0.4372 H   0  0  0  0  0  0  0  0  0  0  0  0
    0.3867    0.9380   -1.7800 H   0  0  0  0  0  0  0  0  0  0  0  0
    0.5379   -0.7634   -1.7690 H   0  0  0  0  0  0  0  0  0  0  0  0
    0.5828   -2.3874   -0.3792 H   0  0  0  0  0  0  0  0  0  0  0  0
   -0.2323   -4.5984    0.1393 H   0  0  0  0  0  0  0  0  0  0  0  0
   -2.5769   -4.9441    0.8777 H   0  0  0  0  0  0  0  0  0  0  0  0
   -4.0860   -3.0110    1.0761 H   0  0  0  0  0  0  0  0  0  0  0  0
   -4.5485    2.4004    1.0581 H   0  0  0  0  0  0  0  0  0  0  0  0
   -3.3925    4.5587    0.8387 H   0  0  0  0  0  0  0  0  0  0  0  0
    0.1610    2.5570   -0.4108 H   0  0  0  0  0  0  0  0  0  0  0  0
  1  2  1  0
  2  3  1  0
  3  4  1  0
  4  5  1  0
  5  6  1  0
  6  7  1  0
  7  8  2  0
  8  9  1  0
  9 10  2  0
 10 11  1  0
 11 12  2  0
 12 13  1  0
 13 14  1  0
 14 15  2  0
 15 16  1  0
 16 17  2  0
 17 18  1  0
 17 19  1  0
 19 20  2  0
 20  6  1  0
 12  7  1  0
 20 14  1  0
  1 21  1  0
  1 22  1  0
  2 23  1  0
  2 24  1  0
  3 25  1  0
  3 26  1  0
  4 27  1  0
  4 28  1  0
  5 29  1  0
  5 30  1  0
  8 31  1  0
  9 32  1  0
 10 33  1  0
 11 34  1  0
 15 35  1  0
 16 36  1  0
 19 37  1  0
M  END
$$$$
