
     RDKit          3D

 71 75  0  0  0  0  0  0  0  0999 V2000
   -0.8335    3.9643    0.3342 C   0  0  0  0  0  0  0  0  0  0  0  0
   -1.2195    2.5168    0.2794 C   0  0  0  0  0  0  0  0  0  0  0  0
   -1.6507    1.9069   -0.8377 C   0  0  0  0  0  0  0  0  0  0  0  0
   -2.1051    0.5335   -1.1092 C   0  0  0  0  0  0  0  0  0  0  0  0
   -3.1268   -0.2613   -0.3236 C   0  0  2  0  0  0  0  0  0  0  0  0
   -3.1331   -1.7753   -0.3084 C   0  0  0  0  0  0  0  0  0  0  0  0
   -2.7750   -2.4140    1.0357 C   0  0  0  0  0  0  0  0  0  0  0  0
   -1.3974   -2.0319    1.5257 C   0  0  2  0  0  0  0  0  0  0  0  0
   -0.2636   -2.4263    0.6322 C   0  0  0  0  0  0  0  0  0  0  0  0
   -1.1268   -2.3890    2.9002 O   0  0  0  0  0  0  0  0  0  0  0  0
   -1.3824   -1.0050    2.6579 C   0  0  1  0  0  0  0  0  0  0  0  0
   -0.3385   -0.0188    3.0612 C   0  0  1  0  0  0  0  0  0  0  0  0
    0.9350   -0.4642    3.7718 C   0  0  1  0  0  0  0  0  0  0  0  0
    1.6057   -1.5320    3.1284 O   0  0  0  0  0  0  0  0  0  0  0  0
    1.7944    0.8172    3.7924 C   0  0  1  0  0  0  0  0  0  0  0  0
    3.2648    0.5914    3.4571 C   0  0  0  0  0  0  0  0  0  0  0  0
    3.9784    1.8099    3.6424 O   0  0  0  0  0  0  0  0  0  0  0  0
    1.1018    1.8251    2.8323 C   0  0  0  0  0  0  0  0  0  0  0  0
    0.1082    1.0037    1.9785 C   0  0  1  0  0  0  0  0  0  0  0  0
    0.7819    0.2907    0.9301 O   0  0  0  0  0  0  0  0  0  0  0  0
    1.5103    0.9516    0.0012 C   0  0  0  0  0  0  0  0  0  0  0  0
    1.6745    2.1547   -0.0932 O   0  0  0  0  0  0  0  0  0  0  0  0
    2.0704   -0.0433   -0.9332 C   0  0  0  0  0  0  0  0  0  0  0  0
    2.5738    0.3554   -2.1103 C   0  0  0  0  0  0  0  0  0  0  0  0
    3.1273   -0.5677   -3.1086 C   0  0  0  0  0  0  0  0  0  0  0  0
    2.5283   -1.8020   -3.3943 C   0  0  0  0  0  0  0  0  0  0  0  0
    3.0625   -2.6402   -4.3761 C   0  0  0  0  0  0  0  0  0  0  0  0
    4.1934   -2.2474   -5.0884 C   0  0  0  0  0  0  0  0  0  0  0  0
    4.7883   -1.0160   -4.8234 C   0  0  0  0  0  0  0  0  0  0  0  0
    4.2541   -0.1775   -3.8420 C   0  0  0  0  0  0  0  0  0  0  0  0
   -1.1575    1.8201    1.5841 C   0  0  0  0  0  0  0  0  0  0  0  0
   -2.1058    1.9896    2.3572 O   0  0  0  0  0  0  0  0  0  0  0  0
   -3.5473    0.4261   -1.6145 C   0  0  0  0  0  0  0  0  0  0  0  0
   -4.5312    1.5669   -1.4583 C   0  0  0  0  0  0  0  0  0  0  0  0
   -3.7546   -0.3525   -2.8933 C   0  0  0  0  0  0  0  0  0  0  0  0
   -0.7881    4.4140   -0.6631 H   0  0  0  0  0  0  0  0  0  0  0  0
   -1.5648    4.5286    0.9224 H   0  0  0  0  0  0  0  0  0  0  0  0
    0.1486    4.0945    0.7995 H   0  0  0  0  0  0  0  0  0  0  0  0
   -1.6640    2.5316   -1.7334 H   0  0  0  0  0  0  0  0  0  0  0  0
   -1.3502   -0.0453   -1.6365 H   0  0  0  0  0  0  0  0  0  0  0  0
   -3.5101    0.1531    0.6034 H   0  0  0  0  0  0  0  0  0  0  0  0
   -4.1429   -2.1133   -0.5742 H   0  0  0  0  0  0  0  0  0  0  0  0
   -2.4628   -2.1673   -1.0821 H   0  0  0  0  0  0  0  0  0  0  0  0
   -2.8241   -3.5057    0.9338 H   0  0  0  0  0  0  0  0  0  0  0  0
   -3.5400   -2.1435    1.7742 H   0  0  0  0  0  0  0  0  0  0  0  0
    0.7188   -2.2848    1.0767 H   0  0  0  0  0  0  0  0  0  0  0  0
   -0.3410   -3.4902    0.3784 H   0  0  0  0  0  0  0  0  0  0  0  0
   -0.2904   -1.8629   -0.3044 H   0  0  0  0  0  0  0  0  0  0  0  0
   -2.3570   -0.6304    2.9684 H   0  0  0  0  0  0  0  0  0  0  0  0
   -0.8538    0.5661    3.8440 H   0  0  0  0  0  0  0  0  0  0  0  0
    0.7196   -0.7925    4.7955 H   0  0  0  0  0  0  0  0  0  0  0  0
    0.9961   -2.2955    3.1842 H   0  0  0  0  0  0  0  0  0  0  0  0
    1.7392    1.2654    4.7943 H   0  0  0  0  0  0  0  0  0  0  0  0
    3.7033   -0.1593    4.1226 H   0  0  0  0  0  0  0  0  0  0  0  0
    3.3975    0.2693    2.4187 H   0  0  0  0  0  0  0  0  0  0  0  0
    4.9054    1.6278    3.4103 H   0  0  0  0  0  0  0  0  0  0  0  0
    0.5553    2.5650    3.4330 H   0  0  0  0  0  0  0  0  0  0  0  0
    1.8336    2.3874    2.2491 H   0  0  0  0  0  0  0  0  0  0  0  0
    2.0524   -1.0799   -0.6252 H   0  0  0  0  0  0  0  0  0  0  0  0
    2.5996    1.4124   -2.3708 H   0  0  0  0  0  0  0  0  0  0  0  0
    1.6328   -2.1214   -2.8677 H   0  0  0  0  0  0  0  0  0  0  0  0
    2.5917   -3.5962   -4.5894 H   0  0  0  0  0  0  0  0  0  0  0  0
    4.6085   -2.8983   -5.8533 H   0  0  0  0  0  0  0  0  0  0  0  0
    5.6672   -0.7043   -5.3821 H   0  0  0  0  0  0  0  0  0  0  0  0
    4.7320    0.7813   -3.6518 H   0  0  0  0  0  0  0  0  0  0  0  0
   -4.4308    2.0809   -0.4963 H   0  0  0  0  0  0  0  0  0  0  0  0
   -4.3889    2.3049   -2.2546 H   0  0  0  0  0  0  0  0  0  0  0  0
   -5.5572    1.1886   -1.5219 H   0  0  0  0  0  0  0  0  0  0  0  0
   -3.7308    0.3243   -3.7543 H   0  0  0  0  0  0  0  0  0  0  0  0
   -2.9819   -1.1098   -3.0558 H   0  0  0  0  0  0  0  0  0  0  0  0
   -4.7273   -0.8541   -2.8790 H   0  0  0  0  0  0  0  0  0  0  0  0
  1  2  1  0
  2  3  2  3
  3  4  1  0
  4  5  1  0
  5  6  1  0
  6  7  1  0
  7  8  1  0
  8  9  1  6
  8 10  1  0
 10 11  1  0
 11 12  1  0
 12 13  1  0
 13 14  1  0
 13 15  1  0
 15 16  1  0
 16 17  1  0
 15 18  1  0
 18 19  1  0
 19 20  1  6
 20 21  1  0
 21 22  2  0
 21 23  1  0
 23 24  2  0
 24 25  1  0
 25 26  2  0
 26 27  1  0
 27 28  2  0
 28 29  1  0
 29 30  2  0
 19 31  1  0
 31 32  2  0
  5 33  1  0
 33 34  1  0
 33 35  1  0
 31  2  1  0
 33  4  1  0
 11  8  1  0
 19 12  1  0
 30 25  1  0
  1 36  1  0
  1 37  1  0
  1 38  1  0
  3 39  1  0
  4 40  1  0
  5 41  1  1
  6 42  1  0
  6 43  1  0
  7 44  1  0
  7 45  1  0
  9 46  1  0
  9 47  1  0
  9 48  1  0
 11 49  1  1
 12 50  1  1
 13 51  1  1
 14 52  1  0
 15 53  1  1
 16 54  1  0
 16 55  1  0
 17 56  1  0
 18 57  1  0
 18 58  1  0
 23 59  1  0
 24 60  1  0
 26 61  1  0
 27 62  1  0
 28 63  1  0
 29 64  1  0
 30 65  1  0
 34 66  1  0
 34 67  1  0
 34 68  1  0
 35 69  1  0
 35 70  1  0
 35 71  1  0
M  END
$$$$
