
     RDKit          3D

 62 65  0  0  0  0  0  0  0  0999 V2000
   -3.8012   -2.7194    2.3318 C   0  0  0  0  0  0  0  0  0  0  0  0
   -3.6856   -1.2476    2.6979 C   0  0  0  0  0  0  0  0  0  0  0  0
   -3.5446   -0.4220    1.5033 N   0  0  0  0  0  0  0  0  0  0  0  0
   -2.3719   -0.1013    0.7908 C   0  0  0  0  0  0  0  0  0  0  0  0
   -1.1239   -0.4327    1.1848 C   0  0  0  0  0  0  0  0  0  0  0  0
    0.1326   -0.1402    0.5290 C   0  0  0  0  0  0  0  0  0  0  0  0
    1.3155   -0.4569    1.0746 C   0  0  0  0  0  0  0  0  0  0  0  0
    2.6143   -0.2060    0.4048 C   0  0  0  0  0  0  0  0  0  0  0  0
    3.0070    0.8724   -0.2126 N   0  0  0  0  0  4  0  0  0  0  0  0
    2.3414    2.1829   -0.3817 C   0  0  0  0  0  0  0  0  0  0  0  0
    1.8059    2.3303   -1.7963 C   0  0  0  0  0  0  0  0  0  0  0  0
    4.3891    0.6815   -0.7002 C   0  0  0  0  0  0  0  0  0  0  0  0
    5.2024    1.5693   -1.3834 C   0  0  0  0  0  0  0  0  0  0  0  0
    6.4842    1.1356   -1.7345 C   0  0  0  0  0  0  0  0  0  0  0  0
    6.9208   -0.1557   -1.3982 C   0  0  0  0  0  0  0  0  0  0  0  0
    6.0865   -1.0349   -0.7050 C   0  0  0  0  0  0  0  0  0  0  0  0
    4.8174   -0.5966   -0.3601 C   0  0  0  0  0  0  0  0  0  0  0  0
    3.7197   -1.2986    0.3886 C   0  0  0  0  0  0  0  0  0  0  0  0
    4.1693   -1.6565    1.8085 C   0  0  0  0  0  0  0  0  0  0  0  0
    3.2347   -2.5386   -0.3686 C   0  0  0  0  0  0  0  0  0  0  0  0
   -2.7904    0.7036   -0.4887 C   0  0  0  0  0  0  0  0  0  0  0  0
   -2.2504    2.1422   -0.4805 C   0  0  0  0  0  0  0  0  0  0  0  0
   -2.4420   -0.0312   -1.7927 C   0  0  0  0  0  0  0  0  0  0  0  0
   -4.3074    0.7403   -0.3387 C   0  0  0  0  0  0  0  0  0  0  0  0
   -5.2542    1.3218   -1.1759 C   0  0  0  0  0  0  0  0  0  0  0  0
   -6.6002    1.2061   -0.8350 C   0  0  0  0  0  0  0  0  0  0  0  0
   -6.9795    0.5162    0.3236 C   0  0  0  0  0  0  0  0  0  0  0  0
   -6.0173   -0.0633    1.1592 C   0  0  0  0  0  0  0  0  0  0  0  0
   -4.6761    0.0532    0.8290 C   0  0  0  0  0  0  0  0  0  0  0  0
   -4.6705   -2.9053    1.6919 H   0  0  0  0  0  0  0  0  0  0  0  0
   -3.9097   -3.3267    3.2364 H   0  0  0  0  0  0  0  0  0  0  0  0
   -2.9089   -3.0637    1.7976 H   0  0  0  0  0  0  0  0  0  0  0  0
   -2.8250   -1.1057    3.3619 H   0  0  0  0  0  0  0  0  0  0  0  0
   -4.5493   -0.9419    3.2996 H   0  0  0  0  0  0  0  0  0  0  0  0
   -1.0287   -0.9889    2.1157 H   0  0  0  0  0  0  0  0  0  0  0  0
    0.0807    0.3314   -0.4417 H   0  0  0  0  0  0  0  0  0  0  0  0
    1.3605   -0.9928    2.0199 H   0  0  0  0  0  0  0  0  0  0  0  0
    3.0591    2.9743   -0.1406 H   0  0  0  0  0  0  0  0  0  0  0  0
    1.5290    2.2604    0.3469 H   0  0  0  0  0  0  0  0  0  0  0  0
    1.2582    3.2743   -1.8945 H   0  0  0  0  0  0  0  0  0  0  0  0
    2.6099    2.3365   -2.5401 H   0  0  0  0  0  0  0  0  0  0  0  0
    1.1230    1.5169   -2.0642 H   0  0  0  0  0  0  0  0  0  0  0  0
    4.8922    2.5723   -1.6547 H   0  0  0  0  0  0  0  0  0  0  0  0
    7.1569    1.8016   -2.2747 H   0  0  0  0  0  0  0  0  0  0  0  0
    7.9247   -0.4744   -1.6802 H   0  0  0  0  0  0  0  0  0  0  0  0
    6.4395   -2.0305   -0.4465 H   0  0  0  0  0  0  0  0  0  0  0  0
    5.0336   -2.3304    1.7969 H   0  0  0  0  0  0  0  0  0  0  0  0
    3.3717   -2.1579    2.3678 H   0  0  0  0  0  0  0  0  0  0  0  0
    4.4537   -0.7627    2.3771 H   0  0  0  0  0  0  0  0  0  0  0  0
    2.4054   -3.0257    0.1567 H   0  0  0  0  0  0  0  0  0  0  0  0
    2.8752   -2.2808   -1.3723 H   0  0  0  0  0  0  0  0  0  0  0  0
    4.0355   -3.2782   -0.4848 H   0  0  0  0  0  0  0  0  0  0  0  0
   -2.6646    2.7292   -1.3101 H   0  0  0  0  0  0  0  0  0  0  0  0
   -2.5136    2.6642    0.4499 H   0  0  0  0  0  0  0  0  0  0  0  0
   -1.1614    2.1763   -0.5797 H   0  0  0  0  0  0  0  0  0  0  0  0
   -2.8244   -1.0592   -1.7876 H   0  0  0  0  0  0  0  0  0  0  0  0
   -1.3645   -0.0822   -1.9680 H   0  0  0  0  0  0  0  0  0  0  0  0
   -2.8780    0.4725   -2.6636 H   0  0  0  0  0  0  0  0  0  0  0  0
   -4.9643    1.8519   -2.0774 H   0  0  0  0  0  0  0  0  0  0  0  0
   -7.3621    1.6507   -1.4713 H   0  0  0  0  0  0  0  0  0  0  0  0
   -8.0343    0.4310    0.5765 H   0  0  0  0  0  0  0  0  0  0  0  0
   -6.3454   -0.5905    2.0474 H   0  0  0  0  0  0  0  0  0  0  0  0
  1  2  1  0
  2  3  1  0
  3  4  1  0
  4  5  2  3
  5  6  1  0
  6  7  2  3
  7  8  1  0
  8  9  2  0
  9 10  1  0
 10 11  1  0
  9 12  1  0
 12 13  2  0
 13 14  1  0
 14 15  2  0
 15 16  1  0
 16 17  2  0
 17 18  1  0
 18 19  1  0
 18 20  1  0
  4 21  1  0
 21 22  1  0
 21 23  1  0
 21 24  1  0
 24 25  2  0
 25 26  1  0
 26 27  2  0
 27 28  1  0
 28 29  2  0
 29  3  1  0
 18  8  1  0
 29 24  1  0
 17 12  1  0
  1 30  1  0
  1 31  1  0
  1 32  1  0
  2 33  1  0
  2 34  1  0
  5 35  1  0
  6 36  1  0
  7 37  1  0
 10 38  1  0
 10 39  1  0
 11 40  1  0
 11 41  1  0
 11 42  1  0
 13 43  1  0
 14 44  1  0
 15 45  1  0
 16 46  1  0
 19 47  1  0
 19 48  1  0
 19 49  1  0
 20 50  1  0
 20 51  1  0
 20 52  1  0
 22 53  1  0
 22 54  1  0
 22 55  1  0
 23 56  1  0
 23 57  1  0
 23 58  1  0
 25 59  1  0
 26 60  1  0
 27 61  1  0
 28 62  1  0
M  CHG  1   9   1
M  END
$$$$
