
     RDKit          3D

 48 51  0  0  0  0  0  0  0  0999 V2000
   -0.4673    1.2463    2.8105 C   0  0  0  0  0  0  0  0  0  0  0  0
   -0.5920   -0.1774    2.2950 C   0  0  0  0  0  0  0  0  0  0  0  0
   -0.6500   -0.2441    0.8518 N   0  0  0  0  0  0  0  0  0  0  0  0
   -1.7805   -0.2404    0.0754 C   0  0  0  0  0  0  0  0  0  0  0  0
   -3.3850   -0.0626    0.6929 S   0  0  0  0  0  0  0  0  0  0  0  0
   -4.3412   -0.1492   -0.8525 C   0  0  0  0  0  0  0  0  0  0  0  0
   -5.8216   -0.0171   -0.5841 C   0  0  0  0  0  0  0  0  0  0  0  0
   -6.4311    1.2485   -0.5627 C   0  0  0  0  0  0  0  0  0  0  0  0
   -7.7963    1.3702   -0.2995 C   0  0  0  0  0  0  0  0  0  0  0  0
   -8.5514    0.2301   -0.0532 C   0  0  0  0  0  0  0  0  0  0  0  0
   -9.8613    0.3486    0.2006 F   0  0  0  0  0  0  0  0  0  0  0  0
   -7.9678   -1.0309   -0.0633 C   0  0  0  0  0  0  0  0  0  0  0  0
   -6.6028   -1.1559   -0.3261 C   0  0  0  0  0  0  0  0  0  0  0  0
   -1.4557   -0.3801   -1.1857 N   0  0  0  0  0  0  0  0  0  0  0  0
   -0.0912   -0.4700   -1.2521 N   0  0  0  0  0  0  0  0  0  0  0  0
    0.3997   -0.3765   -0.0316 C   0  0  0  0  0  0  0  0  0  0  0  0
    1.9367   -0.3772    0.2340 C   0  0  0  0  0  0  0  0  0  0  0  0
    2.6493   -0.1758    1.4188 C   0  0  0  0  0  0  0  0  0  0  0  0
    3.9651   -0.2320    1.2313 N   0  0  0  0  0  0  0  0  0  0  0  0
    4.1201   -0.3171   -0.1221 N   0  0  0  0  0  0  0  0  0  0  0  0
    5.4099   -0.0450   -0.6729 C   0  0  0  0  0  0  0  0  0  0  0  0
    5.5844    0.3619   -2.0014 C   0  0  0  0  0  0  0  0  0  0  0  0
    6.8657    0.6380   -2.4910 C   0  0  0  0  0  0  0  0  0  0  0  0
    7.9774    0.5268   -1.6591 C   0  0  0  0  0  0  0  0  0  0  0  0
    7.8125    0.1504   -0.3294 C   0  0  0  0  0  0  0  0  0  0  0  0
    6.5358   -0.1261    0.1652 C   0  0  0  0  0  0  0  0  0  0  0  0
    2.9111   -0.6156   -0.7229 C   0  0  0  0  0  0  0  0  0  0  0  0
    2.7935   -1.1466   -2.0896 C   0  0  0  0  0  0  0  0  0  0  0  0
    3.9188   -1.7888   -2.4989 F   0  0  0  0  0  0  0  0  0  0  0  0
    1.8072   -2.0708   -2.2042 F   0  0  0  0  0  0  0  0  0  0  0  0
    2.5467   -0.1708   -2.9967 F   0  0  0  0  0  0  0  0  0  0  0  0
   -0.3983    1.2487    3.9026 H   0  0  0  0  0  0  0  0  0  0  0  0
    0.4230    1.7420    2.4108 H   0  0  0  0  0  0  0  0  0  0  0  0
   -1.3359    1.8484    2.5242 H   0  0  0  0  0  0  0  0  0  0  0  0
    0.2424   -0.7968    2.6338 H   0  0  0  0  0  0  0  0  0  0  0  0
   -1.4895   -0.6507    2.7063 H   0  0  0  0  0  0  0  0  0  0  0  0
   -4.1440   -1.1021   -1.3575 H   0  0  0  0  0  0  0  0  0  0  0  0
   -4.0197    0.6483   -1.5326 H   0  0  0  0  0  0  0  0  0  0  0  0
   -5.8436    2.1452   -0.7495 H   0  0  0  0  0  0  0  0  0  0  0  0
   -8.2738    2.3445   -0.2830 H   0  0  0  0  0  0  0  0  0  0  0  0
   -8.5773   -1.9064    0.1352 H   0  0  0  0  0  0  0  0  0  0  0  0
   -6.1500   -2.1454   -0.3272 H   0  0  0  0  0  0  0  0  0  0  0  0
    2.2979    0.0083    2.4237 H   0  0  0  0  0  0  0  0  0  0  0  0
    4.7535    0.5155   -2.6814 H   0  0  0  0  0  0  0  0  0  0  0  0
    6.9935    0.9515   -3.5248 H   0  0  0  0  0  0  0  0  0  0  0  0
    8.9703    0.7437   -2.0447 H   0  0  0  0  0  0  0  0  0  0  0  0
    8.6761    0.0728    0.3262 H   0  0  0  0  0  0  0  0  0  0  0  0
    6.4370   -0.4180    1.2097 H   0  0  0  0  0  0  0  0  0  0  0  0
  1  2  1  0
  2  3  1  0
  3  4  1  0
  4  5  1  0
  5  6  1  0
  6  7  1  0
  7  8  2  0
  8  9  1  0
  9 10  2  0
 10 11  1  0
 10 12  1  0
 12 13  2  0
  4 14  2  0
 14 15  1  0
 15 16  2  0
 16 17  1  0
 17 18  1  0
 18 19  2  0
 19 20  1  0
 20 21  1  0
 21 22  2  0
 22 23  1  0
 23 24  2  0
 24 25  1  0
 25 26  2  0
 20 27  1  0
 27 28  1  0
 28 29  1  0
 28 30  1  0
 28 31  1  0
 16  3  1  0
 27 17  2  0
 13  7  1  0
 26 21  1  0
  1 32  1  0
  1 33  1  0
  1 34  1  0
  2 35  1  0
  2 36  1  0
  6 37  1  0
  6 38  1  0
  8 39  1  0
  9 40  1  0
 12 41  1  0
 13 42  1  0
 18 43  1  0
 22 44  1  0
 23 45  1  0
 24 46  1  0
 25 47  1  0
 26 48  1  0
M  END
$$$$
