
     RDKit          3D

 63 66  0  0  0  0  0  0  0  0999 V2000
   -6.5102    3.4371   -0.2484 C   0  0  0  0  0  0  0  0  0  0  0  0
   -5.3144    2.7253    0.3787 C   0  0  0  0  0  0  0  0  0  0  0  0
   -4.0899    2.7901   -0.5400 C   0  0  0  0  0  0  0  0  0  0  0  0
   -2.9194    2.0047    0.0544 C   0  0  0  0  0  0  0  0  0  0  0  0
   -3.2393    0.6016    0.3524 N   0  0  0  0  0  0  0  0  0  0  0  0
   -3.3198   -0.2211   -0.8613 C   0  0  0  0  0  0  0  0  0  0  0  0
   -2.8619   -1.6038   -0.5527 C   0  0  0  0  0  0  0  0  0  0  0  0
   -1.5723   -2.0543   -0.3012 C   0  0  0  0  0  0  0  0  0  0  0  0
   -0.3178   -1.3015   -0.3364 C   0  0  0  0  0  0  0  0  0  0  0  0
   -0.2316   -0.1842   -0.8374 O   0  0  0  0  0  0  0  0  0  0  0  0
    0.7373   -2.0254    0.2147 N   0  0  0  0  0  0  0  0  0  0  0  0
    2.0668   -1.6857    0.1908 N   0  0  0  0  0  0  0  0  0  0  0  0
    2.3832   -0.4304    0.2414 C   0  0  0  0  0  0  0  0  0  0  0  0
    3.7910    0.0148    0.1753 C   0  0  0  0  0  0  0  0  0  0  0  0
    4.0683    1.3812    0.2230 C   0  0  0  0  0  0  0  0  0  0  0  0
    5.3939    1.8182    0.1616 C   0  0  0  0  0  0  0  0  0  0  0  0
    6.4469    0.9032    0.0602 C   0  0  0  0  0  0  0  0  0  0  0  0
    7.6863    1.4753    0.0066 O   0  0  0  0  0  0  0  0  0  0  0  0
    8.8448    0.6407    0.1096 C   0  0  0  0  0  0  0  0  0  0  0  0
    9.9353    1.4844    0.7666 C   0  0  0  0  0  0  0  0  0  0  0  0
    9.2931    0.2015   -1.2811 C   0  0  0  0  0  0  0  0  0  0  0  0
    6.1609   -0.4612    0.0049 C   0  0  0  0  0  0  0  0  0  0  0  0
    4.8349   -0.9064    0.0630 C   0  0  0  0  0  0  0  0  0  0  0  0
   -1.6119   -3.3863    0.0108 N   0  0  0  0  0  0  0  0  0  0  0  0
   -2.8658   -3.7901   -0.0640 N   0  0  0  0  0  0  0  0  0  0  0  0
   -3.6597   -2.7385   -0.4327 N   0  0  0  0  0  0  0  0  0  0  0  0
   -5.0549   -2.9196   -0.6171 C   0  0  0  0  0  0  0  0  0  0  0  0
   -5.8490   -1.9123   -0.9781 N   0  0  0  0  0  0  0  0  0  0  0  0
   -7.1188   -2.4809   -1.0413 O   0  0  0  0  0  0  0  0  0  0  0  0
   -7.0826   -3.8317   -0.7183 N   0  0  0  0  0  0  0  0  0  0  0  0
   -5.8030   -4.1047   -0.4674 C   0  0  0  0  0  0  0  0  0  0  0  0
   -5.3408   -5.3227   -0.1301 N   0  0  0  0  0  0  0  0  0  0  0  0
   -4.4223    0.5069    1.2180 C   0  0  0  0  0  0  0  0  0  0  0  0
   -5.6497    1.2651    0.7011 C   0  0  0  0  0  0  0  0  0  0  0  0
   -7.3749    3.4050    0.4230 H   0  0  0  0  0  0  0  0  0  0  0  0
   -6.7999    2.9716   -1.1971 H   0  0  0  0  0  0  0  0  0  0  0  0
   -6.2762    4.4888   -0.4452 H   0  0  0  0  0  0  0  0  0  0  0  0
   -5.0702    3.2391    1.3176 H   0  0  0  0  0  0  0  0  0  0  0  0
   -3.7880    3.8344   -0.6817 H   0  0  0  0  0  0  0  0  0  0  0  0
   -4.3374    2.3956   -1.5333 H   0  0  0  0  0  0  0  0  0  0  0  0
   -2.0513    2.0707   -0.6127 H   0  0  0  0  0  0  0  0  0  0  0  0
   -2.6014    2.4908    0.9867 H   0  0  0  0  0  0  0  0  0  0  0  0
   -2.6335    0.1662   -1.6271 H   0  0  0  0  0  0  0  0  0  0  0  0
   -4.2973   -0.1635   -1.3404 H   0  0  0  0  0  0  0  0  0  0  0  0
    0.5618   -3.0123    0.3932 H   0  0  0  0  0  0  0  0  0  0  0  0
    1.6370    0.3715    0.3680 H   0  0  0  0  0  0  0  0  0  0  0  0
    3.2689    2.1126    0.3037 H   0  0  0  0  0  0  0  0  0  0  0  0
    5.6106    2.8837    0.1954 H   0  0  0  0  0  0  0  0  0  0  0  0
    8.6689   -0.2239    0.7598 H   0  0  0  0  0  0  0  0  0  0  0  0
   10.1434    2.3866    0.1808 H   0  0  0  0  0  0  0  0  0  0  0  0
   10.8637    0.9163    0.8794 H   0  0  0  0  0  0  0  0  0  0  0  0
    9.6103    1.8215    1.7569 H   0  0  0  0  0  0  0  0  0  0  0  0
    9.4782    1.0693   -1.9242 H   0  0  0  0  0  0  0  0  0  0  0  0
   10.2074   -0.3979   -1.2303 H   0  0  0  0  0  0  0  0  0  0  0  0
    8.5205   -0.3929   -1.7781 H   0  0  0  0  0  0  0  0  0  0  0  0
    6.9397   -1.2088   -0.0952 H   0  0  0  0  0  0  0  0  0  0  0  0
    4.6249   -1.9727    0.0165 H   0  0  0  0  0  0  0  0  0  0  0  0
   -5.9945   -6.0547    0.1253 H   0  0  0  0  0  0  0  0  0  0  0  0
   -4.3892   -5.4575    0.2090 H   0  0  0  0  0  0  0  0  0  0  0  0
   -4.1529    0.9125    2.2018 H   0  0  0  0  0  0  0  0  0  0  0  0
   -4.6841   -0.5398    1.4062 H   0  0  0  0  0  0  0  0  0  0  0  0
   -6.0510    0.7710   -0.1898 H   0  0  0  0  0  0  0  0  0  0  0  0
   -6.4410    1.2268    1.4595 H   0  0  0  0  0  0  0  0  0  0  0  0
  1  2  1  0
  2  3  1  0
  3  4  1  0
  4  5  1  0
  5  6  1  0
  6  7  1  0
  7  8  2  0
  8  9  1  0
  9 10  2  0
  9 11  1  0
 11 12  1  0
 12 13  2  3
 13 14  1  0
 14 15  2  0
 15 16  1  0
 16 17  2  0
 17 18  1  0
 18 19  1  0
 19 20  1  0
 19 21  1  0
 17 22  1  0
 22 23  2  0
  8 24  1  0
 24 25  2  0
 25 26  1  0
 26 27  1  0
 27 28  2  0
 28 29  1  0
 29 30  1  0
 30 31  2  0
 31 32  1  0
  5 33  1  0
 33 34  1  0
 34  2  1  0
 26  7  1  0
 31 27  1  0
 23 14  1  0
  1 35  1  0
  1 36  1  0
  1 37  1  0
  2 38  1  0
  3 39  1  0
  3 40  1  0
  4 41  1  0
  4 42  1  0
  6 43  1  0
  6 44  1  0
 11 45  1  0
 13 46  1  0
 15 47  1  0
 16 48  1  0
 19 49  1  0
 20 50  1  0
 20 51  1  0
 20 52  1  0
 21 53  1  0
 21 54  1  0
 21 55  1  0
 22 56  1  0
 23 57  1  0
 32 58  1  0
 32 59  1  0
 33 60  1  0
 33 61  1  0
 34 62  1  0
 34 63  1  0
M  END
$$$$
