
     RDKit          3D

 51 53  0  0  0  0  0  0  0  0999 V2000
    6.2495   -2.6455   -3.7306 C   0  0  0  0  0  0  0  0  0  0  0  0
    5.2959   -2.0132   -2.8870 O   0  0  0  0  0  0  0  0  0  0  0  0
    5.7807   -1.1765   -1.9182 C   0  0  0  0  0  0  0  0  0  0  0  0
    7.1257   -0.8918   -1.6847 C   0  0  0  0  0  0  0  0  0  0  0  0
    7.4843   -0.0157   -0.6594 C   0  0  0  0  0  0  0  0  0  0  0  0
    6.5004    0.5769    0.1333 C   0  0  0  0  0  0  0  0  0  0  0  0
    5.1479    0.2997   -0.0897 C   0  0  0  0  0  0  0  0  0  0  0  0
    4.2168    0.9346    0.7490 N   0  0  0  0  0  0  0  0  0  0  0  0
    2.8428    0.8238    0.7318 C   0  0  0  0  0  0  0  0  0  0  0  0
    2.1246    0.1590   -0.0020 O   0  0  0  0  0  0  0  0  0  0  0  0
    2.1832    1.6900    1.8195 C   0  0  0  0  0  0  0  0  0  0  0  0
    2.8923    2.3595    2.5601 O   0  0  0  0  0  0  0  0  0  0  0  0
    0.8074    1.5851    1.8044 N   0  0  0  0  0  0  0  0  0  0  0  0
    0.0489    2.2127    2.7441 N   0  0  0  0  0  0  0  0  0  0  0  0
   -1.2469    2.1384    2.6752 C   0  0  0  0  0  0  0  0  0  0  0  0
   -2.0315    1.5484    1.6015 C   0  0  0  0  0  0  0  0  0  0  0  0
   -1.8063    1.6077    0.2060 C   0  0  0  0  0  0  0  0  0  0  0  0
   -2.8216    0.9259   -0.4339 C   0  0  0  0  0  0  0  0  0  0  0  0
   -3.0267    0.8081   -1.9075 C   0  0  0  0  0  0  0  0  0  0  0  0
   -3.6970    0.4465    0.5351 N   0  0  0  0  0  0  0  0  0  0  0  0
   -4.8881   -0.2975    0.2887 C   0  0  0  0  0  0  0  0  0  0  0  0
   -6.0764    0.0379    0.9480 C   0  0  0  0  0  0  0  0  0  0  0  0
   -7.2430   -0.6904    0.6989 C   0  0  0  0  0  0  0  0  0  0  0  0
   -7.2300   -1.7563   -0.2052 C   0  0  0  0  0  0  0  0  0  0  0  0
   -8.7094   -2.6100   -0.4619 Cl  0  0  0  0  0  0  0  0  0  0  0  0
   -6.0428   -2.0938   -0.8639 C   0  0  0  0  0  0  0  0  0  0  0  0
   -5.9490   -3.4039   -1.9871 Cl  0  0  0  0  0  0  0  0  0  0  0  0
   -4.8737   -1.3645   -0.6185 C   0  0  0  0  0  0  0  0  0  0  0  0
   -3.2113    0.8342    1.7856 C   0  0  0  0  0  0  0  0  0  0  0  0
   -3.8336    0.4243    3.0835 C   0  0  0  0  0  0  0  0  0  0  0  0
    4.7981   -0.5784   -1.1177 C   0  0  0  0  0  0  0  0  0  0  0  0
    6.8186   -1.9077   -4.3057 H   0  0  0  0  0  0  0  0  0  0  0  0
    5.7030   -3.2719   -4.4421 H   0  0  0  0  0  0  0  0  0  0  0  0
    6.9144   -3.2982   -3.1551 H   0  0  0  0  0  0  0  0  0  0  0  0
    7.9173   -1.3333   -2.2805 H   0  0  0  0  0  0  0  0  0  0  0  0
    8.5330    0.2059   -0.4776 H   0  0  0  0  0  0  0  0  0  0  0  0
    6.8068    1.2559    0.9253 H   0  0  0  0  0  0  0  0  0  0  0  0
    4.5740    1.5601    1.4693 H   0  0  0  0  0  0  0  0  0  0  0  0
    0.3914    0.9151    1.1590 H   0  0  0  0  0  0  0  0  0  0  0  0
   -1.8194    2.5667    3.5153 H   0  0  0  0  0  0  0  0  0  0  0  0
   -1.0001    2.1292   -0.2978 H   0  0  0  0  0  0  0  0  0  0  0  0
   -2.6694   -0.1591   -2.2727 H   0  0  0  0  0  0  0  0  0  0  0  0
   -2.4614    1.5851   -2.4342 H   0  0  0  0  0  0  0  0  0  0  0  0
   -4.0778    0.9356   -2.1833 H   0  0  0  0  0  0  0  0  0  0  0  0
   -6.1282    0.8879    1.6239 H   0  0  0  0  0  0  0  0  0  0  0  0
   -8.1641   -0.4145    1.2078 H   0  0  0  0  0  0  0  0  0  0  0  0
   -3.9511   -1.6665   -1.1079 H   0  0  0  0  0  0  0  0  0  0  0  0
   -4.2589   -0.5825    3.0328 H   0  0  0  0  0  0  0  0  0  0  0  0
   -4.6131    1.1336    3.3767 H   0  0  0  0  0  0  0  0  0  0  0  0
   -3.0866    0.4047    3.8843 H   0  0  0  0  0  0  0  0  0  0  0  0
    3.7607   -0.8215   -1.3260 H   0  0  0  0  0  0  0  0  0  0  0  0
  1  2  1  0
  2  3  1  0
  3  4  2  0
  4  5  1  0
  5  6  2  0
  6  7  1  0
  7  8  1  0
  8  9  1  0
  9 10  2  0
  9 11  1  0
 11 12  2  0
 11 13  1  0
 13 14  1  0
 14 15  2  3
 15 16  1  0
 16 17  1  0
 17 18  2  0
 18 19  1  0
 18 20  1  0
 20 21  1  0
 21 22  2  0
 22 23  1  0
 23 24  2  0
 24 25  1  0
 24 26  1  0
 26 27  1  0
 26 28  2  0
 20 29  1  0
 29 30  1  0
  7 31  2  0
 31  3  1  0
 29 16  2  0
 28 21  1  0
  1 32  1  0
  1 33  1  0
  1 34  1  0
  4 35  1  0
  5 36  1  0
  6 37  1  0
  8 38  1  0
 13 39  1  0
 15 40  1  0
 17 41  1  0
 19 42  1  0
 19 43  1  0
 19 44  1  0
 22 45  1  0
 23 46  1  0
 28 47  1  0
 30 48  1  0
 30 49  1  0
 30 50  1  0
 31 51  1  0
M  END
$$$$
