
     RDKit          3D

 64 67  0  0  0  0  0  0  0  0999 V2000
    5.9295    4.3465   -2.3646 C   0  0  0  0  0  0  0  0  0  0  0  0
    5.3895    4.3615   -1.0488 O   0  0  0  0  0  0  0  0  0  0  0  0
    4.9128    3.1757   -0.5634 C   0  0  0  0  0  0  0  0  0  0  0  0
    4.5154    3.2070    0.7740 C   0  0  0  0  0  0  0  0  0  0  0  0
    3.9997    2.0647    1.3958 C   0  0  0  0  0  0  0  0  0  0  0  0
    3.8727    0.8733    0.6830 C   0  0  0  0  0  0  0  0  0  0  0  0
    3.3607   -0.3164    1.2302 N   0  0  0  0  0  0  0  0  0  0  0  0
    2.7547   -0.4935    2.4621 C   0  0  0  0  0  0  0  0  0  0  0  0
    2.4633    0.3871    3.2664 O   0  0  0  0  0  0  0  0  0  0  0  0
    2.4355   -1.9637    2.7518 C   0  0  0  0  0  0  0  0  0  0  0  0
    1.2483   -2.4374    2.0366 N   0  0  0  0  0  0  0  0  0  0  0  0
    0.0024   -2.4393    2.7917 C   0  0  0  0  0  0  0  0  0  0  0  0
    1.4028   -2.8048    0.7158 C   0  0  0  0  0  0  0  0  0  0  0  0
    2.4782   -2.6944    0.1225 O   0  0  0  0  0  0  0  0  0  0  0  0
    0.2730   -3.4393    0.0081 C   0  0  0  0  0  0  0  0  0  0  0  0
   -0.8421   -2.8581   -0.4572 C   0  0  0  0  0  0  0  0  0  0  0  0
   -1.2723   -1.4978   -0.3954 C   0  0  0  0  0  0  0  0  0  0  0  0
   -0.4911   -0.3771   -0.2329 C   0  0  0  0  0  0  0  0  0  0  0  0
   -1.3260    0.7175   -0.3223 N   0  0  0  0  0  0  0  0  0  0  0  0
   -0.9835    2.0978   -0.2568 C   0  0  0  0  0  0  0  0  0  0  0  0
   -1.9851    3.0664   -0.4279 C   0  0  0  0  0  0  0  0  0  0  0  0
   -1.6694    4.4263   -0.3855 C   0  0  0  0  0  0  0  0  0  0  0  0
   -0.3532    4.8292   -0.1756 C   0  0  0  0  0  0  0  0  0  0  0  0
    0.6471    3.8734   -0.0053 C   0  0  0  0  0  0  0  0  0  0  0  0
    0.3367    2.5109   -0.0411 C   0  0  0  0  0  0  0  0  0  0  0  0
   -2.6108    0.3404   -0.5263 N   0  0  0  0  0  0  0  0  0  0  0  0
   -2.5966   -0.9977   -0.5639 C   0  0  0  0  0  0  0  0  0  0  0  0
   -3.8422   -1.7343   -0.7754 C   0  0  0  0  0  0  0  0  0  0  0  0
   -4.6984   -1.3686   -1.8220 C   0  0  0  0  0  0  0  0  0  0  0  0
   -5.8888   -2.0662   -2.0416 C   0  0  0  0  0  0  0  0  0  0  0  0
   -6.2526   -3.1272   -1.2057 C   0  0  0  0  0  0  0  0  0  0  0  0
   -7.5196   -3.8885   -1.4581 C   0  0  0  0  0  0  0  0  0  0  0  0
   -5.3971   -3.4934   -0.1595 C   0  0  0  0  0  0  0  0  0  0  0  0
   -4.2036   -2.7979    0.0591 C   0  0  0  0  0  0  0  0  0  0  0  0
    4.2796    0.8411   -0.6550 C   0  0  0  0  0  0  0  0  0  0  0  0
    4.7918    1.9858   -1.2782 C   0  0  0  0  0  0  0  0  0  0  0  0
    6.3329    5.3433   -2.5737 H   0  0  0  0  0  0  0  0  0  0  0  0
    6.7543    3.6270   -2.4429 H   0  0  0  0  0  0  0  0  0  0  0  0
    5.1494    4.1389   -3.1062 H   0  0  0  0  0  0  0  0  0  0  0  0
    4.6063    4.1294    1.3424 H   0  0  0  0  0  0  0  0  0  0  0  0
    3.7112    2.1389    2.4395 H   0  0  0  0  0  0  0  0  0  0  0  0
    3.3566   -1.1369    0.6191 H   0  0  0  0  0  0  0  0  0  0  0  0
    2.2938   -2.0906    3.8320 H   0  0  0  0  0  0  0  0  0  0  0  0
    3.3033   -2.5749    2.4714 H   0  0  0  0  0  0  0  0  0  0  0  0
   -0.2492   -1.4078    3.0553 H   0  0  0  0  0  0  0  0  0  0  0  0
    0.1511   -3.0236    3.7051 H   0  0  0  0  0  0  0  0  0  0  0  0
   -0.8279   -2.8829    2.2431 H   0  0  0  0  0  0  0  0  0  0  0  0
    0.4419   -4.4957   -0.1833 H   0  0  0  0  0  0  0  0  0  0  0  0
   -1.5288   -3.5328   -0.9696 H   0  0  0  0  0  0  0  0  0  0  0  0
    0.5724   -0.2597   -0.1009 H   0  0  0  0  0  0  0  0  0  0  0  0
   -3.0208    2.7750   -0.5959 H   0  0  0  0  0  0  0  0  0  0  0  0
   -2.4513    5.1697   -0.5178 H   0  0  0  0  0  0  0  0  0  0  0  0
   -0.1053    5.8866   -0.1433 H   0  0  0  0  0  0  0  0  0  0  0  0
    1.6751    4.1907    0.1584 H   0  0  0  0  0  0  0  0  0  0  0  0
    1.1469    1.8057    0.1062 H   0  0  0  0  0  0  0  0  0  0  0  0
   -4.4387   -0.5343   -2.4707 H   0  0  0  0  0  0  0  0  0  0  0  0
   -6.5328   -1.7679   -2.8654 H   0  0  0  0  0  0  0  0  0  0  0  0
   -8.2885   -3.2368   -1.8858 H   0  0  0  0  0  0  0  0  0  0  0  0
   -7.3270   -4.7120   -2.1526 H   0  0  0  0  0  0  0  0  0  0  0  0
   -7.9236   -4.2973   -0.5261 H   0  0  0  0  0  0  0  0  0  0  0  0
   -5.6609   -4.3176    0.4999 H   0  0  0  0  0  0  0  0  0  0  0  0
   -3.5718   -3.0831    0.8964 H   0  0  0  0  0  0  0  0  0  0  0  0
    4.1931   -0.0737   -1.2370 H   0  0  0  0  0  0  0  0  0  0  0  0
    5.0772    1.9133   -2.3219 H   0  0  0  0  0  0  0  0  0  0  0  0
  1  2  1  0
  2  3  1  0
  3  4  2  0
  4  5  1  0
  5  6  2  0
  6  7  1  0
  7  8  1  0
  8  9  2  0
  8 10  1  0
 10 11  1  0
 11 12  1  0
 11 13  1  0
 13 14  2  0
 13 15  1  0
 15 16  2  3
 16 17  1  0
 17 18  2  0
 18 19  1  0
 19 20  1  0
 20 21  2  0
 21 22  1  0
 22 23  2  0
 23 24  1  0
 24 25  2  0
 19 26  1  0
 26 27  2  0
 27 28  1  0
 28 29  2  0
 29 30  1  0
 30 31  2  0
 31 32  1  0
 31 33  1  0
 33 34  2  0
  6 35  1  0
 35 36  2  0
 36  3  1  0
 27 17  1  0
 34 28  1  0
 25 20  1  0
  1 37  1  0
  1 38  1  0
  1 39  1  0
  4 40  1  0
  5 41  1  0
  7 42  1  0
 10 43  1  0
 10 44  1  0
 12 45  1  0
 12 46  1  0
 12 47  1  0
 15 48  1  0
 16 49  1  0
 18 50  1  0
 21 51  1  0
 22 52  1  0
 23 53  1  0
 24 54  1  0
 25 55  1  0
 29 56  1  0
 30 57  1  0
 32 58  1  0
 32 59  1  0
 32 60  1  0
 33 61  1  0
 34 62  1  0
 35 63  1  0
 36 64  1  0
M  END
$$$$
