
     RDKit          3D

 63 67  0  0  0  0  0  0  0  0999 V2000
    6.5555    0.1356   -4.5036 C   0  0  0  0  0  0  0  0  0  0  0  0
    5.6160   -1.0163   -4.1992 C   0  0  0  0  0  0  0  0  0  0  0  0
    4.8583   -0.7388   -3.0138 O   0  0  0  0  0  0  0  0  0  0  0  0
    5.4491   -1.0907   -1.8345 C   0  0  0  0  0  0  0  0  0  0  0  0
    6.5579   -1.6021   -1.7362 O   0  0  0  0  0  0  0  0  0  0  0  0
    4.6023   -0.7889   -0.6876 C   0  0  0  0  0  0  0  0  0  0  0  0
    3.3172   -0.1731   -0.6591 C   0  0  0  0  0  0  0  0  0  0  0  0
    2.8820   -0.1153    0.6545 C   0  0  0  0  0  0  0  0  0  0  0  0
    1.6613    0.3973    1.2687 C   0  0  0  0  0  0  0  0  0  0  0  0
    0.5458    0.8419    0.5725 N   0  0  0  0  0  0  0  0  0  0  0  0
   -0.2249    1.9960    1.0637 C   0  0  0  0  0  0  0  0  0  0  0  0
   -1.7409    1.7637    0.9008 C   0  0  0  0  0  0  0  0  0  0  0  0
   -2.0964    1.4339   -0.4924 N   0  0  0  0  0  0  0  0  0  0  0  0
   -3.5437    1.3198   -0.7182 C   0  0  0  0  0  0  0  0  0  0  0  0
   -4.3147    0.2827    0.1219 C   0  0  0  0  0  0  0  0  0  0  0  0
   -5.7702    0.1956   -0.2994 C   0  0  0  0  0  0  0  0  0  0  0  0
   -6.6702    1.1437    0.2206 C   0  0  0  0  0  0  0  0  0  0  0  0
   -8.0159    1.1288   -0.1423 C   0  0  0  0  0  0  0  0  0  0  0  0
   -8.4851    0.1679   -1.0309 C   0  0  0  0  0  0  0  0  0  0  0  0
   -7.6073   -0.7786   -1.5581 C   0  0  0  0  0  0  0  0  0  0  0  0
   -6.2424   -0.7791   -1.2095 C   0  0  0  0  0  0  0  0  0  0  0  0
   -5.3361   -1.8364   -1.8032 C   0  0  0  0  0  0  0  0  0  0  0  0
   -5.9295   -2.5768   -2.7834 F   0  0  0  0  0  0  0  0  0  0  0  0
   -4.9039   -2.7352   -0.8753 F   0  0  0  0  0  0  0  0  0  0  0  0
   -4.2119   -1.3169   -2.3722 F   0  0  0  0  0  0  0  0  0  0  0  0
   -1.3500    0.2340   -0.9157 C   0  0  0  0  0  0  0  0  0  0  0  0
    0.1811    0.4098   -0.7776 C   0  0  0  0  0  0  0  0  0  0  0  0
    1.6035    0.4439    2.5788 N   0  0  0  0  0  0  0  0  0  0  0  0
    2.6606   -0.0372    3.3722 C   0  0  0  0  0  0  0  0  0  0  0  0
    2.5305    0.0264    4.7611 C   0  0  0  0  0  0  0  0  0  0  0  0
    3.5444   -0.4515    5.5961 C   0  0  0  0  0  0  0  0  0  0  0  0
    4.7027   -1.0009    5.0458 C   0  0  0  0  0  0  0  0  0  0  0  0
    4.8537   -1.0737    3.6606 C   0  0  0  0  0  0  0  0  0  0  0  0
    3.8300   -0.5915    2.8384 C   0  0  0  0  0  0  0  0  0  0  0  0
    3.9058   -0.6091    1.4366 N   0  0  0  0  0  0  0  0  0  0  0  0
    4.9254   -1.0534    0.6320 C   0  0  0  0  0  0  0  0  0  0  0  0
    5.9985    1.0751   -4.5835 H   0  0  0  0  0  0  0  0  0  0  0  0
    7.0909   -0.0387   -5.4413 H   0  0  0  0  0  0  0  0  0  0  0  0
    7.2889    0.2674   -3.7021 H   0  0  0  0  0  0  0  0  0  0  0  0
    6.1571   -1.9660   -4.1148 H   0  0  0  0  0  0  0  0  0  0  0  0
    4.8974   -1.1293   -5.0177 H   0  0  0  0  0  0  0  0  0  0  0  0
    2.7817    0.1880   -1.5261 H   0  0  0  0  0  0  0  0  0  0  0  0
    0.0778    2.8858    0.4972 H   0  0  0  0  0  0  0  0  0  0  0  0
   -0.0208    2.2107    2.1184 H   0  0  0  0  0  0  0  0  0  0  0  0
   -2.0459    0.9590    1.5816 H   0  0  0  0  0  0  0  0  0  0  0  0
   -2.2641    2.6764    1.2096 H   0  0  0  0  0  0  0  0  0  0  0  0
   -3.9868    2.3104   -0.5501 H   0  0  0  0  0  0  0  0  0  0  0  0
   -3.7089    1.1233   -1.7856 H   0  0  0  0  0  0  0  0  0  0  0  0
   -4.2790    0.5526    1.1848 H   0  0  0  0  0  0  0  0  0  0  0  0
   -3.8498   -0.7055    0.0585 H   0  0  0  0  0  0  0  0  0  0  0  0
   -6.3226    1.9052    0.9175 H   0  0  0  0  0  0  0  0  0  0  0  0
   -8.6981    1.8678    0.2697 H   0  0  0  0  0  0  0  0  0  0  0  0
   -9.5350    0.1540   -1.3136 H   0  0  0  0  0  0  0  0  0  0  0  0
   -7.9974   -1.5246   -2.2510 H   0  0  0  0  0  0  0  0  0  0  0  0
   -1.5732    0.0094   -1.9657 H   0  0  0  0  0  0  0  0  0  0  0  0
   -1.6514   -0.6383   -0.3222 H   0  0  0  0  0  0  0  0  0  0  0  0
    0.6335   -0.5585   -1.0157 H   0  0  0  0  0  0  0  0  0  0  0  0
    0.5389    1.1469   -1.5061 H   0  0  0  0  0  0  0  0  0  0  0  0
    1.6273    0.4505    5.1919 H   0  0  0  0  0  0  0  0  0  0  0  0
    3.4279   -0.3956    6.6755 H   0  0  0  0  0  0  0  0  0  0  0  0
    5.4892   -1.3722    5.6986 H   0  0  0  0  0  0  0  0  0  0  0  0
    5.7653   -1.5021    3.2574 H   0  0  0  0  0  0  0  0  0  0  0  0
    5.8191   -1.5068    1.0387 H   0  0  0  0  0  0  0  0  0  0  0  0
  1  2  1  0
  2  3  1  0
  3  4  1  0
  4  5  2  0
  4  6  1  0
  6  7  1  0
  7  8  2  0
  8  9  1  0
  9 10  1  0
 10 11  1  0
 11 12  1  0
 12 13  1  0
 13 14  1  0
 14 15  1  0
 15 16  1  0
 16 17  2  0
 17 18  1  0
 18 19  2  0
 19 20  1  0
 20 21  2  0
 21 22  1  0
 22 23  1  0
 22 24  1  0
 22 25  1  0
 13 26  1  0
 26 27  1  0
  9 28  2  0
 28 29  1  0
 29 30  2  0
 30 31  1  0
 31 32  2  0
 32 33  1  0
 33 34  2  0
 34 35  1  0
 35 36  1  0
 36  6  2  0
 35  8  1  0
 27 10  1  0
 34 29  1  0
 21 16  1  0
  1 37  1  0
  1 38  1  0
  1 39  1  0
  2 40  1  0
  2 41  1  0
  7 42  1  0
 11 43  1  0
 11 44  1  0
 12 45  1  0
 12 46  1  0
 14 47  1  0
 14 48  1  0
 15 49  1  0
 15 50  1  0
 17 51  1  0
 18 52  1  0
 19 53  1  0
 20 54  1  0
 26 55  1  0
 26 56  1  0
 27 57  1  0
 27 58  1  0
 30 59  1  0
 31 60  1  0
 32 61  1  0
 33 62  1  0
 36 63  1  0
M  END
$$$$
