
     RDKit          3D

 71 72  0  0  0  0  0  0  0  0999 V2000
   -4.3741   -5.2342   -1.4431 C   0  0  0  0  0  0  0  0  0  0  0  0
   -3.4880   -4.1221   -1.3961 O   0  0  0  0  0  0  0  0  0  0  0  0
   -3.4278   -3.4171   -0.2219 C   0  0  0  0  0  0  0  0  0  0  0  0
   -3.9411   -3.8782    0.9926 C   0  0  0  0  0  0  0  0  0  0  0  0
   -3.8588   -3.0870    2.1374 C   0  0  0  0  0  0  0  0  0  0  0  0
   -3.2715   -1.8234    2.0819 C   0  0  0  0  0  0  0  0  0  0  0  0
   -2.7474   -1.3219    0.8796 C   0  0  0  0  0  0  0  0  0  0  0  0
   -2.0741    0.0511    0.7843 C   0  0  0  0  0  0  0  0  0  0  0  0
   -2.6154    1.1844    1.7132 C   0  0  0  0  0  0  0  0  0  0  0  0
   -3.5962    1.0752    2.4444 O   0  0  0  0  0  0  0  0  0  0  0  0
   -1.9358    2.3872    1.5566 N   0  0  0  0  0  0  0  0  0  0  0  0
   -2.3070    3.6627    2.1833 C   0  0  0  0  0  0  0  0  0  0  0  0
   -1.2444    4.7061    1.7881 C   0  0  0  0  0  0  0  0  0  0  0  0
   -2.3165    3.5474    3.7165 C   0  0  0  0  0  0  0  0  0  0  0  0
   -3.6781    4.1382    1.6774 C   0  0  0  0  0  0  0  0  0  0  0  0
   -0.5789   -0.0368    0.8627 N   0  0  0  0  0  0  0  0  0  0  0  0
    0.1254    0.6596   -0.1084 C   0  0  0  0  0  0  0  0  0  0  0  0
   -0.4418    1.4911   -0.8254 O   0  0  0  0  0  0  0  0  0  0  0  0
    1.6155    0.4499   -0.2603 C   0  0  0  0  0  0  0  0  0  0  0  0
    2.0594    0.7693   -1.6879 C   0  0  0  0  0  0  0  0  0  0  0  0
    3.5448    0.5463   -1.8789 C   0  0  0  0  0  0  0  0  0  0  0  0
    4.3069    0.3631   -0.9356 O   0  0  0  0  0  0  0  0  0  0  0  0
    3.9014    0.5965   -3.2068 N   0  0  0  0  0  0  0  0  0  0  0  0
    5.1852    0.4794   -3.6902 C   0  0  0  0  0  0  0  0  0  0  0  0
    6.4061    0.3747   -2.9855 C   0  0  0  0  0  0  0  0  0  0  0  0
    7.3631    0.2940   -3.9672 C   0  0  0  0  0  0  0  0  0  0  0  0
    8.8305    0.1704   -3.9670 C   0  0  0  0  0  0  0  0  0  0  0  0
    6.7586    0.3453   -5.1839 O   0  0  0  0  0  0  0  0  0  0  0  0
    5.3924    0.4782   -5.0116 N   0  0  0  0  0  0  0  0  0  0  0  0
   -0.0118   -0.6826    2.0739 C   0  0  0  0  0  0  0  0  0  0  0  0
    0.5247   -2.0925    1.8222 C   0  0  0  0  0  0  0  0  0  0  0  0
    0.9976    0.1799    2.8356 C   0  0  0  0  0  0  0  0  0  0  0  0
   -2.8024   -2.1536   -0.2630 C   0  0  0  0  0  0  0  0  0  0  0  0
   -2.2820   -1.6321   -1.4277 O   0  0  0  0  0  0  0  0  0  0  0  0
   -1.2866   -2.4624   -2.0227 C   0  0  0  0  0  0  0  0  0  0  0  0
   -4.0108   -6.0527   -0.8128 H   0  0  0  0  0  0  0  0  0  0  0  0
   -4.3942   -5.5976   -2.4735 H   0  0  0  0  0  0  0  0  0  0  0  0
   -5.3938   -4.9455   -1.1672 H   0  0  0  0  0  0  0  0  0  0  0  0
   -4.4121   -4.8508    1.0841 H   0  0  0  0  0  0  0  0  0  0  0  0
   -4.2634   -3.4508    3.0785 H   0  0  0  0  0  0  0  0  0  0  0  0
   -3.2360   -1.2366    2.9971 H   0  0  0  0  0  0  0  0  0  0  0  0
   -2.3529    0.4323   -0.2081 H   0  0  0  0  0  0  0  0  0  0  0  0
   -1.3763    2.4426    0.7048 H   0  0  0  0  0  0  0  0  0  0  0  0
   -1.4620    5.6871    2.2234 H   0  0  0  0  0  0  0  0  0  0  0  0
   -0.2475    4.3979    2.1260 H   0  0  0  0  0  0  0  0  0  0  0  0
   -1.1974    4.8266    0.6997 H   0  0  0  0  0  0  0  0  0  0  0  0
   -3.1047    2.8789    4.0776 H   0  0  0  0  0  0  0  0  0  0  0  0
   -2.4853    4.5254    4.1825 H   0  0  0  0  0  0  0  0  0  0  0  0
   -1.3607    3.1584    4.0880 H   0  0  0  0  0  0  0  0  0  0  0  0
   -3.6994    4.1871    0.5830 H   0  0  0  0  0  0  0  0  0  0  0  0
   -3.9217    5.1342    2.0635 H   0  0  0  0  0  0  0  0  0  0  0  0
   -4.4823    3.4620    1.9860 H   0  0  0  0  0  0  0  0  0  0  0  0
    1.8870   -0.5808   -0.0353 H   0  0  0  0  0  0  0  0  0  0  0  0
    2.1291    1.1211    0.4359 H   0  0  0  0  0  0  0  0  0  0  0  0
    1.5097    0.1358   -2.3954 H   0  0  0  0  0  0  0  0  0  0  0  0
    1.8451    1.8168   -1.9344 H   0  0  0  0  0  0  0  0  0  0  0  0
    3.1988    0.6958   -3.9286 H   0  0  0  0  0  0  0  0  0  0  0  0
    6.5705    0.3721   -1.9163 H   0  0  0  0  0  0  0  0  0  0  0  0
    9.2805    0.8926   -4.6549 H   0  0  0  0  0  0  0  0  0  0  0  0
    9.1293   -0.8355   -4.2783 H   0  0  0  0  0  0  0  0  0  0  0  0
    9.2388    0.3545   -2.9682 H   0  0  0  0  0  0  0  0  0  0  0  0
   -0.8453   -0.7912    2.7769 H   0  0  0  0  0  0  0  0  0  0  0  0
    0.7135   -2.5998    2.7753 H   0  0  0  0  0  0  0  0  0  0  0  0
    1.4665   -2.0955    1.2709 H   0  0  0  0  0  0  0  0  0  0  0  0
   -0.1896   -2.7005    1.2596 H   0  0  0  0  0  0  0  0  0  0  0  0
    0.6572    1.2182    2.9103 H   0  0  0  0  0  0  0  0  0  0  0  0
    1.1259   -0.2062    3.8532 H   0  0  0  0  0  0  0  0  0  0  0  0
    1.9878    0.1699    2.3735 H   0  0  0  0  0  0  0  0  0  0  0  0
   -0.7915   -3.1245   -1.3038 H   0  0  0  0  0  0  0  0  0  0  0  0
   -1.7238   -3.0402   -2.8408 H   0  0  0  0  0  0  0  0  0  0  0  0
   -0.5208   -1.8078   -2.4508 H   0  0  0  0  0  0  0  0  0  0  0  0
  1  2  1  0
  2  3  1  0
  3  4  2  0
  4  5  1  0
  5  6  2  0
  6  7  1  0
  7  8  1  0
  8  9  1  0
  9 10  2  0
  9 11  1  0
 11 12  1  0
 12 13  1  0
 12 14  1  0
 12 15  1  0
  8 16  1  0
 16 17  1  0
 17 18  2  0
 17 19  1  0
 19 20  1  0
 20 21  1  0
 21 22  2  0
 21 23  1  0
 23 24  1  0
 24 25  1  0
 25 26  2  0
 26 27  1  0
 26 28  1  0
 28 29  1  0
 16 30  1  0
 30 31  1  0
 30 32  1  0
  7 33  2  0
 33 34  1  0
 34 35  1  0
 33  3  1  0
 29 24  2  0
  1 36  1  0
  1 37  1  0
  1 38  1  0
  4 39  1  0
  5 40  1  0
  6 41  1  0
  8 42  1  0
 11 43  1  0
 13 44  1  0
 13 45  1  0
 13 46  1  0
 14 47  1  0
 14 48  1  0
 14 49  1  0
 15 50  1  0
 15 51  1  0
 15 52  1  0
 19 53  1  0
 19 54  1  0
 20 55  1  0
 20 56  1  0
 23 57  1  0
 25 58  1  0
 27 59  1  0
 27 60  1  0
 27 61  1  0
 30 62  1  0
 31 63  1  0
 31 64  1  0
 31 65  1  0
 32 66  1  0
 32 67  1  0
 32 68  1  0
 35 69  1  0
 35 70  1  0
 35 71  1  0
M  END
$$$$
