
     RDKit          3D

 41 43  0  0  0  0  0  0  0  0999 V2000
   -1.8535   -0.2784   -2.6954 O   0  0  0  0  0  0  0  0  0  0  0  0
   -1.6149   -0.2410   -1.4942 C   0  0  0  0  0  0  0  0  0  0  0  0
   -2.5390   -0.1842   -0.4698 N   0  0  0  0  0  0  0  0  0  0  0  0
   -3.9522   -0.2322   -0.5480 C   0  0  0  0  0  0  0  0  0  0  0  0
   -4.6147   -0.4579   -1.7637 C   0  0  0  0  0  0  0  0  0  0  0  0
   -6.0109   -0.5070   -1.8313 C   0  0  0  0  0  0  0  0  0  0  0  0
   -6.7580   -0.3326   -0.6772 C   0  0  0  0  0  0  0  0  0  0  0  0
   -8.1192   -0.3724   -0.6978 O   0  0  0  0  0  0  0  0  0  0  0  0
   -6.1334   -0.1126    0.5422 C   0  0  0  0  0  0  0  0  0  0  0  0
   -4.7305   -0.0623    0.6220 C   0  0  0  0  0  0  0  0  0  0  0  0
   -4.1804    0.1793    1.9860 C   0  0  0  0  0  0  0  0  0  0  0  0
   -4.8361    0.3637    2.9958 O   0  0  0  0  0  0  0  0  0  0  0  0
   -2.8332    0.1800    2.0560 O   0  0  0  0  0  0  0  0  0  0  0  0
   -0.1878   -0.2089   -1.0592 C   0  0  0  0  0  0  0  0  0  0  0  0
    0.7529    0.3966   -1.8980 C   0  0  0  0  0  0  0  0  0  0  0  0
    2.1000    0.4471   -1.5251 C   0  0  0  0  0  0  0  0  0  0  0  0
    2.5282   -0.1129   -0.3150 C   0  0  0  0  0  0  0  0  0  0  0  0
    3.8984   -0.0161   -0.0145 N   0  0  0  0  0  0  0  0  0  0  0  0
    4.5678   -0.4647    1.1109 C   0  0  0  0  0  0  0  0  0  0  0  0
    4.0509   -1.0333    2.0670 O   0  0  0  0  0  0  0  0  0  0  0  0
    5.9926   -0.1860    1.0580 C   0  0  0  0  0  0  0  0  0  0  0  0
    7.0081   -0.4606    1.9546 C   0  0  0  0  0  0  0  0  0  0  0  0
    8.2031    0.0394    1.3846 C   0  0  0  0  0  0  0  0  0  0  0  0
    7.8494    0.5895    0.1756 C   0  0  0  0  0  0  0  0  0  0  0  0
    6.5139    0.4607   -0.0355 O   0  0  0  0  0  0  0  0  0  0  0  0
    1.5889   -0.7344    0.5105 C   0  0  0  0  0  0  0  0  0  0  0  0
    0.2384   -0.7884    0.1407 C   0  0  0  0  0  0  0  0  0  0  0  0
   -2.1837   -0.0180    0.4710 H   0  0  0  0  0  0  0  0  0  0  0  0
   -4.0677   -0.6072   -2.6900 H   0  0  0  0  0  0  0  0  0  0  0  0
   -6.4853   -0.6831   -2.7922 H   0  0  0  0  0  0  0  0  0  0  0  0
   -8.4162   -0.5276   -1.6100 H   0  0  0  0  0  0  0  0  0  0  0  0
   -6.7454    0.0194    1.4325 H   0  0  0  0  0  0  0  0  0  0  0  0
   -2.6730    0.3546    3.0113 H   0  0  0  0  0  0  0  0  0  0  0  0
    0.4395    0.8336   -2.8445 H   0  0  0  0  0  0  0  0  0  0  0  0
    2.8057    0.9294   -2.1973 H   0  0  0  0  0  0  0  0  0  0  0  0
    4.4913    0.4431   -0.6985 H   0  0  0  0  0  0  0  0  0  0  0  0
    6.8856   -0.9640    2.9046 H   0  0  0  0  0  0  0  0  0  0  0  0
    9.1994    0.0031    1.8030 H   0  0  0  0  0  0  0  0  0  0  0  0
    8.4027    1.0853   -0.6104 H   0  0  0  0  0  0  0  0  0  0  0  0
    1.8741   -1.2013    1.4485 H   0  0  0  0  0  0  0  0  0  0  0  0
   -0.4559   -1.3121    0.7927 H   0  0  0  0  0  0  0  0  0  0  0  0
  1  2  2  0
  2  3  1  0
  3  4  1  0
  4  5  2  0
  5  6  1  0
  6  7  2  0
  7  8  1  0
  7  9  1  0
  9 10  2  0
 10 11  1  0
 11 12  2  0
 11 13  1  0
  2 14  1  0
 14 15  2  0
 15 16  1  0
 16 17  2  0
 17 18  1  0
 18 19  1  0
 19 20  2  0
 19 21  1  0
 21 22  2  0
 22 23  1  0
 23 24  2  0
 24 25  1  0
 17 26  1  0
 26 27  2  0
 10  4  1  0
 27 14  1  0
 25 21  1  0
  3 28  1  0
  5 29  1  0
  6 30  1  0
  8 31  1  0
  9 32  1  0
 13 33  1  0
 15 34  1  0
 16 35  1  0
 18 36  1  0
 22 37  1  0
 23 38  1  0
 24 39  1  0
 26 40  1  0
 27 41  1  0
M  END
$$$$
