
     RDKit          3D

 58 62  0  0  0  0  0  0  0  0999 V2000
    7.9594    2.0008    3.4462 C   0  0  0  0  0  0  0  0  0  0  0  0
    7.4403    2.2573    2.1503 O   0  0  0  0  0  0  0  0  0  0  0  0
    6.1360    1.9086    1.9056 C   0  0  0  0  0  0  0  0  0  0  0  0
    5.3019    1.2724    2.8280 C   0  0  0  0  0  0  0  0  0  0  0  0
    3.9866    0.9492    2.4819 C   0  0  0  0  0  0  0  0  0  0  0  0
    3.4774    1.2595    1.2143 C   0  0  0  0  0  0  0  0  0  0  0  0
    2.0961    0.9119    0.8882 C   0  0  0  0  0  0  0  0  0  0  0  0
    1.2284    0.1983    1.5815 N   0  0  0  0  0  0  0  0  0  0  0  0
    0.0845    0.1993    0.8086 C   0  0  0  0  0  0  0  0  0  0  0  0
   -1.1308   -0.5276    1.2601 C   0  0  0  0  0  0  0  0  0  0  0  0
   -1.4712   -1.6086    0.3486 N   0  0  0  0  0  0  0  0  0  0  0  0
   -2.5877   -1.7247   -0.4426 C   0  0  0  0  0  0  0  0  0  0  0  0
   -3.8505   -0.5420   -0.5024 S   0  0  0  0  0  0  0  0  0  0  0  0
   -5.0350   -1.3828   -1.5962 C   0  0  0  0  0  0  0  0  0  0  0  0
   -6.3021   -0.5786   -1.7477 C   0  0  0  0  0  0  0  0  0  0  0  0
   -7.3781   -0.7674   -0.8642 C   0  0  0  0  0  0  0  0  0  0  0  0
   -8.5489   -0.0132   -0.9933 C   0  0  0  0  0  0  0  0  0  0  0  0
   -8.6529    0.9407   -2.0032 C   0  0  0  0  0  0  0  0  0  0  0  0
   -7.5859    1.1350   -2.8726 C   0  0  0  0  0  0  0  0  0  0  0  0
   -7.6844    2.0557   -3.8402 F   0  0  0  0  0  0  0  0  0  0  0  0
   -6.4169    0.3898   -2.7552 C   0  0  0  0  0  0  0  0  0  0  0  0
   -2.5845   -2.8365   -1.1397 N   0  0  0  0  0  0  0  0  0  0  0  0
   -1.4369   -3.4919   -0.7733 C   0  0  0  0  0  0  0  0  0  0  0  0
   -0.9482   -4.7255   -1.2024 C   0  0  0  0  0  0  0  0  0  0  0  0
    0.2485   -5.1277   -0.6329 C   0  0  0  0  0  0  0  0  0  0  0  0
    0.9478   -4.4157    0.2820 N   0  0  0  0  0  0  0  0  0  0  0  0
    0.4765   -3.2137    0.6934 C   0  0  0  0  0  0  0  0  0  0  0  0
   -0.7224   -2.7548    0.1639 C   0  0  0  0  0  0  0  0  0  0  0  0
    0.3069    0.9447   -0.3316 C   0  0  0  0  0  0  0  0  0  0  0  0
   -0.4972    1.3225   -1.5074 C   0  0  0  0  0  0  0  0  0  0  0  0
    1.5952    1.3961   -0.2923 O   0  0  0  0  0  0  0  0  0  0  0  0
    4.3190    1.8996    0.2913 C   0  0  0  0  0  0  0  0  0  0  0  0
    5.6414    2.2205    0.6234 C   0  0  0  0  0  0  0  0  0  0  0  0
    6.5202    2.8491   -0.2246 O   0  0  0  0  0  0  0  0  0  0  0  0
    6.1225    3.0215   -1.5766 C   0  0  0  0  0  0  0  0  0  0  0  0
    7.4060    2.5553    4.2110 H   0  0  0  0  0  0  0  0  0  0  0  0
    8.9954    2.3514    3.4653 H   0  0  0  0  0  0  0  0  0  0  0  0
    7.9697    0.9280    3.6645 H   0  0  0  0  0  0  0  0  0  0  0  0
    5.6418    1.0125    3.8255 H   0  0  0  0  0  0  0  0  0  0  0  0
    3.3541    0.4520    3.2156 H   0  0  0  0  0  0  0  0  0  0  0  0
   -0.9711   -0.9826    2.2449 H   0  0  0  0  0  0  0  0  0  0  0  0
   -1.9690    0.1655    1.3589 H   0  0  0  0  0  0  0  0  0  0  0  0
   -5.2777   -2.3712   -1.1911 H   0  0  0  0  0  0  0  0  0  0  0  0
   -4.5802   -1.5406   -2.5811 H   0  0  0  0  0  0  0  0  0  0  0  0
   -7.3090   -1.5053   -0.0668 H   0  0  0  0  0  0  0  0  0  0  0  0
   -9.3766   -0.1692   -0.3051 H   0  0  0  0  0  0  0  0  0  0  0  0
   -9.5549    1.5335   -2.1176 H   0  0  0  0  0  0  0  0  0  0  0  0
   -5.6046    0.5753   -3.4516 H   0  0  0  0  0  0  0  0  0  0  0  0
   -1.4744   -5.3276   -1.9305 H   0  0  0  0  0  0  0  0  0  0  0  0
    0.6973   -6.0786   -0.9104 H   0  0  0  0  0  0  0  0  0  0  0  0
    1.0722   -2.6715    1.4189 H   0  0  0  0  0  0  0  0  0  0  0  0
   -0.6074    0.4727   -2.1866 H   0  0  0  0  0  0  0  0  0  0  0  0
   -1.4930    1.6555   -1.2006 H   0  0  0  0  0  0  0  0  0  0  0  0
   -0.0294    2.1419   -2.0614 H   0  0  0  0  0  0  0  0  0  0  0  0
    3.9226    2.1416   -0.6886 H   0  0  0  0  0  0  0  0  0  0  0  0
    5.2767    3.7138   -1.6528 H   0  0  0  0  0  0  0  0  0  0  0  0
    5.8926    2.0592   -2.0474 H   0  0  0  0  0  0  0  0  0  0  0  0
    6.9639    3.4669   -2.1197 H   0  0  0  0  0  0  0  0  0  0  0  0
  1  2  1  0
  2  3  1  0
  3  4  2  0
  4  5  1  0
  5  6  2  0
  6  7  1  0
  7  8  2  0
  8  9  1  0
  9 10  1  0
 10 11  1  0
 11 12  1  0
 12 13  1  0
 13 14  1  0
 14 15  1  0
 15 16  2  0
 16 17  1  0
 17 18  2  0
 18 19  1  0
 19 20  1  0
 19 21  2  0
 12 22  2  0
 22 23  1  0
 23 24  2  0
 24 25  1  0
 25 26  2  0
 26 27  1  0
 27 28  2  0
  9 29  2  0
 29 30  1  0
 29 31  1  0
  6 32  1  0
 32 33  2  0
 33 34  1  0
 34 35  1  0
 33  3  1  0
 31  7  1  0
 28 11  1  0
 21 15  1  0
 28 23  1  0
  1 36  1  0
  1 37  1  0
  1 38  1  0
  4 39  1  0
  5 40  1  0
 10 41  1  0
 10 42  1  0
 14 43  1  0
 14 44  1  0
 16 45  1  0
 17 46  1  0
 18 47  1  0
 21 48  1  0
 24 49  1  0
 25 50  1  0
 27 51  1  0
 30 52  1  0
 30 53  1  0
 30 54  1  0
 32 55  1  0
 35 56  1  0
 35 57  1  0
 35 58  1  0
M  END
$$$$
