
     RDKit          3D

 45 47  0  0  0  0  0  0  0  0999 V2000
   -3.4989   -0.4485   -0.8844 O   0  0  0  0  0  0  0  0  0  0  0  0
   -3.3127    0.2717    0.0956 C   0  0  0  0  0  0  0  0  0  0  0  0
   -4.4524    0.9516    0.8451 C   0  0  0  0  0  0  0  0  0  0  0  0
   -5.8283    0.6639    0.2884 C   0  0  0  0  0  0  0  0  0  0  0  0
   -6.3772    1.4838   -0.7087 C   0  0  0  0  0  0  0  0  0  0  0  0
   -7.6436    1.2107   -1.2308 C   0  0  0  0  0  0  0  0  0  0  0  0
   -8.3639    0.1140   -0.7632 C   0  0  0  0  0  0  0  0  0  0  0  0
   -9.9244   -0.2212   -1.4063 Cl  0  0  0  0  0  0  0  0  0  0  0  0
   -7.8280   -0.7142    0.2202 C   0  0  0  0  0  0  0  0  0  0  0  0
   -6.5617   -0.4421    0.7431 C   0  0  0  0  0  0  0  0  0  0  0  0
   -1.9467    0.5011    0.5810 C   0  0  0  0  0  0  0  0  0  0  0  0
   -1.5514    1.2797    1.6525 C   0  0  0  0  0  0  0  0  0  0  0  0
   -0.1861    1.2153    1.7523 N   0  0  0  0  0  0  0  0  0  0  0  0
    0.3326    0.4056    0.7649 C   0  0  0  0  0  0  0  0  0  0  0  0
    1.7574    0.1774    0.6592 C   0  0  0  0  0  0  0  0  0  0  0  0
    2.5575    0.7117    1.4208 O   0  0  0  0  0  0  0  0  0  0  0  0
    2.1475   -0.6694   -0.3520 N   0  0  0  0  0  0  0  0  0  0  0  0
    3.5358   -1.0162   -0.5736 C   0  0  0  0  0  0  0  0  0  0  0  0
    4.2934    0.1070   -1.2801 C   0  0  0  0  0  0  0  0  0  0  0  0
    5.6931   -0.3115   -1.7245 C   0  0  0  0  0  0  0  0  0  0  0  0
    6.5744   -0.6775   -0.6373 N   0  0  0  0  0  0  0  0  0  0  0  0
    6.9986   -1.9395   -0.3296 C   0  0  0  0  0  0  0  0  0  0  0  0
    7.8393   -1.7761    0.7469 C   0  0  0  0  0  0  0  0  0  0  0  0
    7.9391   -0.4528    1.0895 N   0  0  0  0  0  0  0  0  0  0  0  0
    7.1668    0.1854    0.2392 C   0  0  0  0  0  0  0  0  0  0  0  0
   -0.7487   -0.0466    0.0275 C   0  0  0  0  0  0  0  0  0  0  0  0
   -4.2831    2.0355    0.8307 H   0  0  0  0  0  0  0  0  0  0  0  0
   -4.4206    0.6330    1.8944 H   0  0  0  0  0  0  0  0  0  0  0  0
   -5.8205    2.3364   -1.0916 H   0  0  0  0  0  0  0  0  0  0  0  0
   -8.0579    1.8519   -2.0040 H   0  0  0  0  0  0  0  0  0  0  0  0
   -8.3861   -1.5746    0.5790 H   0  0  0  0  0  0  0  0  0  0  0  0
   -6.1500   -1.1041    1.5020 H   0  0  0  0  0  0  0  0  0  0  0  0
   -2.1138    1.8772    2.3582 H   0  0  0  0  0  0  0  0  0  0  0  0
    0.3878    1.6842    2.4447 H   0  0  0  0  0  0  0  0  0  0  0  0
    1.4430   -1.0813   -0.9464 H   0  0  0  0  0  0  0  0  0  0  0  0
    3.5418   -1.9272   -1.1813 H   0  0  0  0  0  0  0  0  0  0  0  0
    3.9934   -1.2460    0.3947 H   0  0  0  0  0  0  0  0  0  0  0  0
    4.3544    0.9844   -0.6247 H   0  0  0  0  0  0  0  0  0  0  0  0
    3.7288    0.4233   -2.1664 H   0  0  0  0  0  0  0  0  0  0  0  0
    5.6384   -1.1608   -2.4157 H   0  0  0  0  0  0  0  0  0  0  0  0
    6.1768    0.5128   -2.2619 H   0  0  0  0  0  0  0  0  0  0  0  0
    6.6863   -2.8181   -0.8758 H   0  0  0  0  0  0  0  0  0  0  0  0
    8.3807   -2.5393    1.2908 H   0  0  0  0  0  0  0  0  0  0  0  0
    7.0039    1.2554    0.2175 H   0  0  0  0  0  0  0  0  0  0  0  0
   -0.7148   -0.7062   -0.8308 H   0  0  0  0  0  0  0  0  0  0  0  0
  1  2  2  0
  2  3  1  0
  3  4  1  0
  4  5  2  0
  5  6  1  0
  6  7  2  0
  7  8  1  0
  7  9  1  0
  9 10  2  0
  2 11  1  0
 11 12  2  0
 12 13  1  0
 13 14  1  0
 14 15  1  0
 15 16  2  0
 15 17  1  0
 17 18  1  0
 18 19  1  0
 19 20  1  0
 20 21  1  0
 21 22  1  0
 22 23  2  0
 23 24  1  0
 24 25  2  0
 14 26  2  0
 10  4  1  0
 26 11  1  0
 25 21  1  0
  3 27  1  0
  3 28  1  0
  5 29  1  0
  6 30  1  0
  9 31  1  0
 10 32  1  0
 12 33  1  0
 13 34  1  0
 17 35  1  0
 18 36  1  0
 18 37  1  0
 19 38  1  0
 19 39  1  0
 20 40  1  0
 20 41  1  0
 22 42  1  0
 23 43  1  0
 25 44  1  0
 26 45  1  0
M  END
$$$$
