
     RDKit          3D

 60 65  0  0  0  0  0  0  0  0999 V2000
   -3.8035   -3.3402   -1.7347 O   0  0  0  0  0  0  0  0  0  0  0  0
   -3.7126   -2.2069   -1.2769 C   0  0  0  0  0  0  0  0  0  0  0  0
   -2.5254   -1.4857   -1.3370 N   0  0  0  0  0  0  0  0  0  0  0  0
   -2.3598   -0.2058   -0.8224 C   0  0  0  0  0  0  0  0  0  0  0  0
   -0.9832    0.4285   -0.9781 C   0  0  0  0  0  0  0  0  0  0  0  0
    0.0952   -0.3740   -0.2464 C   0  0  0  0  0  0  0  0  0  0  0  0
    1.4721   -0.0269   -0.7936 C   0  0  0  0  0  0  0  0  0  0  0  0
    1.5861   -0.4671   -2.2103 N   0  0  0  0  0  0  0  0  0  0  0  0
    2.9930    0.0762   -3.0308 S   0  0  0  0  0  6  0  0  0  0  0  0
    3.0421   -0.5822   -4.3185 O   0  0  0  0  0  0  0  0  0  0  0  0
    3.0139    1.5197   -2.9226 O   0  0  0  0  0  0  0  0  0  0  0  0
    4.3081   -0.5917   -2.0470 C   0  0  0  0  0  0  0  0  0  0  0  0
    4.5270   -1.9741   -2.0562 C   0  0  0  0  0  0  0  0  0  0  0  0
    5.5640   -2.5100   -1.2922 C   0  0  0  0  0  0  0  0  0  0  0  0
    6.3763   -1.6654   -0.5356 C   0  0  0  0  0  0  0  0  0  0  0  0
    6.1394   -0.2848   -0.5192 C   0  0  0  0  0  0  0  0  0  0  0  0
    5.1159    0.2607   -1.2898 C   0  0  0  0  0  0  0  0  0  0  0  0
    6.8809    0.5954    0.2262 O   0  0  0  0  0  0  0  0  0  0  0  0
    7.6751   -0.0829    1.2069 C   0  0  0  0  0  0  0  0  0  0  0  0
    8.3590   -1.2971    0.6012 C   0  0  0  0  0  0  0  0  0  0  0  0
    7.3884   -2.2601    0.1733 O   0  0  0  0  0  0  0  0  0  0  0  0
    0.3392   -0.3499   -3.0183 C   0  0  0  0  0  0  0  0  0  0  0  0
   -0.6299    0.6794   -2.4506 C   0  0  0  0  0  0  0  0  0  0  0  0
   -3.3068    0.4712   -0.2318 N   0  0  0  0  0  0  0  0  0  0  0  0
   -4.4784   -0.2085   -0.1625 C   0  0  0  0  0  0  0  0  0  0  0  0
   -4.7610   -1.4690   -0.6293 C   0  0  0  0  0  0  0  0  0  0  0  0
   -6.0560   -1.7957   -0.3759 N   0  0  0  0  0  0  0  0  0  0  0  0
   -6.6109   -0.7573    0.2494 N   0  0  0  0  0  0  0  0  0  0  0  0
   -5.6584    0.1965    0.3956 N   0  0  0  0  0  0  0  0  0  0  0  0
   -5.9651    1.4713    1.0117 C   0  0  0  0  0  0  0  0  0  0  0  0
   -5.6803    1.4557    2.4886 C   0  0  0  0  0  0  0  0  0  0  0  0
   -4.3807    1.6514    2.9808 C   0  0  0  0  0  0  0  0  0  0  0  0
   -4.1320    1.6170    4.3553 C   0  0  0  0  0  0  0  0  0  0  0  0
   -5.1755    1.3851    5.2515 C   0  0  0  0  0  0  0  0  0  0  0  0
   -6.4690    1.1878    4.7732 C   0  0  0  0  0  0  0  0  0  0  0  0
   -6.7106    1.2233    3.4029 C   0  0  0  0  0  0  0  0  0  0  0  0
   -7.9640    1.0433    2.9649 F   0  0  0  0  0  0  0  0  0  0  0  0
   -1.7636   -1.9895   -1.7641 H   0  0  0  0  0  0  0  0  0  0  0  0
   -1.0466    1.4160   -0.4978 H   0  0  0  0  0  0  0  0  0  0  0  0
    0.0509   -0.1469    0.8258 H   0  0  0  0  0  0  0  0  0  0  0  0
   -0.0714   -1.4542   -0.3360 H   0  0  0  0  0  0  0  0  0  0  0  0
    2.2226   -0.5534   -0.1952 H   0  0  0  0  0  0  0  0  0  0  0  0
    1.6518    1.0503   -0.7025 H   0  0  0  0  0  0  0  0  0  0  0  0
    3.9010   -2.6296   -2.6586 H   0  0  0  0  0  0  0  0  0  0  0  0
    5.7504   -3.5807   -1.2984 H   0  0  0  0  0  0  0  0  0  0  0  0
    4.9534    1.3356   -1.2882 H   0  0  0  0  0  0  0  0  0  0  0  0
    7.0255   -0.3648    2.0448 H   0  0  0  0  0  0  0  0  0  0  0  0
    8.4214    0.6267    1.5774 H   0  0  0  0  0  0  0  0  0  0  0  0
    8.9808   -1.0215   -0.2596 H   0  0  0  0  0  0  0  0  0  0  0  0
    9.0001   -1.7804    1.3449 H   0  0  0  0  0  0  0  0  0  0  0  0
   -0.1239   -1.3417   -3.0523 H   0  0  0  0  0  0  0  0  0  0  0  0
    0.5591   -0.0868   -4.0583 H   0  0  0  0  0  0  0  0  0  0  0  0
   -0.1612    1.6696   -2.5305 H   0  0  0  0  0  0  0  0  0  0  0  0
   -1.5329    0.7179   -3.0715 H   0  0  0  0  0  0  0  0  0  0  0  0
   -5.3674    2.2436    0.5134 H   0  0  0  0  0  0  0  0  0  0  0  0
   -7.0159    1.7038    0.8037 H   0  0  0  0  0  0  0  0  0  0  0  0
   -3.5527    1.8277    2.2961 H   0  0  0  0  0  0  0  0  0  0  0  0
   -3.1216    1.7684    4.7277 H   0  0  0  0  0  0  0  0  0  0  0  0
   -4.9805    1.3568    6.3205 H   0  0  0  0  0  0  0  0  0  0  0  0
   -7.2920    1.0052    5.4571 H   0  0  0  0  0  0  0  0  0  0  0  0
  1  2  2  0
  2  3  1  0
  3  4  1  0
  4  5  1  0
  5  6  1  0
  6  7  1  0
  7  8  1  0
  8  9  1  0
  9 10  2  0
  9 11  2  0
  9 12  1  0
 12 13  2  0
 13 14  1  0
 14 15  2  0
 15 16  1  0
 16 17  2  0
 16 18  1  0
 18 19  1  0
 19 20  1  0
 20 21  1  0
  8 22  1  0
 22 23  1  0
  4 24  2  0
 24 25  1  0
 25 26  2  0
 26 27  1  0
 27 28  2  0
 28 29  1  0
 29 30  1  0
 30 31  1  0
 31 32  2  0
 32 33  1  0
 33 34  2  0
 34 35  1  0
 35 36  2  0
 36 37  1  0
 26  2  1  0
 36 31  1  0
 23  5  1  0
 29 25  1  0
 17 12  1  0
 21 15  1  0
  3 38  1  0
  5 39  1  0
  6 40  1  0
  6 41  1  0
  7 42  1  0
  7 43  1  0
 13 44  1  0
 14 45  1  0
 17 46  1  0
 19 47  1  0
 19 48  1  0
 20 49  1  0
 20 50  1  0
 22 51  1  0
 22 52  1  0
 23 53  1  0
 23 54  1  0
 30 55  1  0
 30 56  1  0
 32 57  1  0
 33 58  1  0
 34 59  1  0
 35 60  1  0
M  END
$$$$
