
     RDKit          3D

 61 65  0  0  0  0  0  0  0  0999 V2000
   -8.9062    2.7490    0.6476 C   0  0  0  0  0  0  0  0  0  0  0  0
   -8.3001    1.4673    0.5257 O   0  0  0  0  0  0  0  0  0  0  0  0
   -6.9295    1.4042    0.5819 C   0  0  0  0  0  0  0  0  0  0  0  0
   -6.0883    2.5193    0.6654 C   0  0  0  0  0  0  0  0  0  0  0  0
   -4.7014    2.3525    0.7394 C   0  0  0  0  0  0  0  0  0  0  0  0
   -4.1282    1.0737    0.7203 C   0  0  0  0  0  0  0  0  0  0  0  0
   -2.6792    0.9350    0.8391 C   0  0  0  0  0  0  0  0  0  0  0  0
   -1.7784    1.8480    1.1535 N   0  0  0  0  0  0  0  0  0  0  0  0
   -0.5830    1.1565    1.1819 C   0  0  0  0  0  0  0  0  0  0  0  0
    0.6756    1.8493    1.5619 C   0  0  0  0  0  0  0  0  0  0  0  0
    1.6136    1.9036    0.4556 N   0  0  0  0  0  0  0  0  0  0  0  0
    2.8216    1.2591    0.3430 C   0  0  0  0  0  0  0  0  0  0  0  0
    3.4395    0.1779    1.5483 S   0  0  0  0  0  0  0  0  0  0  0  0
    5.2205    0.1772    1.1640 C   0  0  0  0  0  0  0  0  0  0  0  0
    5.6542   -1.0485    0.3909 C   0  0  0  0  0  0  0  0  0  0  0  0
    6.1026   -2.1928    1.0656 C   0  0  0  0  0  0  0  0  0  0  0  0
    6.5375   -3.3123    0.3560 C   0  0  0  0  0  0  0  0  0  0  0  0
    6.5289   -3.3144   -1.0454 C   0  0  0  0  0  0  0  0  0  0  0  0
    6.9750   -4.5201   -1.8089 C   0  0  0  0  0  0  0  0  0  0  0  0
    6.0507   -2.1869   -1.7264 C   0  0  0  0  0  0  0  0  0  0  0  0
    5.6207   -1.0639   -1.0127 C   0  0  0  0  0  0  0  0  0  0  0  0
    3.4408    1.5738   -0.7697 N   0  0  0  0  0  0  0  0  0  0  0  0
    2.6121    2.4550   -1.4144 C   0  0  0  0  0  0  0  0  0  0  0  0
    2.7839    3.0963   -2.6419 C   0  0  0  0  0  0  0  0  0  0  0  0
    1.7607    3.9505   -3.0204 C   0  0  0  0  0  0  0  0  0  0  0  0
    0.6443    4.1929   -2.2903 N   0  0  0  0  0  0  0  0  0  0  0  0
    0.4734    3.5624   -1.1030 C   0  0  0  0  0  0  0  0  0  0  0  0
    1.4632    2.6922   -0.6667 C   0  0  0  0  0  0  0  0  0  0  0  0
   -0.8136   -0.1657    0.8512 C   0  0  0  0  0  0  0  0  0  0  0  0
    0.0202   -1.3718    0.7170 C   0  0  0  0  0  0  0  0  0  0  0  0
   -2.1544   -0.3143    0.6315 O   0  0  0  0  0  0  0  0  0  0  0  0
   -4.9759   -0.0422    0.6184 C   0  0  0  0  0  0  0  0  0  0  0  0
   -6.3686    0.1119    0.5514 C   0  0  0  0  0  0  0  0  0  0  0  0
   -7.2641   -0.9287    0.4680 O   0  0  0  0  0  0  0  0  0  0  0  0
   -6.7418   -2.2478    0.4120 C   0  0  0  0  0  0  0  0  0  0  0  0
   -8.6345    3.2354    1.5923 H   0  0  0  0  0  0  0  0  0  0  0  0
   -8.6518    3.3864   -0.2097 H   0  0  0  0  0  0  0  0  0  0  0  0
   -9.9939    2.6048    0.6516 H   0  0  0  0  0  0  0  0  0  0  0  0
   -6.4773    3.5323    0.6797 H   0  0  0  0  0  0  0  0  0  0  0  0
   -4.0639    3.2347    0.8128 H   0  0  0  0  0  0  0  0  0  0  0  0
    1.1344    1.3600    2.4242 H   0  0  0  0  0  0  0  0  0  0  0  0
    0.4742    2.8846    1.8577 H   0  0  0  0  0  0  0  0  0  0  0  0
    5.7568    0.2003    2.1239 H   0  0  0  0  0  0  0  0  0  0  0  0
    5.5325    1.0948    0.6461 H   0  0  0  0  0  0  0  0  0  0  0  0
    6.1237   -2.2161    2.1569 H   0  0  0  0  0  0  0  0  0  0  0  0
    6.8835   -4.1845    0.9041 H   0  0  0  0  0  0  0  0  0  0  0  0
    7.6364   -5.1470   -1.1992 H   0  0  0  0  0  0  0  0  0  0  0  0
    6.1115   -5.1141   -2.1154 H   0  0  0  0  0  0  0  0  0  0  0  0
    7.5351   -4.2229   -2.6994 H   0  0  0  0  0  0  0  0  0  0  0  0
    6.0106   -2.1742   -2.8186 H   0  0  0  0  0  0  0  0  0  0  0  0
    5.2620   -0.1949   -1.5618 H   0  0  0  0  0  0  0  0  0  0  0  0
    3.6636    2.9357   -3.2563 H   0  0  0  0  0  0  0  0  0  0  0  0
    1.8143    4.4864   -3.9663 H   0  0  0  0  0  0  0  0  0  0  0  0
   -0.4348    3.7762   -0.5579 H   0  0  0  0  0  0  0  0  0  0  0  0
   -0.5958   -2.2638    0.5701 H   0  0  0  0  0  0  0  0  0  0  0  0
    0.6940   -1.2816   -0.1397 H   0  0  0  0  0  0  0  0  0  0  0  0
    0.6187   -1.5257    1.6209 H   0  0  0  0  0  0  0  0  0  0  0  0
   -4.5275   -1.0323    0.6053 H   0  0  0  0  0  0  0  0  0  0  0  0
   -7.5863   -2.9388    0.3423 H   0  0  0  0  0  0  0  0  0  0  0  0
   -6.1213   -2.3882   -0.4785 H   0  0  0  0  0  0  0  0  0  0  0  0
   -6.1904   -2.4917    1.3254 H   0  0  0  0  0  0  0  0  0  0  0  0
  1  2  1  0
  2  3  1  0
  3  4  2  0
  4  5  1  0
  5  6  2  0
  6  7  1  0
  7  8  2  0
  8  9  1  0
  9 10  1  0
 10 11  1  0
 11 12  1  0
 12 13  1  0
 13 14  1  0
 14 15  1  0
 15 16  2  0
 16 17  1  0
 17 18  2  0
 18 19  1  0
 18 20  1  0
 20 21  2  0
 12 22  2  0
 22 23  1  0
 23 24  2  0
 24 25  1  0
 25 26  2  0
 26 27  1  0
 27 28  2  0
  9 29  2  0
 29 30  1  0
 29 31  1  0
  6 32  1  0
 32 33  2  0
 33 34  1  0
 34 35  1  0
 33  3  1  0
 31  7  1  0
 28 11  1  0
 21 15  1  0
 28 23  1  0
  1 36  1  0
  1 37  1  0
  1 38  1  0
  4 39  1  0
  5 40  1  0
 10 41  1  0
 10 42  1  0
 14 43  1  0
 14 44  1  0
 16 45  1  0
 17 46  1  0
 19 47  1  0
 19 48  1  0
 19 49  1  0
 20 50  1  0
 21 51  1  0
 24 52  1  0
 25 53  1  0
 27 54  1  0
 30 55  1  0
 30 56  1  0
 30 57  1  0
 32 58  1  0
 35 59  1  0
 35 60  1  0
 35 61  1  0
M  END
$$$$
