
     RDKit          3D

 67 72  0  0  0  0  0  0  0  0999 V2000
    2.2908   -2.8118    1.7819 O   0  0  0  0  0  0  0  0  0  0  0  0
    2.1315   -1.6199    1.5066 C   0  0  0  0  0  0  0  0  0  0  0  0
    3.2935   -0.6109    1.5909 C   0  0  0  0  0  0  0  0  0  0  0  0
    4.4004   -1.1430    2.5195 C   0  0  0  0  0  0  0  0  0  0  0  0
    5.6536   -0.2945    2.4895 C   0  0  0  0  0  0  0  0  0  0  0  0
    5.9026    0.6428    3.5012 C   0  0  0  0  0  0  0  0  0  0  0  0
    7.0446    1.4436    3.4574 C   0  0  0  0  0  0  0  0  0  0  0  0
    7.9475    1.3150    2.4038 C   0  0  0  0  0  0  0  0  0  0  0  0
    7.7106    0.3843    1.3940 C   0  0  0  0  0  0  0  0  0  0  0  0
    6.5693   -0.4180    1.4355 C   0  0  0  0  0  0  0  0  0  0  0  0
    2.8112    0.6849    2.0657 N   0  0  0  0  0  0  0  0  0  0  0  0
    1.7552    1.1703    1.2890 C   0  0  0  0  0  0  0  0  0  0  0  0
    1.7685    2.4999    1.1161 N   0  0  0  0  0  0  0  0  0  0  0  0
    0.7358    3.0090    0.4496 C   0  0  0  0  0  0  0  0  0  0  0  0
   -0.3009    2.3181   -0.0304 N   0  0  0  0  0  0  0  0  0  0  0  0
   -0.3085    0.9787    0.1710 C   0  0  0  0  0  0  0  0  0  0  0  0
   -1.4658    0.3013   -0.2713 N   0  0  0  0  0  0  0  0  0  0  0  0
   -1.8244    0.6604   -1.6717 C   0  0  0  0  0  0  0  0  0  0  0  0
   -3.0117    1.6437   -1.7816 C   0  0  0  0  0  0  0  0  0  0  0  0
   -4.2083    1.1037   -1.1077 N   0  0  0  0  0  0  0  0  0  0  0  0
   -5.4833    1.5631   -1.3971 C   0  0  0  0  0  0  0  0  0  0  0  0
   -6.6275    0.8553   -0.9918 C   0  0  0  0  0  0  0  0  0  0  0  0
   -7.9220    1.3055   -1.2783 C   0  0  0  0  0  0  0  0  0  0  0  0
   -8.1073    2.4839   -1.9899 C   0  0  0  0  0  0  0  0  0  0  0  0
   -6.9982    3.2035   -2.4150 C   0  0  0  0  0  0  0  0  0  0  0  0
   -5.7076    2.7440   -2.1234 C   0  0  0  0  0  0  0  0  0  0  0  0
   -3.9582    0.2691    0.0838 C   0  0  0  0  0  0  0  0  0  0  0  0
   -2.5709    0.5675    0.6959 C   0  0  0  0  0  0  0  0  0  0  0  0
    0.7526    0.3134    0.8081 C   0  0  0  0  0  0  0  0  0  0  0  0
    0.9229   -1.1122    0.9946 N   0  0  0  0  0  0  0  0  0  0  0  0
   -0.0829   -2.1023    0.6375 C   0  0  0  0  0  0  0  0  0  0  0  0
    0.1694   -2.7949   -0.6919 C   0  0  0  0  0  0  0  0  0  0  0  0
    0.5898   -2.0966   -1.8341 C   0  0  0  0  0  0  0  0  0  0  0  0
    0.7904   -2.7613   -3.0474 C   0  0  0  0  0  0  0  0  0  0  0  0
    0.5651   -4.1327   -3.1302 C   0  0  0  0  0  0  0  0  0  0  0  0
    0.8388   -5.0321   -4.7703 Br  0  0  0  0  0  0  0  0  0  0  0  0
    0.1383   -4.8446   -2.0131 C   0  0  0  0  0  0  0  0  0  0  0  0
   -0.0619   -4.1771   -0.8019 C   0  0  0  0  0  0  0  0  0  0  0  0
    3.6953   -0.5053    0.5729 H   0  0  0  0  0  0  0  0  0  0  0  0
    4.0271   -1.2144    3.5502 H   0  0  0  0  0  0  0  0  0  0  0  0
    4.6812   -2.1665    2.2381 H   0  0  0  0  0  0  0  0  0  0  0  0
    5.2047    0.7573    4.3285 H   0  0  0  0  0  0  0  0  0  0  0  0
    7.2295    2.1680    4.2464 H   0  0  0  0  0  0  0  0  0  0  0  0
    8.8369    1.9390    2.3705 H   0  0  0  0  0  0  0  0  0  0  0  0
    8.4163    0.2821    0.5736 H   0  0  0  0  0  0  0  0  0  0  0  0
    6.4021   -1.1430    0.6416 H   0  0  0  0  0  0  0  0  0  0  0  0
    3.5148    1.4186    2.1271 H   0  0  0  0  0  0  0  0  0  0  0  0
    0.7312    4.0816    0.2896 H   0  0  0  0  0  0  0  0  0  0  0  0
   -0.9624    1.0458   -2.2324 H   0  0  0  0  0  0  0  0  0  0  0  0
   -2.1087   -0.2755   -2.1705 H   0  0  0  0  0  0  0  0  0  0  0  0
   -2.7480    2.6126   -1.3417 H   0  0  0  0  0  0  0  0  0  0  0  0
   -3.2108    1.7953   -2.8493 H   0  0  0  0  0  0  0  0  0  0  0  0
   -6.5306   -0.0870   -0.4595 H   0  0  0  0  0  0  0  0  0  0  0  0
   -8.7803    0.7266   -0.9491 H   0  0  0  0  0  0  0  0  0  0  0  0
   -9.1093    2.8366   -2.2154 H   0  0  0  0  0  0  0  0  0  0  0  0
   -7.1292    4.1266   -2.9735 H   0  0  0  0  0  0  0  0  0  0  0  0
   -4.8746    3.3519   -2.4632 H   0  0  0  0  0  0  0  0  0  0  0  0
   -4.0205   -0.7876   -0.2024 H   0  0  0  0  0  0  0  0  0  0  0  0
   -4.7048    0.4571    0.8648 H   0  0  0  0  0  0  0  0  0  0  0  0
   -2.4310   -0.0597    1.5846 H   0  0  0  0  0  0  0  0  0  0  0  0
   -2.5670    1.6139    1.0331 H   0  0  0  0  0  0  0  0  0  0  0  0
   -0.0642   -2.8684    1.4257 H   0  0  0  0  0  0  0  0  0  0  0  0
   -1.1003   -1.7238    0.6847 H   0  0  0  0  0  0  0  0  0  0  0  0
    0.7682   -1.0259   -1.7945 H   0  0  0  0  0  0  0  0  0  0  0  0
    1.1209   -2.2003   -3.9173 H   0  0  0  0  0  0  0  0  0  0  0  0
   -0.0387   -5.9156   -2.0708 H   0  0  0  0  0  0  0  0  0  0  0  0
   -0.3908   -4.7493    0.0638 H   0  0  0  0  0  0  0  0  0  0  0  0
  1  2  2  0
  2  3  1  0
  3  4  1  0
  4  5  1  0
  5  6  2  0
  6  7  1  0
  7  8  2  0
  8  9  1  0
  9 10  2  0
  3 11  1  0
 11 12  1  0
 12 13  2  0
 13 14  1  0
 14 15  2  0
 15 16  1  0
 16 17  1  0
 17 18  1  0
 18 19  1  0
 19 20  1  0
 20 21  1  0
 21 22  2  0
 22 23  1  0
 23 24  2  0
 24 25  1  0
 25 26  2  0
 20 27  1  0
 27 28  1  0
 16 29  2  0
 29 30  1  0
 30 31  1  0
 31 32  1  0
 32 33  2  0
 33 34  1  0
 34 35  2  0
 35 36  1  0
 35 37  1  0
 37 38  2  0
 30  2  1  0
 38 32  1  0
 10  5  1  0
 29 12  1  0
 28 17  1  0
 26 21  1  0
  3 39  1  0
  4 40  1  0
  4 41  1  0
  6 42  1  0
  7 43  1  0
  8 44  1  0
  9 45  1  0
 10 46  1  0
 11 47  1  0
 14 48  1  0
 18 49  1  0
 18 50  1  0
 19 51  1  0
 19 52  1  0
 22 53  1  0
 23 54  1  0
 24 55  1  0
 25 56  1  0
 26 57  1  0
 27 58  1  0
 27 59  1  0
 28 60  1  0
 28 61  1  0
 31 62  1  0
 31 63  1  0
 33 64  1  0
 34 65  1  0
 37 66  1  0
 38 67  1  0
M  END
$$$$
