
     RDKit          3D

 36 37  0  0  0  0  0  0  0  0999 V2000
   -1.7580    2.0454    1.5264 O   0  0  0  0  0  0  0  0  0  0  0  0
   -1.0396    1.9313    0.5375 C   0  0  0  0  0  0  0  0  0  0  0  0
    0.1072    2.9016    0.2448 C   0  0  0  0  0  0  0  0  0  0  0  0
    1.3708    2.4442    0.7319 O   0  0  0  0  0  0  0  0  0  0  0  0
    1.9603    1.4769   -0.0084 C   0  0  0  0  0  0  0  0  0  0  0  0
    1.4963    0.9793   -1.0233 O   0  0  0  0  0  0  0  0  0  0  0  0
    3.2695    1.0852    0.5761 C   0  0  0  0  0  0  0  0  0  0  0  0
    4.0535    0.1596   -0.1251 C   0  0  0  0  0  0  0  0  0  0  0  0
    5.2893   -0.2326    0.3874 C   0  0  0  0  0  0  0  0  0  0  0  0
    6.2511   -1.3632   -0.4820 Cl  0  0  0  0  0  0  0  0  0  0  0  0
    5.7547    0.2835    1.5936 C   0  0  0  0  0  0  0  0  0  0  0  0
    4.9711    1.2004    2.2897 C   0  0  0  0  0  0  0  0  0  0  0  0
    5.5391    1.8444    3.7811 Cl  0  0  0  0  0  0  0  0  0  0  0  0
    3.7326    1.6055    1.7917 C   0  0  0  0  0  0  0  0  0  0  0  0
   -1.1880    0.9312   -0.4033 N   0  0  0  0  0  0  0  0  0  0  0  0
   -2.1041   -0.1701   -0.1677 C   0  0  0  0  0  0  0  0  0  0  0  0
   -2.4418   -0.9307   -1.4518 C   0  0  0  0  0  0  0  0  0  0  0  0
   -3.2885   -2.0814   -1.1989 N   0  0  0  0  0  0  0  0  0  0  0  0
   -4.6578   -2.0171   -1.1317 C   0  0  0  0  0  0  0  0  0  0  0  0
   -5.2732   -0.8269   -1.3728 O   0  0  0  0  0  0  0  0  0  0  0  0
   -5.2542   -3.1730   -0.8183 C   0  0  0  0  0  0  0  0  0  0  0  0
   -4.0864   -4.4355   -0.5693 S   0  0  0  0  0  0  0  0  0  0  0  0
   -2.7459   -3.3183   -0.8911 C   0  0  0  0  0  0  0  0  0  0  0  0
   -1.5690   -3.6323   -0.8272 O   0  0  0  0  0  0  0  0  0  0  0  0
    0.1564    3.1240   -0.8283 H   0  0  0  0  0  0  0  0  0  0  0  0
   -0.1179    3.8482    0.7477 H   0  0  0  0  0  0  0  0  0  0  0  0
    3.7024   -0.2541   -1.0690 H   0  0  0  0  0  0  0  0  0  0  0  0
    6.7187   -0.0265    1.9881 H   0  0  0  0  0  0  0  0  0  0  0  0
    3.1385    2.3206    2.3562 H   0  0  0  0  0  0  0  0  0  0  0  0
   -0.3556    0.7349   -0.9632 H   0  0  0  0  0  0  0  0  0  0  0  0
   -1.6285   -0.8351    0.5627 H   0  0  0  0  0  0  0  0  0  0  0  0
   -3.0177    0.2177    0.2978 H   0  0  0  0  0  0  0  0  0  0  0  0
   -1.5124   -1.2810   -1.9182 H   0  0  0  0  0  0  0  0  0  0  0  0
   -2.9245   -0.2686   -2.1811 H   0  0  0  0  0  0  0  0  0  0  0  0
   -6.2322   -0.9489   -1.2683 H   0  0  0  0  0  0  0  0  0  0  0  0
   -6.3161   -3.3387   -0.7140 H   0  0  0  0  0  0  0  0  0  0  0  0
  1  2  2  0
  2  3  1  0
  3  4  1  0
  4  5  1  0
  5  6  2  0
  5  7  1  0
  7  8  2  0
  8  9  1  0
  9 10  1  0
  9 11  2  0
 11 12  1  0
 12 13  1  0
 12 14  2  0
  2 15  1  0
 15 16  1  0
 16 17  1  0
 17 18  1  0
 18 19  1  0
 19 20  1  0
 19 21  2  0
 21 22  1  0
 22 23  1  0
 23 24  2  0
 14  7  1  0
 23 18  1  0
  3 25  1  0
  3 26  1  0
  8 27  1  0
 11 28  1  0
 14 29  1  0
 15 30  1  0
 16 31  1  0
 16 32  1  0
 17 33  1  0
 17 34  1  0
 20 35  1  0
 21 36  1  0
M  END
$$$$
