
     RDKit          3D

 27 27  0  0  0  0  0  0  0  0999 V2000
   -1.9565   -0.9400    0.7174 C   0  0  0  0  0  0  0  0  0  0  0  0
   -1.4479   -0.1326   -0.4859 C   0  0  0  0  0  0  0  0  0  0  0  0
   -2.4144   -0.3399   -1.6662 C   0  0  0  0  0  0  0  0  0  0  0  0
   -1.4206    1.3550   -0.1268 C   0  0  0  0  0  0  0  0  0  0  0  0
    0.1922   -0.7248   -1.0095 S   0  0  0  0  0  6  0  0  0  0  0  0
    0.1344   -2.1632   -1.1942 O   0  0  0  0  0  0  0  0  0  0  0  0
    0.7460    0.1256   -2.0413 O   0  0  0  0  0  0  0  0  0  0  0  0
    1.2731   -0.5436    0.3445 C   0  0  0  0  0  0  0  0  0  0  0  0
    1.4281   -1.5652    1.3389 C   0  0  0  0  0  0  0  0  0  0  0  0
    2.3781   -1.2385    2.2783 C   0  0  0  0  0  0  0  0  0  0  0  0
    3.0954    0.2763    1.9575 S   0  0  0  0  0  0  0  0  0  0  0  0
    2.1367    0.5181    0.5506 C   0  0  0  0  0  0  0  0  0  0  0  0
    2.2869    1.7413   -0.1957 C   0  0  0  0  0  0  0  0  0  0  0  0
    1.4053    2.5036   -0.5606 O   0  0  0  0  0  0  0  0  0  0  0  0
    3.5814    2.0164   -0.4667 O   0  0  0  0  0  0  0  0  0  0  0  0
   -1.9573   -2.0155    0.5103 H   0  0  0  0  0  0  0  0  0  0  0  0
   -2.9818   -0.6529    0.9778 H   0  0  0  0  0  0  0  0  0  0  0  0
   -1.3396   -0.7727    1.6057 H   0  0  0  0  0  0  0  0  0  0  0  0
   -3.4260   -0.0007   -1.4164 H   0  0  0  0  0  0  0  0  0  0  0  0
   -2.0847    0.2156   -2.5514 H   0  0  0  0  0  0  0  0  0  0  0  0
   -2.4773   -1.3969   -1.9484 H   0  0  0  0  0  0  0  0  0  0  0  0
   -1.0864    1.9630   -0.9734 H   0  0  0  0  0  0  0  0  0  0  0  0
   -2.4190    1.7096    0.1544 H   0  0  0  0  0  0  0  0  0  0  0  0
   -0.7574    1.5532    0.7207 H   0  0  0  0  0  0  0  0  0  0  0  0
    0.8820   -2.5026    1.3503 H   0  0  0  0  0  0  0  0  0  0  0  0
    2.6978   -1.8243    3.1301 H   0  0  0  0  0  0  0  0  0  0  0  0
    3.5315    2.8358   -0.9999 H   0  0  0  0  0  0  0  0  0  0  0  0
  1  2  1  0
  2  3  1  0
  2  4  1  0
  2  5  1  0
  5  6  2  0
  5  7  2  0
  5  8  1  0
  8  9  1  0
  9 10  2  0
 10 11  1  0
 11 12  1  0
 12 13  1  0
 13 14  2  0
 13 15  1  0
 12  8  2  0
  1 16  1  0
  1 17  1  0
  1 18  1  0
  3 19  1  0
  3 20  1  0
  3 21  1  0
  4 22  1  0
  4 23  1  0
  4 24  1  0
  9 25  1  0
 10 26  1  0
 15 27  1  0
M  END
$$$$
