
     RDKit          3D

 68 70  0  0  0  0  0  0  0  0999 V2000
   -3.6888    5.9771    3.0982 C   0  0  0  0  0  0  0  0  0  0  0  0
   -2.7030    5.7932    2.0867 O   0  0  0  0  0  0  0  0  0  0  0  0
   -2.3378    4.5051    1.8099 C   0  0  0  0  0  0  0  0  0  0  0  0
   -2.7926    3.3626    2.4639 C   0  0  0  0  0  0  0  0  0  0  0  0
   -2.3367    2.0944    2.0780 C   0  0  0  0  0  0  0  0  0  0  0  0
   -1.4143    1.9396    1.0324 C   0  0  0  0  0  0  0  0  0  0  0  0
   -0.8630    0.5807    0.5753 C   0  0  0  0  0  0  0  0  0  0  0  0
   -1.2700   -0.6852    1.3936 C   0  0  0  0  0  0  0  0  0  0  0  0
   -1.3269   -0.6886    2.6220 O   0  0  0  0  0  0  0  0  0  0  0  0
   -1.4783   -1.8311    0.6432 N   0  0  0  0  0  0  0  0  0  0  0  0
   -1.8751   -3.1393    1.1858 C   0  0  0  0  0  0  0  0  0  0  0  0
   -0.8256   -3.6713    2.1782 C   0  0  0  0  0  0  0  0  0  0  0  0
   -1.9704   -4.1329    0.0120 C   0  0  0  0  0  0  0  0  0  0  0  0
   -3.2515   -3.0518    1.8638 C   0  0  0  0  0  0  0  0  0  0  0  0
   -0.9745    0.3672   -0.9074 N   0  0  0  0  0  0  0  0  0  0  0  0
    0.1242   -0.0990   -1.6579 C   0  0  0  0  0  0  0  0  0  0  0  0
    0.0243   -0.5565   -2.7980 O   0  0  0  0  0  0  0  0  0  0  0  0
    1.4922   -0.0851   -0.9917 C   0  0  0  0  0  0  0  0  0  0  0  0
    2.6044   -0.4648   -1.9684 C   0  0  0  0  0  0  0  0  0  0  0  0
    3.9379   -0.6205   -1.2641 C   0  0  0  0  0  0  0  0  0  0  0  0
    4.0392   -0.5910   -0.0417 O   0  0  0  0  0  0  0  0  0  0  0  0
    4.9686   -0.8115   -2.1549 N   0  0  0  0  0  0  0  0  0  0  0  0
    6.2772   -1.0732   -1.8122 C   0  0  0  0  0  0  0  0  0  0  0  0
    6.8475   -1.2853   -0.5357 C   0  0  0  0  0  0  0  0  0  0  0  0
    8.1742   -1.5299   -0.7879 C   0  0  0  0  0  0  0  0  0  0  0  0
    9.3445   -1.8289    0.0558 C   0  0  0  0  0  0  0  0  0  0  0  0
    8.3886   -1.4755   -2.1291 O   0  0  0  0  0  0  0  0  0  0  0  0
    7.1969   -1.1971   -2.7749 N   0  0  0  0  0  0  0  0  0  0  0  0
   -2.2668    0.5600   -1.5497 C   0  0  0  0  0  0  0  0  0  0  0  0
   -3.4762    0.4746   -0.8354 C   0  0  0  0  0  0  0  0  0  0  0  0
   -4.7149    0.6895   -1.4566 C   0  0  0  0  0  0  0  0  0  0  0  0
   -4.7719    0.9978   -2.8103 C   0  0  0  0  0  0  0  0  0  0  0  0
   -3.5903    1.0845   -3.5270 C   0  0  0  0  0  0  0  0  0  0  0  0
   -3.6335    1.3965   -4.8297 F   0  0  0  0  0  0  0  0  0  0  0  0
   -2.3557    0.8718   -2.9150 C   0  0  0  0  0  0  0  0  0  0  0  0
   -0.9547    3.1054    0.3917 C   0  0  0  0  0  0  0  0  0  0  0  0
   -1.4177    4.3684    0.7730 C   0  0  0  0  0  0  0  0  0  0  0  0
   -4.6213    5.4589    2.8480 H   0  0  0  0  0  0  0  0  0  0  0  0
   -3.9108    7.0457    3.1595 H   0  0  0  0  0  0  0  0  0  0  0  0
   -3.3088    5.6592    4.0753 H   0  0  0  0  0  0  0  0  0  0  0  0
   -3.4934    3.4174    3.2905 H   0  0  0  0  0  0  0  0  0  0  0  0
   -2.7252    1.2385    2.6266 H   0  0  0  0  0  0  0  0  0  0  0  0
    0.1972    0.6646    0.8342 H   0  0  0  0  0  0  0  0  0  0  0  0
   -1.5499   -1.7118   -0.3634 H   0  0  0  0  0  0  0  0  0  0  0  0
   -1.0666   -4.6898    2.5034 H   0  0  0  0  0  0  0  0  0  0  0  0
   -0.7588   -3.0551    3.0803 H   0  0  0  0  0  0  0  0  0  0  0  0
    0.1703   -3.6931    1.7203 H   0  0  0  0  0  0  0  0  0  0  0  0
   -2.2552   -5.1343    0.3570 H   0  0  0  0  0  0  0  0  0  0  0  0
   -2.7165   -3.8069   -0.7245 H   0  0  0  0  0  0  0  0  0  0  0  0
   -1.0115   -4.2199   -0.5142 H   0  0  0  0  0  0  0  0  0  0  0  0
   -3.5915   -4.0394    2.1962 H   0  0  0  0  0  0  0  0  0  0  0  0
   -4.0046   -2.6491    1.1753 H   0  0  0  0  0  0  0  0  0  0  0  0
   -3.2361   -2.4019    2.7453 H   0  0  0  0  0  0  0  0  0  0  0  0
    1.4762   -0.8012   -0.1621 H   0  0  0  0  0  0  0  0  0  0  0  0
    1.6972    0.9199   -0.6061 H   0  0  0  0  0  0  0  0  0  0  0  0
    2.6943    0.3010   -2.7480 H   0  0  0  0  0  0  0  0  0  0  0  0
    2.3789   -1.4204   -2.4578 H   0  0  0  0  0  0  0  0  0  0  0  0
    4.8098   -0.7529   -3.1527 H   0  0  0  0  0  0  0  0  0  0  0  0
    6.3641   -1.2785    0.4311 H   0  0  0  0  0  0  0  0  0  0  0  0
    9.8733   -2.7115   -0.3162 H   0  0  0  0  0  0  0  0  0  0  0  0
   10.0386   -0.9835    0.0587 H   0  0  0  0  0  0  0  0  0  0  0  0
    9.0431   -2.0273    1.0889 H   0  0  0  0  0  0  0  0  0  0  0  0
   -3.5080    0.2232    0.2195 H   0  0  0  0  0  0  0  0  0  0  0  0
   -5.6304    0.6228   -0.8743 H   0  0  0  0  0  0  0  0  0  0  0  0
   -5.7204    1.1755   -3.3070 H   0  0  0  0  0  0  0  0  0  0  0  0
   -1.4766    1.0020   -3.5389 H   0  0  0  0  0  0  0  0  0  0  0  0
   -0.2360    3.0417   -0.4218 H   0  0  0  0  0  0  0  0  0  0  0  0
   -1.0510    5.2560    0.2610 H   0  0  0  0  0  0  0  0  0  0  0  0
  1  2  1  0
  2  3  1  0
  3  4  2  0
  4  5  1  0
  5  6  2  0
  6  7  1  0
  7  8  1  0
  8  9  2  0
  8 10  1  0
 10 11  1  0
 11 12  1  0
 11 13  1  0
 11 14  1  0
  7 15  1  0
 15 16  1  0
 16 17  2  0
 16 18  1  0
 18 19  1  0
 19 20  1  0
 20 21  2  0
 20 22  1  0
 22 23  1  0
 23 24  1  0
 24 25  2  0
 25 26  1  0
 25 27  1  0
 27 28  1  0
 15 29  1  0
 29 30  2  0
 30 31  1  0
 31 32  2  0
 32 33  1  0
 33 34  1  0
 33 35  2  0
  6 36  1  0
 36 37  2  0
 37  3  1  0
 28 23  2  0
 35 29  1  0
  1 38  1  0
  1 39  1  0
  1 40  1  0
  4 41  1  0
  5 42  1  0
  7 43  1  0
 10 44  1  0
 12 45  1  0
 12 46  1  0
 12 47  1  0
 13 48  1  0
 13 49  1  0
 13 50  1  0
 14 51  1  0
 14 52  1  0
 14 53  1  0
 18 54  1  0
 18 55  1  0
 19 56  1  0
 19 57  1  0
 22 58  1  0
 24 59  1  0
 26 60  1  0
 26 61  1  0
 26 62  1  0
 30 63  1  0
 31 64  1  0
 32 65  1  0
 35 66  1  0
 36 67  1  0
 37 68  1  0
M  END
$$$$
