
     RDKit          3D

 38 38  0  0  0  0  0  0  0  0999 V2000
    5.1697   -1.2305   -3.2280 C   0  0  0  0  0  0  0  0  0  0  0  0
    4.2661   -0.0121   -3.2114 C   0  0  0  0  0  0  0  0  0  0  0  0
    3.2114   -0.1930   -2.2555 O   0  0  0  0  0  0  0  0  0  0  0  0
    3.4898    0.2057   -0.9836 C   0  0  0  0  0  0  0  0  0  0  0  0
    4.5729    0.6177   -0.5886 O   0  0  0  0  0  0  0  0  0  0  0  0
    2.3038   -0.0072   -0.0914 C   0  0  0  0  0  0  0  0  0  0  0  0
    1.1095    0.8338   -0.4599 C   0  0  0  0  0  0  0  0  0  0  0  0
    1.1948    1.8196   -1.1889 O   0  0  0  0  0  0  0  0  0  0  0  0
   -0.2270    0.4670    0.1008 C   0  0  0  0  0  0  0  0  0  0  0  0
   -1.3660    1.0432   -0.4851 C   0  0  0  0  0  0  0  0  0  0  0  0
   -2.6405    0.7394   -0.0062 C   0  0  0  0  0  0  0  0  0  0  0  0
   -3.8100    1.2407   -0.5152 O   0  0  0  0  0  0  0  0  0  0  0  0
   -3.7233    2.0715   -1.6655 C   0  0  0  0  0  0  0  0  0  0  0  0
   -2.7602   -0.1377    1.0847 C   0  0  0  0  0  0  0  0  0  0  0  0
   -4.0136   -0.4858    1.5389 O   0  0  0  0  0  0  0  0  0  0  0  0
   -4.4383    0.4332    2.5441 C   0  0  0  0  0  0  0  0  0  0  0  0
   -1.6305   -0.7317    1.6749 C   0  0  0  0  0  0  0  0  0  0  0  0
   -1.8727   -1.5786    2.7254 O   0  0  0  0  0  0  0  0  0  0  0  0
   -0.7831   -2.3372    3.2309 C   0  0  0  0  0  0  0  0  0  0  0  0
   -0.3618   -0.4144    1.1832 C   0  0  0  0  0  0  0  0  0  0  0  0
    5.6539   -1.3739   -2.2569 H   0  0  0  0  0  0  0  0  0  0  0  0
    5.9444   -1.1286   -3.9931 H   0  0  0  0  0  0  0  0  0  0  0  0
    4.5894   -2.1366   -3.4312 H   0  0  0  0  0  0  0  0  0  0  0  0
    3.7927    0.1089   -4.1912 H   0  0  0  0  0  0  0  0  0  0  0  0
    4.8326    0.9049   -3.0122 H   0  0  0  0  0  0  0  0  0  0  0  0
    2.0556   -1.0732   -0.1295 H   0  0  0  0  0  0  0  0  0  0  0  0
    2.6008    0.2475    0.9321 H   0  0  0  0  0  0  0  0  0  0  0  0
   -1.2292    1.7261   -1.3191 H   0  0  0  0  0  0  0  0  0  0  0  0
   -3.1802    2.9957   -1.4430 H   0  0  0  0  0  0  0  0  0  0  0  0
   -4.7418    2.3465   -1.9563 H   0  0  0  0  0  0  0  0  0  0  0  0
   -3.2700    1.5372   -2.5070 H   0  0  0  0  0  0  0  0  0  0  0  0
   -5.4265    0.1163    2.8907 H   0  0  0  0  0  0  0  0  0  0  0  0
   -4.5307    1.4490    2.1449 H   0  0  0  0  0  0  0  0  0  0  0  0
   -3.7604    0.4251    3.4047 H   0  0  0  0  0  0  0  0  0  0  0  0
   -0.0474   -1.6885    3.7170 H   0  0  0  0  0  0  0  0  0  0  0  0
   -1.1750   -3.0220    3.9891 H   0  0  0  0  0  0  0  0  0  0  0  0
   -0.3193   -2.9411    2.4439 H   0  0  0  0  0  0  0  0  0  0  0  0
    0.5201   -0.8366    1.6489 H   0  0  0  0  0  0  0  0  0  0  0  0
  1  2  1  0
  2  3  1  0
  3  4  1  0
  4  5  2  0
  4  6  1  0
  6  7  1  0
  7  8  2  0
  7  9  1  0
  9 10  2  0
 10 11  1  0
 11 12  1  0
 12 13  1  0
 11 14  2  0
 14 15  1  0
 15 16  1  0
 14 17  1  0
 17 18  1  0
 18 19  1  0
 17 20  2  0
 20  9  1  0
  1 21  1  0
  1 22  1  0
  1 23  1  0
  2 24  1  0
  2 25  1  0
  6 26  1  0
  6 27  1  0
 10 28  1  0
 13 29  1  0
 13 30  1  0
 13 31  1  0
 16 32  1  0
 16 33  1  0
 16 34  1  0
 19 35  1  0
 19 36  1  0
 19 37  1  0
 20 38  1  0
M  END
$$$$
