
     RDKit          3D

 59 62  0  0  0  0  0  0  0  0999 V2000
   -8.7044   -2.0209    1.5280 C   0  0  0  0  0  0  0  0  0  0  0  0
   -7.7235   -1.0329    0.9673 C   0  0  0  0  0  0  0  0  0  0  0  0
   -7.8166    0.3244    1.3064 C   0  0  0  0  0  0  0  0  0  0  0  0
   -6.9226    1.2510    0.7659 C   0  0  0  0  0  0  0  0  0  0  0  0
   -5.9251    0.8208   -0.1136 C   0  0  0  0  0  0  0  0  0  0  0  0
   -4.9854    1.8197   -0.6722 C   0  0  0  0  0  0  0  0  0  0  0  0
   -5.4572    2.8078   -1.2287 O   0  0  0  0  0  0  0  0  0  0  0  0
   -3.6179    1.5989   -0.5374 N   0  0  0  0  0  0  0  0  0  0  0  0
   -3.0138    0.6267    0.3830 C   0  0  0  0  0  0  0  0  0  0  0  0
   -1.6449    1.0779    0.9300 C   0  0  0  0  0  0  0  0  0  0  0  0
   -0.7109    1.4054   -0.1592 N   0  0  0  0  0  0  0  0  0  0  0  0
    0.6629    1.3162    0.0016 C   0  0  0  0  0  0  0  0  0  0  0  0
    1.2635    1.2256    1.2651 C   0  0  0  0  0  0  0  0  0  0  0  0
    2.6542    1.1242    1.4240 C   0  0  0  0  0  0  0  0  0  0  0  0
    3.5008    1.1138    0.3153 C   0  0  0  0  0  0  0  0  0  0  0  0
    4.8821    0.9955    0.5569 N   0  0  0  0  0  0  0  0  0  0  0  0
    5.9081    0.9540   -0.3750 C   0  0  0  0  0  0  0  0  0  0  0  0
    5.7962    1.1042   -1.5893 O   0  0  0  0  0  0  0  0  0  0  0  0
    7.2818    0.7577    0.2531 C   0  0  0  0  0  0  0  0  0  0  0  0
    7.3224   -0.7022    1.3575 S   0  0  0  0  0  0  0  0  0  0  0  0
    6.9288   -1.9791    0.1728 C   0  0  0  0  0  0  0  0  0  0  0  0
    7.8446   -2.3468   -0.8192 C   0  0  0  0  0  0  0  0  0  0  0  0
    7.5150   -3.3385   -1.7481 C   0  0  0  0  0  0  0  0  0  0  0  0
    6.2717   -3.9668   -1.6805 C   0  0  0  0  0  0  0  0  0  0  0  0
    5.8642   -5.1846   -2.8261 Cl  0  0  0  0  0  0  0  0  0  0  0  0
    5.3584   -3.6164   -0.6888 C   0  0  0  0  0  0  0  0  0  0  0  0
    5.6888   -2.6250    0.2407 C   0  0  0  0  0  0  0  0  0  0  0  0
    2.9314    1.2043   -0.9486 C   0  0  0  0  0  0  0  0  0  0  0  0
    1.5378    1.3008   -1.0961 C   0  0  0  0  0  0  0  0  0  0  0  0
   -1.2925    1.9612   -1.3979 C   0  0  0  0  0  0  0  0  0  0  0  0
   -2.6977    2.5452   -1.1687 C   0  0  0  0  0  0  0  0  0  0  0  0
   -5.8499   -0.5232   -0.4921 C   0  0  0  0  0  0  0  0  0  0  0  0
   -6.7464   -1.4464    0.0502 C   0  0  0  0  0  0  0  0  0  0  0  0
   -9.5766   -2.1018    0.8687 H   0  0  0  0  0  0  0  0  0  0  0  0
   -8.2444   -3.0099    1.6301 H   0  0  0  0  0  0  0  0  0  0  0  0
   -9.0400   -1.7148    2.5251 H   0  0  0  0  0  0  0  0  0  0  0  0
   -8.5890    0.6691    1.9929 H   0  0  0  0  0  0  0  0  0  0  0  0
   -7.0029    2.3037    1.0283 H   0  0  0  0  0  0  0  0  0  0  0  0
   -2.8884   -0.3054   -0.1824 H   0  0  0  0  0  0  0  0  0  0  0  0
   -3.6905    0.4308    1.2220 H   0  0  0  0  0  0  0  0  0  0  0  0
   -1.2601    0.2589    1.5499 H   0  0  0  0  0  0  0  0  0  0  0  0
   -1.7731    1.9609    1.5682 H   0  0  0  0  0  0  0  0  0  0  0  0
    0.6607    1.2544    2.1686 H   0  0  0  0  0  0  0  0  0  0  0  0
    3.0537    1.0611    2.4327 H   0  0  0  0  0  0  0  0  0  0  0  0
    5.1584    0.8631    1.5230 H   0  0  0  0  0  0  0  0  0  0  0  0
    8.0319    0.6477   -0.5376 H   0  0  0  0  0  0  0  0  0  0  0  0
    7.5304    1.6522    0.8362 H   0  0  0  0  0  0  0  0  0  0  0  0
    8.8199   -1.8684   -0.8800 H   0  0  0  0  0  0  0  0  0  0  0  0
    8.2295   -3.6140   -2.5194 H   0  0  0  0  0  0  0  0  0  0  0  0
    4.3885   -4.1047   -0.6350 H   0  0  0  0  0  0  0  0  0  0  0  0
    4.9642   -2.3570    1.0060 H   0  0  0  0  0  0  0  0  0  0  0  0
    3.5340    1.1904   -1.8516 H   0  0  0  0  0  0  0  0  0  0  0  0
    1.1520    1.3393   -2.1116 H   0  0  0  0  0  0  0  0  0  0  0  0
   -1.3500    1.1621   -2.1472 H   0  0  0  0  0  0  0  0  0  0  0  0
   -0.6649    2.7661   -1.7994 H   0  0  0  0  0  0  0  0  0  0  0  0
   -2.6372    3.4192   -0.5078 H   0  0  0  0  0  0  0  0  0  0  0  0
   -3.1183    2.8854   -2.1224 H   0  0  0  0  0  0  0  0  0  0  0  0
   -5.1085   -0.8508   -1.2172 H   0  0  0  0  0  0  0  0  0  0  0  0
   -6.6833   -2.4901   -0.2515 H   0  0  0  0  0  0  0  0  0  0  0  0
  1  2  1  0
  2  3  2  0
  3  4  1  0
  4  5  2  0
  5  6  1  0
  6  7  2  0
  6  8  1  0
  8  9  1  0
  9 10  1  0
 10 11  1  0
 11 12  1  0
 12 13  2  0
 13 14  1  0
 14 15  2  0
 15 16  1  0
 16 17  1  0
 17 18  2  0
 17 19  1  0
 19 20  1  0
 20 21  1  0
 21 22  2  0
 22 23  1  0
 23 24  2  0
 24 25  1  0
 24 26  1  0
 26 27  2  0
 15 28  1  0
 28 29  2  0
 11 30  1  0
 30 31  1  0
  5 32  1  0
 32 33  2  0
 33  2  1  0
 31  8  1  0
 29 12  1  0
 27 21  1  0
  1 34  1  0
  1 35  1  0
  1 36  1  0
  3 37  1  0
  4 38  1  0
  9 39  1  0
  9 40  1  0
 10 41  1  0
 10 42  1  0
 13 43  1  0
 14 44  1  0
 16 45  1  0
 19 46  1  0
 19 47  1  0
 22 48  1  0
 23 49  1  0
 26 50  1  0
 27 51  1  0
 28 52  1  0
 29 53  1  0
 30 54  1  0
 30 55  1  0
 31 56  1  0
 31 57  1  0
 32 58  1  0
 33 59  1  0
M  END
$$$$
