
     RDKit          3D

 58 60  0  0  0  0  0  0  0  0999 V2000
    7.6220    4.7929    0.3594 C   0  0  0  0  0  0  0  0  0  0  0  0
    6.8247    3.6545    0.8463 C   0  0  0  0  0  0  0  0  0  0  0  0
    5.6232    3.1001    0.4804 C   0  0  0  0  0  0  0  0  0  0  0  0
    5.4466    2.0165    1.3688 C   0  0  0  0  0  0  0  0  0  0  0  0
    4.4131    1.1103    1.4517 N   0  0  0  0  0  0  0  0  0  0  0  0
    3.3190    1.0744    0.6195 C   0  0  0  0  0  0  0  0  0  0  0  0
    3.0966    1.8449   -0.3089 O   0  0  0  0  0  0  0  0  0  0  0  0
    2.3733   -0.0539    0.9774 C   0  0  0  0  0  0  0  0  0  0  0  0
    1.2179   -0.1539   -0.0148 C   0  0  0  0  0  0  0  0  0  0  0  0
    0.2870   -1.3027    0.3251 C   0  0  0  0  0  0  0  0  0  0  0  0
    0.5220   -2.0420    1.2813 O   0  0  0  0  0  0  0  0  0  0  0  0
   -0.8357   -1.4732   -0.4743 N   0  0  0  0  0  0  0  0  0  0  0  0
   -1.2014   -0.5884   -1.5956 C   0  0  0  0  0  0  0  0  0  0  0  0
   -2.2391    0.4811   -1.2255 C   0  0  0  0  0  0  0  0  0  0  0  0
   -2.8204    1.1388   -2.0847 O   0  0  0  0  0  0  0  0  0  0  0  0
   -2.4040    0.6946    0.1273 N   0  0  0  0  0  0  0  0  0  0  0  0
   -3.3907    1.6220    0.6324 C   0  0  0  0  0  0  0  0  0  0  0  0
   -3.1854    1.9486    2.1058 C   0  0  0  0  0  0  0  0  0  0  0  0
   -4.5182    2.5584    2.5142 C   0  0  0  0  0  0  0  0  0  0  0  0
   -5.5707    1.8297    1.6802 C   0  0  0  0  0  0  0  0  0  0  0  0
   -4.8093    1.0562    0.6026 C   0  0  0  0  0  0  0  0  0  0  0  0
   -1.7248   -2.6090   -0.2143 C   0  0  0  0  0  0  0  0  0  0  0  0
   -1.4855   -3.7516   -1.1756 C   0  0  0  0  0  0  0  0  0  0  0  0
   -0.3217   -4.5318   -1.0742 C   0  0  0  0  0  0  0  0  0  0  0  0
   -0.0892   -5.5749   -1.9709 C   0  0  0  0  0  0  0  0  0  0  0  0
   -1.0196   -5.8417   -2.9673 C   0  0  0  0  0  0  0  0  0  0  0  0
   -0.7965   -6.8415   -3.8289 F   0  0  0  0  0  0  0  0  0  0  0  0
   -2.1797   -5.0860   -3.0830 C   0  0  0  0  0  0  0  0  0  0  0  0
   -2.4140   -4.0406   -2.1887 C   0  0  0  0  0  0  0  0  0  0  0  0
    6.4759    1.9224    2.2188 N   0  0  0  0  0  0  0  0  0  0  0  0
    7.3408    2.9492    1.8857 O   0  0  0  0  0  0  0  0  0  0  0  0
    8.4414    4.4416   -0.2742 H   0  0  0  0  0  0  0  0  0  0  0  0
    8.0479    5.3559    1.1962 H   0  0  0  0  0  0  0  0  0  0  0  0
    7.0037    5.4797   -0.2281 H   0  0  0  0  0  0  0  0  0  0  0  0
    4.9740    3.4340   -0.3154 H   0  0  0  0  0  0  0  0  0  0  0  0
    4.5270    0.4248    2.1872 H   0  0  0  0  0  0  0  0  0  0  0  0
    2.9409   -0.9926    0.9907 H   0  0  0  0  0  0  0  0  0  0  0  0
    1.9890    0.1253    1.9889 H   0  0  0  0  0  0  0  0  0  0  0  0
    0.6482    0.7817   -0.0104 H   0  0  0  0  0  0  0  0  0  0  0  0
    1.6221   -0.3202   -1.0198 H   0  0  0  0  0  0  0  0  0  0  0  0
   -0.3231   -0.0694   -1.9846 H   0  0  0  0  0  0  0  0  0  0  0  0
   -1.6130   -1.1976   -2.4063 H   0  0  0  0  0  0  0  0  0  0  0  0
   -2.0260   -0.0058    0.7554 H   0  0  0  0  0  0  0  0  0  0  0  0
   -3.3496    2.5418    0.0338 H   0  0  0  0  0  0  0  0  0  0  0  0
   -2.3467    2.6327    2.2683 H   0  0  0  0  0  0  0  0  0  0  0  0
   -2.9927    1.0395    2.6888 H   0  0  0  0  0  0  0  0  0  0  0  0
   -4.5302    3.6269    2.2696 H   0  0  0  0  0  0  0  0  0  0  0  0
   -4.7040    2.4628    3.5876 H   0  0  0  0  0  0  0  0  0  0  0  0
   -6.2669    2.5483    1.2340 H   0  0  0  0  0  0  0  0  0  0  0  0
   -6.1613    1.1443    2.2995 H   0  0  0  0  0  0  0  0  0  0  0  0
   -4.8093   -0.0139    0.8474 H   0  0  0  0  0  0  0  0  0  0  0  0
   -5.2735    1.1635   -0.3827 H   0  0  0  0  0  0  0  0  0  0  0  0
   -1.5954   -2.9784    0.8099 H   0  0  0  0  0  0  0  0  0  0  0  0
   -2.7615   -2.2567   -0.2789 H   0  0  0  0  0  0  0  0  0  0  0  0
    0.4089   -4.3269   -0.2932 H   0  0  0  0  0  0  0  0  0  0  0  0
    0.8102   -6.1784   -1.8990 H   0  0  0  0  0  0  0  0  0  0  0  0
   -2.8921   -5.3140   -3.8696 H   0  0  0  0  0  0  0  0  0  0  0  0
   -3.3242   -3.4521   -2.2909 H   0  0  0  0  0  0  0  0  0  0  0  0
  1  2  1  0
  2  3  2  0
  3  4  1  0
  4  5  1  0
  5  6  1  0
  6  7  2  0
  6  8  1  0
  8  9  1  0
  9 10  1  0
 10 11  2  0
 10 12  1  0
 12 13  1  0
 13 14  1  0
 14 15  2  0
 14 16  1  0
 16 17  1  0
 17 18  1  0
 18 19  1  0
 19 20  1  0
 20 21  1  0
 12 22  1  0
 22 23  1  0
 23 24  2  0
 24 25  1  0
 25 26  2  0
 26 27  1  0
 26 28  1  0
 28 29  2  0
  4 30  2  0
 30 31  1  0
 31  2  1  0
 21 17  1  0
 29 23  1  0
  1 32  1  0
  1 33  1  0
  1 34  1  0
  3 35  1  0
  5 36  1  0
  8 37  1  0
  8 38  1  0
  9 39  1  0
  9 40  1  0
 13 41  1  0
 13 42  1  0
 16 43  1  0
 17 44  1  0
 18 45  1  0
 18 46  1  0
 19 47  1  0
 19 48  1  0
 20 49  1  0
 20 50  1  0
 21 51  1  0
 21 52  1  0
 22 53  1  0
 22 54  1  0
 24 55  1  0
 25 56  1  0
 28 57  1  0
 29 58  1  0
M  END
$$$$
