
     RDKit          3D

 46 49  0  0  0  0  0  0  0  0999 V2000
    1.3501    0.5580   -1.7060 O   0  0  0  0  0  0  0  0  0  0  0  0
    1.8107    1.3451   -0.8877 C   0  0  0  0  0  0  0  0  0  0  0  0
    1.0302    1.9020    0.2953 C   0  0  0  0  0  0  0  0  0  0  0  0
   -0.2754    1.2321    0.4464 N   0  0  0  0  0  4  0  0  0  0  0  0
   -1.5370    1.8012    0.2852 C   0  0  0  0  0  0  0  0  0  0  0  0
   -2.5026    0.8149    0.4569 C   0  0  0  0  0  0  0  0  0  0  0  0
   -4.0624    1.0115    0.3906 C   0  0  0  0  0  0  0  0  0  0  0  0
   -4.5985    2.2636    0.0676 C   0  0  0  0  0  0  0  0  0  0  0  0
   -5.9856    2.4403    0.0053 C   0  0  0  0  0  0  0  0  0  0  0  0
   -6.8478    1.3729    0.2666 C   0  0  0  0  0  0  0  0  0  0  0  0
   -8.5451    1.6626    0.1702 Cl  0  0  0  0  0  0  0  0  0  0  0  0
   -6.3142    0.1243    0.5955 C   0  0  0  0  0  0  0  0  0  0  0  0
   -7.3054   -1.2474    0.9419 Cl  0  0  0  0  0  0  0  0  0  0  0  0
   -4.9248   -0.0533    0.6586 C   0  0  0  0  0  0  0  0  0  0  0  0
   -1.7546   -0.3264    0.6880 N   0  0  0  0  0  0  0  0  0  0  0  0
   -0.4494   -0.0662    0.6797 C   0  0  0  0  0  0  0  0  0  0  0  0
    0.3882   -1.2637    0.9305 C   0  0  0  0  0  0  0  0  0  0  0  0
   -0.6262   -2.4082    0.7430 C   0  0  0  0  0  0  0  0  0  0  0  0
   -2.0196   -1.7428    0.9098 C   0  0  0  0  0  0  0  0  0  0  0  0
    3.0851    1.8173   -0.8642 O   0  0  0  0  0  0  0  0  0  0  0  0
    3.9845    1.2072   -1.8040 C   0  0  0  0  0  0  0  0  0  0  0  0
    4.5234   -0.0674   -1.2069 C   0  0  0  0  0  0  0  0  0  0  0  0
    5.4364   -0.0211   -0.1426 C   0  0  0  0  0  0  0  0  0  0  0  0
    5.9190   -1.2002    0.4271 C   0  0  0  0  0  0  0  0  0  0  0  0
    5.4921   -2.4349   -0.0580 C   0  0  0  0  0  0  0  0  0  0  0  0
    4.5813   -2.4931   -1.1116 C   0  0  0  0  0  0  0  0  0  0  0  0
    4.0962   -1.3151   -1.6825 C   0  0  0  0  0  0  0  0  0  0  0  0
    0.8692    2.9733    0.1454 H   0  0  0  0  0  0  0  0  0  0  0  0
    1.5927    1.7306    1.2187 H   0  0  0  0  0  0  0  0  0  0  0  0
   -1.5904    2.8553    0.0716 H   0  0  0  0  0  0  0  0  0  0  0  0
   -3.9698    3.1237   -0.1485 H   0  0  0  0  0  0  0  0  0  0  0  0
   -6.3908    3.4187   -0.2507 H   0  0  0  0  0  0  0  0  0  0  0  0
   -4.5491   -1.0308    0.9322 H   0  0  0  0  0  0  0  0  0  0  0  0
    0.7439   -1.1829    1.9602 H   0  0  0  0  0  0  0  0  0  0  0  0
    1.2111   -1.2970    0.2179 H   0  0  0  0  0  0  0  0  0  0  0  0
   -0.5402   -2.7993   -0.2782 H   0  0  0  0  0  0  0  0  0  0  0  0
   -0.4673   -3.2395    1.4358 H   0  0  0  0  0  0  0  0  0  0  0  0
   -2.3995   -1.8730    1.9270 H   0  0  0  0  0  0  0  0  0  0  0  0
   -2.7279   -2.1303    0.1743 H   0  0  0  0  0  0  0  0  0  0  0  0
    4.8089    1.9076   -1.9793 H   0  0  0  0  0  0  0  0  0  0  0  0
    3.5026    1.0436   -2.7756 H   0  0  0  0  0  0  0  0  0  0  0  0
    5.7872    0.9344    0.2418 H   0  0  0  0  0  0  0  0  0  0  0  0
    6.6396   -1.1576    1.2411 H   0  0  0  0  0  0  0  0  0  0  0  0
    5.8816   -3.3532    0.3767 H   0  0  0  0  0  0  0  0  0  0  0  0
    4.2614   -3.4585   -1.4978 H   0  0  0  0  0  0  0  0  0  0  0  0
    3.3882   -1.3785   -2.5075 H   0  0  0  0  0  0  0  0  0  0  0  0
  1  2  2  0
  2  3  1  0
  3  4  1  0
  4  5  1  0
  5  6  2  0
  6  7  1  0
  7  8  2  0
  8  9  1  0
  9 10  2  0
 10 11  1  0
 10 12  1  0
 12 13  1  0
 12 14  2  0
  6 15  1  0
 15 16  1  0
 16 17  1  0
 17 18  1  0
 18 19  1  0
  2 20  1  0
 20 21  1  0
 21 22  1  0
 22 23  2  0
 23 24  1  0
 24 25  2  0
 25 26  1  0
 26 27  2  0
 16  4  2  0
 27 22  1  0
 14  7  1  0
 19 15  1  0
  3 28  1  0
  3 29  1  0
  5 30  1  0
  8 31  1  0
  9 32  1  0
 14 33  1  0
 17 34  1  0
 17 35  1  0
 18 36  1  0
 18 37  1  0
 19 38  1  0
 19 39  1  0
 21 40  1  0
 21 41  1  0
 23 42  1  0
 24 43  1  0
 25 44  1  0
 26 45  1  0
 27 46  1  0
M  CHG  1   4   1
M  END
$$$$
