
     RDKit          3D

 46 49  0  0  0  0  0  0  0  0999 V2000
    4.3358   -0.2355    0.0867 O   0  0  0  0  0  0  0  0  0  0  0  0
    3.4249   -0.8365    0.6566 C   0  0  0  0  0  0  0  0  0  0  0  0
    3.1749   -2.3169    0.3908 C   0  0  0  0  0  0  0  0  0  0  0  0
    2.0178   -2.5292   -0.9995 S   0  0  0  0  0  0  0  0  0  0  0  0
    0.5567   -1.9641   -0.2734 C   0  0  0  0  0  0  0  0  0  0  0  0
    0.3151   -1.9507    1.0184 N   0  0  0  0  0  0  0  0  0  0  0  0
   -0.8910   -1.3386    1.2121 N   0  0  0  0  0  0  0  0  0  0  0  0
   -1.3788   -0.9960    0.0327 C   0  0  0  0  0  0  0  0  0  0  0  0
   -2.7050   -0.3427   -0.2036 C   0  0  0  0  0  0  0  0  0  0  0  0
   -3.7949   -1.3560   -0.4307 C   0  0  0  0  0  0  0  0  0  0  0  0
   -4.3170   -1.8193   -1.6282 C   0  0  0  0  0  0  0  0  0  0  0  0
   -5.3153   -2.8216   -1.4378 C   0  0  0  0  0  0  0  0  0  0  0  0
   -5.5451   -3.0728   -0.1021 C   0  0  0  0  0  0  0  0  0  0  0  0
   -4.5627   -2.1035    0.9152 S   0  0  0  0  0  0  0  0  0  0  0  0
   -0.4586   -1.3367   -0.9401 N   0  0  0  0  0  0  0  0  0  0  0  0
   -0.5270   -1.0215   -2.3521 C   0  0  0  0  0  0  0  0  0  0  0  0
   -0.1240    0.3868   -2.5906 C   0  0  0  0  0  0  0  0  0  0  0  0
    1.0558    1.0905   -2.4292 C   0  0  0  0  0  0  0  0  0  0  0  0
    0.7866    2.4220   -2.8342 C   0  0  0  0  0  0  0  0  0  0  0  0
   -0.5321    2.4456   -3.2242 C   0  0  0  0  0  0  0  0  0  0  0  0
   -1.0894    1.2152   -3.0907 O   0  0  0  0  0  0  0  0  0  0  0  0
    2.5206   -0.2763    1.5466 N   0  0  0  0  0  0  0  0  0  0  0  0
    2.4784    1.0658    1.9814 C   0  0  0  0  0  0  0  0  0  0  0  0
    3.5337    1.9688    1.8226 C   0  0  0  0  0  0  0  0  0  0  0  0
    3.4188    3.2877    2.2810 C   0  0  0  0  0  0  0  0  0  0  0  0
    2.2440    3.7149    2.8935 C   0  0  0  0  0  0  0  0  0  0  0  0
    1.1935    2.8142    3.0595 C   0  0  0  0  0  0  0  0  0  0  0  0
   -0.2613    3.3370    3.8190 Cl  0  0  0  0  0  0  0  0  0  0  0  0
    1.3070    1.4940    2.6161 C   0  0  0  0  0  0  0  0  0  0  0  0
    4.1304   -2.7833    0.1290 H   0  0  0  0  0  0  0  0  0  0  0  0
    2.8079   -2.8249    1.2919 H   0  0  0  0  0  0  0  0  0  0  0  0
   -2.9496    0.2773    0.6683 H   0  0  0  0  0  0  0  0  0  0  0  0
   -2.6599    0.3497   -1.0512 H   0  0  0  0  0  0  0  0  0  0  0  0
   -3.9960   -1.4641   -2.5996 H   0  0  0  0  0  0  0  0  0  0  0  0
   -5.8417   -3.3324   -2.2374 H   0  0  0  0  0  0  0  0  0  0  0  0
   -6.2438   -3.7748    0.3299 H   0  0  0  0  0  0  0  0  0  0  0  0
    0.1160   -1.7076   -2.9124 H   0  0  0  0  0  0  0  0  0  0  0  0
   -1.5509   -1.2070   -2.6875 H   0  0  0  0  0  0  0  0  0  0  0  0
    1.9953    0.7005   -2.0572 H   0  0  0  0  0  0  0  0  0  0  0  0
    1.4722    3.2604   -2.8451 H   0  0  0  0  0  0  0  0  0  0  0  0
   -1.1853    3.2221   -3.6053 H   0  0  0  0  0  0  0  0  0  0  0  0
    1.6911   -0.8352    1.7622 H   0  0  0  0  0  0  0  0  0  0  0  0
    4.4707    1.6686    1.3626 H   0  0  0  0  0  0  0  0  0  0  0  0
    4.2482    3.9785    2.1511 H   0  0  0  0  0  0  0  0  0  0  0  0
    2.1590    4.7403    3.2501 H   0  0  0  0  0  0  0  0  0  0  0  0
    0.4749    0.8071    2.7568 H   0  0  0  0  0  0  0  0  0  0  0  0
  1  2  2  0
  2  3  1  0
  3  4  1  0
  4  5  1  0
  5  6  2  0
  6  7  1  0
  7  8  2  0
  8  9  1  0
  9 10  1  0
 10 11  2  0
 11 12  1  0
 12 13  2  0
 13 14  1  0
  8 15  1  0
 15 16  1  0
 16 17  1  0
 17 18  2  0
 18 19  1  0
 19 20  2  0
 20 21  1  0
  2 22  1  0
 22 23  1  0
 23 24  2  0
 24 25  1  0
 25 26  2  0
 26 27  1  0
 27 28  1  0
 27 29  2  0
 15  5  1  0
 21 17  1  0
 29 23  1  0
 14 10  1  0
  3 30  1  0
  3 31  1  0
  9 32  1  0
  9 33  1  0
 11 34  1  0
 12 35  1  0
 13 36  1  0
 16 37  1  0
 16 38  1  0
 18 39  1  0
 19 40  1  0
 20 41  1  0
 22 42  1  0
 24 43  1  0
 25 44  1  0
 26 45  1  0
 29 46  1  0
M  END
$$$$
