
     RDKit          3D

 39 41  0  0  0  0  0  0  0  0999 V2000
   -4.1420    0.1238    4.7749 C   0  0  0  0  0  0  0  0  0  0  0  0
   -3.2537   -0.9850    4.7130 O   0  0  0  0  0  0  0  0  0  0  0  0
   -2.7689   -1.3220    3.4793 C   0  0  0  0  0  0  0  0  0  0  0  0
   -1.9106   -2.4273    3.4735 C   0  0  0  0  0  0  0  0  0  0  0  0
   -1.3386   -2.8810    2.2837 C   0  0  0  0  0  0  0  0  0  0  0  0
   -1.6240   -2.2133    1.0919 C   0  0  0  0  0  0  0  0  0  0  0  0
   -0.9073   -2.7874   -0.4260 S   0  0  0  0  0  6  0  0  0  0  0  0
   -0.7803   -4.2269   -0.3292 O   0  0  0  0  0  0  0  0  0  0  0  0
   -1.6046   -2.1764   -1.5365 O   0  0  0  0  0  0  0  0  0  0  0  0
    0.6691   -2.1756   -0.3479 N   0  0  0  0  0  0  0  0  0  0  0  0
    0.8665   -0.8045   -0.6672 C   0  0  0  0  0  0  0  0  0  0  0  0
    0.8062    0.1477    0.3472 C   0  0  0  0  0  0  0  0  0  0  0  0
    0.9580    1.4970    0.0361 C   0  0  0  0  0  0  0  0  0  0  0  0
    1.1716    1.8876   -1.2856 C   0  0  0  0  0  0  0  0  0  0  0  0
    1.3158    3.2324   -1.4894 O   0  0  0  0  0  0  0  0  0  0  0  0
    1.2220    0.9406   -2.3195 C   0  0  0  0  0  0  0  0  0  0  0  0
    1.3801    1.3572   -4.0498 S   0  0  0  0  0  0  0  0  0  0  0  0
    2.9589    2.0818   -4.1147 C   0  0  0  0  0  0  0  0  0  0  0  0
    3.2750    3.2118   -3.4037 N   0  0  0  0  0  0  0  0  0  0  0  0
    4.5214    3.4353   -3.7513 C   0  0  0  0  0  0  0  0  0  0  0  0
    4.9236    2.4861   -4.6378 N   0  0  0  0  0  0  0  0  0  0  0  0
    3.9386    1.6104   -4.8895 N   0  0  0  0  0  0  0  0  0  0  0  0
    1.0605   -0.4145   -1.9938 C   0  0  0  0  0  0  0  0  0  0  0  0
   -2.4916   -1.1180    1.0806 C   0  0  0  0  0  0  0  0  0  0  0  0
   -3.0589   -0.6705    2.2780 C   0  0  0  0  0  0  0  0  0  0  0  0
   -3.6460    1.0445    4.4508 H   0  0  0  0  0  0  0  0  0  0  0  0
   -4.4393    0.2560    5.8197 H   0  0  0  0  0  0  0  0  0  0  0  0
   -5.0494   -0.0641    4.1917 H   0  0  0  0  0  0  0  0  0  0  0  0
   -1.6909   -2.9409    4.4069 H   0  0  0  0  0  0  0  0  0  0  0  0
   -0.6794   -3.7457    2.2950 H   0  0  0  0  0  0  0  0  0  0  0  0
    1.3313   -2.8491   -0.7318 H   0  0  0  0  0  0  0  0  0  0  0  0
    0.6494   -0.1491    1.3806 H   0  0  0  0  0  0  0  0  0  0  0  0
    0.9147    2.2472    0.8213 H   0  0  0  0  0  0  0  0  0  0  0  0
    1.8322    3.3610   -2.3130 H   0  0  0  0  0  0  0  0  0  0  0  0
    5.1587    4.2392   -3.4099 H   0  0  0  0  0  0  0  0  0  0  0  0
    5.8198    2.3760   -5.0998 H   0  0  0  0  0  0  0  0  0  0  0  0
    1.0616   -1.1665   -2.7796 H   0  0  0  0  0  0  0  0  0  0  0  0
   -2.7257   -0.6042    0.1501 H   0  0  0  0  0  0  0  0  0  0  0  0
   -3.7236    0.1866    2.2370 H   0  0  0  0  0  0  0  0  0  0  0  0
  1  2  1  0
  2  3  1  0
  3  4  2  0
  4  5  1  0
  5  6  2  0
  6  7  1  0
  7  8  2  0
  7  9  2  0
  7 10  1  0
 10 11  1  0
 11 12  2  0
 12 13  1  0
 13 14  2  0
 14 15  1  0
 14 16  1  0
 16 17  1  0
 17 18  1  0
 18 19  1  0
 19 20  2  0
 20 21  1  0
 21 22  1  0
 16 23  2  0
  6 24  1  0
 24 25  2  0
 25  3  1  0
 23 11  1  0
 22 18  2  0
  1 26  1  0
  1 27  1  0
  1 28  1  0
  4 29  1  0
  5 30  1  0
 10 31  1  0
 12 32  1  0
 13 33  1  0
 15 34  1  0
 20 35  1  0
 21 36  1  0
 23 37  1  0
 24 38  1  0
 25 39  1  0
M  END
$$$$
