
     RDKit          3D

 56 59  0  0  0  0  0  0  0  0999 V2000
    5.9293    5.0218   -1.7744 C   0  0  0  0  0  0  0  0  0  0  0  0
    5.1033    4.0250   -0.9811 C   0  0  0  0  0  0  0  0  0  0  0  0
    4.8820    2.8826   -1.8056 O   0  0  0  0  0  0  0  0  0  0  0  0
    4.1313    1.8698   -1.2756 C   0  0  0  0  0  0  0  0  0  0  0  0
    3.5927    1.8319    0.0104 C   0  0  0  0  0  0  0  0  0  0  0  0
    2.8403    0.7270    0.4271 C   0  0  0  0  0  0  0  0  0  0  0  0
    2.6236   -0.3514   -0.4371 C   0  0  0  0  0  0  0  0  0  0  0  0
    1.8343   -1.4971   -0.0028 C   0  0  0  0  0  0  0  0  0  0  0  0
    0.4574   -1.6424    0.1078 C   0  0  0  0  0  0  0  0  0  0  0  0
   -0.5941   -0.6640   -0.1626 C   0  0  0  0  0  0  0  0  0  0  0  0
   -0.3601    0.4923   -0.4997 O   0  0  0  0  0  0  0  0  0  0  0  0
   -1.8620   -1.2007    0.0193 N   0  0  0  0  0  0  0  0  0  0  0  0
   -2.9718   -0.4361   -0.1668 N   0  0  0  0  0  0  0  0  0  0  0  0
   -4.1389   -0.9623    0.0592 C   0  0  0  0  0  0  0  0  0  0  0  0
   -4.3808   -2.3839    0.5079 C   0  0  0  0  0  0  0  0  0  0  0  0
   -5.3405   -0.1234   -0.1443 C   0  0  0  0  0  0  0  0  0  0  0  0
   -6.2334   -0.4581   -1.1680 C   0  0  0  0  0  0  0  0  0  0  0  0
   -7.3723    0.3226   -1.3732 C   0  0  0  0  0  0  0  0  0  0  0  0
   -7.6206    1.4271   -0.5556 C   0  0  0  0  0  0  0  0  0  0  0  0
   -6.7284    1.7599    0.4659 C   0  0  0  0  0  0  0  0  0  0  0  0
   -5.5775    0.9944    0.6610 C   0  0  0  0  0  0  0  0  0  0  0  0
   -4.7449    1.2933    1.7065 O   0  0  0  0  0  0  0  0  0  0  0  0
   -3.8898    2.3860    1.3603 C   0  0  0  0  0  0  0  0  0  0  0  0
    0.1673   -2.9168    0.5251 N   0  0  0  0  0  0  0  0  0  0  0  0
    1.3025   -3.5701    0.6865 N   0  0  0  0  0  0  0  0  0  0  0  0
    2.3465   -2.7348    0.3972 N   0  0  0  0  0  0  0  0  0  0  0  0
    3.6915   -3.1612    0.5449 C   0  0  0  0  0  0  0  0  0  0  0  0
    4.7110   -2.3246    0.3505 N   0  0  0  0  0  0  0  0  0  0  0  0
    5.8413   -3.0969    0.6080 O   0  0  0  0  0  0  0  0  0  0  0  0
    5.4941   -4.3957    0.9650 N   0  0  0  0  0  0  0  0  0  0  0  0
    4.1632   -4.4340    0.9188 C   0  0  0  0  0  0  0  0  0  0  0  0
    3.4272   -5.5292    1.1897 N   0  0  0  0  0  0  0  0  0  0  0  0
    3.1559   -0.3075   -1.7292 C   0  0  0  0  0  0  0  0  0  0  0  0
    3.9083    0.7958   -2.1401 C   0  0  0  0  0  0  0  0  0  0  0  0
    6.8841    4.5783   -2.0759 H   0  0  0  0  0  0  0  0  0  0  0  0
    5.4075    5.3102   -2.6930 H   0  0  0  0  0  0  0  0  0  0  0  0
    6.1280    5.9207   -1.1842 H   0  0  0  0  0  0  0  0  0  0  0  0
    5.6565    3.7407   -0.0787 H   0  0  0  0  0  0  0  0  0  0  0  0
    4.1486    4.4892   -0.7080 H   0  0  0  0  0  0  0  0  0  0  0  0
    3.7325    2.6453    0.7139 H   0  0  0  0  0  0  0  0  0  0  0  0
    2.4198    0.7247    1.4299 H   0  0  0  0  0  0  0  0  0  0  0  0
   -1.9416   -2.1642    0.3253 H   0  0  0  0  0  0  0  0  0  0  0  0
   -4.0123   -3.0760   -0.2546 H   0  0  0  0  0  0  0  0  0  0  0  0
   -5.4447   -2.5780    0.6707 H   0  0  0  0  0  0  0  0  0  0  0  0
   -3.8557   -2.5648    1.4504 H   0  0  0  0  0  0  0  0  0  0  0  0
   -6.0421   -1.3116   -1.8127 H   0  0  0  0  0  0  0  0  0  0  0  0
   -8.0680    0.0709   -2.1703 H   0  0  0  0  0  0  0  0  0  0  0  0
   -8.5132    2.0284   -0.7114 H   0  0  0  0  0  0  0  0  0  0  0  0
   -6.9360    2.6077    1.1126 H   0  0  0  0  0  0  0  0  0  0  0  0
   -3.0866    2.4297    2.1019 H   0  0  0  0  0  0  0  0  0  0  0  0
   -4.4426    3.3304    1.4023 H   0  0  0  0  0  0  0  0  0  0  0  0
   -3.4339    2.2603    0.3720 H   0  0  0  0  0  0  0  0  0  0  0  0
    2.4234   -5.4625    1.3484 H   0  0  0  0  0  0  0  0  0  0  0  0
    3.8738   -6.3166    1.6484 H   0  0  0  0  0  0  0  0  0  0  0  0
    2.9933   -1.1235   -2.4285 H   0  0  0  0  0  0  0  0  0  0  0  0
    4.3211    0.8212   -3.1455 H   0  0  0  0  0  0  0  0  0  0  0  0
  1  2  1  0
  2  3  1  0
  3  4  1  0
  4  5  2  0
  5  6  1  0
  6  7  2  0
  7  8  1  0
  8  9  2  0
  9 10  1  0
 10 11  2  0
 10 12  1  0
 12 13  1  0
 13 14  2  3
 14 15  1  0
 14 16  1  0
 16 17  2  0
 17 18  1  0
 18 19  2  0
 19 20  1  0
 20 21  2  0
 21 22  1  0
 22 23  1  0
  9 24  1  0
 24 25  2  0
 25 26  1  0
 26 27  1  0
 27 28  2  0
 28 29  1  0
 29 30  1  0
 30 31  2  0
 31 32  1  0
  7 33  1  0
 33 34  2  0
 34  4  1  0
 26  8  1  0
 31 27  1  0
 21 16  1  0
  1 35  1  0
  1 36  1  0
  1 37  1  0
  2 38  1  0
  2 39  1  0
  5 40  1  0
  6 41  1  0
 12 42  1  0
 15 43  1  0
 15 44  1  0
 15 45  1  0
 17 46  1  0
 18 47  1  0
 19 48  1  0
 20 49  1  0
 23 50  1  0
 23 51  1  0
 23 52  1  0
 32 53  1  0
 32 54  1  0
 33 55  1  0
 34 56  1  0
M  END
$$$$
