
     RDKit          3D

 53 55  0  0  0  0  0  0  0  0999 V2000
    8.5840    1.7008    2.3812 C   0  0  0  0  0  0  0  0  0  0  0  0
    8.2839    1.1246    1.1166 O   0  0  0  0  0  0  0  0  0  0  0  0
    7.0537    0.5440    0.9750 C   0  0  0  0  0  0  0  0  0  0  0  0
    6.0615    0.4733    1.9560 C   0  0  0  0  0  0  0  0  0  0  0  0
    4.8401   -0.1481    1.6759 C   0  0  0  0  0  0  0  0  0  0  0  0
    4.6148   -0.6940    0.4092 C   0  0  0  0  0  0  0  0  0  0  0  0
    3.0595   -1.4759    0.0735 S   0  0  0  0  0  6  0  0  0  0  0  0
    3.0745   -1.9861   -1.2811 O   0  0  0  0  0  0  0  0  0  0  0  0
    2.7477   -2.3333    1.1962 O   0  0  0  0  0  0  0  0  0  0  0  0
    1.9837   -0.1758    0.1055 N   0  0  0  0  0  0  0  0  0  0  0  0
    2.1146    0.8426   -0.9572 C   0  0  0  0  0  0  0  0  0  0  0  0
    0.8393    0.6942   -1.7535 C   0  0  0  0  0  0  0  0  0  0  0  0
   -0.1248    0.3196   -0.7698 O   0  0  0  0  0  0  0  0  0  0  0  0
    0.5614   -0.5944    0.1044 C   0  0  0  0  0  0  0  0  0  0  0  0
   -0.0284   -0.5237    1.5287 C   0  0  0  0  0  0  0  0  0  0  0  0
   -1.4137   -0.9574    1.5940 N   0  0  0  0  0  0  0  0  0  0  0  0
   -2.4601   -0.0803    1.4202 C   0  0  0  0  0  0  0  0  0  0  0  0
   -2.3953    1.1407    1.3939 O   0  0  0  0  0  0  0  0  0  0  0  0
   -3.8248   -0.7804    1.2343 C   0  0  0  0  0  0  0  0  0  0  0  0
   -3.8863   -2.0011    1.2143 O   0  0  0  0  0  0  0  0  0  0  0  0
   -4.8700    0.0978    1.0816 N   0  0  0  0  0  0  0  0  0  0  0  0
   -6.2162   -0.3257    0.7800 C   0  0  0  0  0  0  0  0  0  0  0  0
   -6.6282   -0.1157   -0.6617 C   0  0  0  0  0  0  0  0  0  0  0  0
   -5.7020    0.2448   -1.6582 C   0  0  0  0  0  0  0  0  0  0  0  0
   -6.1005    0.4207   -2.9864 C   0  0  0  0  0  0  0  0  0  0  0  0
   -7.4304    0.2327   -3.3486 C   0  0  0  0  0  0  0  0  0  0  0  0
   -8.3639   -0.1339   -2.3820 C   0  0  0  0  0  0  0  0  0  0  0  0
   -7.9672   -0.3099   -1.0516 C   0  0  0  0  0  0  0  0  0  0  0  0
   -9.1863   -0.7771    0.0840 Cl  0  0  0  0  0  0  0  0  0  0  0  0
    5.6023   -0.6408   -0.5746 C   0  0  0  0  0  0  0  0  0  0  0  0
    6.8175   -0.0169   -0.2857 C   0  0  0  0  0  0  0  0  0  0  0  0
    9.5948    2.1164    2.3276 H   0  0  0  0  0  0  0  0  0  0  0  0
    8.5769    0.9436    3.1722 H   0  0  0  0  0  0  0  0  0  0  0  0
    7.8985    2.5224    2.6138 H   0  0  0  0  0  0  0  0  0  0  0  0
    6.2075    0.8882    2.9484 H   0  0  0  0  0  0  0  0  0  0  0  0
    4.0727   -0.2045    2.4454 H   0  0  0  0  0  0  0  0  0  0  0  0
    3.0021    0.7378   -1.5851 H   0  0  0  0  0  0  0  0  0  0  0  0
    2.1575    1.8227   -0.4688 H   0  0  0  0  0  0  0  0  0  0  0  0
    0.5366    1.6201   -2.2491 H   0  0  0  0  0  0  0  0  0  0  0  0
    0.9129   -0.1062   -2.4983 H   0  0  0  0  0  0  0  0  0  0  0  0
    0.4271   -1.5988   -0.3157 H   0  0  0  0  0  0  0  0  0  0  0  0
    0.0303    0.5050    1.9037 H   0  0  0  0  0  0  0  0  0  0  0  0
    0.5351   -1.1661    2.2124 H   0  0  0  0  0  0  0  0  0  0  0  0
   -1.6420   -1.9459    1.5161 H   0  0  0  0  0  0  0  0  0  0  0  0
   -4.6380    1.0873    1.0800 H   0  0  0  0  0  0  0  0  0  0  0  0
   -6.8604    0.2730    1.4337 H   0  0  0  0  0  0  0  0  0  0  0  0
   -6.3299   -1.3844    1.0388 H   0  0  0  0  0  0  0  0  0  0  0  0
   -4.6507    0.3907   -1.4194 H   0  0  0  0  0  0  0  0  0  0  0  0
   -5.3661    0.6998   -3.7387 H   0  0  0  0  0  0  0  0  0  0  0  0
   -7.7393    0.3655   -4.3822 H   0  0  0  0  0  0  0  0  0  0  0  0
   -9.4011   -0.2860   -2.6710 H   0  0  0  0  0  0  0  0  0  0  0  0
    5.4419   -1.0769   -1.5579 H   0  0  0  0  0  0  0  0  0  0  0  0
    7.5931    0.0310   -1.0475 H   0  0  0  0  0  0  0  0  0  0  0  0
  1  2  1  0
  2  3  1  0
  3  4  2  0
  4  5  1  0
  5  6  2  0
  6  7  1  0
  7  8  2  0
  7  9  2  0
  7 10  1  0
 10 11  1  0
 11 12  1  0
 12 13  1  0
 13 14  1  0
 14 15  1  0
 15 16  1  0
 16 17  1  0
 17 18  2  0
 17 19  1  0
 19 20  2  0
 19 21  1  0
 21 22  1  0
 22 23  1  0
 23 24  2  0
 24 25  1  0
 25 26  2  0
 26 27  1  0
 27 28  2  0
 28 29  1  0
  6 30  1  0
 30 31  2  0
 31  3  1  0
 14 10  1  0
 28 23  1  0
  1 32  1  0
  1 33  1  0
  1 34  1  0
  4 35  1  0
  5 36  1  0
 11 37  1  0
 11 38  1  0
 12 39  1  0
 12 40  1  0
 14 41  1  0
 15 42  1  0
 15 43  1  0
 16 44  1  0
 21 45  1  0
 22 46  1  0
 22 47  1  0
 24 48  1  0
 25 49  1  0
 26 50  1  0
 27 51  1  0
 30 52  1  0
 31 53  1  0
M  END
$$$$
