
     RDKit          3D

 34 36  0  0  0  0  0  0  0  0999 V2000
    4.7166    1.9374    0.8123 C   0  0  0  0  0  0  0  0  0  0  0  0
    4.5419    0.5925    0.3066 N   0  0  0  0  0  0  0  0  0  0  0  0
    5.6217   -0.2157    0.2388 N   0  0  0  0  0  0  0  0  0  0  0  0
    5.1334   -1.3482   -0.2648 C   0  0  0  0  0  0  0  0  0  0  0  0
    3.7506   -1.2730   -0.5008 C   0  0  0  0  0  0  0  0  0  0  0  0
    2.8325   -2.5282   -1.1767 Cl  0  0  0  0  0  0  0  0  0  0  0  0
    3.3663   -0.0043   -0.1028 C   0  0  0  0  0  0  0  0  0  0  0  0
    2.0803    0.6690   -0.1049 C   0  0  0  0  0  0  0  0  0  0  0  0
    2.0199    1.8934   -0.0806 O   0  0  0  0  0  0  0  0  0  0  0  0
    0.9928   -0.1834   -0.0814 N   0  0  0  0  0  0  0  0  0  0  0  0
   -0.3552    0.1542   -0.1263 C   0  0  0  0  0  0  0  0  0  0  0  0
   -0.8555    1.7577   -0.4695 S   0  0  0  0  0  0  0  0  0  0  0  0
   -2.4557    1.3057   -0.4146 C   0  0  0  0  0  0  0  0  0  0  0  0
   -2.6559   -0.0180   -0.1367 C   0  0  0  0  0  0  0  0  0  0  0  0
   -1.4304   -0.7258    0.0583 C   0  0  0  0  0  0  0  0  0  0  0  0
   -1.2291   -2.1353    0.3881 C   0  0  0  0  0  0  0  0  0  0  0  0
   -2.3309   -2.8493    0.7592 N   0  0  0  0  0  0  0  0  0  0  0  0
   -0.1256   -2.6744    0.3812 O   0  0  0  0  0  0  0  0  0  0  0  0
   -4.1116   -0.3273   -0.1346 C   0  0  0  0  0  0  0  0  0  0  0  0
   -4.7325    0.9387   -0.8020 C   0  0  0  0  0  0  0  0  0  0  0  0
   -3.6954    2.0861   -0.6305 C   0  0  0  0  0  0  0  0  0  0  0  0
    4.0096    2.1006    1.6291 H   0  0  0  0  0  0  0  0  0  0  0  0
    5.7365    2.0524    1.1900 H   0  0  0  0  0  0  0  0  0  0  0  0
    4.5485    2.6386   -0.0083 H   0  0  0  0  0  0  0  0  0  0  0  0
    5.8054   -2.1774   -0.4439 H   0  0  0  0  0  0  0  0  0  0  0  0
    1.1723   -1.1819    0.0251 H   0  0  0  0  0  0  0  0  0  0  0  0
   -3.1835   -2.3955    1.0448 H   0  0  0  0  0  0  0  0  0  0  0  0
   -2.1546   -3.7807    1.1112 H   0  0  0  0  0  0  0  0  0  0  0  0
   -4.3564   -1.2272   -0.7054 H   0  0  0  0  0  0  0  0  0  0  0  0
   -4.4788   -0.4326    0.8917 H   0  0  0  0  0  0  0  0  0  0  0  0
   -4.8748    0.7428   -1.8731 H   0  0  0  0  0  0  0  0  0  0  0  0
   -5.7104    1.1935   -0.3820 H   0  0  0  0  0  0  0  0  0  0  0  0
   -3.6595    2.7246   -1.5172 H   0  0  0  0  0  0  0  0  0  0  0  0
   -3.9327    2.6911    0.2506 H   0  0  0  0  0  0  0  0  0  0  0  0
  1  2  1  0
  2  3  1  0
  3  4  2  0
  4  5  1  0
  5  6  1  0
  5  7  2  0
  7  8  1  0
  8  9  2  0
  8 10  1  0
 10 11  1  0
 11 12  1  0
 12 13  1  0
 13 14  2  0
 14 15  1  0
 15 16  1  0
 16 17  1  0
 16 18  2  0
 14 19  1  0
 19 20  1  0
 20 21  1  0
  7  2  1  0
 15 11  2  0
 21 13  1  0
  1 22  1  0
  1 23  1  0
  1 24  1  0
  4 25  1  0
 10 26  1  0
 17 27  1  0
 17 28  1  0
 19 29  1  0
 19 30  1  0
 20 31  1  0
 20 32  1  0
 21 33  1  0
 21 34  1  0
M  END
$$$$
