
     RDKit          3D

 40 42  0  0  0  0  0  0  0  0999 V2000
   -6.1809    1.3290    0.1041 C   0  0  0  0  0  0  0  0  0  0  0  0
   -6.6737   -0.2999   -0.4251 S   0  0  0  0  0  6  0  0  0  0  0  0
   -7.9520   -0.5854    0.1920 O   0  0  0  0  0  0  0  0  0  0  0  0
   -6.4935   -0.3942   -1.8559 O   0  0  0  0  0  0  0  0  0  0  0  0
   -5.5633   -1.2855    0.3645 N   0  0  0  0  0  0  0  0  0  0  0  0
   -4.1677   -1.1552    0.1233 C   0  0  0  0  0  0  0  0  0  0  0  0
   -3.6298   -1.2559   -1.1590 C   0  0  0  0  0  0  0  0  0  0  0  0
   -2.2505   -1.1339   -1.3535 C   0  0  0  0  0  0  0  0  0  0  0  0
   -1.4015   -0.9077   -0.2643 C   0  0  0  0  0  0  0  0  0  0  0  0
    0.0640   -0.7932   -0.5131 C   0  0  0  0  0  0  0  0  0  0  0  0
    0.5508   -1.4680   -1.4109 O   0  0  0  0  0  0  0  0  0  0  0  0
    0.7211    0.1155    0.2968 N   0  0  0  0  0  0  0  0  0  0  0  0
    2.1042    0.3985    0.3173 C   0  0  0  0  0  0  0  0  0  0  0  0
    2.5295    1.4315    1.1662 C   0  0  0  0  0  0  0  0  0  0  0  0
    3.8824    1.7700    1.2590 C   0  0  0  0  0  0  0  0  0  0  0  0
    4.8222    1.0734    0.5074 C   0  0  0  0  0  0  0  0  0  0  0  0
    4.4060    0.0585   -0.3579 C   0  0  0  0  0  0  0  0  0  0  0  0
    3.0548   -0.2885   -0.4413 C   0  0  0  0  0  0  0  0  0  0  0  0
    5.2742   -0.6499   -1.1509 O   0  0  0  0  0  0  0  0  0  0  0  0
    6.5420    0.0066   -1.2533 C   0  0  0  0  0  0  0  0  0  0  0  0
    7.0203    0.4596    0.1160 C   0  0  0  0  0  0  0  0  0  0  0  0
    6.1332    1.4424    0.6634 O   0  0  0  0  0  0  0  0  0  0  0  0
   -1.9387   -0.8379    1.0274 C   0  0  0  0  0  0  0  0  0  0  0  0
   -3.3194   -0.9627    1.2174 C   0  0  0  0  0  0  0  0  0  0  0  0
   -6.1795    1.3625    1.1952 H   0  0  0  0  0  0  0  0  0  0  0  0
   -6.9118    2.0413   -0.2856 H   0  0  0  0  0  0  0  0  0  0  0  0
   -5.1940    1.5591   -0.3003 H   0  0  0  0  0  0  0  0  0  0  0  0
   -5.8666   -1.5404    1.3039 H   0  0  0  0  0  0  0  0  0  0  0  0
   -4.2645   -1.4557   -2.0194 H   0  0  0  0  0  0  0  0  0  0  0  0
   -1.8400   -1.2252   -2.3581 H   0  0  0  0  0  0  0  0  0  0  0  0
    0.1495    0.6951    0.8961 H   0  0  0  0  0  0  0  0  0  0  0  0
    1.8167    1.9880    1.7689 H   0  0  0  0  0  0  0  0  0  0  0  0
    4.2025    2.5676    1.9235 H   0  0  0  0  0  0  0  0  0  0  0  0
    2.7777   -1.0951   -1.1121 H   0  0  0  0  0  0  0  0  0  0  0  0
    6.4431    0.8524   -1.9450 H   0  0  0  0  0  0  0  0  0  0  0  0
    7.2512   -0.7064   -1.6853 H   0  0  0  0  0  0  0  0  0  0  0  0
    8.0124    0.9152    0.0389 H   0  0  0  0  0  0  0  0  0  0  0  0
    7.0837   -0.3813    0.8177 H   0  0  0  0  0  0  0  0  0  0  0  0
   -1.2953   -0.7259    1.8962 H   0  0  0  0  0  0  0  0  0  0  0  0
   -3.7188   -0.9180    2.2273 H   0  0  0  0  0  0  0  0  0  0  0  0
  1  2  1  0
  2  3  2  0
  2  4  2  0
  2  5  1  0
  5  6  1  0
  6  7  2  0
  7  8  1  0
  8  9  2  0
  9 10  1  0
 10 11  2  0
 10 12  1  0
 12 13  1  0
 13 14  2  0
 14 15  1  0
 15 16  2  0
 16 17  1  0
 17 18  2  0
 17 19  1  0
 19 20  1  0
 20 21  1  0
 21 22  1  0
  9 23  1  0
 23 24  2  0
 24  6  1  0
 18 13  1  0
 22 16  1  0
  1 25  1  0
  1 26  1  0
  1 27  1  0
  5 28  1  0
  7 29  1  0
  8 30  1  0
 12 31  1  0
 14 32  1  0
 15 33  1  0
 18 34  1  0
 20 35  1  0
 20 36  1  0
 21 37  1  0
 21 38  1  0
 23 39  1  0
 24 40  1  0
M  END
$$$$
