
     RDKit          3D

 58 63  0  0  0  0  0  0  0  0999 V2000
    6.3379    0.3586    4.0866 C   0  0  0  0  0  0  0  0  0  0  0  0
    5.6188   -0.1387    2.8797 C   0  0  0  0  0  0  0  0  0  0  0  0
    5.2295   -1.4279    2.5830 C   0  0  0  0  0  0  0  0  0  0  0  0
    4.5758   -1.5155    1.3192 C   0  0  0  0  0  0  0  0  0  0  0  0
    4.4680   -0.2868    0.6967 C   0  0  0  0  0  0  0  0  0  0  0  0
    3.8843    0.0521   -0.5931 C   0  0  0  0  0  0  0  0  0  0  0  0
    4.5053    0.7028   -1.4340 O   0  0  0  0  0  0  0  0  0  0  0  0
    2.5753   -0.3922   -0.8491 N   0  0  0  0  0  0  0  0  0  0  0  0
    1.9737   -0.0975   -2.1423 C   0  0  0  0  0  0  0  0  0  0  0  0
    0.8648    0.9367   -1.9774 C   0  0  0  0  0  0  0  0  0  0  0  0
   -0.2141    0.5189   -0.9204 C   0  0  0  0  0  0  0  0  0  0  0  0
    0.1976   -0.8233   -0.2545 C   0  0  0  0  0  0  0  0  0  0  0  0
    1.6557   -0.8032    0.2083 C   0  0  0  0  0  0  0  0  0  0  0  0
   -0.2101    1.4783    0.1715 O   0  0  0  0  0  0  0  0  0  0  0  0
   -0.7527    2.7016   -0.1060 C   0  0  0  0  0  0  0  0  0  0  0  0
   -0.4005    3.7393    0.7561 C   0  0  0  0  0  0  0  0  0  0  0  0
   -0.8907    5.0282    0.5340 C   0  0  0  0  0  0  0  0  0  0  0  0
   -1.7375    5.2731   -0.5474 C   0  0  0  0  0  0  0  0  0  0  0  0
   -2.3391    6.8616   -0.8156 Cl  0  0  0  0  0  0  0  0  0  0  0  0
   -2.1059    4.2397   -1.4051 C   0  0  0  0  0  0  0  0  0  0  0  0
   -1.6149    2.9509   -1.1726 C   0  0  0  0  0  0  0  0  0  0  0  0
   -2.0247    1.8279   -2.0371 C   0  0  0  0  0  0  0  0  0  0  0  0
   -2.6785    2.0498   -3.0508 O   0  0  0  0  0  0  0  0  0  0  0  0
   -1.6376    0.4378   -1.5422 C   0  0  0  0  0  0  0  0  0  0  0  0
   -2.7501   -0.0442   -0.6183 C   0  0  0  0  0  0  0  0  0  0  0  0
   -2.8988   -1.4358   -1.1265 C   0  0  0  0  0  0  0  0  0  0  0  0
   -3.6982   -2.4534   -0.4058 C   0  0  0  0  0  0  0  0  0  0  0  0
   -4.4615   -2.1217    0.7196 C   0  0  0  0  0  0  0  0  0  0  0  0
   -5.1999   -3.1084    1.3787 C   0  0  0  0  0  0  0  0  0  0  0  0
   -5.1793   -4.4244    0.9184 C   0  0  0  0  0  0  0  0  0  0  0  0
   -4.4244   -4.7585   -0.2047 C   0  0  0  0  0  0  0  0  0  0  0  0
   -3.6856   -3.7759   -0.8665 C   0  0  0  0  0  0  0  0  0  0  0  0
   -2.2756   -1.6779   -2.2349 N   0  0  0  0  0  0  0  0  0  0  0  0
   -1.6418   -0.4813   -2.6405 O   0  0  0  0  0  0  0  0  0  0  0  0
    5.2020    0.9494    1.6265 S   0  0  0  0  0  0  0  0  0  0  0  0
    5.8510    1.2488    4.4990 H   0  0  0  0  0  0  0  0  0  0  0  0
    6.3550   -0.4050    4.8717 H   0  0  0  0  0  0  0  0  0  0  0  0
    7.3747    0.6094    3.8377 H   0  0  0  0  0  0  0  0  0  0  0  0
    5.4166   -2.2738    3.2340 H   0  0  0  0  0  0  0  0  0  0  0  0
    4.2153   -2.4393    0.8826 H   0  0  0  0  0  0  0  0  0  0  0  0
    2.7184    0.2679   -2.8564 H   0  0  0  0  0  0  0  0  0  0  0  0
    1.5804   -1.0337   -2.5554 H   0  0  0  0  0  0  0  0  0  0  0  0
    0.4139    1.1008   -2.9629 H   0  0  0  0  0  0  0  0  0  0  0  0
    1.3284    1.8885   -1.6876 H   0  0  0  0  0  0  0  0  0  0  0  0
   -0.4249   -1.0315    0.6235 H   0  0  0  0  0  0  0  0  0  0  0  0
    0.0656   -1.6592   -0.9505 H   0  0  0  0  0  0  0  0  0  0  0  0
    1.9374   -1.8082    0.5379 H   0  0  0  0  0  0  0  0  0  0  0  0
    1.7717   -0.1230    1.0604 H   0  0  0  0  0  0  0  0  0  0  0  0
    0.2697    3.5515    1.5918 H   0  0  0  0  0  0  0  0  0  0  0  0
   -0.6030    5.8359    1.2026 H   0  0  0  0  0  0  0  0  0  0  0  0
   -2.7731    4.4314   -2.2429 H   0  0  0  0  0  0  0  0  0  0  0  0
   -2.4879   -0.0068    0.4413 H   0  0  0  0  0  0  0  0  0  0  0  0
   -3.6973    0.4847   -0.7727 H   0  0  0  0  0  0  0  0  0  0  0  0
   -4.5084   -1.1050    1.0974 H   0  0  0  0  0  0  0  0  0  0  0  0
   -5.7968   -2.8502    2.2506 H   0  0  0  0  0  0  0  0  0  0  0  0
   -5.7573   -5.1899    1.4311 H   0  0  0  0  0  0  0  0  0  0  0  0
   -4.4126   -5.7829   -0.5690 H   0  0  0  0  0  0  0  0  0  0  0  0
   -3.1042   -4.0501   -1.7449 H   0  0  0  0  0  0  0  0  0  0  0  0
  1  2  1  0
  2  3  2  0
  3  4  1  0
  4  5  2  0
  5  6  1  0
  6  7  2  0
  6  8  1  0
  8  9  1  0
  9 10  1  0
 10 11  1  0
 11 12  1  0
 12 13  1  0
 11 14  1  0
 14 15  1  0
 15 16  2  0
 16 17  1  0
 17 18  2  0
 18 19  1  0
 18 20  1  0
 20 21  2  0
 21 22  1  0
 22 23  2  0
 22 24  1  0
 24 25  1  0
 25 26  1  0
 26 27  1  0
 27 28  2  0
 28 29  1  0
 29 30  2  0
 30 31  1  0
 31 32  2  0
 26 33  2  0
 33 34  1  0
  5 35  1  0
 35  2  1  0
 13  8  1  0
 21 15  1  0
 34 24  1  0
 24 11  1  0
 32 27  1  0
  1 36  1  0
  1 37  1  0
  1 38  1  0
  3 39  1  0
  4 40  1  0
  9 41  1  0
  9 42  1  0
 10 43  1  0
 10 44  1  0
 12 45  1  0
 12 46  1  0
 13 47  1  0
 13 48  1  0
 16 49  1  0
 17 50  1  0
 20 51  1  0
 25 52  1  0
 25 53  1  0
 28 54  1  0
 29 55  1  0
 30 56  1  0
 31 57  1  0
 32 58  1  0
M  END
$$$$
