
     RDKit          3D

 41 42  0  0  0  0  0  0  0  0999 V2000
    7.0961   -0.7282    0.4893 C   0  0  0  0  0  0  0  0  0  0  0  0
    5.7390   -0.2884    0.5534 O   0  0  0  0  0  0  0  0  0  0  0  0
    5.1539   -0.1164   -0.6636 C   0  0  0  0  0  0  0  0  0  0  0  0
    5.7147   -0.3224   -1.7326 O   0  0  0  0  0  0  0  0  0  0  0  0
    3.7662    0.2913   -0.5243 C   0  0  0  0  0  0  0  0  0  0  0  0
    2.8220    0.2466   -1.5397 C   0  0  0  0  0  0  0  0  0  0  0  0
    1.5801    0.6484   -1.0129 C   0  0  0  0  0  0  0  0  0  0  0  0
    1.7573    0.9471    0.3289 C   0  0  0  0  0  0  0  0  0  0  0  0
    0.5804    1.4558    1.5682 S   0  0  0  0  0  6  0  0  0  0  0  0
    0.7066    2.8933    1.5903 O   0  0  0  0  0  0  0  0  0  0  0  0
    0.8637    0.6223    2.7128 O   0  0  0  0  0  0  0  0  0  0  0  0
   -0.9436    1.0856    0.9845 N   0  0  0  0  0  0  0  0  0  0  0  0
   -1.2996   -0.3356    0.9437 C   0  0  0  0  0  0  0  0  0  0  0  0
   -2.6050   -0.5377    0.2136 C   0  0  0  0  0  0  0  0  0  0  0  0
   -3.8050   -0.0734    0.7703 C   0  0  0  0  0  0  0  0  0  0  0  0
   -5.0195   -0.2390    0.0953 C   0  0  0  0  0  0  0  0  0  0  0  0
   -5.0493   -0.8694   -1.1480 C   0  0  0  0  0  0  0  0  0  0  0  0
   -6.1614   -1.0941   -1.9112 O   0  0  0  0  0  0  0  0  0  0  0  0
   -7.4047   -0.6529   -1.3802 C   0  0  0  0  0  0  0  0  0  0  0  0
   -3.8550   -1.3292   -1.7077 C   0  0  0  0  0  0  0  0  0  0  0  0
   -2.6404   -1.1652   -1.0369 C   0  0  0  0  0  0  0  0  0  0  0  0
    3.1147    0.8101    0.5879 N   0  0  0  0  0  0  0  0  0  0  0  0
    3.7595    1.1994    1.8293 C   0  0  0  0  0  0  0  0  0  0  0  0
    7.7145    0.0088   -0.0325 H   0  0  0  0  0  0  0  0  0  0  0  0
    7.1600   -1.7059    0.0013 H   0  0  0  0  0  0  0  0  0  0  0  0
    7.4676   -0.8280    1.5129 H   0  0  0  0  0  0  0  0  0  0  0  0
    3.0223   -0.0777   -2.5550 H   0  0  0  0  0  0  0  0  0  0  0  0
    0.6412    0.6982   -1.5489 H   0  0  0  0  0  0  0  0  0  0  0  0
   -1.1708    1.6135    0.1434 H   0  0  0  0  0  0  0  0  0  0  0  0
   -0.5141   -0.9128    0.4446 H   0  0  0  0  0  0  0  0  0  0  0  0
   -1.3995   -0.7270    1.9625 H   0  0  0  0  0  0  0  0  0  0  0  0
   -3.7974    0.4277    1.7372 H   0  0  0  0  0  0  0  0  0  0  0  0
   -5.9201    0.1379    0.5684 H   0  0  0  0  0  0  0  0  0  0  0  0
   -8.1863   -0.9100   -2.1017 H   0  0  0  0  0  0  0  0  0  0  0  0
   -7.4152    0.4345   -1.2515 H   0  0  0  0  0  0  0  0  0  0  0  0
   -7.6373   -1.1653   -0.4408 H   0  0  0  0  0  0  0  0  0  0  0  0
   -3.8727   -1.8213   -2.6775 H   0  0  0  0  0  0  0  0  0  0  0  0
   -1.7291   -1.5351   -1.5012 H   0  0  0  0  0  0  0  0  0  0  0  0
    3.1614    1.9460    2.3531 H   0  0  0  0  0  0  0  0  0  0  0  0
    3.8821    0.3061    2.4460 H   0  0  0  0  0  0  0  0  0  0  0  0
    4.7227    1.6626    1.6016 H   0  0  0  0  0  0  0  0  0  0  0  0
  1  2  1  0
  2  3  1  0
  3  4  2  0
  3  5  1  0
  5  6  2  0
  6  7  1  0
  7  8  2  0
  8  9  1  0
  9 10  2  0
  9 11  2  0
  9 12  1  0
 12 13  1  0
 13 14  1  0
 14 15  2  0
 15 16  1  0
 16 17  2  0
 17 18  1  0
 18 19  1  0
 17 20  1  0
 20 21  2  0
  8 22  1  0
 22 23  1  0
 22  5  1  0
 21 14  1  0
  1 24  1  0
  1 25  1  0
  1 26  1  0
  6 27  1  0
  7 28  1  0
 12 29  1  0
 13 30  1  0
 13 31  1  0
 15 32  1  0
 16 33  1  0
 19 34  1  0
 19 35  1  0
 19 36  1  0
 20 37  1  0
 21 38  1  0
 23 39  1  0
 23 40  1  0
 23 41  1  0
M  END
$$$$
