
     RDKit          3D

 44 45  0  0  0  0  0  0  0  0999 V2000
   -5.2960    0.2557    2.8051 C   0  0  0  0  0  0  0  0  0  0  0  0
   -6.2917    0.2163    1.6530 C   0  0  0  0  0  0  0  0  0  0  0  0
   -5.8779    1.1218    0.4939 C   0  0  0  0  0  0  0  0  0  0  0  0
   -4.6057    0.7220   -0.0375 O   0  0  0  0  0  0  0  0  0  0  0  0
   -4.6399   -0.2284   -1.0039 C   0  0  0  0  0  0  0  0  0  0  0  0
   -5.6448   -0.7375   -1.4761 O   0  0  0  0  0  0  0  0  0  0  0  0
   -3.2657   -0.5858   -1.4462 C   0  0  0  0  0  0  0  0  0  0  0  0
   -3.1360   -1.3635   -2.6042 C   0  0  0  0  0  0  0  0  0  0  0  0
   -1.8741   -1.7420   -3.0557 C   0  0  0  0  0  0  0  0  0  0  0  0
   -0.7385   -1.3522   -2.3460 C   0  0  0  0  0  0  0  0  0  0  0  0
   -0.8511   -0.5817   -1.1789 C   0  0  0  0  0  0  0  0  0  0  0  0
    0.3478   -0.2575   -0.5191 N   0  0  0  0  0  0  0  0  0  0  0  0
    0.5207    0.4692    0.6460 C   0  0  0  0  0  0  0  0  0  0  0  0
   -0.3621    0.9847    1.3241 O   0  0  0  0  0  0  0  0  0  0  0  0
    1.9880    0.5460    1.0823 C   0  0  0  0  0  0  0  0  0  0  0  0
    2.8550    0.1700    0.0128 O   0  0  0  0  0  0  0  0  0  0  0  0
    4.1999    0.2233    0.2544 C   0  0  0  0  0  0  0  0  0  0  0  0
    4.8030    0.4102    1.5015 C   0  0  0  0  0  0  0  0  0  0  0  0
    6.1998    0.4262    1.6126 C   0  0  0  0  0  0  0  0  0  0  0  0
    6.9912    0.2590    0.4677 C   0  0  0  0  0  0  0  0  0  0  0  0
    8.4547    0.2709    0.5836 N   0  0  0  0  0  4  0  0  0  0  0  0
    8.9412    0.2726    1.7246 O   0  0  0  0  0  0  0  0  0  0  0  0
    9.1149    0.2758   -0.4647 O   0  0  0  0  0  1  0  0  0  0  0  0
    6.3946    0.0765   -0.7838 C   0  0  0  0  0  0  0  0  0  0  0  0
    5.0002    0.0563   -0.8807 C   0  0  0  0  0  0  0  0  0  0  0  0
   -2.1190   -0.1963   -0.7344 C   0  0  0  0  0  0  0  0  0  0  0  0
   -4.3099   -0.0990    2.4900 H   0  0  0  0  0  0  0  0  0  0  0  0
   -5.1870    1.2732    3.1955 H   0  0  0  0  0  0  0  0  0  0  0  0
   -5.6398   -0.3867    3.6233 H   0  0  0  0  0  0  0  0  0  0  0  0
   -6.3751   -0.8202    1.3047 H   0  0  0  0  0  0  0  0  0  0  0  0
   -7.2775    0.5232    2.0186 H   0  0  0  0  0  0  0  0  0  0  0  0
   -6.6462    1.1271   -0.2889 H   0  0  0  0  0  0  0  0  0  0  0  0
   -5.7777    2.1567    0.8371 H   0  0  0  0  0  0  0  0  0  0  0  0
   -4.0199   -1.6775   -3.1569 H   0  0  0  0  0  0  0  0  0  0  0  0
   -1.7764   -2.3479   -3.9541 H   0  0  0  0  0  0  0  0  0  0  0  0
    0.2360   -1.6687   -2.7152 H   0  0  0  0  0  0  0  0  0  0  0  0
    1.2115   -0.5863   -0.9407 H   0  0  0  0  0  0  0  0  0  0  0  0
    2.1906    1.5804    1.3817 H   0  0  0  0  0  0  0  0  0  0  0  0
    2.1014   -0.1424    1.9275 H   0  0  0  0  0  0  0  0  0  0  0  0
    4.2192    0.5370    2.4115 H   0  0  0  0  0  0  0  0  0  0  0  0
    6.6518    0.5656    2.5936 H   0  0  0  0  0  0  0  0  0  0  0  0
    6.9922   -0.0528   -1.6844 H   0  0  0  0  0  0  0  0  0  0  0  0
    4.5347   -0.0869   -1.8552 H   0  0  0  0  0  0  0  0  0  0  0  0
   -2.2363    0.3936    0.1691 H   0  0  0  0  0  0  0  0  0  0  0  0
  1  2  1  0
  2  3  1  0
  3  4  1  0
  4  5  1  0
  5  6  2  0
  5  7  1  0
  7  8  2  0
  8  9  1  0
  9 10  2  0
 10 11  1  0
 11 12  1  0
 12 13  1  0
 13 14  2  0
 13 15  1  0
 15 16  1  0
 16 17  1  0
 17 18  2  0
 18 19  1  0
 19 20  2  0
 20 21  1  0
 21 22  2  0
 21 23  1  0
 20 24  1  0
 24 25  2  0
 11 26  2  0
 26  7  1  0
 25 17  1  0
  1 27  1  0
  1 28  1  0
  1 29  1  0
  2 30  1  0
  2 31  1  0
  3 32  1  0
  3 33  1  0
  8 34  1  0
  9 35  1  0
 10 36  1  0
 12 37  1  0
 15 38  1  0
 15 39  1  0
 18 40  1  0
 19 41  1  0
 24 42  1  0
 25 43  1  0
 26 44  1  0
M  CHG  2  21   1  23  -1
M  END
$$$$
