
     RDKit          3D

 36 38  0  0  0  0  0  0  0  0999 V2000
   -5.1648   -0.7532   -0.7727 C   0  0  0  0  0  0  0  0  0  0  0  0
   -4.0278    0.1632   -0.4184 C   0  0  0  0  0  0  0  0  0  0  0  0
   -4.2939    1.4285    0.1354 C   0  0  0  0  0  0  0  0  0  0  0  0
   -3.2525    2.2805    0.5044 C   0  0  0  0  0  0  0  0  0  0  0  0
   -1.9484    1.8484    0.3210 C   0  0  0  0  0  0  0  0  0  0  0  0
   -1.6506    0.5838   -0.2270 C   0  0  0  0  0  0  0  0  0  0  0  0
   -2.6983   -0.2626   -0.5847 C   0  0  0  0  0  0  0  0  0  0  0  0
   -0.2516    0.2945   -0.3279 N   0  0  0  0  0  0  0  0  0  0  0  0
    0.0844   -0.4051   -1.5725 C   0  0  0  0  0  0  0  0  0  0  0  0
    0.4923    1.3753    0.1738 C   0  0  0  0  0  0  0  0  0  0  0  0
    1.8138    1.4449    0.4174 C   0  0  0  0  0  0  0  0  0  0  0  0
    2.7694    0.3497    0.2637 C   0  0  0  0  0  0  0  0  0  0  0  0
    3.7924    0.4761   -0.6852 C   0  0  0  0  0  0  0  0  0  0  0  0
    4.7051   -0.5542   -0.8682 C   0  0  0  0  0  0  0  0  0  0  0  0
    4.5904   -1.7005   -0.0990 C   0  0  0  0  0  0  0  0  0  0  0  0
    3.5763   -1.7892    0.8458 C   0  0  0  0  0  0  0  0  0  0  0  0
    2.6957   -0.7757    1.0296 N   0  0  0  0  0  4  0  0  0  0  0  0
    1.6724   -0.9302    2.0877 C   0  0  0  0  0  0  0  0  0  0  0  0
   -0.4762    2.7768    0.7003 S   0  0  0  0  0  0  0  0  0  0  0  0
   -5.4300   -1.3701    0.0913 H   0  0  0  0  0  0  0  0  0  0  0  0
   -6.0450   -0.1811   -1.0842 H   0  0  0  0  0  0  0  0  0  0  0  0
   -4.8921   -1.4085   -1.6065 H   0  0  0  0  0  0  0  0  0  0  0  0
   -5.3225    1.7561    0.2803 H   0  0  0  0  0  0  0  0  0  0  0  0
   -3.4660    3.2592    0.9232 H   0  0  0  0  0  0  0  0  0  0  0  0
   -2.5088   -1.2558   -0.9787 H   0  0  0  0  0  0  0  0  0  0  0  0
    1.1618   -0.5568   -1.6734 H   0  0  0  0  0  0  0  0  0  0  0  0
   -0.2489    0.1622   -2.4497 H   0  0  0  0  0  0  0  0  0  0  0  0
   -0.3624   -1.4046   -1.5989 H   0  0  0  0  0  0  0  0  0  0  0  0
    2.2507    2.3627    0.8089 H   0  0  0  0  0  0  0  0  0  0  0  0
    3.8729    1.3755   -1.2946 H   0  0  0  0  0  0  0  0  0  0  0  0
    5.4980   -0.4629   -1.6094 H   0  0  0  0  0  0  0  0  0  0  0  0
    5.2930   -2.5213   -0.2297 H   0  0  0  0  0  0  0  0  0  0  0  0
    3.4649   -2.6736    1.4680 H   0  0  0  0  0  0  0  0  0  0  0  0
    2.0356   -1.6424    2.8345 H   0  0  0  0  0  0  0  0  0  0  0  0
    0.7627   -1.3158    1.6239 H   0  0  0  0  0  0  0  0  0  0  0  0
    1.5075    0.0262    2.5882 H   0  0  0  0  0  0  0  0  0  0  0  0
  1  2  1  0
  2  3  2  0
  3  4  1  0
  4  5  2  0
  5  6  1  0
  6  7  2  0
  6  8  1  0
  8  9  1  0
  8 10  1  0
 10 11  2  3
 11 12  1  0
 12 13  2  0
 13 14  1  0
 14 15  2  0
 15 16  1  0
 16 17  2  0
 17 18  1  0
 10 19  1  0
  7  2  1  0
 17 12  1  0
 19  5  1  0
  1 20  1  0
  1 21  1  0
  1 22  1  0
  3 23  1  0
  4 24  1  0
  7 25  1  0
  9 26  1  0
  9 27  1  0
  9 28  1  0
 11 29  1  0
 13 30  1  0
 14 31  1  0
 15 32  1  0
 16 33  1  0
 18 34  1  0
 18 35  1  0
 18 36  1  0
M  CHG  1  17   1
M  END
$$$$
