
     RDKit          3D

 47 49  0  0  0  0  0  0  0  0999 V2000
    8.3597    0.0279    1.4337 C   0  0  0  0  0  0  0  0  0  0  0  0
    7.5058   -0.5052    0.2935 C   0  0  0  0  0  0  0  0  0  0  0  0
    6.0376   -0.2534    0.5265 C   0  0  0  0  0  0  0  0  0  0  0  0
    5.2580   -1.1876    1.2206 C   0  0  0  0  0  0  0  0  0  0  0  0
    3.9028   -0.9425    1.4543 C   0  0  0  0  0  0  0  0  0  0  0  0
    3.3070    0.2327    0.9929 C   0  0  0  0  0  0  0  0  0  0  0  0
    1.9452    0.4701    1.2154 N   0  0  0  0  0  0  0  0  0  0  0  0
    1.0934    0.0754    0.3334 C   0  0  0  0  0  0  0  0  0  0  0  0
    1.3485   -0.5718   -0.8341 N   0  0  0  0  0  0  0  0  0  0  0  0
    0.2832   -0.9013   -1.6196 C   0  0  0  0  0  0  0  0  0  0  0  0
    0.3608   -1.4804   -2.6914 O   0  0  0  0  0  0  0  0  0  0  0  0
   -0.9796   -0.4500   -0.9734 C   0  0  0  0  0  0  0  0  0  0  0  0
   -2.1729   -0.6407   -1.5520 C   0  0  0  0  0  0  0  0  0  0  0  0
   -3.4776   -0.2238   -1.0210 C   0  0  0  0  0  0  0  0  0  0  0  0
   -3.9576   -0.7183    0.2008 C   0  0  0  0  0  0  0  0  0  0  0  0
   -5.2071   -0.3209    0.6732 C   0  0  0  0  0  0  0  0  0  0  0  0
   -5.7880   -0.7201    1.8513 O   0  0  0  0  0  0  0  0  0  0  0  0
   -4.9941   -1.5273    2.7136 C   0  0  0  0  0  0  0  0  0  0  0  0
   -5.9789    0.5597   -0.0988 C   0  0  0  0  0  0  0  0  0  0  0  0
   -7.2133    0.9402    0.3729 O   0  0  0  0  0  0  0  0  0  0  0  0
   -5.5255    1.0549   -1.3269 C   0  0  0  0  0  0  0  0  0  0  0  0
   -6.3701    1.9047   -1.9898 O   0  0  0  0  0  0  0  0  0  0  0  0
   -5.9226    2.4476   -3.2230 C   0  0  0  0  0  0  0  0  0  0  0  0
   -4.2680    0.6520   -1.7827 C   0  0  0  0  0  0  0  0  0  0  0  0
   -0.6229    0.3282    0.5242 S   0  0  0  0  0  0  0  0  0  0  0  0
    4.0873    1.1778    0.3245 C   0  0  0  0  0  0  0  0  0  0  0  0
    5.4429    0.9368    0.0887 C   0  0  0  0  0  0  0  0  0  0  0  0
    8.0964   -0.4489    2.3839 H   0  0  0  0  0  0  0  0  0  0  0  0
    8.2319    1.1091    1.5539 H   0  0  0  0  0  0  0  0  0  0  0  0
    9.4184   -0.1687    1.2375 H   0  0  0  0  0  0  0  0  0  0  0  0
    7.6802   -1.5812    0.1713 H   0  0  0  0  0  0  0  0  0  0  0  0
    7.8144   -0.0391   -0.6502 H   0  0  0  0  0  0  0  0  0  0  0  0
    5.7038   -2.1075    1.5927 H   0  0  0  0  0  0  0  0  0  0  0  0
    3.3104   -1.6680    2.0054 H   0  0  0  0  0  0  0  0  0  0  0  0
    2.2838   -0.8068   -1.1259 H   0  0  0  0  0  0  0  0  0  0  0  0
   -2.2191   -1.1284   -2.5256 H   0  0  0  0  0  0  0  0  0  0  0  0
   -3.3427   -1.4145    0.7615 H   0  0  0  0  0  0  0  0  0  0  0  0
   -4.0730   -1.0109    3.0038 H   0  0  0  0  0  0  0  0  0  0  0  0
   -4.7776   -2.4972    2.2539 H   0  0  0  0  0  0  0  0  0  0  0  0
   -5.5729   -1.7124    3.6236 H   0  0  0  0  0  0  0  0  0  0  0  0
   -7.3129    0.4813    1.2278 H   0  0  0  0  0  0  0  0  0  0  0  0
   -5.7650    1.6598   -3.9669 H   0  0  0  0  0  0  0  0  0  0  0  0
   -5.0179    3.0490   -3.0855 H   0  0  0  0  0  0  0  0  0  0  0  0
   -6.7072    3.1098   -3.6019 H   0  0  0  0  0  0  0  0  0  0  0  0
   -3.8782    1.0105   -2.7302 H   0  0  0  0  0  0  0  0  0  0  0  0
    3.6391    2.1105   -0.0077 H   0  0  0  0  0  0  0  0  0  0  0  0
    6.0340    1.6887   -0.4298 H   0  0  0  0  0  0  0  0  0  0  0  0
  1  2  1  0
  2  3  1  0
  3  4  2  0
  4  5  1  0
  5  6  2  0
  6  7  1  0
  7  8  2  3
  8  9  1  0
  9 10  1  0
 10 11  2  0
 10 12  1  0
 12 13  2  3
 13 14  1  0
 14 15  2  0
 15 16  1  0
 16 17  1  0
 17 18  1  0
 16 19  2  0
 19 20  1  0
 19 21  1  0
 21 22  1  0
 22 23  1  0
 21 24  2  0
 12 25  1  0
  6 26  1  0
 26 27  2  0
 27  3  1  0
 25  8  1  0
 24 14  1  0
  1 28  1  0
  1 29  1  0
  1 30  1  0
  2 31  1  0
  2 32  1  0
  4 33  1  0
  5 34  1  0
  9 35  1  0
 13 36  1  0
 15 37  1  0
 18 38  1  0
 18 39  1  0
 18 40  1  0
 20 41  1  0
 23 42  1  0
 23 43  1  0
 23 44  1  0
 24 45  1  0
 26 46  1  0
 27 47  1  0
M  END
$$$$
