
     RDKit          3D

 31 33  0  0  0  0  0  0  0  0999 V2000
   -1.0419   -2.8197   -4.5860 C   0  0  0  0  0  0  0  0  0  0  0  0
   -1.5965   -2.7660   -3.2539 N   0  0  0  0  0  0  0  0  0  0  0  0
   -2.6309   -3.5056   -2.7703 C   0  0  0  0  0  0  0  0  0  0  0  0
   -2.7904   -3.1047   -1.4689 C   0  0  0  0  0  0  0  0  0  0  0  0
   -4.0659   -3.7635   -0.2694 Br  0  0  0  0  0  0  0  0  0  0  0  0
   -1.8105   -2.1128   -1.2331 C   0  0  0  0  0  0  0  0  0  0  0  0
   -1.5241   -1.3376   -0.0079 C   0  0  0  0  0  0  0  0  0  0  0  0
   -2.1639   -1.4874    1.0245 O   0  0  0  0  0  0  0  0  0  0  0  0
   -0.4692   -0.4654   -0.2206 N   0  0  0  0  0  0  0  0  0  0  0  0
    0.1001    0.4270    0.6700 C   0  0  0  0  0  0  0  0  0  0  0  0
   -0.4846    0.5720    2.2814 S   0  0  0  0  0  0  0  0  0  0  0  0
    0.6480    1.7470    2.6261 C   0  0  0  0  0  0  0  0  0  0  0  0
    1.4679    2.0534    1.5775 C   0  0  0  0  0  0  0  0  0  0  0  0
    1.1622    1.2927    0.4263 C   0  0  0  0  0  0  0  0  0  0  0  0
    1.8466    1.3930   -0.8257 C   0  0  0  0  0  0  0  0  0  0  0  0
    2.3954    1.4666   -1.8457 N   0  0  0  0  0  0  0  0  0  0  0  0
    2.4450    3.1060    1.9539 C   0  0  0  0  0  0  0  0  0  0  0  0
    2.3118    3.1404    3.5098 C   0  0  0  0  0  0  0  0  0  0  0  0
    0.9242    2.5186    3.8595 C   0  0  0  0  0  0  0  0  0  0  0  0
   -1.0727   -1.9108   -2.3535 N   0  0  0  0  0  0  0  0  0  0  0  0
   -1.1449   -1.8316   -5.0413 H   0  0  0  0  0  0  0  0  0  0  0  0
   -1.5846   -3.5620   -5.1764 H   0  0  0  0  0  0  0  0  0  0  0  0
    0.0114   -3.1007   -4.5087 H   0  0  0  0  0  0  0  0  0  0  0  0
   -3.1539   -4.2350   -3.3727 H   0  0  0  0  0  0  0  0  0  0  0  0
   -0.0910   -0.5179   -1.1663 H   0  0  0  0  0  0  0  0  0  0  0  0
    3.4675    2.8654    1.6504 H   0  0  0  0  0  0  0  0  0  0  0  0
    2.1541    4.0700    1.5238 H   0  0  0  0  0  0  0  0  0  0  0  0
    3.1022    2.5164    3.9480 H   0  0  0  0  0  0  0  0  0  0  0  0
    2.4291    4.1504    3.9146 H   0  0  0  0  0  0  0  0  0  0  0  0
    0.9832    1.8971    4.7570 H   0  0  0  0  0  0  0  0  0  0  0  0
    0.1763    3.3050    4.0030 H   0  0  0  0  0  0  0  0  0  0  0  0
  1  2  1  0
  2  3  1  0
  3  4  2  0
  4  5  1  0
  4  6  1  0
  6  7  1  0
  7  8  2  0
  7  9  1  0
  9 10  1  0
 10 11  1  0
 11 12  1  0
 12 13  2  0
 13 14  1  0
 14 15  1  0
 15 16  3  0
 13 17  1  0
 17 18  1  0
 18 19  1  0
  6 20  2  0
 20  2  1  0
 14 10  2  0
 19 12  1  0
  1 21  1  0
  1 22  1  0
  1 23  1  0
  3 24  1  0
  9 25  1  0
 17 26  1  0
 17 27  1  0
 18 28  1  0
 18 29  1  0
 19 30  1  0
 19 31  1  0
M  END
$$$$
