
     RDKit          3D

 36 37  0  0  0  0  0  0  0  0999 V2000
   -4.5600    1.2325    0.4392 C   0  0  0  0  0  0  0  0  0  0  0  0
   -3.3514    1.2164   -0.4911 C   0  0  0  0  0  0  0  0  0  0  0  0
   -2.0674    1.0402    0.2066 N   0  0  0  0  0  0  0  0  0  0  0  0
   -1.9774   -0.2191    0.9709 C   0  0  0  0  0  0  0  0  0  0  0  0
   -2.1171   -1.5378    0.1922 C   0  0  0  0  0  0  0  0  0  0  0  0
   -1.9244   -2.6529    1.0595 O   0  0  0  0  0  0  0  0  0  0  0  0
   -0.9534    1.2289   -0.7419 C   0  0  0  0  0  0  0  0  0  0  0  0
    0.3585    1.3605   -0.0133 C   0  0  0  0  0  0  0  0  0  0  0  0
    0.6304    2.3717    0.8905 C   0  0  0  0  0  0  0  0  0  0  0  0
    2.1862    2.2640    1.5647 S   0  0  0  0  0  0  0  0  0  0  0  0
    2.5634    0.8568    0.6512 C   0  0  0  0  0  0  0  0  0  0  0  0
    3.7764    0.1372    0.6809 C   0  0  0  0  0  0  0  0  0  0  0  0
    3.9338   -0.9883   -0.1380 C   0  0  0  0  0  0  0  0  0  0  0  0
    5.2081   -1.7801   -0.0915 C   0  0  0  0  0  0  0  0  0  0  0  0
    2.8806   -1.3946   -0.9515 C   0  0  0  0  0  0  0  0  0  0  0  0
    1.6786   -0.6775   -0.9770 C   0  0  0  0  0  0  0  0  0  0  0  0
    1.4965    0.4727   -0.1668 C   0  0  0  0  0  0  0  0  0  0  0  0
   -4.7512    0.2487    0.8778 H   0  0  0  0  0  0  0  0  0  0  0  0
   -5.4563    1.5199   -0.1208 H   0  0  0  0  0  0  0  0  0  0  0  0
   -4.4257    1.9569    1.2493 H   0  0  0  0  0  0  0  0  0  0  0  0
   -3.4933    0.4534   -1.2659 H   0  0  0  0  0  0  0  0  0  0  0  0
   -3.3420    2.1858   -1.0061 H   0  0  0  0  0  0  0  0  0  0  0  0
   -1.0353   -0.2456    1.5331 H   0  0  0  0  0  0  0  0  0  0  0  0
   -2.7257   -0.2111    1.7737 H   0  0  0  0  0  0  0  0  0  0  0  0
   -1.3833   -1.6168   -0.6138 H   0  0  0  0  0  0  0  0  0  0  0  0
   -3.1154   -1.6327   -0.2442 H   0  0  0  0  0  0  0  0  0  0  0  0
   -1.0295   -2.5760    1.4357 H   0  0  0  0  0  0  0  0  0  0  0  0
   -1.0961    2.1660   -1.2979 H   0  0  0  0  0  0  0  0  0  0  0  0
   -0.9257    0.4317   -1.4917 H   0  0  0  0  0  0  0  0  0  0  0  0
   -0.0368    3.1669    1.1959 H   0  0  0  0  0  0  0  0  0  0  0  0
    4.5816    0.4617    1.3355 H   0  0  0  0  0  0  0  0  0  0  0  0
    6.0628   -1.1319    0.1288 H   0  0  0  0  0  0  0  0  0  0  0  0
    5.1405   -2.5522    0.6810 H   0  0  0  0  0  0  0  0  0  0  0  0
    5.4056   -2.2601   -1.0558 H   0  0  0  0  0  0  0  0  0  0  0  0
    2.9822   -2.2761   -1.5815 H   0  0  0  0  0  0  0  0  0  0  0  0
    0.8822   -1.0196   -1.6323 H   0  0  0  0  0  0  0  0  0  0  0  0
  1  2  1  0
  2  3  1  0
  3  4  1  0
  4  5  1  0
  5  6  1  0
  3  7  1  0
  7  8  1  0
  8  9  2  0
  9 10  1  0
 10 11  1  0
 11 12  2  0
 12 13  1  0
 13 14  1  0
 13 15  2  0
 15 16  1  0
 16 17  2  0
 17  8  1  0
 17 11  1  0
  1 18  1  0
  1 19  1  0
  1 20  1  0
  2 21  1  0
  2 22  1  0
  4 23  1  0
  4 24  1  0
  5 25  1  0
  5 26  1  0
  6 27  1  0
  7 28  1  0
  7 29  1  0
  9 30  1  0
 12 31  1  0
 14 32  1  0
 14 33  1  0
 14 34  1  0
 15 35  1  0
 16 36  1  0
M  END
$$$$
