
     RDKit          3D

 25 26  0  0  0  0  0  0  0  0999 V2000
   -3.1950    0.3733    2.2265 O   0  0  0  0  0  0  0  0  0  0  0  0
   -2.7192    0.0754    1.1448 C   0  0  0  0  0  0  0  0  0  0  0  0
   -3.3692    0.2539   -0.1919 C   0  0  0  0  0  0  0  0  0  0  0  0
   -2.5015   -0.6221   -1.0884 C   0  0  0  0  0  0  0  0  0  0  0  0
   -1.1843   -0.7064   -0.4325 N   0  0  0  0  0  0  0  0  0  0  0  0
   -0.2463    0.2891   -0.9911 C   0  0  0  0  0  0  0  0  0  0  0  0
    1.1350    0.1882   -0.3740 C   0  0  0  0  0  0  0  0  0  0  0  0
    1.9492   -0.9249   -0.6364 C   0  0  0  0  0  0  0  0  0  0  0  0
    3.2190   -1.0254   -0.0638 C   0  0  0  0  0  0  0  0  0  0  0  0
    3.6802   -0.0150    0.7769 C   0  0  0  0  0  0  0  0  0  0  0  0
    5.2442   -0.1384    1.4834 Cl  0  0  0  0  0  0  0  0  0  0  0  0
    2.8822    1.0935    1.0520 C   0  0  0  0  0  0  0  0  0  0  0  0
    1.6119    1.1946    0.4795 C   0  0  0  0  0  0  0  0  0  0  0  0
   -1.4610   -0.4383    0.9183 N   0  0  0  0  0  0  0  0  0  0  0  0
   -3.3132    1.3092   -0.4753 H   0  0  0  0  0  0  0  0  0  0  0  0
   -4.4063   -0.0887   -0.1701 H   0  0  0  0  0  0  0  0  0  0  0  0
   -2.4659   -0.2554   -2.1203 H   0  0  0  0  0  0  0  0  0  0  0  0
   -2.9270   -1.6332   -1.1257 H   0  0  0  0  0  0  0  0  0  0  0  0
   -0.6351    1.3101   -0.8764 H   0  0  0  0  0  0  0  0  0  0  0  0
   -0.1328    0.1219   -2.0705 H   0  0  0  0  0  0  0  0  0  0  0  0
    1.5900   -1.7227   -1.2837 H   0  0  0  0  0  0  0  0  0  0  0  0
    3.8383   -1.8930   -0.2743 H   0  0  0  0  0  0  0  0  0  0  0  0
    3.2407    1.8793    1.7115 H   0  0  0  0  0  0  0  0  0  0  0  0
    0.9954    2.0617    0.7078 H   0  0  0  0  0  0  0  0  0  0  0  0
   -0.8294   -0.6864    1.6736 H   0  0  0  0  0  0  0  0  0  0  0  0
  1  2  2  0
  2  3  1  0
  3  4  1  0
  4  5  1  0
  5  6  1  0
  6  7  1  0
  7  8  2  0
  8  9  1  0
  9 10  2  0
 10 11  1  0
 10 12  1  0
 12 13  2  0
  5 14  1  0
 14  2  1  0
 13  7  1  0
  3 15  1  0
  3 16  1  0
  4 17  1  0
  4 18  1  0
  6 19  1  0
  6 20  1  0
  8 21  1  0
  9 22  1  0
 12 23  1  0
 13 24  1  0
 14 25  1  0
M  END
$$$$
