
     RDKit          3D

 37 38  0  0  0  0  0  0  0  0999 V2000
    4.5389    2.1905   -0.2097 C   0  0  0  0  0  0  0  0  0  0  0  0
    4.7256    0.9579    0.6565 C   0  0  0  0  0  0  0  0  0  0  0  0
    3.5993    0.0495    0.5647 N   0  0  0  0  0  0  0  0  0  0  0  0
    2.5427   -0.0323    1.4226 C   0  0  0  0  0  0  0  0  0  0  0  0
    1.7301   -1.0414    0.9444 C   0  0  0  0  0  0  0  0  0  0  0  0
    0.4494   -1.5293    1.5113 C   0  0  0  0  0  0  0  0  0  0  0  0
   -0.6270   -0.8128    0.8684 N   0  0  0  0  0  0  0  0  0  0  0  0
   -1.9310   -1.2065    1.0644 C   0  0  0  0  0  0  0  0  0  0  0  0
   -2.2437   -2.1941    1.7190 O   0  0  0  0  0  0  0  0  0  0  0  0
   -2.9871   -0.3456    0.4619 C   0  0  0  0  0  0  0  0  0  0  0  0
   -4.2693   -0.3743    1.0312 C   0  0  0  0  0  0  0  0  0  0  0  0
   -5.3005    0.4062    0.5034 C   0  0  0  0  0  0  0  0  0  0  0  0
   -5.0617    1.2185   -0.6044 C   0  0  0  0  0  0  0  0  0  0  0  0
   -3.7852    1.2372   -1.1831 C   0  0  0  0  0  0  0  0  0  0  0  0
   -3.5339    2.0865   -2.3539 N   0  0  0  0  0  4  0  0  0  0  0  0
   -2.3631    2.1886   -2.7466 O   0  0  0  0  0  0  0  0  0  0  0  0
   -4.5039    2.6549   -2.8738 O   0  0  0  0  0  1  0  0  0  0  0  0
   -2.7439    0.4556   -0.6602 C   0  0  0  0  0  0  0  0  0  0  0  0
    2.3980   -1.5035   -0.2238 C   0  0  0  0  0  0  0  0  0  0  0  0
    1.9730   -2.5824   -1.1506 C   0  0  0  0  0  0  0  0  0  0  0  0
    3.5335   -0.8312   -0.4468 N   0  0  0  0  0  0  0  0  0  0  0  0
    4.4337    1.9198   -1.2657 H   0  0  0  0  0  0  0  0  0  0  0  0
    5.4009    2.8576   -0.1125 H   0  0  0  0  0  0  0  0  0  0  0  0
    3.6414    2.7456    0.0832 H   0  0  0  0  0  0  0  0  0  0  0  0
    5.6234    0.4046    0.3596 H   0  0  0  0  0  0  0  0  0  0  0  0
    4.8394    1.2427    1.7081 H   0  0  0  0  0  0  0  0  0  0  0  0
    2.4573    0.6143    2.2848 H   0  0  0  0  0  0  0  0  0  0  0  0
    0.3924   -1.3370    2.5884 H   0  0  0  0  0  0  0  0  0  0  0  0
    0.3199   -2.6052    1.3523 H   0  0  0  0  0  0  0  0  0  0  0  0
   -0.4253    0.1244    0.5487 H   0  0  0  0  0  0  0  0  0  0  0  0
   -4.4677   -1.0105    1.8935 H   0  0  0  0  0  0  0  0  0  0  0  0
   -6.2895    0.3757    0.9563 H   0  0  0  0  0  0  0  0  0  0  0  0
   -5.8748    1.8210   -1.0056 H   0  0  0  0  0  0  0  0  0  0  0  0
   -1.7684    0.4514   -1.1400 H   0  0  0  0  0  0  0  0  0  0  0  0
    2.6529   -2.6717   -2.0043 H   0  0  0  0  0  0  0  0  0  0  0  0
    0.9698   -2.3793   -1.5387 H   0  0  0  0  0  0  0  0  0  0  0  0
    1.9545   -3.5450   -0.6299 H   0  0  0  0  0  0  0  0  0  0  0  0
  1  2  1  0
  2  3  1  0
  3  4  1  0
  4  5  2  0
  5  6  1  0
  6  7  1  0
  7  8  1  0
  8  9  2  0
  8 10  1  0
 10 11  2  0
 11 12  1  0
 12 13  2  0
 13 14  1  0
 14 15  1  0
 15 16  2  0
 15 17  1  0
 14 18  2  0
  5 19  1  0
 19 20  1  0
 19 21  2  0
 21  3  1  0
 18 10  1  0
  1 22  1  0
  1 23  1  0
  1 24  1  0
  2 25  1  0
  2 26  1  0
  4 27  1  0
  6 28  1  0
  6 29  1  0
  7 30  1  0
 11 31  1  0
 12 32  1  0
 13 33  1  0
 18 34  1  0
 20 35  1  0
 20 36  1  0
 20 37  1  0
M  CHG  2  15   1  17  -1
M  END
$$$$
