
     RDKit          3D

 43 46  0  0  0  0  0  0  0  0999 V2000
   -1.5575    1.6485   -1.0909 O   0  0  0  0  0  0  0  0  0  0  0  0
   -1.8350    0.5840   -0.5532 C   0  0  0  0  0  0  0  0  0  0  0  0
   -0.9515   -0.3252    0.0006 N   0  0  0  0  0  0  0  0  0  0  0  0
    0.4573   -0.2630   -0.0111 C   0  0  0  0  0  0  0  0  0  0  0  0
    1.1486   -1.2478    0.7008 C   0  0  0  0  0  0  0  0  0  0  0  0
    2.5484   -1.2568    0.7325 C   0  0  0  0  0  0  0  0  0  0  0  0
    3.2865   -0.2857    0.0471 C   0  0  0  0  0  0  0  0  0  0  0  0
    4.6920   -0.3653    0.1371 N   0  0  0  0  0  0  0  0  0  0  0  0
    5.6356    0.4239   -0.5091 C   0  0  0  0  0  0  0  0  0  0  0  0
    5.3575    1.2954   -1.3271 O   0  0  0  0  0  0  0  0  0  0  0  0
    7.0169    0.1034   -0.1396 C   0  0  0  0  0  0  0  0  0  0  0  0
    7.5223   -0.5323    0.9836 C   0  0  0  0  0  0  0  0  0  0  0  0
    8.9439   -0.6524    0.9559 C   0  0  0  0  0  0  0  0  0  0  0  0
    9.4850   -0.0983   -0.1806 C   0  0  0  0  0  0  0  0  0  0  0  0
    8.2883    0.5687   -1.1999 S   0  0  0  0  0  0  0  0  0  0  0  0
    2.5957    0.6944   -0.6632 C   0  0  0  0  0  0  0  0  0  0  0  0
    1.1924    0.7045   -0.6933 C   0  0  0  0  0  0  0  0  0  0  0  0
   -3.2724    0.2146   -0.4216 C   0  0  0  0  0  0  0  0  0  0  0  0
   -3.7040   -1.1097   -0.5487 C   0  0  0  0  0  0  0  0  0  0  0  0
   -5.0612   -1.4147   -0.4170 C   0  0  0  0  0  0  0  0  0  0  0  0
   -6.0039   -0.4044   -0.1663 C   0  0  0  0  0  0  0  0  0  0  0  0
   -7.3704   -0.6970   -0.0304 C   0  0  0  0  0  0  0  0  0  0  0  0
   -8.2967    0.3188    0.2113 C   0  0  0  0  0  0  0  0  0  0  0  0
   -7.8699    1.6392    0.3184 C   0  0  0  0  0  0  0  0  0  0  0  0
   -6.5154    1.9476    0.1848 C   0  0  0  0  0  0  0  0  0  0  0  0
   -5.5704    0.9378   -0.0563 C   0  0  0  0  0  0  0  0  0  0  0  0
   -4.2050    1.2335   -0.1920 C   0  0  0  0  0  0  0  0  0  0  0  0
   -1.3529   -1.0840    0.5349 H   0  0  0  0  0  0  0  0  0  0  0  0
    0.6126   -2.0209    1.2448 H   0  0  0  0  0  0  0  0  0  0  0  0
    3.0469   -2.0382    1.3001 H   0  0  0  0  0  0  0  0  0  0  0  0
    5.0495   -1.1268    0.6942 H   0  0  0  0  0  0  0  0  0  0  0  0
    6.9163   -0.8840    1.8091 H   0  0  0  0  0  0  0  0  0  0  0  0
    9.5398   -1.1131    1.7348 H   0  0  0  0  0  0  0  0  0  0  0  0
   10.5283   -0.0428   -0.4606 H   0  0  0  0  0  0  0  0  0  0  0  0
    3.1100    1.4792   -1.2098 H   0  0  0  0  0  0  0  0  0  0  0  0
    0.7088    1.4885   -1.2687 H   0  0  0  0  0  0  0  0  0  0  0  0
   -3.0054   -1.9087   -0.7809 H   0  0  0  0  0  0  0  0  0  0  0  0
   -5.3826   -2.4489   -0.5238 H   0  0  0  0  0  0  0  0  0  0  0  0
   -7.7259   -1.7216   -0.1144 H   0  0  0  0  0  0  0  0  0  0  0  0
   -9.3520    0.0788    0.3131 H   0  0  0  0  0  0  0  0  0  0  0  0
   -8.5908    2.4314    0.5038 H   0  0  0  0  0  0  0  0  0  0  0  0
   -6.2017    2.9862    0.2688 H   0  0  0  0  0  0  0  0  0  0  0  0
   -3.8581    2.2633   -0.1173 H   0  0  0  0  0  0  0  0  0  0  0  0
  1  2  2  0
  2  3  1  0
  3  4  1  0
  4  5  2  0
  5  6  1  0
  6  7  2  0
  7  8  1  0
  8  9  1  0
  9 10  2  0
  9 11  1  0
 11 12  2  0
 12 13  1  0
 13 14  2  0
 14 15  1  0
  7 16  1  0
 16 17  2  0
  2 18  1  0
 18 19  2  0
 19 20  1  0
 20 21  2  0
 21 22  1  0
 22 23  2  0
 23 24  1  0
 24 25  2  0
 25 26  1  0
 26 27  2  0
 17  4  1  0
 27 18  1  0
 15 11  1  0
 26 21  1  0
  3 28  1  0
  5 29  1  0
  6 30  1  0
  8 31  1  0
 12 32  1  0
 13 33  1  0
 14 34  1  0
 16 35  1  0
 17 36  1  0
 19 37  1  0
 20 38  1  0
 22 39  1  0
 23 40  1  0
 24 41  1  0
 25 42  1  0
 27 43  1  0
M  END
$$$$
