
     RDKit          3D

 47 50  0  0  0  0  0  0  0  0999 V2000
   -2.1778   -3.0308    1.5472 C   0  0  0  0  0  0  0  0  0  0  0  0
   -1.3438   -1.8118    1.2735 C   0  0  0  0  0  0  0  0  0  0  0  0
   -0.0456   -1.9270    1.3215 N   0  0  0  0  0  0  0  0  0  0  0  0
    0.7814   -0.8295    1.0547 N   0  0  0  0  0  0  0  0  0  0  0  0
    2.2114   -1.0839    1.0390 C   0  0  0  0  0  0  0  0  0  0  0  0
    2.7128   -1.3257   -0.3867 C   0  0  0  0  0  0  0  0  0  0  0  0
    1.9824   -1.5126   -1.3568 O   0  0  0  0  0  0  0  0  0  0  0  0
    4.0905   -1.3422   -0.4868 N   0  0  0  0  0  0  0  0  0  0  0  0
    4.7300   -1.6437   -1.7456 C   0  0  0  0  0  0  0  0  0  0  0  0
    6.1811   -1.3110   -1.6247 C   0  0  0  0  0  0  0  0  0  0  0  0
    6.7954   -0.0896   -1.8243 C   0  0  0  0  0  0  0  0  0  0  0  0
    8.2029   -0.1487   -1.6117 C   0  0  0  0  0  0  0  0  0  0  0  0
    8.6170   -1.4123   -1.2548 C   0  0  0  0  0  0  0  0  0  0  0  0
    7.3141   -2.5168   -1.1764 S   0  0  0  0  0  0  0  0  0  0  0  0
    0.3383    0.4684    0.7336 C   0  0  0  0  0  0  0  0  0  0  0  0
    1.1012    1.4086    0.5173 O   0  0  0  0  0  0  0  0  0  0  0  0
   -1.1140    0.5741    0.7077 C   0  0  0  0  0  0  0  0  0  0  0  0
   -1.8248    1.6818    0.4865 N   0  0  0  0  0  0  0  0  0  0  0  0
   -3.1220    1.2707    0.4684 N   0  0  0  0  0  0  0  0  0  0  0  0
   -4.1235    2.1889    0.0227 C   0  0  0  0  0  0  0  0  0  0  0  0
   -3.8055    3.5569   -0.0476 C   0  0  0  0  0  0  0  0  0  0  0  0
   -4.7520    4.4878   -0.4822 C   0  0  0  0  0  0  0  0  0  0  0  0
   -6.0204    4.0634   -0.8665 C   0  0  0  0  0  0  0  0  0  0  0  0
   -6.3384    2.7078   -0.8279 C   0  0  0  0  0  0  0  0  0  0  0  0
   -5.3939    1.7714   -0.3920 C   0  0  0  0  0  0  0  0  0  0  0  0
   -3.2319   -0.0517    0.9177 C   0  0  0  0  0  0  0  0  0  0  0  0
   -4.5063   -0.7124    1.2997 C   0  0  0  0  0  0  0  0  0  0  0  0
   -1.9327   -0.5295    0.9710 C   0  0  0  0  0  0  0  0  0  0  0  0
   -1.5535   -3.9292    1.5320 H   0  0  0  0  0  0  0  0  0  0  0  0
   -2.9562   -3.1367    0.7871 H   0  0  0  0  0  0  0  0  0  0  0  0
   -2.6358   -2.9444    2.5361 H   0  0  0  0  0  0  0  0  0  0  0  0
    2.7406   -0.2240    1.4642 H   0  0  0  0  0  0  0  0  0  0  0  0
    2.4287   -1.9689    1.6467 H   0  0  0  0  0  0  0  0  0  0  0  0
    4.6552   -1.3660    0.3522 H   0  0  0  0  0  0  0  0  0  0  0  0
    4.5630   -2.7027   -1.9718 H   0  0  0  0  0  0  0  0  0  0  0  0
    4.2593   -1.0539   -2.5405 H   0  0  0  0  0  0  0  0  0  0  0  0
    6.2562    0.8069   -2.1097 H   0  0  0  0  0  0  0  0  0  0  0  0
    8.8768    0.6931   -1.7162 H   0  0  0  0  0  0  0  0  0  0  0  0
    9.6236   -1.7422   -1.0364 H   0  0  0  0  0  0  0  0  0  0  0  0
   -2.8199    3.9178    0.2446 H   0  0  0  0  0  0  0  0  0  0  0  0
   -4.4928    5.5428   -0.5232 H   0  0  0  0  0  0  0  0  0  0  0  0
   -6.7551    4.7872   -1.2096 H   0  0  0  0  0  0  0  0  0  0  0  0
   -7.3213    2.3753   -1.1531 H   0  0  0  0  0  0  0  0  0  0  0  0
   -5.6755    0.7267   -0.4396 H   0  0  0  0  0  0  0  0  0  0  0  0
   -4.3451   -1.4374    2.1023 H   0  0  0  0  0  0  0  0  0  0  0  0
   -5.2358    0.0007    1.6945 H   0  0  0  0  0  0  0  0  0  0  0  0
   -4.9380   -1.2460    0.4478 H   0  0  0  0  0  0  0  0  0  0  0  0
  1  2  1  0
  2  3  2  0
  3  4  1  0
  4  5  1  0
  5  6  1  0
  6  7  2  0
  6  8  1  0
  8  9  1  0
  9 10  1  0
 10 11  2  0
 11 12  1  0
 12 13  2  0
 13 14  1  0
  4 15  1  0
 15 16  2  0
 15 17  1  0
 17 18  2  0
 18 19  1  0
 19 20  1  0
 20 21  2  0
 21 22  1  0
 22 23  2  0
 23 24  1  0
 24 25  2  0
 19 26  1  0
 26 27  1  0
 26 28  2  0
 28  2  1  0
 14 10  1  0
 28 17  1  0
 25 20  1  0
  1 29  1  0
  1 30  1  0
  1 31  1  0
  5 32  1  0
  5 33  1  0
  8 34  1  0
  9 35  1  0
  9 36  1  0
 11 37  1  0
 12 38  1  0
 13 39  1  0
 21 40  1  0
 22 41  1  0
 23 42  1  0
 24 43  1  0
 25 44  1  0
 27 45  1  0
 27 46  1  0
 27 47  1  0
M  END
$$$$
