
     RDKit          3D

 47 48  0  0  0  0  0  0  0  0999 V2000
    0.8004    2.5529    4.5857 C   0  0  0  0  0  0  0  0  0  0  0  0
    1.8529    1.5933    4.0640 C   0  0  0  0  0  0  0  0  0  0  0  0
    1.6585    1.3661    2.6590 O   0  0  0  0  0  0  0  0  0  0  0  0
    2.2608    2.2517    1.8205 C   0  0  0  0  0  0  0  0  0  0  0  0
    2.9449    3.1990    2.1793 O   0  0  0  0  0  0  0  0  0  0  0  0
    2.0077    1.9173    0.3897 C   0  0  0  0  0  0  0  0  0  0  0  0
    2.9262    2.4835   -0.5349 C   0  0  0  0  0  0  0  0  0  0  0  0
    3.6658    2.9318   -1.3101 N   0  0  0  0  0  0  0  0  0  0  0  0
    0.9679    1.1249    0.0505 C   0  0  0  0  0  0  0  0  0  0  0  0
    0.4911    0.6410   -1.2541 C   0  0  0  0  0  0  0  0  0  0  0  0
   -0.3410   -0.4329   -1.3556 C   0  0  0  0  0  0  0  0  0  0  0  0
   -0.7876   -1.1731   -0.2459 N   0  0  0  0  0  0  0  0  0  0  0  0
    0.0738   -2.1758    0.4204 C   0  0  0  0  0  0  0  0  0  0  0  0
   -0.1597   -2.1738    1.9389 C   0  0  0  0  0  0  0  0  0  0  0  0
   -1.5181   -2.4404    2.3199 O   0  0  0  0  0  0  0  0  0  0  0  0
   -2.4789   -2.0251    1.3369 C   0  0  0  0  0  0  0  0  0  0  0  0
   -2.0169   -0.8264    0.4959 C   0  0  0  0  0  0  0  0  0  0  0  0
   -0.8015   -0.9585   -2.7537 C   0  0  0  0  0  0  0  0  0  0  0  0
   -0.4311   -2.4396   -2.9351 C   0  0  0  0  0  0  0  0  0  0  0  0
   -2.3174   -0.8020   -2.9548 C   0  0  0  0  0  0  0  0  0  0  0  0
   -0.1355   -0.2957   -3.8481 O   0  0  0  0  0  0  0  0  0  0  0  0
   -0.0247    1.1074   -3.6731 C   0  0  0  0  0  0  0  0  0  0  0  0
    0.9009    1.3904   -2.5023 C   0  0  0  0  0  0  0  0  0  0  0  0
   -0.2045    2.1763    4.3681 H   0  0  0  0  0  0  0  0  0  0  0  0
    0.8857    3.5307    4.1011 H   0  0  0  0  0  0  0  0  0  0  0  0
    0.9005    2.6886    5.6663 H   0  0  0  0  0  0  0  0  0  0  0  0
    1.7465    0.6237    4.5614 H   0  0  0  0  0  0  0  0  0  0  0  0
    2.8663    1.9540    4.2740 H   0  0  0  0  0  0  0  0  0  0  0  0
    0.3570    0.7514    0.8697 H   0  0  0  0  0  0  0  0  0  0  0  0
    1.1320   -1.9821    0.2118 H   0  0  0  0  0  0  0  0  0  0  0  0
   -0.1743   -3.1638    0.0171 H   0  0  0  0  0  0  0  0  0  0  0  0
    0.1181   -1.2048    2.3684 H   0  0  0  0  0  0  0  0  0  0  0  0
    0.4692   -2.9318    2.4167 H   0  0  0  0  0  0  0  0  0  0  0  0
   -2.6888   -2.8865    0.6919 H   0  0  0  0  0  0  0  0  0  0  0  0
   -3.4043   -1.7797    1.8674 H   0  0  0  0  0  0  0  0  0  0  0  0
   -1.8129    0.0261    1.1535 H   0  0  0  0  0  0  0  0  0  0  0  0
   -2.8155   -0.5347   -0.1924 H   0  0  0  0  0  0  0  0  0  0  0  0
   -0.6450   -2.7714   -3.9584 H   0  0  0  0  0  0  0  0  0  0  0  0
    0.6431   -2.5951   -2.7792 H   0  0  0  0  0  0  0  0  0  0  0  0
   -0.9798   -3.0938   -2.2501 H   0  0  0  0  0  0  0  0  0  0  0  0
   -2.8870   -1.4911   -2.3227 H   0  0  0  0  0  0  0  0  0  0  0  0
   -2.6515    0.2160   -2.7265 H   0  0  0  0  0  0  0  0  0  0  0  0
   -2.5925   -0.9949   -3.9984 H   0  0  0  0  0  0  0  0  0  0  0  0
   -1.0113    1.5640   -3.5363 H   0  0  0  0  0  0  0  0  0  0  0  0
    0.4006    1.5285   -4.5901 H   0  0  0  0  0  0  0  0  0  0  0  0
    1.9180    1.0817   -2.7722 H   0  0  0  0  0  0  0  0  0  0  0  0
    0.8916    2.4728   -2.3339 H   0  0  0  0  0  0  0  0  0  0  0  0
  1  2  1  0
  2  3  1  0
  3  4  1  0
  4  5  2  0
  4  6  1  0
  6  7  1  0
  7  8  3  0
  6  9  2  3
  9 10  1  0
 10 11  2  0
 11 12  1  0
 12 13  1  0
 13 14  1  0
 14 15  1  0
 15 16  1  0
 16 17  1  0
 11 18  1  0
 18 19  1  0
 18 20  1  0
 18 21  1  0
 21 22  1  0
 22 23  1  0
 23 10  1  0
 17 12  1  0
  1 24  1  0
  1 25  1  0
  1 26  1  0
  2 27  1  0
  2 28  1  0
  9 29  1  0
 13 30  1  0
 13 31  1  0
 14 32  1  0
 14 33  1  0
 16 34  1  0
 16 35  1  0
 17 36  1  0
 17 37  1  0
 19 38  1  0
 19 39  1  0
 19 40  1  0
 20 41  1  0
 20 42  1  0
 20 43  1  0
 22 44  1  0
 22 45  1  0
 23 46  1  0
 23 47  1  0
M  END
$$$$
