
     RDKit          3D

 57 62  0  0  0  0  0  0  0  0999 V2000
    7.8556   -3.3164   -0.2066 C   0  0  0  0  0  0  0  0  0  0  0  0
    6.5394   -3.7208   -0.5640 O   0  0  0  0  0  0  0  0  0  0  0  0
    5.5712   -2.7581   -0.5772 C   0  0  0  0  0  0  0  0  0  0  0  0
    4.3064   -3.2097   -0.9560 C   0  0  0  0  0  0  0  0  0  0  0  0
    3.2187   -2.3333   -1.0117 C   0  0  0  0  0  0  0  0  0  0  0  0
    3.3914   -0.9839   -0.6893 C   0  0  0  0  0  0  0  0  0  0  0  0
    2.1668   -0.0025   -0.7483 C   0  0  0  0  0  0  0  0  0  0  0  0
    0.8488   -0.3441   -1.0260 C   0  0  0  0  0  0  0  0  0  0  0  0
    0.0555    0.7999   -0.9423 N   0  0  0  0  0  4  0  0  0  0  0  0
   -1.3967    0.8846   -1.1720 C   0  0  0  0  0  0  0  0  0  0  0  0
   -2.1659    1.2825    0.1014 C   0  0  0  0  0  0  0  0  0  0  0  0
   -1.7485    2.1928    0.8177 O   0  0  0  0  0  0  0  0  0  0  0  0
   -3.3695    0.5879    0.2726 N   0  0  0  0  0  0  0  0  0  0  0  0
   -3.3445   -0.8463    0.4195 C   0  0  0  0  0  0  0  0  0  0  0  0
   -2.1543   -1.4709    0.8561 C   0  0  0  0  0  0  0  0  0  0  0  0
   -2.0639   -2.8575    1.0046 C   0  0  0  0  0  0  0  0  0  0  0  0
   -3.1660   -3.6526    0.7282 C   0  0  0  0  0  0  0  0  0  0  0  0
   -4.3592   -3.0565    0.3280 C   0  0  0  0  0  0  0  0  0  0  0  0
   -4.4600   -1.6621    0.1888 C   0  0  0  0  0  0  0  0  0  0  0  0
   -6.0218   -1.0168   -0.3240 S   0  0  0  0  0  0  0  0  0  0  0  0
   -5.8654    0.6556    0.2499 C   0  0  0  0  0  0  0  0  0  0  0  0
   -7.0672    1.3678    0.4127 C   0  0  0  0  0  0  0  0  0  0  0  0
   -7.0572    2.7144    0.7585 C   0  0  0  0  0  0  0  0  0  0  0  0
   -5.8433    3.3611    0.9281 C   0  0  0  0  0  0  0  0  0  0  0  0
   -4.6441    2.6586    0.7645 C   0  0  0  0  0  0  0  0  0  0  0  0
   -4.6213    1.2863    0.4425 C   0  0  0  0  0  0  0  0  0  0  0  0
    0.8563    1.8195   -0.6392 C   0  0  0  0  0  0  0  0  0  0  0  0
    2.1045    1.3644   -0.5528 N   0  0  0  0  0  0  0  0  0  0  0  0
    3.0553    2.4401   -0.3035 C   0  0  0  0  0  0  0  0  0  0  0  0
    2.2321    3.7225   -0.5990 C   0  0  0  0  0  0  0  0  0  0  0  0
    0.7622    3.2867   -0.4449 C   0  0  0  0  0  0  0  0  0  0  0  0
    4.6539   -0.5301   -0.3046 C   0  0  0  0  0  0  0  0  0  0  0  0
    5.7404   -1.4145   -0.2498 C   0  0  0  0  0  0  0  0  0  0  0  0
    8.5021   -4.1980   -0.2574 H   0  0  0  0  0  0  0  0  0  0  0  0
    7.8869   -2.9379    0.8206 H   0  0  0  0  0  0  0  0  0  0  0  0
    8.2447   -2.5752   -0.9123 H   0  0  0  0  0  0  0  0  0  0  0  0
    4.1704   -4.2594   -1.2110 H   0  0  0  0  0  0  0  0  0  0  0  0
    2.2602   -2.7414   -1.3171 H   0  0  0  0  0  0  0  0  0  0  0  0
    0.3661   -1.2765   -1.2639 H   0  0  0  0  0  0  0  0  0  0  0  0
   -1.5721    1.6635   -1.9230 H   0  0  0  0  0  0  0  0  0  0  0  0
   -1.7491   -0.0594   -1.5960 H   0  0  0  0  0  0  0  0  0  0  0  0
   -1.2873   -0.8863    1.1553 H   0  0  0  0  0  0  0  0  0  0  0  0
   -1.1448   -3.3150    1.3642 H   0  0  0  0  0  0  0  0  0  0  0  0
   -3.1116   -4.7328    0.8483 H   0  0  0  0  0  0  0  0  0  0  0  0
   -5.2232   -3.6922    0.1355 H   0  0  0  0  0  0  0  0  0  0  0  0
   -8.0262    0.8750    0.2586 H   0  0  0  0  0  0  0  0  0  0  0  0
   -7.9929    3.2545    0.8866 H   0  0  0  0  0  0  0  0  0  0  0  0
   -5.8234    4.4147    1.1982 H   0  0  0  0  0  0  0  0  0  0  0  0
   -3.7367    3.2282    0.9383 H   0  0  0  0  0  0  0  0  0  0  0  0
    3.3643    2.4001    0.7448 H   0  0  0  0  0  0  0  0  0  0  0  0
    3.9177    2.3656   -0.9695 H   0  0  0  0  0  0  0  0  0  0  0  0
    2.5013    4.5602    0.0493 H   0  0  0  0  0  0  0  0  0  0  0  0
    2.4082    4.0264   -1.6376 H   0  0  0  0  0  0  0  0  0  0  0  0
    0.0980    3.7083   -1.1997 H   0  0  0  0  0  0  0  0  0  0  0  0
    0.3998    3.4535    0.5703 H   0  0  0  0  0  0  0  0  0  0  0  0
    4.8322    0.4992   -0.0214 H   0  0  0  0  0  0  0  0  0  0  0  0
    6.7054   -1.0237    0.0583 H   0  0  0  0  0  0  0  0  0  0  0  0
  1  2  1  0
  2  3  1  0
  3  4  2  0
  4  5  1  0
  5  6  2  0
  6  7  1  0
  7  8  2  0
  8  9  1  0
  9 10  1  0
 10 11  1  0
 11 12  2  0
 11 13  1  0
 13 14  1  0
 14 15  2  0
 15 16  1  0
 16 17  2  0
 17 18  1  0
 18 19  2  0
 19 20  1  0
 20 21  1  0
 21 22  2  0
 22 23  1  0
 23 24  2  0
 24 25  1  0
 25 26  2  0
  9 27  2  0
 27 28  1  0
 28 29  1  0
 29 30  1  0
 30 31  1  0
  6 32  1  0
 32 33  2  0
 33  3  1  0
 28  7  1  0
 26 13  1  0
 31 27  1  0
 19 14  1  0
 26 21  1  0
  1 34  1  0
  1 35  1  0
  1 36  1  0
  4 37  1  0
  5 38  1  0
  8 39  1  0
 10 40  1  0
 10 41  1  0
 15 42  1  0
 16 43  1  0
 17 44  1  0
 18 45  1  0
 22 46  1  0
 23 47  1  0
 24 48  1  0
 25 49  1  0
 29 50  1  0
 29 51  1  0
 30 52  1  0
 30 53  1  0
 31 54  1  0
 31 55  1  0
 32 56  1  0
 33 57  1  0
M  CHG  1   9   1
M  END
$$$$
