
     RDKit          3D

 42 44  0  0  0  0  0  0  0  0999 V2000
   -0.4948   -2.9433   -1.1272 C   0  0  0  0  0  0  0  0  0  0  0  0
   -0.7443   -1.7329   -0.2866 C   0  0  0  0  0  0  0  0  0  0  0  0
    0.1500   -0.9175    0.2977 C   0  0  0  0  0  0  0  0  0  0  0  0
    1.5139   -0.8954    0.4234 N   0  0  0  0  0  0  0  0  0  0  0  0
    2.4277   -1.8969    0.1751 C   0  0  0  0  0  0  0  0  0  0  0  0
    2.1511   -3.0507   -0.1443 O   0  0  0  0  0  0  0  0  0  0  0  0
    3.8682   -1.5024    0.4160 C   0  0  0  0  0  0  0  0  0  0  0  0
    4.2360   -0.3211   -0.3401 N   0  0  0  0  0  0  0  0  0  0  0  0
    4.7981   -0.2806   -1.5848 C   0  0  0  0  0  0  0  0  0  0  0  0
    4.9717    1.0519   -1.8843 C   0  0  0  0  0  0  0  0  0  0  0  0
    4.4861    1.7405   -0.7499 C   0  0  0  0  0  0  0  0  0  0  0  0
    4.4398    3.1742   -0.5187 N   0  0  0  0  0  4  0  0  0  0  0  0
    4.8306    3.8890   -1.4548 O   0  0  0  0  0  0  0  0  0  0  0  0
    4.0330    3.5860    0.5767 O   0  0  0  0  0  1  0  0  0  0  0  0
    4.0262    0.8994    0.1960 N   0  0  0  0  0  0  0  0  0  0  0  0
   -0.6533    0.2024    0.8891 C   0  0  0  0  0  0  0  0  0  0  0  0
   -0.1235    1.1506    1.4502 O   0  0  0  0  0  0  0  0  0  0  0  0
   -1.9920   -0.0671    0.6015 N   0  0  0  0  0  0  0  0  0  0  0  0
   -3.0339    0.8941    0.5334 C   0  0  0  0  0  0  0  0  0  0  0  0
   -2.9818    2.0661    1.3004 C   0  0  0  0  0  0  0  0  0  0  0  0
   -4.0080    3.0151    1.2384 C   0  0  0  0  0  0  0  0  0  0  0  0
   -5.1019    2.8090    0.4032 C   0  0  0  0  0  0  0  0  0  0  0  0
   -5.1683    1.6562   -0.3729 C   0  0  0  0  0  0  0  0  0  0  0  0
   -4.1418    0.7084   -0.3084 C   0  0  0  0  0  0  0  0  0  0  0  0
   -2.0754   -1.3102   -0.0901 N   0  0  0  0  0  0  0  0  0  0  0  0
   -2.9956   -2.2704    0.5507 C   0  0  0  0  0  0  0  0  0  0  0  0
   -0.3773   -3.8334   -0.5023 H   0  0  0  0  0  0  0  0  0  0  0  0
    0.3835   -2.8157   -1.7659 H   0  0  0  0  0  0  0  0  0  0  0  0
   -1.3343   -3.1206   -1.8092 H   0  0  0  0  0  0  0  0  0  0  0  0
    1.8699   -0.0268    0.8349 H   0  0  0  0  0  0  0  0  0  0  0  0
    4.0305   -1.3039    1.4803 H   0  0  0  0  0  0  0  0  0  0  0  0
    4.5319   -2.3162    0.1056 H   0  0  0  0  0  0  0  0  0  0  0  0
    5.0207   -1.1809   -2.1431 H   0  0  0  0  0  0  0  0  0  0  0  0
    5.3917    1.4739   -2.7872 H   0  0  0  0  0  0  0  0  0  0  0  0
   -2.1515    2.2601    1.9747 H   0  0  0  0  0  0  0  0  0  0  0  0
   -3.9468    3.9154    1.8448 H   0  0  0  0  0  0  0  0  0  0  0  0
   -5.8963    3.5488    0.3528 H   0  0  0  0  0  0  0  0  0  0  0  0
   -6.0129    1.4961   -1.0379 H   0  0  0  0  0  0  0  0  0  0  0  0
   -4.2079   -0.1626   -0.9544 H   0  0  0  0  0  0  0  0  0  0  0  0
   -3.9916   -1.8446    0.7010 H   0  0  0  0  0  0  0  0  0  0  0  0
   -2.6104   -2.5859    1.5273 H   0  0  0  0  0  0  0  0  0  0  0  0
   -3.1171   -3.1582   -0.0788 H   0  0  0  0  0  0  0  0  0  0  0  0
  1  2  1  0
  2  3  2  0
  3  4  1  0
  4  5  1  0
  5  6  2  0
  5  7  1  0
  7  8  1  0
  8  9  1  0
  9 10  2  0
 10 11  1  0
 11 12  1  0
 12 13  2  0
 12 14  1  0
 11 15  2  0
  3 16  1  0
 16 17  2  0
 16 18  1  0
 18 19  1  0
 19 20  2  0
 20 21  1  0
 21 22  2  0
 22 23  1  0
 23 24  2  0
 18 25  1  0
 25 26  1  0
 25  2  1  0
 15  8  1  0
 24 19  1  0
  1 27  1  0
  1 28  1  0
  1 29  1  0
  4 30  1  0
  7 31  1  0
  7 32  1  0
  9 33  1  0
 10 34  1  0
 20 35  1  0
 21 36  1  0
 22 37  1  0
 23 38  1  0
 24 39  1  0
 26 40  1  0
 26 41  1  0
 26 42  1  0
M  CHG  2  12   1  14  -1
M  END
$$$$
