
     RDKit          3D

 32 33  0  0  0  0  0  0  0  0999 V2000
    5.5861   -0.2556   -0.2885 C   0  0  0  0  0  0  0  0  0  0  0  0
    4.1791   -0.7782   -0.5200 C   0  0  0  0  0  0  0  0  0  0  0  0
    2.9627    0.4608    0.0108 S   0  0  0  0  0  0  0  0  0  0  0  0
    1.4498   -0.3186   -0.3326 C   0  0  0  0  0  0  0  0  0  0  0  0
    1.1412   -1.5494   -0.8612 C   0  0  0  0  0  0  0  0  0  0  0  0
   -0.2130   -1.7309   -0.9261 N   0  0  0  0  0  0  0  0  0  0  0  0
   -0.7542   -0.6187   -0.4642 C   0  0  0  0  0  0  0  0  0  0  0  0
   -2.1923   -0.3882   -0.3475 C   0  0  0  0  0  0  0  0  0  0  0  0
   -2.8459    0.5220   -1.1876 C   0  0  0  0  0  0  0  0  0  0  0  0
   -4.2206    0.7339   -1.0634 C   0  0  0  0  0  0  0  0  0  0  0  0
   -4.9511    0.0300   -0.1066 C   0  0  0  0  0  0  0  0  0  0  0  0
   -4.3111   -0.8923    0.7205 C   0  0  0  0  0  0  0  0  0  0  0  0
   -2.9368   -1.1049    0.5966 C   0  0  0  0  0  0  0  0  0  0  0  0
    0.2330    0.2718   -0.0693 N   0  0  0  0  0  0  0  0  0  0  0  0
    0.0018    1.5650    0.5527 C   0  0  0  0  0  0  0  0  0  0  0  0
   -0.0824    1.4742    2.0673 C   0  0  0  0  0  0  0  0  0  0  0  0
    5.7755    0.6584   -0.8616 H   0  0  0  0  0  0  0  0  0  0  0  0
    6.3183   -1.0042   -0.6092 H   0  0  0  0  0  0  0  0  0  0  0  0
    5.7690   -0.0475    0.7712 H   0  0  0  0  0  0  0  0  0  0  0  0
    4.0334   -1.7024    0.0483 H   0  0  0  0  0  0  0  0  0  0  0  0
    4.0398   -0.9970   -1.5836 H   0  0  0  0  0  0  0  0  0  0  0  0
    1.8155   -2.3258   -1.1957 H   0  0  0  0  0  0  0  0  0  0  0  0
   -2.2889    1.0604   -1.9508 H   0  0  0  0  0  0  0  0  0  0  0  0
   -4.7230    1.4398   -1.7197 H   0  0  0  0  0  0  0  0  0  0  0  0
   -6.0223    0.1902   -0.0142 H   0  0  0  0  0  0  0  0  0  0  0  0
   -4.8822   -1.4532    1.4557 H   0  0  0  0  0  0  0  0  0  0  0  0
   -2.4452   -1.8370    1.2337 H   0  0  0  0  0  0  0  0  0  0  0  0
    0.8015    2.2477    0.2496 H   0  0  0  0  0  0  0  0  0  0  0  0
   -0.9216    1.9883    0.1481 H   0  0  0  0  0  0  0  0  0  0  0  0
   -0.9033    0.8210    2.3809 H   0  0  0  0  0  0  0  0  0  0  0  0
   -0.2550    2.4660    2.4966 H   0  0  0  0  0  0  0  0  0  0  0  0
    0.8425    1.0745    2.4954 H   0  0  0  0  0  0  0  0  0  0  0  0
  1  2  1  0
  2  3  1  0
  3  4  1  0
  4  5  2  0
  5  6  1  0
  6  7  2  0
  7  8  1  0
  8  9  2  0
  9 10  1  0
 10 11  2  0
 11 12  1  0
 12 13  2  0
  7 14  1  0
 14 15  1  0
 15 16  1  0
 14  4  1  0
 13  8  1  0
  1 17  1  0
  1 18  1  0
  1 19  1  0
  2 20  1  0
  2 21  1  0
  5 22  1  0
  9 23  1  0
 10 24  1  0
 11 25  1  0
 12 26  1  0
 13 27  1  0
 15 28  1  0
 15 29  1  0
 16 30  1  0
 16 31  1  0
 16 32  1  0
M  END
$$$$
