
     RDKit          3D

 55 58  0  0  0  0  0  0  0  0999 V2000
    7.7146    1.7059    1.9974 C   0  0  0  0  0  0  0  0  0  0  0  0
    7.4150    1.2600    0.6822 O   0  0  0  0  0  0  0  0  0  0  0  0
    6.1288    0.8601    0.4239 C   0  0  0  0  0  0  0  0  0  0  0  0
    5.0429    1.1077    1.2671 C   0  0  0  0  0  0  0  0  0  0  0  0
    3.7613    0.6919    0.9013 C   0  0  0  0  0  0  0  0  0  0  0  0
    3.5602    0.0061   -0.3012 C   0  0  0  0  0  0  0  0  0  0  0  0
    2.1782   -0.4234   -0.6349 C   0  0  0  0  0  0  0  0  0  0  0  0
    2.0116   -1.8183   -1.1607 C   0  0  0  0  0  0  0  0  0  0  0  0
    0.7428   -2.2343   -1.3565 C   0  0  0  0  0  0  0  0  0  0  0  0
    0.3792   -3.5922   -1.8343 C   0  0  0  0  0  0  0  0  0  0  0  0
    1.4869   -4.3602   -2.0382 F   0  0  0  0  0  0  0  0  0  0  0  0
   -0.2770   -3.5735   -3.0218 F   0  0  0  0  0  0  0  0  0  0  0  0
   -0.3816   -4.2753   -0.9430 F   0  0  0  0  0  0  0  0  0  0  0  0
   -0.3117   -1.3584   -1.1149 N   0  0  0  0  0  0  0  0  0  0  0  0
   -1.6429   -1.5903   -1.2221 N   0  0  0  0  0  0  0  0  0  0  0  0
   -2.2257   -0.3938   -1.0018 C   0  0  0  0  0  0  0  0  0  0  0  0
   -3.6768   -0.1936   -1.0947 C   0  0  0  0  0  0  0  0  0  0  0  0
   -4.1351    0.5688   -1.9460 O   0  0  0  0  0  0  0  0  0  0  0  0
   -4.4883   -0.8593   -0.1594 N   0  0  0  0  0  0  0  0  0  0  0  0
   -3.9530   -1.5631    1.0028 C   0  0  0  0  0  0  0  0  0  0  0  0
   -5.9048   -0.5093   -0.1268 C   0  0  0  0  0  0  0  0  0  0  0  0
   -6.2032    0.6396    0.8157 C   0  0  0  0  0  0  0  0  0  0  0  0
   -6.6138    0.3943    2.1363 C   0  0  0  0  0  0  0  0  0  0  0  0
   -6.8615    1.4565    3.0112 C   0  0  0  0  0  0  0  0  0  0  0  0
   -6.6947    2.7731    2.5794 C   0  0  0  0  0  0  0  0  0  0  0  0
   -6.2910    3.0290    1.2690 C   0  0  0  0  0  0  0  0  0  0  0  0
   -6.0456    1.9697    0.3923 C   0  0  0  0  0  0  0  0  0  0  0  0
   -1.2724    0.6026   -0.6834 C   0  0  0  0  0  0  0  0  0  0  0  0
   -0.0596   -0.0438   -0.6981 C   0  0  0  0  0  0  0  0  0  0  0  0
    1.1965    0.4052   -0.4159 N   0  0  0  0  0  0  0  0  0  0  0  0
    4.6368   -0.2425   -1.1571 C   0  0  0  0  0  0  0  0  0  0  0  0
    5.9189    0.1947   -0.8026 C   0  0  0  0  0  0  0  0  0  0  0  0
    7.0351   -0.0293   -1.5735 O   0  0  0  0  0  0  0  0  0  0  0  0
    6.8331   -0.1352   -2.9686 C   0  0  0  0  0  0  0  0  0  0  0  0
    7.1866    2.6352    2.2326 H   0  0  0  0  0  0  0  0  0  0  0  0
    8.7884    1.9138    2.0435 H   0  0  0  0  0  0  0  0  0  0  0  0
    7.4966    0.9273    2.7340 H   0  0  0  0  0  0  0  0  0  0  0  0
    5.1561    1.6342    2.2085 H   0  0  0  0  0  0  0  0  0  0  0  0
    2.9209    0.9030    1.5603 H   0  0  0  0  0  0  0  0  0  0  0  0
    2.8711   -2.4524   -1.3261 H   0  0  0  0  0  0  0  0  0  0  0  0
   -3.6783   -0.8261    1.7679 H   0  0  0  0  0  0  0  0  0  0  0  0
   -3.0712   -2.1551    0.7489 H   0  0  0  0  0  0  0  0  0  0  0  0
   -4.7075   -2.2490    1.4047 H   0  0  0  0  0  0  0  0  0  0  0  0
   -6.2604   -0.2543   -1.1408 H   0  0  0  0  0  0  0  0  0  0  0  0
   -6.4707   -1.4074    0.1707 H   0  0  0  0  0  0  0  0  0  0  0  0
   -6.7424   -0.6275    2.4929 H   0  0  0  0  0  0  0  0  0  0  0  0
   -7.1778    1.2587    4.0338 H   0  0  0  0  0  0  0  0  0  0  0  0
   -6.8818    3.6002    3.2616 H   0  0  0  0  0  0  0  0  0  0  0  0
   -6.1603    4.0535    0.9271 H   0  0  0  0  0  0  0  0  0  0  0  0
   -5.7271    2.1866   -0.6271 H   0  0  0  0  0  0  0  0  0  0  0  0
   -1.4493    1.6469   -0.4475 H   0  0  0  0  0  0  0  0  0  0  0  0
    4.4714   -0.7600   -2.0949 H   0  0  0  0  0  0  0  0  0  0  0  0
    6.4277   -1.1187   -3.2245 H   0  0  0  0  0  0  0  0  0  0  0  0
    7.8145   -0.0410   -3.4559 H   0  0  0  0  0  0  0  0  0  0  0  0
    6.1901    0.6629   -3.3538 H   0  0  0  0  0  0  0  0  0  0  0  0
  1  2  1  0
  2  3  1  0
  3  4  2  0
  4  5  1  0
  5  6  2  0
  6  7  1  0
  7  8  1  0
  8  9  2  0
  9 10  1  0
 10 11  1  0
 10 12  1  0
 10 13  1  0
  9 14  1  0
 14 15  1  0
 15 16  2  0
 16 17  1  0
 17 18  2  0
 17 19  1  0
 19 20  1  0
 19 21  1  0
 21 22  1  0
 22 23  2  0
 23 24  1  0
 24 25  2  0
 25 26  1  0
 26 27  2  0
 16 28  1  0
 28 29  2  0
 29 30  1  0
  6 31  1  0
 31 32  2  0
 32 33  1  0
 33 34  1  0
 32  3  1  0
 30  7  2  0
 29 14  1  0
 27 22  1  0
  1 35  1  0
  1 36  1  0
  1 37  1  0
  4 38  1  0
  5 39  1  0
  8 40  1  0
 20 41  1  0
 20 42  1  0
 20 43  1  0
 21 44  1  0
 21 45  1  0
 23 46  1  0
 24 47  1  0
 25 48  1  0
 26 49  1  0
 27 50  1  0
 28 51  1  0
 31 52  1  0
 34 53  1  0
 34 54  1  0
 34 55  1  0
M  END
$$$$
