
     RDKit          3D

 57 59  0  0  0  0  0  0  0  0999 V2000
   -2.6550   -3.2298   -0.8046 C   0  0  0  0  0  0  0  0  0  0  0  0
   -3.4721   -2.1079   -0.1691 C   0  0  0  0  0  0  0  0  0  0  0  0
   -3.7418   -0.9832   -1.0777 N   0  0  0  0  0  0  0  0  0  0  0  0
   -4.6611   -0.0088   -0.4626 C   0  0  0  0  0  0  0  0  0  0  0  0
   -6.1084   -0.4936   -0.4871 C   0  0  0  0  0  0  0  0  0  0  0  0
   -2.5234   -0.3236   -1.5958 C   0  0  0  0  0  0  0  0  0  0  0  0
   -1.4793    0.2101   -0.5947 C   0  0  0  0  0  0  0  0  0  0  0  0
   -2.0403    1.2552    0.2078 O   0  0  0  0  0  0  0  0  0  0  0  0
   -1.2325    2.3592    0.3397 C   0  0  0  0  0  0  0  0  0  0  0  0
   -1.6257    3.5484   -0.1590 C   0  0  0  0  0  0  0  0  0  0  0  0
   -0.7722    4.7502    0.1166 C   0  0  2  0  0  0  0  0  0  0  0  0
   -0.9022    5.8056   -0.8223 O   0  0  0  0  0  0  0  0  0  0  0  0
    0.1775    6.6347   -0.6075 C   0  0  0  0  0  0  0  0  0  0  0  0
    0.2766    7.7517   -1.0881 O   0  0  0  0  0  0  0  0  0  0  0  0
    1.4650    5.9156    0.3903 S   0  0  0  0  0  0  0  0  0  0  0  0
    0.7016    4.3318    0.1021 C   0  0  1  0  0  0  0  0  0  0  0  0
    0.9470    3.2172    1.0597 C   0  0  0  0  0  0  0  0  0  0  0  0
   -0.0014    2.2527    1.1380 C   0  0  0  0  0  0  0  0  0  0  0  0
    0.2015    1.1430    2.1125 C   0  0  0  0  0  0  0  0  0  0  0  0
   -0.4930    1.0471    3.1204 O   0  0  0  0  0  0  0  0  0  0  0  0
    1.2907    0.1536    1.8693 C   0  0  0  0  0  0  0  0  0  0  0  0
    2.0343    0.0646    0.7547 C   0  0  0  0  0  0  0  0  0  0  0  0
    3.0906   -0.9373    0.5503 C   0  0  0  0  0  0  0  0  0  0  0  0
    4.2096   -0.5890   -0.2136 C   0  0  0  0  0  0  0  0  0  0  0  0
    5.2158   -1.5259   -0.4675 C   0  0  0  0  0  0  0  0  0  0  0  0
    5.1217   -2.8259    0.0321 C   0  0  0  0  0  0  0  0  0  0  0  0
    6.1708   -3.6408   -0.2899 O   0  0  0  0  0  0  0  0  0  0  0  0
    6.1532   -4.9557    0.2522 C   0  0  0  0  0  0  0  0  0  0  0  0
    4.0043   -3.1840    0.7845 C   0  0  0  0  0  0  0  0  0  0  0  0
    2.9927   -2.2475    1.0367 C   0  0  0  0  0  0  0  0  0  0  0  0
   -3.1133   -3.5758   -1.7379 H   0  0  0  0  0  0  0  0  0  0  0  0
   -1.6242   -2.9229   -1.0120 H   0  0  0  0  0  0  0  0  0  0  0  0
   -2.6114   -4.0840   -0.1179 H   0  0  0  0  0  0  0  0  0  0  0  0
   -4.4207   -2.5603    0.1443 H   0  0  0  0  0  0  0  0  0  0  0  0
   -2.9750   -1.7679    0.7476 H   0  0  0  0  0  0  0  0  0  0  0  0
   -4.6425    0.9321   -1.0284 H   0  0  0  0  0  0  0  0  0  0  0  0
   -4.3695    0.2292    0.5671 H   0  0  0  0  0  0  0  0  0  0  0  0
   -6.4224   -0.7360   -1.5088 H   0  0  0  0  0  0  0  0  0  0  0  0
   -6.7711    0.2931   -0.1111 H   0  0  0  0  0  0  0  0  0  0  0  0
   -6.2617   -1.3765    0.1384 H   0  0  0  0  0  0  0  0  0  0  0  0
   -2.8316    0.5056   -2.2480 H   0  0  0  0  0  0  0  0  0  0  0  0
   -2.0168   -1.0277   -2.2686 H   0  0  0  0  0  0  0  0  0  0  0  0
   -0.6145    0.5700   -1.1697 H   0  0  0  0  0  0  0  0  0  0  0  0
   -1.1270   -0.5892    0.0668 H   0  0  0  0  0  0  0  0  0  0  0  0
   -2.5723    3.6617   -0.6735 H   0  0  0  0  0  0  0  0  0  0  0  0
   -1.1024    5.1378    1.0957 H   0  0  0  0  0  0  0  0  0  0  0  0
    1.0192    4.0131   -0.9000 H   0  0  0  0  0  0  0  0  0  0  0  0
    1.8567    3.1878    1.6491 H   0  0  0  0  0  0  0  0  0  0  0  0
    1.4308   -0.5301    2.7031 H   0  0  0  0  0  0  0  0  0  0  0  0
    1.8947    0.7505   -0.0763 H   0  0  0  0  0  0  0  0  0  0  0  0
    4.3190    0.4157   -0.6166 H   0  0  0  0  0  0  0  0  0  0  0  0
    6.0829   -1.2388   -1.0593 H   0  0  0  0  0  0  0  0  0  0  0  0
    5.2959   -5.5272   -0.1221 H   0  0  0  0  0  0  0  0  0  0  0  0
    6.1621   -4.9294    1.3472 H   0  0  0  0  0  0  0  0  0  0  0  0
    7.0641   -5.4671   -0.0780 H   0  0  0  0  0  0  0  0  0  0  0  0
    3.8805   -4.1851    1.1850 H   0  0  0  0  0  0  0  0  0  0  0  0
    2.1259   -2.5662    1.6116 H   0  0  0  0  0  0  0  0  0  0  0  0
  1  2  1  0
  2  3  1  0
  3  4  1  0
  4  5  1  0
  3  6  1  0
  6  7  1  0
  7  8  1  0
  8  9  1  0
  9 10  2  0
 10 11  1  0
 11 12  1  0
 12 13  1  0
 13 14  2  0
 13 15  1  0
 15 16  1  0
 16 17  1  0
 17 18  2  0
 18 19  1  0
 19 20  2  0
 19 21  1  0
 21 22  2  0
 22 23  1  0
 23 24  2  0
 24 25  1  0
 25 26  2  0
 26 27  1  0
 27 28  1  0
 26 29  1  0
 29 30  2  0
 18  9  1  0
 30 23  1  0
 16 11  1  0
  1 31  1  0
  1 32  1  0
  1 33  1  0
  2 34  1  0
  2 35  1  0
  4 36  1  0
  4 37  1  0
  5 38  1  0
  5 39  1  0
  5 40  1  0
  6 41  1  0
  6 42  1  0
  7 43  1  0
  7 44  1  0
 10 45  1  0
 11 46  1  1
 16 47  1  6
 17 48  1  0
 21 49  1  0
 22 50  1  0
 24 51  1  0
 25 52  1  0
 28 53  1  0
 28 54  1  0
 28 55  1  0
 29 56  1  0
 30 57  1  0
M  END
$$$$
