
     RDKit          3D

 41 42  0  0  0  0  0  0  0  0999 V2000
   -5.1176   -1.5850   -0.8606 C   0  0  0  0  0  0  0  0  0  0  0  0
   -4.9016   -0.8283    0.4433 C   0  0  0  0  0  0  0  0  0  0  0  0
   -3.8439    0.1848    0.3169 N   0  0  0  0  0  0  0  0  0  0  0  0
   -4.2782    1.5881    0.3190 C   0  0  0  0  0  0  0  0  0  0  0  0
   -4.6525    2.0557   -1.0791 C   0  0  0  0  0  0  0  0  0  0  0  0
   -2.4979   -0.1589    0.2351 C   0  0  0  0  0  0  0  0  0  0  0  0
   -2.0310   -1.4471    0.5445 C   0  0  0  0  0  0  0  0  0  0  0  0
   -0.6734   -1.7982    0.4663 C   0  0  0  0  0  0  0  0  0  0  0  0
    0.2842   -0.8623    0.0815 C   0  0  0  0  0  0  0  0  0  0  0  0
    1.6897   -1.2743   -0.0128 C   0  0  0  0  0  0  0  0  0  0  0  0
    2.7237   -0.4849    0.3165 C   0  0  0  0  0  0  0  0  0  0  0  0
    4.1107   -1.0161    0.2145 C   0  0  0  0  0  0  0  0  0  0  0  0
    4.3369   -2.2074    0.0273 O   0  0  0  0  0  0  0  0  0  0  0  0
    5.2400   -0.0732    0.3842 C   0  0  0  0  0  0  0  0  0  0  0  0
    6.4706   -0.5558    0.8375 C   0  0  0  0  0  0  0  0  0  0  0  0
    7.5410    0.3222    0.9924 C   0  0  0  0  0  0  0  0  0  0  0  0
    7.3452    1.6576    0.6797 C   0  0  0  0  0  0  0  0  0  0  0  0
    6.1748    2.1571    0.2247 N   0  0  0  0  0  0  0  0  0  0  0  0
    5.1518    1.2787    0.0779 C   0  0  0  0  0  0  0  0  0  0  0  0
   -0.1512    0.4190   -0.2511 C   0  0  0  0  0  0  0  0  0  0  0  0
   -1.5123    0.7574   -0.1689 C   0  0  0  0  0  0  0  0  0  0  0  0
   -5.9409   -2.2978   -0.7487 H   0  0  0  0  0  0  0  0  0  0  0  0
   -4.2285   -2.1466   -1.1616 H   0  0  0  0  0  0  0  0  0  0  0  0
   -5.3705   -0.9025   -1.6777 H   0  0  0  0  0  0  0  0  0  0  0  0
   -4.6933   -1.5191    1.2677 H   0  0  0  0  0  0  0  0  0  0  0  0
   -5.8519   -0.3491    0.7105 H   0  0  0  0  0  0  0  0  0  0  0  0
   -3.5190    2.2481    0.7544 H   0  0  0  0  0  0  0  0  0  0  0  0
   -5.1508    1.7051    0.9741 H   0  0  0  0  0  0  0  0  0  0  0  0
   -5.5091    1.4948   -1.4656 H   0  0  0  0  0  0  0  0  0  0  0  0
   -3.8256    1.9303   -1.7846 H   0  0  0  0  0  0  0  0  0  0  0  0
   -4.9279    3.1149   -1.0612 H   0  0  0  0  0  0  0  0  0  0  0  0
   -2.7141   -2.2253    0.8699 H   0  0  0  0  0  0  0  0  0  0  0  0
   -0.3811   -2.8143    0.7227 H   0  0  0  0  0  0  0  0  0  0  0  0
    1.8629   -2.2958   -0.3492 H   0  0  0  0  0  0  0  0  0  0  0  0
    2.5740    0.5183    0.6938 H   0  0  0  0  0  0  0  0  0  0  0  0
    6.5961   -1.6113    1.0699 H   0  0  0  0  0  0  0  0  0  0  0  0
    8.5043   -0.0289    1.3460 H   0  0  0  0  0  0  0  0  0  0  0  0
    8.1491    2.3812    0.7849 H   0  0  0  0  0  0  0  0  0  0  0  0
    4.2481    1.7254   -0.3246 H   0  0  0  0  0  0  0  0  0  0  0  0
    0.5484    1.1749   -0.5972 H   0  0  0  0  0  0  0  0  0  0  0  0
   -1.7794    1.7684   -0.4610 H   0  0  0  0  0  0  0  0  0  0  0  0
  1  2  1  0
  2  3  1  0
  3  4  1  0
  4  5  1  0
  3  6  1  0
  6  7  2  0
  7  8  1  0
  8  9  2  0
  9 10  1  0
 10 11  2  3
 11 12  1  0
 12 13  2  0
 12 14  1  0
 14 15  2  0
 15 16  1  0
 16 17  2  0
 17 18  1  0
 18 19  2  0
  9 20  1  0
 20 21  2  0
 21  6  1  0
 19 14  1  0
  1 22  1  0
  1 23  1  0
  1 24  1  0
  2 25  1  0
  2 26  1  0
  4 27  1  0
  4 28  1  0
  5 29  1  0
  5 30  1  0
  5 31  1  0
  7 32  1  0
  8 33  1  0
 10 34  1  0
 11 35  1  0
 15 36  1  0
 16 37  1  0
 17 38  1  0
 19 39  1  0
 20 40  1  0
 21 41  1  0
M  END
$$$$
