
     RDKit          3D

 45 47  0  0  0  0  0  0  0  0999 V2000
   -6.9483    1.7476    0.5203 C   0  0  0  0  0  0  0  0  0  0  0  0
   -6.6675    0.4723    1.2955 C   0  0  0  0  0  0  0  0  0  0  0  0
   -5.9850   -0.4726    0.4762 O   0  0  0  0  0  0  0  0  0  0  0  0
   -4.6144   -0.5187    0.4976 C   0  0  0  0  0  0  0  0  0  0  0  0
   -3.7954    0.4559    1.0740 C   0  0  0  0  0  0  0  0  0  0  0  0
   -2.4044    0.3263    1.0342 C   0  0  0  0  0  0  0  0  0  0  0  0
   -1.8151   -0.7729    0.4064 C   0  0  0  0  0  0  0  0  0  0  0  0
   -0.3577   -0.9341    0.3682 C   0  0  0  0  0  0  0  0  0  0  0  0
    0.5062   -0.1393   -0.2778 C   0  0  0  0  0  0  0  0  0  0  0  0
    0.1587    1.2519   -1.2383 S   0  0  0  0  0  0  0  0  0  0  0  0
    1.8561    1.5507   -1.6068 C   0  0  0  0  0  0  0  0  0  0  0  0
    2.3789    2.7918   -2.5911 S   0  0  0  0  0  0  0  0  0  0  0  0
    2.6148    0.5803   -0.9857 N   0  0  0  0  0  0  0  0  0  0  0  0
    4.0230    0.5855   -1.0165 N   0  0  0  0  0  0  0  0  0  0  0  0
    4.6484    1.2476    0.0278 C   0  0  0  0  0  0  0  0  0  0  0  0
    4.0544    1.9548    0.8355 O   0  0  0  0  0  0  0  0  0  0  0  0
    6.1111    1.0257    0.1583 C   0  0  0  0  0  0  0  0  0  0  0  0
    6.6904    1.1609    1.4202 C   0  0  0  0  0  0  0  0  0  0  0  0
    8.0517    0.9541    1.5343 C   0  0  0  0  0  0  0  0  0  0  0  0
    8.8485    0.6365    0.4914 N   0  0  0  0  0  0  0  0  0  0  0  0
    8.2660    0.5342   -0.7216 C   0  0  0  0  0  0  0  0  0  0  0  0
    6.9124    0.7176   -0.9420 C   0  0  0  0  0  0  0  0  0  0  0  0
    1.9706   -0.4047   -0.2586 C   0  0  0  0  0  0  0  0  0  0  0  0
    2.4994   -1.3683    0.2803 O   0  0  0  0  0  0  0  0  0  0  0  0
   -2.6300   -1.7539   -0.1714 C   0  0  0  0  0  0  0  0  0  0  0  0
   -4.0251   -1.6317   -0.1372 C   0  0  0  0  0  0  0  0  0  0  0  0
   -4.8963   -2.5438   -0.6820 O   0  0  0  0  0  0  0  0  0  0  0  0
   -4.3452   -3.6499   -1.3811 C   0  0  0  0  0  0  0  0  0  0  0  0
   -6.0222    2.2395    0.2087 H   0  0  0  0  0  0  0  0  0  0  0  0
   -7.5288    2.4488    1.1267 H   0  0  0  0  0  0  0  0  0  0  0  0
   -7.5101    1.5243   -0.3929 H   0  0  0  0  0  0  0  0  0  0  0  0
   -7.6263    0.0141    1.5640 H   0  0  0  0  0  0  0  0  0  0  0  0
   -6.1522    0.6631    2.2433 H   0  0  0  0  0  0  0  0  0  0  0  0
   -4.2046    1.3378    1.5542 H   0  0  0  0  0  0  0  0  0  0  0  0
   -1.7902    1.0956    1.4976 H   0  0  0  0  0  0  0  0  0  0  0  0
    0.0134   -1.7995    0.9166 H   0  0  0  0  0  0  0  0  0  0  0  0
    4.4395   -0.2730   -1.3632 H   0  0  0  0  0  0  0  0  0  0  0  0
    6.0969    1.4181    2.2917 H   0  0  0  0  0  0  0  0  0  0  0  0
    8.5544    1.0416    2.4936 H   0  0  0  0  0  0  0  0  0  0  0  0
    8.9425    0.2994   -1.5392 H   0  0  0  0  0  0  0  0  0  0  0  0
    6.5200    0.6488   -1.9495 H   0  0  0  0  0  0  0  0  0  0  0  0
   -2.1556   -2.6058   -0.6471 H   0  0  0  0  0  0  0  0  0  0  0  0
   -3.7447   -3.3199   -2.2352 H   0  0  0  0  0  0  0  0  0  0  0  0
   -3.7627   -4.2896   -0.7100 H   0  0  0  0  0  0  0  0  0  0  0  0
   -5.1755   -4.2470   -1.7703 H   0  0  0  0  0  0  0  0  0  0  0  0
  1  2  1  0
  2  3  1  0
  3  4  1  0
  4  5  2  0
  5  6  1  0
  6  7  2  0
  7  8  1  0
  8  9  2  3
  9 10  1  0
 10 11  1  0
 11 12  2  0
 11 13  1  0
 13 14  1  0
 14 15  1  0
 15 16  2  0
 15 17  1  0
 17 18  2  0
 18 19  1  0
 19 20  2  0
 20 21  1  0
 21 22  2  0
 13 23  1  0
 23 24  2  0
  7 25  1  0
 25 26  2  0
 26 27  1  0
 27 28  1  0
 26  4  1  0
 23  9  1  0
 22 17  1  0
  1 29  1  0
  1 30  1  0
  1 31  1  0
  2 32  1  0
  2 33  1  0
  5 34  1  0
  6 35  1  0
  8 36  1  0
 14 37  1  0
 18 38  1  0
 19 39  1  0
 21 40  1  0
 22 41  1  0
 25 42  1  0
 28 43  1  0
 28 44  1  0
 28 45  1  0
M  END
$$$$
