
     RDKit          3D

 85 88  0  0  0  0  0  0  0  0999 V2000
    6.2406   -7.3563    0.4879 C   0  0  0  0  0  0  0  0  0  0  0  0
    6.4820   -6.1443   -0.2131 O   0  0  0  0  0  0  0  0  0  0  0  0
    5.8085   -5.0344    0.2131 C   0  0  0  0  0  0  0  0  0  0  0  0
    4.9450   -4.9656    1.3044 C   0  0  0  0  0  0  0  0  0  0  0  0
    4.3200   -3.7543    1.6319 C   0  0  0  0  0  0  0  0  0  0  0  0
    4.5498   -2.5979    0.8767 C   0  0  0  0  0  0  0  0  0  0  0  0
    3.8658   -1.4265    1.2603 N   0  0  0  0  0  0  0  0  0  0  0  0
    4.0311   -0.1497    0.7486 C   0  0  0  0  0  0  0  0  0  0  0  0
    4.8996    0.1943   -0.0419 O   0  0  0  0  0  0  0  0  0  0  0  0
    3.0322    0.6867    1.2215 N   0  0  0  0  0  0  0  0  0  0  0  0
    2.9051    2.0670    0.9622 C   0  0  0  0  0  0  0  0  0  0  0  0
    4.0160    2.8741    0.6982 C   0  0  0  0  0  0  0  0  0  0  0  0
    3.8679    4.2539    0.5602 C   0  0  0  0  0  0  0  0  0  0  0  0
    2.6067    4.8339    0.6860 C   0  0  0  0  0  0  0  0  0  0  0  0
    1.4785    4.0323    0.9165 C   0  0  0  0  0  0  0  0  0  0  0  0
    1.6207    2.6465    1.0332 C   0  0  0  0  0  0  0  0  0  0  0  0
    0.5200    1.8347    1.2120 O   0  0  0  0  0  0  0  0  0  0  0  0
    0.0736    1.3063   -0.0616 C   0  0  0  0  0  0  0  0  0  0  0  0
   -0.1802   -0.2143    0.1164 C   0  0  0  0  0  0  0  0  0  0  0  0
   -0.3379   -0.9629   -1.1386 N   0  0  0  0  0  0  0  0  0  0  0  0
    0.8085   -0.9801   -2.0399 C   0  0  0  0  0  0  0  0  0  0  0  0
   -1.5407   -1.4199   -1.6538 C   0  0  0  0  0  0  0  0  0  0  0  0
   -1.6889   -1.6949   -2.8398 O   0  0  0  0  0  0  0  0  0  0  0  0
   -2.5504   -1.5605   -0.7352 N   0  0  0  0  0  0  0  0  0  0  0  0
   -3.8217   -2.1646   -1.1255 C   0  0  0  0  0  0  0  0  0  0  0  0
   -3.6999   -3.6957   -1.1675 C   0  0  0  0  0  0  0  0  0  0  0  0
   -5.0316   -4.3626   -1.4956 C   0  0  0  0  0  0  0  0  0  0  0  0
   -6.1338   -3.9172   -0.5394 C   0  0  0  0  0  0  0  0  0  0  0  0
   -6.2606   -2.3981   -0.4985 C   0  0  0  0  0  0  0  0  0  0  0  0
   -4.9313   -1.7307   -0.1606 C   0  0  0  0  0  0  0  0  0  0  0  0
   -1.1706    2.0749   -0.5679 C   0  0  0  0  0  0  0  0  0  0  0  0
   -2.3909    1.9322    0.3442 C   0  0  0  0  0  0  0  0  0  0  0  0
   -0.8381    3.5545   -0.8596 C   0  0  0  0  0  0  0  0  0  0  0  0
   -0.9024    4.4535    0.3020 N   0  0  0  0  0  0  0  0  0  0  0  0
   -2.1080    5.3117    0.4211 C   0  0  0  0  0  0  0  0  0  0  0  0
   -2.7652    5.2650    1.8056 C   0  0  0  0  0  0  0  0  0  0  0  0
   -1.8295    6.7677   -0.0077 C   0  0  0  0  0  0  0  0  0  0  0  0
   -3.0380    7.4209   -0.3989 O   0  0  0  0  0  0  0  0  0  0  0  0
    0.1987    4.7414    1.1131 C   0  0  0  0  0  0  0  0  0  0  0  0
    0.1976    5.6321    1.9618 O   0  0  0  0  0  0  0  0  0  0  0  0
    5.4087   -2.6743   -0.2184 C   0  0  0  0  0  0  0  0  0  0  0  0
    6.0350   -3.8842   -0.5440 C   0  0  0  0  0  0  0  0  0  0  0  0
    6.5558   -7.2792    1.5335 H   0  0  0  0  0  0  0  0  0  0  0  0
    5.1888   -7.6501    0.4136 H   0  0  0  0  0  0  0  0  0  0  0  0
    6.8392   -8.1421    0.0179 H   0  0  0  0  0  0  0  0  0  0  0  0
    4.7374   -5.8309    1.9240 H   0  0  0  0  0  0  0  0  0  0  0  0
    3.6524   -3.7348    2.4900 H   0  0  0  0  0  0  0  0  0  0  0  0
    3.3006   -1.4927    2.0931 H   0  0  0  0  0  0  0  0  0  0  0  0
    2.2118    0.2503    1.6051 H   0  0  0  0  0  0  0  0  0  0  0  0
    5.0186    2.4552    0.6466 H   0  0  0  0  0  0  0  0  0  0  0  0
    4.7428    4.8800    0.3925 H   0  0  0  0  0  0  0  0  0  0  0  0
    2.5027    5.9160    0.6240 H   0  0  0  0  0  0  0  0  0  0  0  0
    0.8639    1.4221   -0.8179 H   0  0  0  0  0  0  0  0  0  0  0  0
    0.6709   -0.6786    0.6272 H   0  0  0  0  0  0  0  0  0  0  0  0
   -1.0199   -0.3718    0.7974 H   0  0  0  0  0  0  0  0  0  0  0  0
    0.7369   -1.8156   -2.7437 H   0  0  0  0  0  0  0  0  0  0  0  0
    0.8345   -0.0443   -2.6046 H   0  0  0  0  0  0  0  0  0  0  0  0
    1.7299   -1.0920   -1.4621 H   0  0  0  0  0  0  0  0  0  0  0  0
   -2.2256   -1.8212    0.1812 H   0  0  0  0  0  0  0  0  0  0  0  0
   -4.0734   -1.8024   -2.1315 H   0  0  0  0  0  0  0  0  0  0  0  0
   -3.3396   -4.0628   -0.1978 H   0  0  0  0  0  0  0  0  0  0  0  0
   -2.9499   -3.9954   -1.9080 H   0  0  0  0  0  0  0  0  0  0  0  0
   -5.3196   -4.1173   -2.5266 H   0  0  0  0  0  0  0  0  0  0  0  0
   -4.9199   -5.4519   -1.4479 H   0  0  0  0  0  0  0  0  0  0  0  0
   -5.9165   -4.2925    0.4690 H   0  0  0  0  0  0  0  0  0  0  0  0
   -7.0870   -4.3606   -0.8460 H   0  0  0  0  0  0  0  0  0  0  0  0
   -7.0192   -2.1101    0.2378 H   0  0  0  0  0  0  0  0  0  0  0  0
   -6.6103   -2.0376   -1.4736 H   0  0  0  0  0  0  0  0  0  0  0  0
   -4.6491   -1.9773    0.8735 H   0  0  0  0  0  0  0  0  0  0  0  0
   -5.0484   -0.6402   -0.1964 H   0  0  0  0  0  0  0  0  0  0  0  0
   -1.4385    1.6333   -1.5376 H   0  0  0  0  0  0  0  0  0  0  0  0
   -2.1569    2.1994    1.3788 H   0  0  0  0  0  0  0  0  0  0  0  0
   -3.2161    2.5613   -0.0026 H   0  0  0  0  0  0  0  0  0  0  0  0
   -2.7703    0.9086    0.3505 H   0  0  0  0  0  0  0  0  0  0  0  0
   -1.5396    3.9312   -1.6163 H   0  0  0  0  0  0  0  0  0  0  0  0
    0.1512    3.6398   -1.3268 H   0  0  0  0  0  0  0  0  0  0  0  0
   -2.8617    4.9040   -0.2640 H   0  0  0  0  0  0  0  0  0  0  0  0
   -2.9252    4.2348    2.1355 H   0  0  0  0  0  0  0  0  0  0  0  0
   -2.1632    5.7649    2.5702 H   0  0  0  0  0  0  0  0  0  0  0  0
   -3.7400    5.7652    1.7810 H   0  0  0  0  0  0  0  0  0  0  0  0
   -1.3794    7.3488    0.8022 H   0  0  0  0  0  0  0  0  0  0  0  0
   -1.1413    6.8026   -0.8602 H   0  0  0  0  0  0  0  0  0  0  0  0
   -3.2402    7.1299   -1.3023 H   0  0  0  0  0  0  0  0  0  0  0  0
    5.6152   -1.8147   -0.8481 H   0  0  0  0  0  0  0  0  0  0  0  0
    6.7063   -3.9254   -1.3998 H   0  0  0  0  0  0  0  0  0  0  0  0
  1  2  1  0
  2  3  1  0
  3  4  2  0
  4  5  1  0
  5  6  2  0
  6  7  1  0
  7  8  1  0
  8  9  2  0
  8 10  1  0
 10 11  1  0
 11 12  2  0
 12 13  1  0
 13 14  2  0
 14 15  1  0
 15 16  2  0
 16 17  1  0
 17 18  1  0
 18 19  1  0
 19 20  1  0
 20 21  1  0
 20 22  1  0
 22 23  2  0
 22 24  1  0
 24 25  1  0
 25 26  1  0
 26 27  1  0
 27 28  1  0
 28 29  1  0
 29 30  1  0
 18 31  1  0
 31 32  1  0
 31 33  1  0
 33 34  1  0
 34 35  1  0
 35 36  1  0
 35 37  1  0
 37 38  1  0
 34 39  1  0
 39 40  2  0
  6 41  1  0
 41 42  2  0
 42  3  1  0
 16 11  1  0
 30 25  1  0
 39 15  1  0
  1 43  1  0
  1 44  1  0
  1 45  1  0
  4 46  1  0
  5 47  1  0
  7 48  1  0
 10 49  1  0
 12 50  1  0
 13 51  1  0
 14 52  1  0
 18 53  1  0
 19 54  1  0
 19 55  1  0
 21 56  1  0
 21 57  1  0
 21 58  1  0
 24 59  1  0
 25 60  1  0
 26 61  1  0
 26 62  1  0
 27 63  1  0
 27 64  1  0
 28 65  1  0
 28 66  1  0
 29 67  1  0
 29 68  1  0
 30 69  1  0
 30 70  1  0
 31 71  1  0
 32 72  1  0
 32 73  1  0
 32 74  1  0
 33 75  1  0
 33 76  1  0
 35 77  1  0
 36 78  1  0
 36 79  1  0
 36 80  1  0
 37 81  1  0
 37 82  1  0
 38 83  1  0
 41 84  1  0
 42 85  1  0
M  END
$$$$
