
     RDKit          3D

 36 38  0  0  0  0  0  0  0  0999 V2000
   -2.7061    0.8714   -2.2511 C   0  0  0  0  0  0  0  0  0  0  0  0
   -2.2768    0.2568   -0.9554 C   0  0  0  0  0  0  0  0  0  0  0  0
   -0.9537    0.2320   -0.6805 N   0  0  0  0  0  0  0  0  0  0  0  0
   -0.6056   -0.3478    0.4986 C   0  0  0  0  0  0  0  0  0  0  0  0
    1.1457   -0.3902    0.8694 S   0  0  0  0  0  6  0  0  0  0  0  0
    1.3675    0.4539    2.0348 O   0  0  0  0  0  0  0  0  0  0  0  0
    1.5638   -1.7849    0.8519 O   0  0  0  0  0  0  0  0  0  0  0  0
    1.8721    0.4226   -0.5478 C   0  0  0  0  0  0  0  0  0  0  0  0
    3.3729    0.4731   -0.3902 C   0  0  0  0  0  0  0  0  0  0  0  0
    4.1751   -0.5744   -0.8682 C   0  0  0  0  0  0  0  0  0  0  0  0
    5.5633   -0.5280   -0.7203 C   0  0  0  0  0  0  0  0  0  0  0  0
    6.1572    0.5637   -0.0918 C   0  0  0  0  0  0  0  0  0  0  0  0
    7.8675    0.6215    0.0875 Cl  0  0  0  0  0  0  0  0  0  0  0  0
    5.3744    1.6081    0.3941 C   0  0  0  0  0  0  0  0  0  0  0  0
    3.9861    1.5628    0.2469 C   0  0  0  0  0  0  0  0  0  0  0  0
   -1.4126   -0.9027    1.4259 N   0  0  0  0  0  0  0  0  0  0  0  0
   -2.7030   -0.8338    1.0962 C   0  0  0  0  0  0  0  0  0  0  0  0
   -3.1895   -0.2666   -0.0696 C   0  0  0  0  0  0  0  0  0  0  0  0
   -4.6728   -0.3902   -0.1519 C   0  0  0  0  0  0  0  0  0  0  0  0
   -5.0288   -0.6863    1.3139 C   0  0  0  0  0  0  0  0  0  0  0  0
   -3.8191   -1.4096    1.9212 C   0  0  0  0  0  0  0  0  0  0  0  0
   -1.8381    1.2043   -2.8294 H   0  0  0  0  0  0  0  0  0  0  0  0
   -3.3441    1.7409   -2.0659 H   0  0  0  0  0  0  0  0  0  0  0  0
   -3.2555    0.1423   -2.8547 H   0  0  0  0  0  0  0  0  0  0  0  0
    1.4620    1.4351   -0.6191 H   0  0  0  0  0  0  0  0  0  0  0  0
    1.6026   -0.1367   -1.4493 H   0  0  0  0  0  0  0  0  0  0  0  0
    3.7251   -1.4420   -1.3481 H   0  0  0  0  0  0  0  0  0  0  0  0
    6.1723   -1.3483   -1.0906 H   0  0  0  0  0  0  0  0  0  0  0  0
    5.8359    2.4555    0.8939 H   0  0  0  0  0  0  0  0  0  0  0  0
    3.3871    2.3799    0.6459 H   0  0  0  0  0  0  0  0  0  0  0  0
   -5.1563    0.5275   -0.4978 H   0  0  0  0  0  0  0  0  0  0  0  0
   -4.9477   -1.2274   -0.8016 H   0  0  0  0  0  0  0  0  0  0  0  0
   -5.1832    0.2635    1.8449 H   0  0  0  0  0  0  0  0  0  0  0  0
   -5.9537   -1.2633    1.4111 H   0  0  0  0  0  0  0  0  0  0  0  0
   -3.8801   -2.4907    1.7610 H   0  0  0  0  0  0  0  0  0  0  0  0
   -3.7038   -1.1921    2.9861 H   0  0  0  0  0  0  0  0  0  0  0  0
  1  2  1  0
  2  3  2  0
  3  4  1  0
  4  5  1  0
  5  6  2  0
  5  7  2  0
  5  8  1  0
  8  9  1  0
  9 10  2  0
 10 11  1  0
 11 12  2  0
 12 13  1  0
 12 14  1  0
 14 15  2  0
  4 16  2  0
 16 17  1  0
 17 18  2  0
 18 19  1  0
 19 20  1  0
 20 21  1  0
 18  2  1  0
 15  9  1  0
 21 17  1  0
  1 22  1  0
  1 23  1  0
  1 24  1  0
  8 25  1  0
  8 26  1  0
 10 27  1  0
 11 28  1  0
 14 29  1  0
 15 30  1  0
 19 31  1  0
 19 32  1  0
 20 33  1  0
 20 34  1  0
 21 35  1  0
 21 36  1  0
M  END
$$$$
