
     RDKit          3D

 57 59  0  0  0  0  0  0  0  0999 V2000
    9.2429   -2.2228   -0.6584 C   0  0  0  0  0  0  0  0  0  0  0  0
    8.3492   -2.9714    0.1555 O   0  0  0  0  0  0  0  0  0  0  0  0
    7.0163   -2.8661   -0.1346 C   0  0  0  0  0  0  0  0  0  0  0  0
    6.1788   -3.6266    0.6845 C   0  0  0  0  0  0  0  0  0  0  0  0
    4.7939   -3.6127    0.5003 C   0  0  0  0  0  0  0  0  0  0  0  0
    4.2250   -2.8385   -0.5176 C   0  0  0  0  0  0  0  0  0  0  0  0
    2.7323   -2.7969   -0.7129 C   0  0  0  0  0  0  0  0  0  0  0  0
    2.1484   -1.7017    0.0135 N   0  0  0  0  0  0  0  0  0  0  0  0
    1.8809   -0.4868   -0.5690 C   0  0  0  0  0  0  0  0  0  0  0  0
    2.0047   -0.2029   -1.7526 O   0  0  0  0  0  0  0  0  0  0  0  0
    1.3838    0.5768    0.4380 C   0  0  0  0  0  0  0  0  0  0  0  0
    1.4731    0.3728    1.6410 O   0  0  0  0  0  0  0  0  0  0  0  0
    0.8487    1.6966   -0.1615 N   0  0  0  0  0  0  0  0  0  0  0  0
    0.1223    2.6916    0.6016 C   0  0  0  0  0  0  0  0  0  0  0  0
   -1.4003    2.4442    0.7062 C   0  0  0  0  0  0  0  0  0  0  0  0
   -1.9594    3.4186    1.6086 O   0  0  0  0  0  0  0  0  0  0  0  0
   -2.8593    2.7220    2.4770 C   0  0  0  0  0  0  0  0  0  0  0  0
   -2.2886    1.3270    2.5885 C   0  0  0  0  0  0  0  0  0  0  0  0
   -1.6987    1.1204    1.2684 N   0  0  0  0  0  0  0  0  0  0  0  0
   -2.2865   -0.0690    0.2501 S   0  0  0  0  0  6  0  0  0  0  0  0
   -1.5380   -0.0055   -0.9877 O   0  0  0  0  0  0  0  0  0  0  0  0
   -2.3769   -1.3007    1.0045 O   0  0  0  0  0  0  0  0  0  0  0  0
   -3.9521    0.4531   -0.1098 C   0  0  0  0  0  0  0  0  0  0  0  0
   -5.0021    0.0191    0.7023 C   0  0  0  0  0  0  0  0  0  0  0  0
   -6.3072    0.4158    0.4059 C   0  0  0  0  0  0  0  0  0  0  0  0
   -6.5746    1.2232   -0.7046 C   0  0  0  0  0  0  0  0  0  0  0  0
   -7.8944    1.5370   -0.8736 O   0  0  0  0  0  0  0  0  0  0  0  0
   -8.2311    2.3226   -2.0107 C   0  0  0  0  0  0  0  0  0  0  0  0
   -5.5223    1.6265   -1.5293 C   0  0  0  0  0  0  0  0  0  0  0  0
   -4.2107    1.2342   -1.2396 C   0  0  0  0  0  0  0  0  0  0  0  0
    5.0677   -2.0678   -1.3300 C   0  0  0  0  0  0  0  0  0  0  0  0
    6.4544   -2.0836   -1.1428 C   0  0  0  0  0  0  0  0  0  0  0  0
    9.0622   -1.1476   -0.5584 H   0  0  0  0  0  0  0  0  0  0  0  0
   10.2601   -2.4227   -0.3084 H   0  0  0  0  0  0  0  0  0  0  0  0
    9.1836   -2.5388   -1.7052 H   0  0  0  0  0  0  0  0  0  0  0  0
    6.6100   -4.2338    1.4767 H   0  0  0  0  0  0  0  0  0  0  0  0
    4.1663   -4.2093    1.1578 H   0  0  0  0  0  0  0  0  0  0  0  0
    2.2730   -3.7202   -0.3429 H   0  0  0  0  0  0  0  0  0  0  0  0
    2.4908   -2.7194   -1.7792 H   0  0  0  0  0  0  0  0  0  0  0  0
    2.1028   -1.7344    1.0276 H   0  0  0  0  0  0  0  0  0  0  0  0
    0.7217    1.6253   -1.1689 H   0  0  0  0  0  0  0  0  0  0  0  0
    0.2986    3.6622    0.1245 H   0  0  0  0  0  0  0  0  0  0  0  0
    0.5555    2.7561    1.6074 H   0  0  0  0  0  0  0  0  0  0  0  0
   -1.8669    2.5951   -0.2712 H   0  0  0  0  0  0  0  0  0  0  0  0
   -3.8498    2.7205    2.0103 H   0  0  0  0  0  0  0  0  0  0  0  0
   -2.9241    3.2333    3.4407 H   0  0  0  0  0  0  0  0  0  0  0  0
   -1.4810    1.2949    3.3284 H   0  0  0  0  0  0  0  0  0  0  0  0
   -3.0403    0.5903    2.8773 H   0  0  0  0  0  0  0  0  0  0  0  0
   -4.8199   -0.6303    1.5556 H   0  0  0  0  0  0  0  0  0  0  0  0
   -7.1285    0.0837    1.0378 H   0  0  0  0  0  0  0  0  0  0  0  0
   -7.9667    1.8070   -2.9398 H   0  0  0  0  0  0  0  0  0  0  0  0
   -9.3155    2.4675   -2.0076 H   0  0  0  0  0  0  0  0  0  0  0  0
   -7.7625    3.3108   -1.9589 H   0  0  0  0  0  0  0  0  0  0  0  0
   -5.6893    2.2383   -2.4103 H   0  0  0  0  0  0  0  0  0  0  0  0
   -3.4050    1.5358   -1.9054 H   0  0  0  0  0  0  0  0  0  0  0  0
    4.6430   -1.4426   -2.1145 H   0  0  0  0  0  0  0  0  0  0  0  0
    7.0619   -1.4700   -1.7989 H   0  0  0  0  0  0  0  0  0  0  0  0
  1  2  1  0
  2  3  1  0
  3  4  2  0
  4  5  1  0
  5  6  2  0
  6  7  1  0
  7  8  1  0
  8  9  1  0
  9 10  2  0
  9 11  1  0
 11 12  2  0
 11 13  1  0
 13 14  1  0
 14 15  1  0
 15 16  1  0
 16 17  1  0
 17 18  1  0
 18 19  1  0
 19 20  1  0
 20 21  2  0
 20 22  2  0
 20 23  1  0
 23 24  2  0
 24 25  1  0
 25 26  2  0
 26 27  1  0
 27 28  1  0
 26 29  1  0
 29 30  2  0
  6 31  1  0
 31 32  2  0
 32  3  1  0
 19 15  1  0
 30 23  1  0
  1 33  1  0
  1 34  1  0
  1 35  1  0
  4 36  1  0
  5 37  1  0
  7 38  1  0
  7 39  1  0
  8 40  1  0
 13 41  1  0
 14 42  1  0
 14 43  1  0
 15 44  1  0
 17 45  1  0
 17 46  1  0
 18 47  1  0
 18 48  1  0
 24 49  1  0
 25 50  1  0
 28 51  1  0
 28 52  1  0
 28 53  1  0
 29 54  1  0
 30 55  1  0
 31 56  1  0
 32 57  1  0
M  END
$$$$
