
     RDKit          3D

 41 42  0  0  0  0  0  0  0  0999 V2000
    1.1660    5.3006    0.5842 C   0  0  0  0  0  0  0  0  0  0  0  0
    0.2590    4.2604    1.2139 C   0  0  0  0  0  0  0  0  0  0  0  0
    0.3442    3.0283    0.4841 O   0  0  0  0  0  0  0  0  0  0  0  0
    1.3300    2.1648    0.8737 C   0  0  0  0  0  0  0  0  0  0  0  0
    2.1642    2.4174    1.7401 O   0  0  0  0  0  0  0  0  0  0  0  0
    1.3249    0.8558    0.0387 C   0  0  0  0  0  0  0  0  0  0  0  0
   -0.0114    0.4795   -0.4557 N   0  0  0  0  0  0  0  0  0  0  0  0
   -1.0385    0.2595    0.4358 C   0  0  0  0  0  0  0  0  0  0  0  0
   -0.9708    0.5697    1.6197 O   0  0  0  0  0  0  0  0  0  0  0  0
   -2.2440   -0.4332   -0.0955 C   0  0  0  0  0  0  0  0  0  0  0  0
   -2.5841   -0.3965   -1.4552 C   0  0  0  0  0  0  0  0  0  0  0  0
   -3.7229   -1.0658   -1.9095 C   0  0  0  0  0  0  0  0  0  0  0  0
   -4.5260   -1.7665   -1.0092 C   0  0  0  0  0  0  0  0  0  0  0  0
   -4.1937   -1.7898    0.3448 C   0  0  0  0  0  0  0  0  0  0  0  0
   -5.1893   -2.6521    1.4517 Cl  0  0  0  0  0  0  0  0  0  0  0  0
   -3.0611   -1.1242    0.8076 C   0  0  0  0  0  0  0  0  0  0  0  0
    1.8326   -0.2632    0.8621 N   0  0  0  0  0  0  0  0  0  0  0  0
    1.8407   -1.5339    0.4132 C   0  0  0  0  0  0  0  0  0  0  0  0
    1.5606   -1.9203   -0.8132 N   0  0  0  0  0  0  0  0  0  0  0  0
    1.6003   -3.2887   -0.9677 N   0  0  0  0  0  0  0  0  0  0  0  0
    1.9260   -3.9000    0.1506 C   0  0  0  0  0  0  0  0  0  0  0  0
    2.0660   -5.3687    0.3089 C   0  0  0  0  0  0  0  0  0  0  0  0
    2.1852   -2.8426    1.4766 S   0  0  0  0  0  0  0  0  0  0  0  0
    2.2959    1.2610   -1.1218 C   0  0  0  0  0  0  0  0  0  0  0  0
    3.5793    1.3986   -0.7135 F   0  0  0  0  0  0  0  0  0  0  0  0
    2.2940    0.3404   -2.1204 F   0  0  0  0  0  0  0  0  0  0  0  0
    1.9364    2.4325   -1.7080 F   0  0  0  0  0  0  0  0  0  0  0  0
    1.0728    6.2602    1.0999 H   0  0  0  0  0  0  0  0  0  0  0  0
    0.9135    5.4408   -0.4720 H   0  0  0  0  0  0  0  0  0  0  0  0
    2.2129    4.9836    0.6209 H   0  0  0  0  0  0  0  0  0  0  0  0
   -0.7818    4.5953    1.1563 H   0  0  0  0  0  0  0  0  0  0  0  0
    0.4918    4.1132    2.2747 H   0  0  0  0  0  0  0  0  0  0  0  0
    0.0269   -0.1559   -1.2462 H   0  0  0  0  0  0  0  0  0  0  0  0
   -1.9880    0.1626   -2.1717 H   0  0  0  0  0  0  0  0  0  0  0  0
   -3.9864   -1.0384   -2.9646 H   0  0  0  0  0  0  0  0  0  0  0  0
   -5.4106   -2.2871   -1.3671 H   0  0  0  0  0  0  0  0  0  0  0  0
   -2.8093   -1.1464    1.8656 H   0  0  0  0  0  0  0  0  0  0  0  0
    1.7896   -0.0917    1.8639 H   0  0  0  0  0  0  0  0  0  0  0  0
    3.0930   -5.6341    0.5794 H   0  0  0  0  0  0  0  0  0  0  0  0
    1.3901   -5.7452    1.0834 H   0  0  0  0  0  0  0  0  0  0  0  0
    1.8220   -5.8798   -0.6279 H   0  0  0  0  0  0  0  0  0  0  0  0
  1  2  1  0
  2  3  1  0
  3  4  1  0
  4  5  2  0
  4  6  1  0
  6  7  1  0
  7  8  1  0
  8  9  2  0
  8 10  1  0
 10 11  2  0
 11 12  1  0
 12 13  2  0
 13 14  1  0
 14 15  1  0
 14 16  2  0
  6 17  1  0
 17 18  1  0
 18 19  2  0
 19 20  1  0
 20 21  2  0
 21 22  1  0
 21 23  1  0
  6 24  1  0
 24 25  1  0
 24 26  1  0
 24 27  1  0
 16 10  1  0
 23 18  1  0
  1 28  1  0
  1 29  1  0
  1 30  1  0
  2 31  1  0
  2 32  1  0
  7 33  1  0
 11 34  1  0
 12 35  1  0
 13 36  1  0
 16 37  1  0
 17 38  1  0
 22 39  1  0
 22 40  1  0
 22 41  1  0
M  END
$$$$
