
     RDKit          3D

 32 33  0  0  0  0  0  0  0  0999 V2000
    3.9528   -1.6738    0.1393 C   0  0  0  0  0  0  0  0  0  0  0  0
    4.2493   -0.3617   -0.5670 C   0  0  0  0  0  0  0  0  0  0  0  0
    3.1530    0.9709    0.0070 S   0  0  0  0  0  0  0  0  0  0  0  0
    1.6334    0.5305   -0.7043 C   0  0  0  0  0  0  0  0  0  0  0  0
    1.3164    0.0550   -1.9534 C   0  0  0  0  0  0  0  0  0  0  0  0
   -0.0321   -0.1381   -2.0742 N   0  0  0  0  0  0  0  0  0  0  0  0
   -0.5584    0.2078   -0.9130 C   0  0  0  0  0  0  0  0  0  0  0  0
   -1.9889    0.1772   -0.6163 C   0  0  0  0  0  0  0  0  0  0  0  0
   -2.5188   -0.7412    0.2979 C   0  0  0  0  0  0  0  0  0  0  0  0
   -3.8881   -0.7517    0.5737 C   0  0  0  0  0  0  0  0  0  0  0  0
   -4.7366    0.1479   -0.0707 C   0  0  0  0  0  0  0  0  0  0  0  0
   -4.2201    1.0520   -0.9978 C   0  0  0  0  0  0  0  0  0  0  0  0
   -2.8514    1.0631   -1.2735 C   0  0  0  0  0  0  0  0  0  0  0  0
    0.4308    0.6462   -0.0448 N   0  0  0  0  0  0  0  0  0  0  0  0
    0.2109    1.1997    1.2809 C   0  0  0  0  0  0  0  0  0  0  0  0
    0.4560    0.1954    2.3955 C   0  0  0  0  0  0  0  0  0  0  0  0
    4.6590   -2.4419   -0.1937 H   0  0  0  0  0  0  0  0  0  0  0  0
    2.9442   -2.0381   -0.0808 H   0  0  0  0  0  0  0  0  0  0  0  0
    4.0581   -1.5772    1.2252 H   0  0  0  0  0  0  0  0  0  0  0  0
    4.1743   -0.4791   -1.6524 H   0  0  0  0  0  0  0  0  0  0  0  0
    5.2785   -0.0600   -0.3467 H   0  0  0  0  0  0  0  0  0  0  0  0
    1.9826   -0.1516   -2.7801 H   0  0  0  0  0  0  0  0  0  0  0  0
   -1.8727   -1.4670    0.7845 H   0  0  0  0  0  0  0  0  0  0  0  0
   -4.2941   -1.4698    1.2815 H   0  0  0  0  0  0  0  0  0  0  0  0
   -5.8032    0.1349    0.1388 H   0  0  0  0  0  0  0  0  0  0  0  0
   -4.8823    1.7426   -1.5137 H   0  0  0  0  0  0  0  0  0  0  0  0
   -2.4557    1.7605   -2.0091 H   0  0  0  0  0  0  0  0  0  0  0  0
    0.8627    2.0722    1.3968 H   0  0  0  0  0  0  0  0  0  0  0  0
   -0.8146    1.5792    1.3350 H   0  0  0  0  0  0  0  0  0  0  0  0
    0.2599    0.6571    3.3681 H   0  0  0  0  0  0  0  0  0  0  0  0
    1.4898   -0.1632    2.3952 H   0  0  0  0  0  0  0  0  0  0  0  0
   -0.1947   -0.6783    2.2980 H   0  0  0  0  0  0  0  0  0  0  0  0
  1  2  1  0
  2  3  1  0
  3  4  1  0
  4  5  2  0
  5  6  1  0
  6  7  2  0
  7  8  1  0
  8  9  2  0
  9 10  1  0
 10 11  2  0
 11 12  1  0
 12 13  2  0
  7 14  1  0
 14 15  1  0
 15 16  1  0
 14  4  1  0
 13  8  1  0
  1 17  1  0
  1 18  1  0
  1 19  1  0
  2 20  1  0
  2 21  1  0
  5 22  1  0
  9 23  1  0
 10 24  1  0
 11 25  1  0
 12 26  1  0
 13 27  1  0
 15 28  1  0
 15 29  1  0
 16 30  1  0
 16 31  1  0
 16 32  1  0
M  END
$$$$
