
     RDKit          3D

 47 51  0  0  0  0  0  0  0  0999 V2000
   -0.9982   -1.2566   -3.1368 C   0  0  0  0  0  0  0  0  0  0  0  0
   -1.7713   -0.3932   -2.1891 C   0  0  0  0  0  0  0  0  0  0  0  0
   -3.0601   -0.2463   -2.3702 N   0  0  0  0  0  0  0  0  0  0  0  0
   -3.7331    0.5517   -1.4874 C   0  0  0  0  0  0  0  0  0  0  0  0
   -5.4165    0.8288   -1.6046 S   0  0  0  0  0  0  0  0  0  0  0  0
   -5.4098    1.8369   -0.2244 C   0  0  0  0  0  0  0  0  0  0  0  0
   -4.1510    1.9876    0.3310 C   0  0  0  0  0  0  0  0  0  0  0  0
   -3.2136    1.2367   -0.4093 C   0  0  0  0  0  0  0  0  0  0  0  0
   -1.7065    1.0325   -0.2384 C   0  0  0  0  0  0  0  0  0  0  0  0
   -0.8887    1.5171    0.6594 N   0  0  0  0  0  0  0  0  0  0  0  0
    0.3566    1.0220    0.3621 N   0  0  0  0  0  0  0  0  0  0  0  0
    0.2553    0.2539   -0.7048 C   0  0  0  0  0  0  0  0  0  0  0  0
    1.5951   -0.5853   -1.4045 S   0  0  0  0  0  0  0  0  0  0  0  0
    2.9806    0.2473   -0.5729 C   0  0  0  0  0  0  0  0  0  0  0  0
    4.2816   -0.3413   -1.0825 C   0  0  0  0  0  0  0  0  0  0  0  0
    4.8640    0.0952   -2.0721 O   0  0  0  0  0  0  0  0  0  0  0  0
    4.7464   -1.4110   -0.3501 N   0  0  0  0  0  0  0  0  0  0  0  0
    5.8850   -2.1694   -0.8131 C   0  0  0  0  0  0  0  0  0  0  0  0
    6.2812   -3.1233    0.2495 C   0  0  0  0  0  0  0  0  0  0  0  0
    7.4439   -3.3163    0.9663 C   0  0  0  0  0  0  0  0  0  0  0  0
    7.1950   -4.3944    1.8498 C   0  0  0  0  0  0  0  0  0  0  0  0
    5.8990   -4.7895    1.6181 C   0  0  0  0  0  0  0  0  0  0  0  0
    5.3337   -4.0234    0.6499 O   0  0  0  0  0  0  0  0  0  0  0  0
   -1.0527    0.2206   -1.1411 N   0  0  0  0  0  0  0  0  0  0  0  0
   -3.9064    2.8158    1.5535 C   0  0  0  0  0  0  0  0  0  0  0  0
   -5.0912    3.7495    1.8521 C   0  0  0  0  0  0  0  0  0  0  0  0
   -6.4394    3.0270    1.7075 C   0  0  0  0  0  0  0  0  0  0  0  0
   -6.6550    2.4986    0.2798 C   0  0  0  0  0  0  0  0  0  0  0  0
   -0.5596   -2.1069   -2.6088 H   0  0  0  0  0  0  0  0  0  0  0  0
   -1.6716   -1.6577   -3.9019 H   0  0  0  0  0  0  0  0  0  0  0  0
   -0.2315   -0.6716   -3.6505 H   0  0  0  0  0  0  0  0  0  0  0  0
    2.9153    0.1154    0.5123 H   0  0  0  0  0  0  0  0  0  0  0  0
    2.9754    1.3201   -0.7912 H   0  0  0  0  0  0  0  0  0  0  0  0
    4.0977   -1.9012    0.2546 H   0  0  0  0  0  0  0  0  0  0  0  0
    5.5960   -2.7030   -1.7249 H   0  0  0  0  0  0  0  0  0  0  0  0
    6.7011   -1.4819   -1.0594 H   0  0  0  0  0  0  0  0  0  0  0  0
    8.3574   -2.7468    0.8633 H   0  0  0  0  0  0  0  0  0  0  0  0
    7.8757   -4.8297    2.5676 H   0  0  0  0  0  0  0  0  0  0  0  0
    5.2642   -5.5583    2.0365 H   0  0  0  0  0  0  0  0  0  0  0  0
   -2.9959    3.4140    1.4366 H   0  0  0  0  0  0  0  0  0  0  0  0
   -3.7509    2.1431    2.4058 H   0  0  0  0  0  0  0  0  0  0  0  0
   -4.9899    4.1547    2.8653 H   0  0  0  0  0  0  0  0  0  0  0  0
   -5.0678    4.6030    1.1620 H   0  0  0  0  0  0  0  0  0  0  0  0
   -7.2582    3.7054    1.9726 H   0  0  0  0  0  0  0  0  0  0  0  0
   -6.4739    2.1904    2.4174 H   0  0  0  0  0  0  0  0  0  0  0  0
   -6.9052    3.3362   -0.3832 H   0  0  0  0  0  0  0  0  0  0  0  0
   -7.5025    1.8038    0.2724 H   0  0  0  0  0  0  0  0  0  0  0  0
  1  2  1  0
  2  3  2  0
  3  4  1  0
  4  5  1  0
  5  6  1  0
  6  7  2  0
  7  8  1  0
  8  9  1  0
  9 10  2  0
 10 11  1  0
 11 12  2  0
 12 13  1  0
 13 14  1  0
 14 15  1  0
 15 16  2  0
 15 17  1  0
 17 18  1  0
 18 19  1  0
 19 20  2  0
 20 21  1  0
 21 22  2  0
 22 23  1  0
 12 24  1  0
  7 25  1  0
 25 26  1  0
 26 27  1  0
 27 28  1  0
 24  2  1  0
  8  4  2  0
 24  9  1  0
 28  6  1  0
 23 19  1  0
  1 29  1  0
  1 30  1  0
  1 31  1  0
 14 32  1  0
 14 33  1  0
 17 34  1  0
 18 35  1  0
 18 36  1  0
 20 37  1  0
 21 38  1  0
 22 39  1  0
 25 40  1  0
 25 41  1  0
 26 42  1  0
 26 43  1  0
 27 44  1  0
 27 45  1  0
 28 46  1  0
 28 47  1  0
M  END
$$$$
