
     RDKit          3D

 43 45  0  0  0  0  0  0  0  0999 V2000
    7.5491    0.0465   -2.1501 O   0  0  0  0  0  0  0  0  0  0  0  0
    8.0533   -0.4653   -1.1652 C   0  0  0  0  0  0  0  0  0  0  0  0
    9.3987   -0.4989   -1.0416 O   0  0  0  0  0  0  0  0  0  0  0  0
    7.3683   -1.1453   -0.0050 C   0  0  0  0  0  0  0  0  0  0  0  0
    5.8776   -0.9133    0.0522 C   0  0  0  0  0  0  0  0  0  0  0  0
    5.0118   -1.6226   -0.7874 C   0  0  0  0  0  0  0  0  0  0  0  0
    3.6323   -1.3981   -0.7357 C   0  0  0  0  0  0  0  0  0  0  0  0
    3.0909   -0.4607    0.1521 C   0  0  0  0  0  0  0  0  0  0  0  0
    1.6893   -0.2998    0.1438 N   0  0  0  0  0  0  0  0  0  0  0  0
    0.9428    0.6009    0.8816 C   0  0  0  0  0  0  0  0  0  0  0  0
    1.3663    1.4672    1.6371 O   0  0  0  0  0  0  0  0  0  0  0  0
   -0.5315    0.5049    0.6812 C   0  0  0  0  0  0  0  0  0  0  0  0
   -1.2902    1.6782    0.7248 C   0  0  0  0  0  0  0  0  0  0  0  0
   -2.6754    1.6267    0.5401 C   0  0  0  0  0  0  0  0  0  0  0  0
   -3.3222    0.4041    0.3191 C   0  0  0  0  0  0  0  0  0  0  0  0
   -4.7165    0.4415    0.1406 N   0  0  0  0  0  0  0  0  0  0  0  0
   -5.5826   -0.6097   -0.1056 C   0  0  0  0  0  0  0  0  0  0  0  0
   -5.2586   -1.7873   -0.2190 O   0  0  0  0  0  0  0  0  0  0  0  0
   -6.9636   -0.1752   -0.2271 C   0  0  0  0  0  0  0  0  0  0  0  0
   -8.1244   -0.8866   -0.4656 C   0  0  0  0  0  0  0  0  0  0  0  0
   -9.1832    0.0524   -0.4822 C   0  0  0  0  0  0  0  0  0  0  0  0
   -8.6094    1.2803   -0.2538 C   0  0  0  0  0  0  0  0  0  0  0  0
   -7.2658    1.1581   -0.0978 O   0  0  0  0  0  0  0  0  0  0  0  0
   -2.5623   -0.7676    0.2970 C   0  0  0  0  0  0  0  0  0  0  0  0
   -1.1742   -0.7215    0.4820 C   0  0  0  0  0  0  0  0  0  0  0  0
    3.9537    0.2467    0.9884 C   0  0  0  0  0  0  0  0  0  0  0  0
    5.3354    0.0263    0.9367 C   0  0  0  0  0  0  0  0  0  0  0  0
    9.7161   -0.0391   -1.8476 H   0  0  0  0  0  0  0  0  0  0  0  0
    7.8267   -0.7859    0.9242 H   0  0  0  0  0  0  0  0  0  0  0  0
    7.5636   -2.2221   -0.0720 H   0  0  0  0  0  0  0  0  0  0  0  0
    5.4043   -2.3487   -1.4961 H   0  0  0  0  0  0  0  0  0  0  0  0
    2.9919   -1.9650   -1.4062 H   0  0  0  0  0  0  0  0  0  0  0  0
    1.1919   -0.8672   -0.5293 H   0  0  0  0  0  0  0  0  0  0  0  0
   -0.8041    2.6360    0.9011 H   0  0  0  0  0  0  0  0  0  0  0  0
   -3.2372    2.5571    0.5747 H   0  0  0  0  0  0  0  0  0  0  0  0
   -5.1657    1.3503    0.1926 H   0  0  0  0  0  0  0  0  0  0  0  0
   -8.1843   -1.9574   -0.6084 H   0  0  0  0  0  0  0  0  0  0  0  0
  -10.2349   -0.1419   -0.6409 H   0  0  0  0  0  0  0  0  0  0  0  0
   -9.0008    2.2856   -0.1767 H   0  0  0  0  0  0  0  0  0  0  0  0
   -3.0201   -1.7415    0.1508 H   0  0  0  0  0  0  0  0  0  0  0  0
   -0.6212   -1.6569    0.4979 H   0  0  0  0  0  0  0  0  0  0  0  0
    3.5847    0.9823    1.6963 H   0  0  0  0  0  0  0  0  0  0  0  0
    5.9796    0.6010    1.5990 H   0  0  0  0  0  0  0  0  0  0  0  0
  1  2  2  0
  2  3  1  0
  2  4  1  0
  4  5  1  0
  5  6  2  0
  6  7  1  0
  7  8  2  0
  8  9  1  0
  9 10  1  0
 10 11  2  0
 10 12  1  0
 12 13  2  0
 13 14  1  0
 14 15  2  0
 15 16  1  0
 16 17  1  0
 17 18  2  0
 17 19  1  0
 19 20  2  0
 20 21  1  0
 21 22  2  0
 22 23  1  0
 15 24  1  0
 24 25  2  0
  8 26  1  0
 26 27  2  0
 27  5  1  0
 25 12  1  0
 23 19  1  0
  3 28  1  0
  4 29  1  0
  4 30  1  0
  6 31  1  0
  7 32  1  0
  9 33  1  0
 13 34  1  0
 14 35  1  0
 16 36  1  0
 20 37  1  0
 21 38  1  0
 22 39  1  0
 24 40  1  0
 25 41  1  0
 26 42  1  0
 27 43  1  0
M  END
$$$$
