
     RDKit          3D

 53 56  0  0  0  0  0  0  0  0999 V2000
   -7.0950    1.6370    2.6521 C   0  0  0  0  0  0  0  0  0  0  0  0
   -5.8816    1.3328    1.8245 C   0  0  0  0  0  0  0  0  0  0  0  0
   -4.6224    1.2474    2.4239 C   0  0  0  0  0  0  0  0  0  0  0  0
   -3.4944    0.9310    1.6611 C   0  0  0  0  0  0  0  0  0  0  0  0
   -3.6035    0.7003    0.2797 C   0  0  0  0  0  0  0  0  0  0  0  0
   -2.4244    0.3754   -0.4604 N   0  0  0  0  0  0  0  0  0  0  0  0
   -1.3206   -0.0370    0.2225 N   0  0  0  0  0  0  0  0  0  0  0  0
   -0.4762   -0.4713   -0.7140 C   0  0  0  0  0  0  0  0  0  0  0  0
    0.8276   -1.0754   -0.4866 C   0  0  0  0  0  0  0  0  0  0  0  0
    1.3225   -1.2573    0.6257 O   0  0  0  0  0  0  0  0  0  0  0  0
    1.4977   -1.4003   -1.6792 N   0  0  0  0  0  0  0  0  0  0  0  0
    2.8023   -2.0519   -1.6043 C   0  0  0  0  0  0  0  0  0  0  0  0
    3.9567   -1.0695   -1.3984 C   0  0  0  0  0  0  0  0  0  0  0  0
    5.0120   -1.1716   -2.0239 O   0  0  0  0  0  0  0  0  0  0  0  0
    3.7938   -0.1576   -0.3750 N   0  0  0  0  0  0  0  0  0  0  0  0
    4.8683    0.7327    0.0292 C   0  0  0  0  0  0  0  0  0  0  0  0
    5.9176    0.0523    0.9162 C   0  0  0  0  0  0  0  0  0  0  0  0
    5.3637   -0.3277    2.2616 C   0  0  0  0  0  0  0  0  0  0  0  0
    4.7826   -1.5222    2.6389 C   0  0  0  0  0  0  0  0  0  0  0  0
    4.3584   -1.5124    3.9985 C   0  0  0  0  0  0  0  0  0  0  0  0
    4.6390   -0.3152    4.6170 C   0  0  0  0  0  0  0  0  0  0  0  0
    5.4083    0.7878    3.5619 S   0  0  0  0  0  0  0  0  0  0  0  0
    0.9967   -1.1757   -2.9675 N   0  0  0  0  0  0  0  0  0  0  0  0
   -0.1723   -0.6271   -3.1510 C   0  0  0  0  0  0  0  0  0  0  0  0
   -0.6491   -0.4166   -4.5598 C   0  0  0  0  0  0  0  0  0  0  0  0
   -0.9617   -0.2448   -2.0055 C   0  0  0  0  0  0  0  0  0  0  0  0
   -2.1782    0.3963   -1.8396 C   0  0  0  0  0  0  0  0  0  0  0  0
   -3.0540    1.0519   -2.8452 C   0  0  0  0  0  0  0  0  0  0  0  0
   -4.8708    0.7479   -0.3106 C   0  0  0  0  0  0  0  0  0  0  0  0
   -5.9990    1.0629    0.4575 C   0  0  0  0  0  0  0  0  0  0  0  0
   -6.8569    2.3635    3.4360 H   0  0  0  0  0  0  0  0  0  0  0  0
   -7.8913    2.0707    2.0384 H   0  0  0  0  0  0  0  0  0  0  0  0
   -7.4698    0.7206    3.1179 H   0  0  0  0  0  0  0  0  0  0  0  0
   -4.5068    1.4239    3.4913 H   0  0  0  0  0  0  0  0  0  0  0  0
   -2.5290    0.8778    2.1633 H   0  0  0  0  0  0  0  0  0  0  0  0
    2.8104   -2.7666   -0.7738 H   0  0  0  0  0  0  0  0  0  0  0  0
    2.9717   -2.6044   -2.5352 H   0  0  0  0  0  0  0  0  0  0  0  0
    3.0634   -0.3417    0.3128 H   0  0  0  0  0  0  0  0  0  0  0  0
    5.3543    1.1136   -0.8763 H   0  0  0  0  0  0  0  0  0  0  0  0
    4.4039    1.5809    0.5436 H   0  0  0  0  0  0  0  0  0  0  0  0
    6.7698    0.7312    1.0450 H   0  0  0  0  0  0  0  0  0  0  0  0
    6.3092   -0.8455    0.4223 H   0  0  0  0  0  0  0  0  0  0  0  0
    4.6571   -2.3630    1.9673 H   0  0  0  0  0  0  0  0  0  0  0  0
    3.8697   -2.3406    4.4962 H   0  0  0  0  0  0  0  0  0  0  0  0
    4.4283   -0.0325    5.6390 H   0  0  0  0  0  0  0  0  0  0  0  0
   -0.6004    0.6474   -4.8058 H   0  0  0  0  0  0  0  0  0  0  0  0
   -1.6759   -0.7747   -4.6700 H   0  0  0  0  0  0  0  0  0  0  0  0
   -0.0131   -0.9640   -5.2618 H   0  0  0  0  0  0  0  0  0  0  0  0
   -3.7776    0.3399   -3.2530 H   0  0  0  0  0  0  0  0  0  0  0  0
   -2.4653    1.4455   -3.6785 H   0  0  0  0  0  0  0  0  0  0  0  0
   -3.5820    1.9147   -2.4290 H   0  0  0  0  0  0  0  0  0  0  0  0
   -5.0370    0.4978   -1.3513 H   0  0  0  0  0  0  0  0  0  0  0  0
   -6.9766    1.0832   -0.0202 H   0  0  0  0  0  0  0  0  0  0  0  0
  1  2  1  0
  2  3  2  0
  3  4  1  0
  4  5  2  0
  5  6  1  0
  6  7  1  0
  7  8  2  0
  8  9  1  0
  9 10  2  0
  9 11  1  0
 11 12  1  0
 12 13  1  0
 13 14  2  0
 13 15  1  0
 15 16  1  0
 16 17  1  0
 17 18  1  0
 18 19  2  0
 19 20  1  0
 20 21  2  0
 21 22  1  0
 11 23  1  0
 23 24  2  0
 24 25  1  0
 24 26  1  0
 26 27  2  0
 27 28  1  0
  5 29  1  0
 29 30  2  0
 30  2  1  0
 27  6  1  0
 26  8  1  0
 22 18  1  0
  1 31  1  0
  1 32  1  0
  1 33  1  0
  3 34  1  0
  4 35  1  0
 12 36  1  0
 12 37  1  0
 15 38  1  0
 16 39  1  0
 16 40  1  0
 17 41  1  0
 17 42  1  0
 19 43  1  0
 20 44  1  0
 21 45  1  0
 25 46  1  0
 25 47  1  0
 25 48  1  0
 28 49  1  0
 28 50  1  0
 28 51  1  0
 29 52  1  0
 30 53  1  0
M  END
$$$$
