
     RDKit          3D

 33 34  0  0  0  0  0  0  0  0999 V2000
   -1.7575    4.1974    0.4406 C   0  0  0  0  0  0  0  0  0  0  0  0
   -0.9868    3.0228    0.1870 O   0  0  0  0  0  0  0  0  0  0  0  0
   -0.5153    2.4354    1.3124 C   0  0  0  0  0  0  0  0  0  0  0  0
   -0.5749    2.8504    2.4560 O   0  0  0  0  0  0  0  0  0  0  0  0
    0.2467    1.2444    0.9195 C   0  0  0  0  0  0  0  0  0  0  0  0
    1.6090    1.2595    1.2123 C   0  0  0  0  0  0  0  0  0  0  0  0
    2.3593    0.1854    0.7947 C   0  0  0  0  0  0  0  0  0  0  0  0
    3.7060    0.2262    1.0832 O   0  0  0  0  0  0  0  0  0  0  0  0
    4.4144   -0.9271    0.6397 C   0  0  0  0  0  0  0  0  0  0  0  0
    1.8431   -0.8614    0.1200 N   0  0  0  0  0  0  0  0  0  0  0  0
    0.5103   -0.8698   -0.1413 C   0  0  0  0  0  0  0  0  0  0  0  0
   -0.3267    0.1542    0.2599 C   0  0  0  0  0  0  0  0  0  0  0  0
   -1.7670    0.0120    0.0172 C   0  0  0  0  0  0  0  0  0  0  0  0
   -2.5621    0.7432    0.5988 O   0  0  0  0  0  0  0  0  0  0  0  0
   -2.1560   -1.0069   -0.8390 N   0  0  0  0  0  0  0  0  0  0  0  0
   -3.5695   -1.1143   -1.1547 C   0  0  0  0  0  0  0  0  0  0  0  0
   -1.3391   -2.0652   -1.2135 C   0  0  0  0  0  0  0  0  0  0  0  0
   -1.7824   -3.0383   -1.8262 O   0  0  0  0  0  0  0  0  0  0  0  0
   -0.0108   -1.9741   -0.8456 N   0  0  0  0  0  0  0  0  0  0  0  0
    0.9169   -3.0350   -1.2117 C   0  0  0  0  0  0  0  0  0  0  0  0
   -2.1528    4.5559   -0.5138 H   0  0  0  0  0  0  0  0  0  0  0  0
   -1.1262    4.9808    0.8714 H   0  0  0  0  0  0  0  0  0  0  0  0
   -2.6008    3.9718    1.1013 H   0  0  0  0  0  0  0  0  0  0  0  0
    2.0695    2.0890    1.7390 H   0  0  0  0  0  0  0  0  0  0  0  0
    4.3734   -1.0219   -0.4510 H   0  0  0  0  0  0  0  0  0  0  0  0
    4.0408   -1.8341    1.1276 H   0  0  0  0  0  0  0  0  0  0  0  0
    5.4638   -0.8037    0.9242 H   0  0  0  0  0  0  0  0  0  0  0  0
   -4.0424   -1.7617   -0.4092 H   0  0  0  0  0  0  0  0  0  0  0  0
   -3.7102   -1.5542   -2.1467 H   0  0  0  0  0  0  0  0  0  0  0  0
   -4.0533   -0.1332   -1.1343 H   0  0  0  0  0  0  0  0  0  0  0  0
    0.4143   -3.8547   -1.7324 H   0  0  0  0  0  0  0  0  0  0  0  0
    1.3808   -3.4423   -0.3073 H   0  0  0  0  0  0  0  0  0  0  0  0
    1.6857   -2.6304   -1.8783 H   0  0  0  0  0  0  0  0  0  0  0  0
  1  2  1  0
  2  3  1  0
  3  4  2  0
  3  5  1  0
  5  6  2  0
  6  7  1  0
  7  8  1  0
  8  9  1  0
  7 10  2  0
 10 11  1  0
 11 12  2  0
 12 13  1  0
 13 14  2  0
 13 15  1  0
 15 16  1  0
 15 17  1  0
 17 18  2  0
 17 19  1  0
 19 20  1  0
 12  5  1  0
 19 11  1  0
  1 21  1  0
  1 22  1  0
  1 23  1  0
  6 24  1  0
  9 25  1  0
  9 26  1  0
  9 27  1  0
 16 28  1  0
 16 29  1  0
 16 30  1  0
 20 31  1  0
 20 32  1  0
 20 33  1  0
M  END
$$$$
