
     RDKit          3D

 33 33  0  0  0  0  0  0  0  0999 V2000
   -3.5528    3.4805   -1.0369 C   0  0  0  0  0  0  0  0  0  0  0  0
   -3.3907    2.6890    0.2369 C   0  0  0  0  0  0  0  0  0  0  0  0
   -4.1087    2.9107    1.2060 O   0  0  0  0  0  0  0  0  0  0  0  0
   -2.4104    1.7255    0.1347 N   0  0  0  0  0  0  0  0  0  0  0  0
   -1.9632    0.8209    1.1240 C   0  0  0  0  0  0  0  0  0  0  0  0
   -2.4538    0.8038    2.4311 C   0  0  0  0  0  0  0  0  0  0  0  0
   -1.9474   -0.1064    3.3605 C   0  0  0  0  0  0  0  0  0  0  0  0
   -0.9456   -0.9993    2.9906 C   0  0  0  0  0  0  0  0  0  0  0  0
   -0.4489   -0.9956    1.6855 C   0  0  0  0  0  0  0  0  0  0  0  0
   -0.9592   -0.0976    0.7431 C   0  0  0  0  0  0  0  0  0  0  0  0
   -0.5560   -0.0145   -0.5703 O   0  0  0  0  0  0  0  0  0  0  0  0
    0.2838   -1.0385   -1.0767 C   0  0  0  0  0  0  0  0  0  0  0  0
    1.7817   -0.8572   -0.8000 C   0  0  0  0  0  0  0  0  0  0  0  0
    2.2817    0.1849   -0.3913 O   0  0  0  0  0  0  0  0  0  0  0  0
    2.5369   -1.9901   -1.0453 N   0  0  0  0  0  0  0  0  0  0  0  0
    4.0000   -1.9278   -0.9666 C   0  0  0  0  0  0  0  0  0  0  0  0
    4.6934   -1.4143   -2.2318 C   0  0  0  0  0  0  0  0  0  0  0  0
    4.3728   -2.2017   -3.2887 F   0  0  0  0  0  0  0  0  0  0  0  0
    6.0375   -1.4556   -2.0927 F   0  0  0  0  0  0  0  0  0  0  0  0
    4.3453   -0.1514   -2.5451 F   0  0  0  0  0  0  0  0  0  0  0  0
   -2.6030    3.5703   -1.5720 H   0  0  0  0  0  0  0  0  0  0  0  0
   -3.8995    4.4890   -0.7938 H   0  0  0  0  0  0  0  0  0  0  0  0
   -4.2875    2.9858   -1.6775 H   0  0  0  0  0  0  0  0  0  0  0  0
   -1.9185    1.6321   -0.7482 H   0  0  0  0  0  0  0  0  0  0  0  0
   -3.2245    1.4937    2.7598 H   0  0  0  0  0  0  0  0  0  0  0  0
   -2.3320   -0.1070    4.3775 H   0  0  0  0  0  0  0  0  0  0  0  0
   -0.5450   -1.6955    3.7234 H   0  0  0  0  0  0  0  0  0  0  0  0
    0.3441   -1.6956    1.4497 H   0  0  0  0  0  0  0  0  0  0  0  0
    0.1752   -1.0136   -2.1678 H   0  0  0  0  0  0  0  0  0  0  0  0
   -0.0549   -2.0329   -0.7609 H   0  0  0  0  0  0  0  0  0  0  0  0
    2.1259   -2.7440   -1.5840 H   0  0  0  0  0  0  0  0  0  0  0  0
    4.3399   -2.9475   -0.7580 H   0  0  0  0  0  0  0  0  0  0  0  0
    4.2834   -1.3001   -0.1151 H   0  0  0  0  0  0  0  0  0  0  0  0
  1  2  1  0
  2  3  2  0
  2  4  1  0
  4  5  1  0
  5  6  2  0
  6  7  1  0
  7  8  2  0
  8  9  1  0
  9 10  2  0
 10 11  1  0
 11 12  1  0
 12 13  1  0
 13 14  2  0
 13 15  1  0
 15 16  1  0
 16 17  1  0
 17 18  1  0
 17 19  1  0
 17 20  1  0
 10  5  1  0
  1 21  1  0
  1 22  1  0
  1 23  1  0
  4 24  1  0
  6 25  1  0
  7 26  1  0
  8 27  1  0
  9 28  1  0
 12 29  1  0
 12 30  1  0
 15 31  1  0
 16 32  1  0
 16 33  1  0
M  END
$$$$
