
     RDKit          3D

 40 42  0  0  0  0  0  0  0  0999 V2000
   -6.6803    1.4551    1.2696 C   0  0  0  0  0  0  0  0  0  0  0  0
   -6.0932    1.0233   -0.3525 S   0  0  0  0  0  6  0  0  0  0  0  0
   -7.2446    0.9190   -1.2232 O   0  0  0  0  0  0  0  0  0  0  0  0
   -4.9674    1.8702   -0.6762 O   0  0  0  0  0  0  0  0  0  0  0  0
   -5.5834   -0.5720   -0.0837 N   0  0  0  0  0  0  0  0  0  0  0  0
   -4.1850   -0.8319   -0.1907 C   0  0  0  0  0  0  0  0  0  0  0  0
   -3.3153   -0.4238    0.8219 C   0  0  0  0  0  0  0  0  0  0  0  0
   -1.9408   -0.6419    0.6926 C   0  0  0  0  0  0  0  0  0  0  0  0
   -1.4378   -1.2591   -0.4603 C   0  0  0  0  0  0  0  0  0  0  0  0
    0.0192   -1.5101   -0.6365 C   0  0  0  0  0  0  0  0  0  0  0  0
    0.3635   -2.5568   -1.1706 O   0  0  0  0  0  0  0  0  0  0  0  0
    0.8373   -0.4868   -0.1948 N   0  0  0  0  0  0  0  0  0  0  0  0
    2.2480   -0.4593   -0.1931 C   0  0  0  0  0  0  0  0  0  0  0  0
    3.0497   -1.5419   -0.5648 C   0  0  0  0  0  0  0  0  0  0  0  0
    4.4451   -1.4367   -0.5367 C   0  0  0  0  0  0  0  0  0  0  0  0
    5.0468   -0.2481   -0.1370 C   0  0  0  0  0  0  0  0  0  0  0  0
    4.2544    0.8284    0.2659 C   0  0  0  0  0  0  0  0  0  0  0  0
    2.8629    0.7284    0.2250 C   0  0  0  0  0  0  0  0  0  0  0  0
    4.7727    2.0201    0.7068 O   0  0  0  0  0  0  0  0  0  0  0  0
    6.1647    1.8979    1.0232 C   0  0  0  0  0  0  0  0  0  0  0  0
    6.8998    1.1358   -0.0671 C   0  0  0  0  0  0  0  0  0  0  0  0
    6.4168   -0.2093   -0.1555 O   0  0  0  0  0  0  0  0  0  0  0  0
   -2.3160   -1.6776   -1.4672 C   0  0  0  0  0  0  0  0  0  0  0  0
   -3.6887   -1.4533   -1.3375 C   0  0  0  0  0  0  0  0  0  0  0  0
   -5.8434    1.4364    1.9695 H   0  0  0  0  0  0  0  0  0  0  0  0
   -7.0972    2.4634    1.2186 H   0  0  0  0  0  0  0  0  0  0  0  0
   -7.4573    0.7482    1.5666 H   0  0  0  0  0  0  0  0  0  0  0  0
   -6.1775   -1.1972   -0.6335 H   0  0  0  0  0  0  0  0  0  0  0  0
   -3.6981    0.0560    1.7176 H   0  0  0  0  0  0  0  0  0  0  0  0
   -1.2809   -0.3486    1.5047 H   0  0  0  0  0  0  0  0  0  0  0  0
    0.3831    0.3708    0.0932 H   0  0  0  0  0  0  0  0  0  0  0  0
    2.6203   -2.4866   -0.8842 H   0  0  0  0  0  0  0  0  0  0  0  0
    5.0566   -2.2828   -0.8381 H   0  0  0  0  0  0  0  0  0  0  0  0
    2.2721    1.5870    0.5304 H   0  0  0  0  0  0  0  0  0  0  0  0
    6.2580    1.3978    1.9953 H   0  0  0  0  0  0  0  0  0  0  0  0
    6.5726    2.9090    1.1191 H   0  0  0  0  0  0  0  0  0  0  0  0
    7.9698    1.0899    0.1586 H   0  0  0  0  0  0  0  0  0  0  0  0
    6.7770    1.6161   -1.0459 H   0  0  0  0  0  0  0  0  0  0  0  0
   -1.9294   -2.1683   -2.3587 H   0  0  0  0  0  0  0  0  0  0  0  0
   -4.3541   -1.7610   -2.1394 H   0  0  0  0  0  0  0  0  0  0  0  0
  1  2  1  0
  2  3  2  0
  2  4  2  0
  2  5  1  0
  5  6  1  0
  6  7  2  0
  7  8  1  0
  8  9  2  0
  9 10  1  0
 10 11  2  0
 10 12  1  0
 12 13  1  0
 13 14  2  0
 14 15  1  0
 15 16  2  0
 16 17  1  0
 17 18  2  0
 17 19  1  0
 19 20  1  0
 20 21  1  0
 21 22  1  0
  9 23  1  0
 23 24  2  0
 24  6  1  0
 18 13  1  0
 22 16  1  0
  1 25  1  0
  1 26  1  0
  1 27  1  0
  5 28  1  0
  7 29  1  0
  8 30  1  0
 12 31  1  0
 14 32  1  0
 15 33  1  0
 18 34  1  0
 20 35  1  0
 20 36  1  0
 21 37  1  0
 21 38  1  0
 23 39  1  0
 24 40  1  0
M  END
$$$$
