
     RDKit          3D

 83 86  0  0  0  0  0  0  0  0999 V2000
   -5.5204   -7.3555    0.9572 C   0  0  0  0  0  0  0  0  0  0  0  0
   -5.9161   -6.0588    1.4005 O   0  0  0  0  0  0  0  0  0  0  0  0
   -5.0290   -5.0940    1.0128 C   0  0  0  0  0  0  0  0  0  0  0  0
   -3.6808   -5.1231    1.3644 C   0  0  0  0  0  0  0  0  0  0  0  0
   -2.8408   -4.0765    0.9777 C   0  0  0  0  0  0  0  0  0  0  0  0
   -3.3343   -3.0088    0.2162 C   0  0  0  0  0  0  0  0  0  0  0  0
   -2.4354   -1.9785   -0.1231 N   0  0  0  0  0  0  0  0  0  0  0  0
   -2.6145   -1.0274   -1.1146 C   0  0  0  0  0  0  0  0  0  0  0  0
   -3.4972   -1.0646   -1.9629 O   0  0  0  0  0  0  0  0  0  0  0  0
   -1.6698   -0.0138   -1.0056 N   0  0  0  0  0  0  0  0  0  0  0  0
   -1.5495    1.0856   -1.8912 C   0  0  0  0  0  0  0  0  0  0  0  0
   -1.9528    0.9852   -3.2311 C   0  0  0  0  0  0  0  0  0  0  0  0
   -1.9200    2.0930   -4.0773 C   0  0  0  0  0  0  0  0  0  0  0  0
   -1.4989    3.3228   -3.5846 C   0  0  0  0  0  0  0  0  0  0  0  0
   -1.0537    3.4355   -2.2596 C   0  0  0  0  0  0  0  0  0  0  0  0
   -1.0330    2.3113   -1.4194 C   0  0  0  0  0  0  0  0  0  0  0  0
   -0.6498    2.4612   -0.1051 O   0  0  0  0  0  0  0  0  0  0  0  0
    0.6973    2.0021    0.1388 C   0  0  0  0  0  0  0  0  0  0  0  0
    0.6949    1.4104    1.5759 C   0  0  0  0  0  0  0  0  0  0  0  0
   -0.0753    0.1645    1.6957 N   0  0  0  0  0  0  0  0  0  0  0  0
   -1.3245    0.2686    2.4506 C   0  0  0  0  0  0  0  0  0  0  0  0
    0.4748   -1.1080    1.5285 C   0  0  0  0  0  0  0  0  0  0  0  0
   -0.1715   -2.1142    1.8116 O   0  0  0  0  0  0  0  0  0  0  0  0
    1.7337   -1.1375    0.9856 N   0  0  0  0  0  0  0  0  0  0  0  0
    2.6096   -2.2420    0.9445 C   0  0  0  0  0  0  0  0  0  0  0  0
    2.4481   -3.3822    1.7306 C   0  0  0  0  0  0  0  0  0  0  0  0
    3.3874   -4.4233    1.6788 C   0  0  0  0  0  0  0  0  0  0  0  0
    4.4965   -4.3311    0.8435 C   0  0  0  0  0  0  0  0  0  0  0  0
    5.4801   -5.2729    0.7060 O   0  0  0  0  0  0  0  0  0  0  0  0
    5.4957   -6.3210    1.6664 C   0  0  0  0  0  0  0  0  0  0  0  0
    4.6549   -3.1948    0.0506 C   0  0  0  0  0  0  0  0  0  0  0  0
    3.7245   -2.1506    0.1074 C   0  0  0  0  0  0  0  0  0  0  0  0
    1.7312    3.1636    0.0840 C   0  0  0  0  0  0  0  0  0  0  0  0
    3.1704    2.6209    0.0930 C   0  0  0  0  0  0  0  0  0  0  0  0
    1.5789    4.0883   -1.1319 C   0  0  0  0  0  0  0  0  0  0  0  0
    0.4435    5.0089   -1.0301 N   0  0  0  0  0  0  0  0  0  0  0  0
    0.6783    6.3965   -0.5640 C   0  0  0  0  0  0  0  0  0  0  0  0
    1.4131    6.4803    0.7752 C   0  0  0  0  0  0  0  0  0  0  0  0
    1.3831    7.2676   -1.6307 C   0  0  0  0  0  0  0  0  0  0  0  0
    0.7749    7.1851   -2.9173 O   0  0  0  0  0  0  0  0  0  0  0  0
   -0.7105    4.7975   -1.7875 C   0  0  0  0  0  0  0  0  0  0  0  0
   -1.4486    5.7272   -2.1206 O   0  0  0  0  0  0  0  0  0  0  0  0
   -4.6893   -2.9871   -0.1242 C   0  0  0  0  0  0  0  0  0  0  0  0
   -5.5368   -4.0193    0.2864 C   0  0  0  0  0  0  0  0  0  0  0  0
   -6.3655   -8.0346    1.1122 H   0  0  0  0  0  0  0  0  0  0  0  0
   -4.6761   -7.7342    1.5445 H   0  0  0  0  0  0  0  0  0  0  0  0
   -5.2786   -7.3559   -0.1103 H   0  0  0  0  0  0  0  0  0  0  0  0
   -3.2783   -5.9284    1.9673 H   0  0  0  0  0  0  0  0  0  0  0  0
   -1.7959   -4.1033    1.2762 H   0  0  0  0  0  0  0  0  0  0  0  0
   -1.5017   -2.0708    0.2617 H   0  0  0  0  0  0  0  0  0  0  0  0
   -1.3419    0.1462   -0.0628 H   0  0  0  0  0  0  0  0  0  0  0  0
   -2.3212    0.0472   -3.6359 H   0  0  0  0  0  0  0  0  0  0  0  0
   -2.2618    2.0014   -5.1064 H   0  0  0  0  0  0  0  0  0  0  0  0
   -1.5285    4.2001   -4.2297 H   0  0  0  0  0  0  0  0  0  0  0  0
    0.9741    1.2239   -0.5867 H   0  0  0  0  0  0  0  0  0  0  0  0
    0.2605    2.1401    2.2722 H   0  0  0  0  0  0  0  0  0  0  0  0
    1.7063    1.2053    1.9371 H   0  0  0  0  0  0  0  0  0  0  0  0
   -1.9238   -0.6401    2.3763 H   0  0  0  0  0  0  0  0  0  0  0  0
   -1.0780    0.4399    3.5028 H   0  0  0  0  0  0  0  0  0  0  0  0
   -1.9109    1.1088    2.0703 H   0  0  0  0  0  0  0  0  0  0  0  0
    1.9988   -0.3621    0.4020 H   0  0  0  0  0  0  0  0  0  0  0  0
    1.6047   -3.4923    2.4074 H   0  0  0  0  0  0  0  0  0  0  0  0
    3.2081   -5.2958    2.3023 H   0  0  0  0  0  0  0  0  0  0  0  0
    6.3940   -6.9235    1.4881 H   0  0  0  0  0  0  0  0  0  0  0  0
    4.6256   -6.9761    1.5516 H   0  0  0  0  0  0  0  0  0  0  0  0
    5.5597   -5.9247    2.6854 H   0  0  0  0  0  0  0  0  0  0  0  0
    5.5085   -3.1269   -0.6156 H   0  0  0  0  0  0  0  0  0  0  0  0
    3.8873   -1.2802   -0.5204 H   0  0  0  0  0  0  0  0  0  0  0  0
    1.5977    3.7731    0.9860 H   0  0  0  0  0  0  0  0  0  0  0  0
    3.8954    3.4414    0.0633 H   0  0  0  0  0  0  0  0  0  0  0  0
    3.3565    1.9788   -0.7736 H   0  0  0  0  0  0  0  0  0  0  0  0
    3.3929    2.0434    0.9941 H   0  0  0  0  0  0  0  0  0  0  0  0
    2.4774    4.7002   -1.2554 H   0  0  0  0  0  0  0  0  0  0  0  0
    1.5109    3.4959   -2.0521 H   0  0  0  0  0  0  0  0  0  0  0  0
   -0.3129    6.8363   -0.3924 H   0  0  0  0  0  0  0  0  0  0  0  0
    2.4314    6.0869    0.7103 H   0  0  0  0  0  0  0  0  0  0  0  0
    1.4860    7.5201    1.1164 H   0  0  0  0  0  0  0  0  0  0  0  0
    0.8774    5.9139    1.5444 H   0  0  0  0  0  0  0  0  0  0  0  0
    2.4321    6.9701   -1.7473 H   0  0  0  0  0  0  0  0  0  0  0  0
    1.3688    8.3188   -1.3247 H   0  0  0  0  0  0  0  0  0  0  0  0
   -0.1820    7.0047   -2.7808 H   0  0  0  0  0  0  0  0  0  0  0  0
   -5.1159   -2.1579   -0.6798 H   0  0  0  0  0  0  0  0  0  0  0  0
   -6.5998   -3.9805    0.0472 H   0  0  0  0  0  0  0  0  0  0  0  0
  1  2  1  0
  2  3  1  0
  3  4  2  0
  4  5  1  0
  5  6  2  0
  6  7  1  0
  7  8  1  0
  8  9  2  0
  8 10  1  0
 10 11  1  0
 11 12  2  0
 12 13  1  0
 13 14  2  0
 14 15  1  0
 15 16  2  0
 16 17  1  0
 17 18  1  0
 18 19  1  0
 19 20  1  0
 20 21  1  0
 20 22  1  0
 22 23  2  0
 22 24  1  0
 24 25  1  0
 25 26  2  0
 26 27  1  0
 27 28  2  0
 28 29  1  0
 29 30  1  0
 28 31  1  0
 31 32  2  0
 18 33  1  0
 33 34  1  0
 33 35  1  0
 35 36  1  0
 36 37  1  0
 37 38  1  0
 37 39  1  0
 39 40  1  0
 36 41  1  0
 41 42  2  0
  6 43  1  0
 43 44  2  0
 44  3  1  0
 16 11  1  0
 32 25  1  0
 41 15  1  0
  1 45  1  0
  1 46  1  0
  1 47  1  0
  4 48  1  0
  5 49  1  0
  7 50  1  0
 10 51  1  0
 12 52  1  0
 13 53  1  0
 14 54  1  0
 18 55  1  0
 19 56  1  0
 19 57  1  0
 21 58  1  0
 21 59  1  0
 21 60  1  0
 24 61  1  0
 26 62  1  0
 27 63  1  0
 30 64  1  0
 30 65  1  0
 30 66  1  0
 31 67  1  0
 32 68  1  0
 33 69  1  0
 34 70  1  0
 34 71  1  0
 34 72  1  0
 35 73  1  0
 35 74  1  0
 37 75  1  0
 38 76  1  0
 38 77  1  0
 38 78  1  0
 39 79  1  0
 39 80  1  0
 40 81  1  0
 43 82  1  0
 44 83  1  0
M  END
$$$$
