
     RDKit          3D

 37 37  0  0  0  0  0  0  0  0999 V2000
   -2.8347   -2.7167   -3.0851 C   0  0  0  0  0  0  0  0  0  0  0  0
   -2.7202   -1.4548   -2.4270 O   0  0  0  0  0  0  0  0  0  0  0  0
   -1.8183   -1.4418   -1.4065 C   0  0  0  0  0  0  0  0  0  0  0  0
   -1.1765   -2.4115   -1.0153 O   0  0  0  0  0  0  0  0  0  0  0  0
   -1.7561   -0.0553   -0.7582 C   0  0  0  0  0  0  0  0  0  0  0  0
   -2.8473    0.0461    0.3113 C   0  0  0  0  0  0  0  0  0  0  0  0
   -2.9623    1.4700    0.8509 C   0  0  0  0  0  0  0  0  0  0  0  0
   -4.3409    1.6370    2.0338 S   0  0  0  0  0  0  0  0  0  0  0  0
   -3.6156    0.8012    3.4662 C   0  0  0  0  0  0  0  0  0  0  0  0
   -0.4243    0.1134   -0.1676 N   0  0  0  0  0  0  0  0  0  0  0  0
    0.5935    0.5972   -0.9507 C   0  0  0  0  0  0  0  0  0  0  0  0
    0.4465    1.0239   -2.0861 O   0  0  0  0  0  0  0  0  0  0  0  0
    1.7903    0.5375   -0.2923 N   0  0  0  0  0  0  0  0  0  0  0  0
    2.9635    1.1081   -0.9123 C   0  0  0  0  0  0  0  0  0  0  0  0
    4.1500    0.7612   -0.0738 C   0  0  0  0  0  0  0  0  0  0  0  0
    4.9167   -0.3878   -0.1121 C   0  0  0  0  0  0  0  0  0  0  0  0
    5.9723   -0.3681    0.8443 C   0  0  0  0  0  0  0  0  0  0  0  0
    5.9763    0.7938    1.5826 C   0  0  0  0  0  0  0  0  0  0  0  0
    4.7126    1.8503    1.1246 S   0  0  0  0  0  0  0  0  0  0  0  0
   -1.8725   -3.0165   -3.5121 H   0  0  0  0  0  0  0  0  0  0  0  0
   -3.5564   -2.6099   -3.8996 H   0  0  0  0  0  0  0  0  0  0  0  0
   -3.2054   -3.4772   -2.3908 H   0  0  0  0  0  0  0  0  0  0  0  0
   -1.9017    0.7009   -1.5386 H   0  0  0  0  0  0  0  0  0  0  0  0
   -2.6291   -0.6580    1.1238 H   0  0  0  0  0  0  0  0  0  0  0  0
   -3.8078   -0.2603   -0.1235 H   0  0  0  0  0  0  0  0  0  0  0  0
   -3.1610    2.1628    0.0262 H   0  0  0  0  0  0  0  0  0  0  0  0
   -2.0358    1.7966    1.3339 H   0  0  0  0  0  0  0  0  0  0  0  0
   -4.2925    0.9046    4.3186 H   0  0  0  0  0  0  0  0  0  0  0  0
   -2.6569    1.2549    3.7299 H   0  0  0  0  0  0  0  0  0  0  0  0
   -3.4792   -0.2640    3.2661 H   0  0  0  0  0  0  0  0  0  0  0  0
   -0.1191   -0.6714    0.3974 H   0  0  0  0  0  0  0  0  0  0  0  0
    1.7256    0.6398    0.7098 H   0  0  0  0  0  0  0  0  0  0  0  0
    2.8195    2.1908   -1.0016 H   0  0  0  0  0  0  0  0  0  0  0  0
    3.0682    0.7006   -1.9244 H   0  0  0  0  0  0  0  0  0  0  0  0
    4.7254   -1.2065   -0.7962 H   0  0  0  0  0  0  0  0  0  0  0  0
    6.6919   -1.1657    0.9832 H   0  0  0  0  0  0  0  0  0  0  0  0
    6.6611    1.0751    2.3710 H   0  0  0  0  0  0  0  0  0  0  0  0
  1  2  1  0
  2  3  1  0
  3  4  2  0
  3  5  1  0
  5  6  1  0
  6  7  1  0
  7  8  1  0
  8  9  1  0
  5 10  1  0
 10 11  1  0
 11 12  2  0
 11 13  1  0
 13 14  1  0
 14 15  1  0
 15 16  2  0
 16 17  1  0
 17 18  2  0
 18 19  1  0
 19 15  1  0
  1 20  1  0
  1 21  1  0
  1 22  1  0
  5 23  1  0
  6 24  1  0
  6 25  1  0
  7 26  1  0
  7 27  1  0
  9 28  1  0
  9 29  1  0
  9 30  1  0
 10 31  1  0
 13 32  1  0
 14 33  1  0
 14 34  1  0
 16 35  1  0
 17 36  1  0
 18 37  1  0
M  END
$$$$
