
     RDKit          3D

 36 37  0  0  0  0  0  0  0  0999 V2000
   -1.6944   -2.2942    1.2058 O   0  0  0  0  0  0  0  0  0  0  0  0
   -0.9837   -1.4694    1.7731 C   0  0  0  0  0  0  0  0  0  0  0  0
    0.2953   -1.8629    2.5151 C   0  0  0  0  0  0  0  0  0  0  0  0
    1.4725   -1.7160    1.7191 O   0  0  0  0  0  0  0  0  0  0  0  0
    1.9240   -0.4475    1.5772 C   0  0  0  0  0  0  0  0  0  0  0  0
    1.4011    0.5478    2.0567 O   0  0  0  0  0  0  0  0  0  0  0  0
    3.1549   -0.4129    0.7431 C   0  0  0  0  0  0  0  0  0  0  0  0
    3.7927    0.8232    0.5582 C   0  0  0  0  0  0  0  0  0  0  0  0
    4.9498    0.9117   -0.2185 C   0  0  0  0  0  0  0  0  0  0  0  0
    5.4738   -0.2344   -0.8159 C   0  0  0  0  0  0  0  0  0  0  0  0
    4.8385   -1.4617   -0.6366 C   0  0  0  0  0  0  0  0  0  0  0  0
    5.4898   -2.8729   -1.3776 Cl  0  0  0  0  0  0  0  0  0  0  0  0
    3.6833   -1.5607    0.1388 C   0  0  0  0  0  0  0  0  0  0  0  0
   -1.2583   -0.1189    1.7926 N   0  0  0  0  0  0  0  0  0  0  0  0
   -2.3602    0.4468    1.0370 C   0  0  0  0  0  0  0  0  0  0  0  0
   -2.0623    0.5455   -0.4632 C   0  0  0  0  0  0  0  0  0  0  0  0
   -3.1047    1.2552   -1.1835 N   0  0  0  0  0  0  0  0  0  0  0  0
   -4.2116    0.6435   -1.7170 C   0  0  0  0  0  0  0  0  0  0  0  0
   -4.3291   -0.7088   -1.6158 O   0  0  0  0  0  0  0  0  0  0  0  0
   -5.0826    1.4778   -2.2956 C   0  0  0  0  0  0  0  0  0  0  0  0
   -4.5441    3.1261   -2.1839 S   0  0  0  0  0  0  0  0  0  0  0  0
   -3.0862    2.6353   -1.2991 C   0  0  0  0  0  0  0  0  0  0  0  0
   -2.2527    3.4186   -0.8755 O   0  0  0  0  0  0  0  0  0  0  0  0
    0.3817   -1.3003    3.4533 H   0  0  0  0  0  0  0  0  0  0  0  0
    0.2117   -2.9187    2.7942 H   0  0  0  0  0  0  0  0  0  0  0  0
    3.3901    1.7253    1.0167 H   0  0  0  0  0  0  0  0  0  0  0  0
    5.4412    1.8732   -0.3581 H   0  0  0  0  0  0  0  0  0  0  0  0
    6.3744   -0.1657   -1.4214 H   0  0  0  0  0  0  0  0  0  0  0  0
    3.2037   -2.5292    0.2623 H   0  0  0  0  0  0  0  0  0  0  0  0
   -0.4916    0.5039    2.0551 H   0  0  0  0  0  0  0  0  0  0  0  0
   -3.2543   -0.1632    1.2057 H   0  0  0  0  0  0  0  0  0  0  0  0
   -2.5517    1.4401    1.4563 H   0  0  0  0  0  0  0  0  0  0  0  0
   -1.1175    1.0893   -0.6044 H   0  0  0  0  0  0  0  0  0  0  0  0
   -1.9143   -0.4459   -0.9074 H   0  0  0  0  0  0  0  0  0  0  0  0
   -5.1679   -0.9827   -2.0229 H   0  0  0  0  0  0  0  0  0  0  0  0
   -6.0111    1.2027   -2.7729 H   0  0  0  0  0  0  0  0  0  0  0  0
  1  2  2  0
  2  3  1  0
  3  4  1  0
  4  5  1  0
  5  6  2  0
  5  7  1  0
  7  8  2  0
  8  9  1  0
  9 10  2  0
 10 11  1  0
 11 12  1  0
 11 13  2  0
  2 14  1  0
 14 15  1  0
 15 16  1  0
 16 17  1  0
 17 18  1  0
 18 19  1  0
 18 20  2  0
 20 21  1  0
 21 22  1  0
 22 23  2  0
 13  7  1  0
 22 17  1  0
  3 24  1  0
  3 25  1  0
  8 26  1  0
  9 27  1  0
 10 28  1  0
 13 29  1  0
 14 30  1  0
 15 31  1  0
 15 32  1  0
 16 33  1  0
 16 34  1  0
 19 35  1  0
 20 36  1  0
M  END
$$$$
