
     RDKit          3D

 52 54  0  0  0  0  0  0  0  0999 V2000
   -4.5309   -0.6981   -3.0107 C   0  0  0  0  0  0  0  0  0  0  0  0
   -3.5309   -0.8150   -1.9474 N   0  0  0  0  0  0  0  0  0  0  0  0
   -3.4398    0.3091   -1.0066 C   0  0  0  0  0  0  0  0  0  0  0  0
   -4.5594    0.3203    0.0110 C   0  0  0  0  0  0  0  0  0  0  0  0
   -4.4518   -0.3860    1.2224 C   0  0  0  0  0  0  0  0  0  0  0  0
   -5.5043   -0.3870    2.1456 C   0  0  0  0  0  0  0  0  0  0  0  0
   -6.6722    0.3221    1.8740 C   0  0  0  0  0  0  0  0  0  0  0  0
   -6.7935    1.0311    0.6758 C   0  0  0  0  0  0  0  0  0  0  0  0
   -5.7460    1.0245   -0.2532 C   0  0  0  0  0  0  0  0  0  0  0  0
   -2.8253   -2.0092   -1.8552 C   0  0  0  0  0  0  0  0  0  0  0  0
   -2.9397   -2.8961   -2.7193 O   0  0  0  0  0  0  0  0  0  0  0  0
   -1.8744   -2.2608   -0.6656 C   0  0  0  0  0  0  0  0  0  0  0  0
   -0.6028   -2.7326   -1.1442 O   0  0  0  0  0  0  0  0  0  0  0  0
    0.2393   -1.7398   -1.5470 C   0  0  0  0  0  0  0  0  0  0  0  0
   -0.0004   -0.5403   -1.4645 O   0  0  0  0  0  0  0  0  0  0  0  0
    1.4969   -2.3307   -2.1481 C   0  0  0  0  0  0  0  0  0  0  0  0
    2.7464   -1.6321   -1.7409 N   0  0  0  0  0  0  0  0  0  0  0  0
    3.1631   -1.8434   -0.1067 S   0  0  0  0  0  6  0  0  0  0  0  0
    1.9738   -2.1296    0.6645 O   0  0  0  0  0  0  0  0  0  0  0  0
    4.2916   -2.7493   -0.1380 O   0  0  0  0  0  0  0  0  0  0  0  0
    3.7340   -0.2275    0.3457 C   0  0  0  0  0  0  0  0  0  0  0  0
    2.8787    0.8627    0.2081 C   0  0  0  0  0  0  0  0  0  0  0  0
    3.3249    2.1345    0.5668 C   0  0  0  0  0  0  0  0  0  0  0  0
    4.6163    2.3265    1.0713 C   0  0  0  0  0  0  0  0  0  0  0  0
    5.0760    3.5999    1.4423 C   0  0  0  0  0  0  0  0  0  0  0  0
    6.3645    3.7724    1.9549 C   0  0  0  0  0  0  0  0  0  0  0  0
    7.2079    2.6779    2.0961 C   0  0  0  0  0  0  0  0  0  0  0  0
    6.7707    1.4043    1.7236 C   0  0  0  0  0  0  0  0  0  0  0  0
    5.4773    1.2114    1.2164 C   0  0  0  0  0  0  0  0  0  0  0  0
    5.0238   -0.0623    0.8475 C   0  0  0  0  0  0  0  0  0  0  0  0
   -4.4655    0.2939   -3.4741 H   0  0  0  0  0  0  0  0  0  0  0  0
   -4.3964   -1.4475   -3.7967 H   0  0  0  0  0  0  0  0  0  0  0  0
   -5.5253   -0.8410   -2.5703 H   0  0  0  0  0  0  0  0  0  0  0  0
   -2.4744    0.3295   -0.4884 H   0  0  0  0  0  0  0  0  0  0  0  0
   -3.4581    1.2413   -1.5933 H   0  0  0  0  0  0  0  0  0  0  0  0
   -3.5514   -0.9435    1.4621 H   0  0  0  0  0  0  0  0  0  0  0  0
   -5.4141   -0.9401    3.0810 H   0  0  0  0  0  0  0  0  0  0  0  0
   -7.4985    0.3006    2.5895 H   0  0  0  0  0  0  0  0  0  0  0  0
   -7.7133    1.5668    0.4544 H   0  0  0  0  0  0  0  0  0  0  0  0
   -5.8615    1.5771   -1.1885 H   0  0  0  0  0  0  0  0  0  0  0  0
   -1.7322   -1.4226    0.0114 H   0  0  0  0  0  0  0  0  0  0  0  0
   -2.3276   -3.0740   -0.0637 H   0  0  0  0  0  0  0  0  0  0  0  0
    1.5828   -3.4020   -1.9115 H   0  0  0  0  0  0  0  0  0  0  0  0
    1.4031   -2.2516   -3.2394 H   0  0  0  0  0  0  0  0  0  0  0  0
    3.5401   -1.9520   -2.2979 H   0  0  0  0  0  0  0  0  0  0  0  0
    1.8660    0.7305   -0.1703 H   0  0  0  0  0  0  0  0  0  0  0  0
    2.6482    2.9820    0.4530 H   0  0  0  0  0  0  0  0  0  0  0  0
    4.4342    4.4732    1.3356 H   0  0  0  0  0  0  0  0  0  0  0  0
    6.7023    4.7700    2.2380 H   0  0  0  0  0  0  0  0  0  0  0  0
    8.2055    2.8132    2.4913 H   0  0  0  0  0  0  0  0  0  0  0  0
    7.4463    0.5663    1.8339 H   0  0  0  0  0  0  0  0  0  0  0  0
    5.6762   -0.9269    0.9564 H   0  0  0  0  0  0  0  0  0  0  0  0
  1  2  1  0
  2  3  1  0
  3  4  1  0
  4  5  2  0
  5  6  1  0
  6  7  2  0
  7  8  1  0
  8  9  2  0
  2 10  1  0
 10 11  2  0
 10 12  1  0
 12 13  1  0
 13 14  1  0
 14 15  2  0
 14 16  1  0
 16 17  1  0
 17 18  1  0
 18 19  2  0
 18 20  2  0
 18 21  1  0
 21 22  2  0
 22 23  1  0
 23 24  2  0
 24 25  1  0
 25 26  2  0
 26 27  1  0
 27 28  2  0
 28 29  1  0
 29 30  2  0
  9  4  1  0
 30 21  1  0
 29 24  1  0
  1 31  1  0
  1 32  1  0
  1 33  1  0
  3 34  1  0
  3 35  1  0
  5 36  1  0
  6 37  1  0
  7 38  1  0
  8 39  1  0
  9 40  1  0
 12 41  1  0
 12 42  1  0
 16 43  1  0
 16 44  1  0
 17 45  1  0
 22 46  1  0
 23 47  1  0
 25 48  1  0
 26 49  1  0
 27 50  1  0
 28 51  1  0
 30 52  1  0
M  END
$$$$
