
     RDKit          3D

 44 46  0  0  0  0  0  0  0  0999 V2000
   -1.1206   -2.6838    3.8730 C   0  0  0  0  0  0  0  0  0  0  0  0
   -1.4117   -2.3058    2.4505 C   0  0  0  0  0  0  0  0  0  0  0  0
   -0.7495   -2.9401    1.3993 C   0  0  0  0  0  0  0  0  0  0  0  0
   -0.9788   -2.5845    0.0553 C   0  0  0  0  0  0  0  0  0  0  0  0
   -0.2282   -3.3743   -0.9830 C   0  0  0  0  0  0  0  0  0  0  0  0
   -1.8895   -1.5364   -0.2298 C   0  0  0  0  0  0  0  0  0  0  0  0
   -2.2047   -1.0088   -1.9314 S   0  0  0  0  0  6  0  0  0  0  0  0
   -3.6167   -0.7115   -2.0562 O   0  0  0  0  0  0  0  0  0  0  0  0
   -1.5826   -1.9194   -2.8680 O   0  0  0  0  0  0  0  0  0  0  0  0
   -1.3971    0.4764   -2.0327 N   0  0  0  0  0  0  0  0  0  0  0  0
   -0.0168    0.5350   -1.6996 C   0  0  0  0  0  0  0  0  0  0  0  0
    0.9339   -0.0240   -2.5514 C   0  0  0  0  0  0  0  0  0  0  0  0
    2.2846    0.0008   -2.2025 C   0  0  0  0  0  0  0  0  0  0  0  0
    2.6758    0.5827   -0.9959 C   0  0  0  0  0  0  0  0  0  0  0  0
    4.0007    0.5952   -0.6536 O   0  0  0  0  0  0  0  0  0  0  0  0
    1.7265    1.1477   -0.1317 C   0  0  0  0  0  0  0  0  0  0  0  0
    2.1796    1.8792    1.4336 S   0  0  0  0  0  0  0  0  0  0  0  0
    2.6423    3.4950    0.9597 C   0  0  0  0  0  0  0  0  0  0  0  0
    3.5312    4.2418    1.6909 N   0  0  0  0  0  0  0  0  0  0  0  0
    3.5846    5.3745    1.0328 C   0  0  0  0  0  0  0  0  0  0  0  0
    2.7485    5.3157   -0.0346 N   0  0  0  0  0  0  0  0  0  0  0  0
    2.1148    4.1352   -0.0930 N   0  0  0  0  0  0  0  0  0  0  0  0
    0.3733    1.1151   -0.4925 C   0  0  0  0  0  0  0  0  0  0  0  0
   -2.5683   -0.8818    0.8337 C   0  0  0  0  0  0  0  0  0  0  0  0
   -3.5940    0.2061    0.6471 C   0  0  0  0  0  0  0  0  0  0  0  0
   -2.3109   -1.2812    2.1589 C   0  0  0  0  0  0  0  0  0  0  0  0
   -1.9986   -2.5242    4.5077 H   0  0  0  0  0  0  0  0  0  0  0  0
   -0.8541   -3.7432    3.9497 H   0  0  0  0  0  0  0  0  0  0  0  0
   -0.2917   -2.0815    4.2575 H   0  0  0  0  0  0  0  0  0  0  0  0
   -0.0407   -3.7345    1.6325 H   0  0  0  0  0  0  0  0  0  0  0  0
   -0.9229   -3.9427   -1.6084 H   0  0  0  0  0  0  0  0  0  0  0  0
    0.4039   -2.7235   -1.5908 H   0  0  0  0  0  0  0  0  0  0  0  0
    0.4442   -4.1075   -0.5226 H   0  0  0  0  0  0  0  0  0  0  0  0
   -1.9857    1.2596   -1.7581 H   0  0  0  0  0  0  0  0  0  0  0  0
    0.6281   -0.4812   -3.4899 H   0  0  0  0  0  0  0  0  0  0  0  0
    3.0106   -0.4406   -2.8783 H   0  0  0  0  0  0  0  0  0  0  0  0
    4.5196    0.1768   -1.3588 H   0  0  0  0  0  0  0  0  0  0  0  0
    4.1860    6.2387    1.2753 H   0  0  0  0  0  0  0  0  0  0  0  0
    2.5575    6.0192   -0.7390 H   0  0  0  0  0  0  0  0  0  0  0  0
   -0.3701    1.5420    0.1747 H   0  0  0  0  0  0  0  0  0  0  0  0
   -4.5261   -0.2124    0.2566 H   0  0  0  0  0  0  0  0  0  0  0  0
   -3.2270    0.9978   -0.0086 H   0  0  0  0  0  0  0  0  0  0  0  0
   -3.8347    0.6939    1.5988 H   0  0  0  0  0  0  0  0  0  0  0  0
   -2.8249   -0.7855    2.9822 H   0  0  0  0  0  0  0  0  0  0  0  0
  1  2  1  0
  2  3  2  0
  3  4  1  0
  4  5  1  0
  4  6  2  0
  6  7  1  0
  7  8  2  0
  7  9  2  0
  7 10  1  0
 10 11  1  0
 11 12  2  0
 12 13  1  0
 13 14  2  0
 14 15  1  0
 14 16  1  0
 16 17  1  0
 17 18  1  0
 18 19  1  0
 19 20  2  0
 20 21  1  0
 21 22  1  0
 16 23  2  0
  6 24  1  0
 24 25  1  0
 24 26  2  0
 26  2  1  0
 23 11  1  0
 22 18  2  0
  1 27  1  0
  1 28  1  0
  1 29  1  0
  3 30  1  0
  5 31  1  0
  5 32  1  0
  5 33  1  0
 10 34  1  0
 12 35  1  0
 13 36  1  0
 15 37  1  0
 20 38  1  0
 21 39  1  0
 23 40  1  0
 25 41  1  0
 25 42  1  0
 25 43  1  0
 26 44  1  0
M  END
$$$$
