
     RDKit          3D

 59 62  0  0  0  0  0  0  0  0999 V2000
   -8.1174    2.5194   -1.0936 C   0  0  0  0  0  0  0  0  0  0  0  0
   -7.3737    1.9061   -2.1427 O   0  0  0  0  0  0  0  0  0  0  0  0
   -6.1593    1.3773   -1.8124 C   0  0  0  0  0  0  0  0  0  0  0  0
   -5.5488    0.6364   -2.8279 C   0  0  0  0  0  0  0  0  0  0  0  0
   -4.3106    0.0223   -2.6181 C   0  0  0  0  0  0  0  0  0  0  0  0
   -3.6641    0.1454   -1.3830 C   0  0  0  0  0  0  0  0  0  0  0  0
   -2.3775   -0.5033   -1.1659 C   0  0  0  0  0  0  0  0  0  0  0  0
   -1.1713   -0.3009   -1.8126 C   0  0  0  0  0  0  0  0  0  0  0  0
   -0.2000   -1.1473   -1.3471 N   0  0  0  0  0  0  0  0  0  0  0  0
   -0.7969   -1.8792   -0.4336 C   0  0  0  0  0  0  0  0  0  0  0  0
   -0.0126   -3.1316    0.4717 S   0  0  0  0  0  0  0  0  0  0  0  0
    1.4750   -3.4312   -0.5271 C   0  0  0  0  0  0  0  0  0  0  0  0
    2.6044   -2.4843   -0.1553 C   0  0  0  0  0  0  0  0  0  0  0  0
    3.5608   -2.8922    0.4960 O   0  0  0  0  0  0  0  0  0  0  0  0
    2.4267   -1.2136   -0.6467 N   0  0  0  0  0  0  0  0  0  0  0  0
    3.3571   -0.2255   -0.5183 C   0  0  0  0  0  0  0  0  0  0  0  0
    4.5804   -0.2914   -0.0670 N   0  0  0  0  0  0  0  0  0  0  0  0
    5.1941    0.9537   -0.1408 C   0  0  0  0  0  0  0  0  0  0  0  0
    6.6399    1.0626    0.3216 C   0  0  0  0  0  0  0  0  0  0  0  0
    7.4836   -0.0497   -0.3328 C   0  0  0  0  0  0  0  0  0  0  0  0
    7.2729    2.4190   -0.0548 C   0  0  0  0  0  0  0  0  0  0  0  0
    6.7099    0.9032    1.8512 C   0  0  0  0  0  0  0  0  0  0  0  0
    4.3700    1.9512   -0.6366 C   0  0  0  0  0  0  0  0  0  0  0  0
    2.8373    1.3037   -1.0594 S   0  0  0  0  0  0  0  0  0  0  0  0
   -2.1162   -1.5237   -0.2628 N   0  0  0  0  0  0  0  0  0  0  0  0
   -3.0927   -2.1715    0.6082 C   0  0  0  0  0  0  0  0  0  0  0  0
   -3.1736   -1.5086    1.9364 C   0  0  0  0  0  0  0  0  0  0  0  0
   -2.2492   -1.1350    2.8937 C   0  0  0  0  0  0  0  0  0  0  0  0
   -2.9804   -0.5520    3.9543 C   0  0  0  0  0  0  0  0  0  0  0  0
   -4.3026   -0.6125    3.5849 C   0  0  0  0  0  0  0  0  0  0  0  0
   -4.4296   -1.1925    2.3673 O   0  0  0  0  0  0  0  0  0  0  0  0
   -4.2636    0.9127   -0.3772 C   0  0  0  0  0  0  0  0  0  0  0  0
   -5.5074    1.5220   -0.5874 C   0  0  0  0  0  0  0  0  0  0  0  0
   -8.3024    1.8180   -0.2747 H   0  0  0  0  0  0  0  0  0  0  0  0
   -9.0895    2.8173   -1.5027 H   0  0  0  0  0  0  0  0  0  0  0  0
   -7.6173    3.4253   -0.7330 H   0  0  0  0  0  0  0  0  0  0  0  0
   -6.0466    0.5316   -3.7891 H   0  0  0  0  0  0  0  0  0  0  0  0
   -3.8621   -0.5568   -3.4239 H   0  0  0  0  0  0  0  0  0  0  0  0
   -0.9620    0.4208   -2.5926 H   0  0  0  0  0  0  0  0  0  0  0  0
    1.8131   -4.4512   -0.3225 H   0  0  0  0  0  0  0  0  0  0  0  0
    1.2660   -3.3758   -1.5999 H   0  0  0  0  0  0  0  0  0  0  0  0
    1.5319   -0.9558   -1.0567 H   0  0  0  0  0  0  0  0  0  0  0  0
    7.1309   -1.0466   -0.0474 H   0  0  0  0  0  0  0  0  0  0  0  0
    7.4396    0.0114   -1.4266 H   0  0  0  0  0  0  0  0  0  0  0  0
    8.5356    0.0212   -0.0364 H   0  0  0  0  0  0  0  0  0  0  0  0
    6.7544    3.2536    0.4349 H   0  0  0  0  0  0  0  0  0  0  0  0
    7.2338    2.5905   -1.1383 H   0  0  0  0  0  0  0  0  0  0  0  0
    8.3272    2.4637    0.2501 H   0  0  0  0  0  0  0  0  0  0  0  0
    6.1442    1.6942    2.3609 H   0  0  0  0  0  0  0  0  0  0  0  0
    6.2905   -0.0576    2.1725 H   0  0  0  0  0  0  0  0  0  0  0  0
    7.7473    0.9487    2.2085 H   0  0  0  0  0  0  0  0  0  0  0  0
    4.5845    2.9983   -0.7836 H   0  0  0  0  0  0  0  0  0  0  0  0
   -4.0623   -2.1548    0.0951 H   0  0  0  0  0  0  0  0  0  0  0  0
   -2.8264   -3.2265    0.7173 H   0  0  0  0  0  0  0  0  0  0  0  0
   -1.1769   -1.2632    2.8361 H   0  0  0  0  0  0  0  0  0  0  0  0
   -2.5934   -0.1430    4.8763 H   0  0  0  0  0  0  0  0  0  0  0  0
   -5.2256   -0.3077    4.0543 H   0  0  0  0  0  0  0  0  0  0  0  0
   -3.7697    1.0497    0.5848 H   0  0  0  0  0  0  0  0  0  0  0  0
   -5.9296    2.1059    0.2249 H   0  0  0  0  0  0  0  0  0  0  0  0
  1  2  1  0
  2  3  1  0
  3  4  2  0
  4  5  1  0
  5  6  2  0
  6  7  1  0
  7  8  2  0
  8  9  1  0
  9 10  2  0
 10 11  1  0
 11 12  1  0
 12 13  1  0
 13 14  2  0
 13 15  1  0
 15 16  1  0
 16 17  2  0
 17 18  1  0
 18 19  1  0
 19 20  1  0
 19 21  1  0
 19 22  1  0
 18 23  2  0
 23 24  1  0
 10 25  1  0
 25 26  1  0
 26 27  1  0
 27 28  2  0
 28 29  1  0
 29 30  2  0
 30 31  1  0
  6 32  1  0
 32 33  2  0
 33  3  1  0
 25  7  1  0
 31 27  1  0
 24 16  1  0
  1 34  1  0
  1 35  1  0
  1 36  1  0
  4 37  1  0
  5 38  1  0
  8 39  1  0
 12 40  1  0
 12 41  1  0
 15 42  1  0
 20 43  1  0
 20 44  1  0
 20 45  1  0
 21 46  1  0
 21 47  1  0
 21 48  1  0
 22 49  1  0
 22 50  1  0
 22 51  1  0
 23 52  1  0
 26 53  1  0
 26 54  1  0
 28 55  1  0
 29 56  1  0
 30 57  1  0
 32 58  1  0
 33 59  1  0
M  END
$$$$
