
     RDKit          3D

 85 88  0  0  0  0  0  0  0  0999 V2000
    4.2405   -7.8123    0.2987 C   0  0  0  0  0  0  0  0  0  0  0  0
    5.0836   -6.6618    0.3857 O   0  0  0  0  0  0  0  0  0  0  0  0
    4.4658   -5.4697    0.1135 C   0  0  0  0  0  0  0  0  0  0  0  0
    3.4502   -5.2934   -0.8245 C   0  0  0  0  0  0  0  0  0  0  0  0
    2.8921   -4.0208   -1.0224 C   0  0  0  0  0  0  0  0  0  0  0  0
    3.3396   -2.9146   -0.2891 C   0  0  0  0  0  0  0  0  0  0  0  0
    2.6795   -1.6831   -0.5094 N   0  0  0  0  0  0  0  0  0  0  0  0
    3.0005   -0.4454    0.0291 C   0  0  0  0  0  0  0  0  0  0  0  0
    4.0093   -0.2252    0.6888 O   0  0  0  0  0  0  0  0  0  0  0  0
    2.0276    0.5014   -0.2674 N   0  0  0  0  0  0  0  0  0  0  0  0
    1.9526    1.8410    0.1989 C   0  0  0  0  0  0  0  0  0  0  0  0
    2.8564    2.3713    1.1290 C   0  0  0  0  0  0  0  0  0  0  0  0
    2.7715    3.7062    1.5293 C   0  0  0  0  0  0  0  0  0  0  0  0
    1.7903    4.5362    0.9965 C   0  0  0  0  0  0  0  0  0  0  0  0
    0.8550    4.0205    0.0888 C   0  0  0  0  0  0  0  0  0  0  0  0
    0.9155    2.6701   -0.2765 C   0  0  0  0  0  0  0  0  0  0  0  0
   -0.0365    2.1610   -1.1250 O   0  0  0  0  0  0  0  0  0  0  0  0
   -1.0896    1.4938   -0.3848 C   0  0  0  0  0  0  0  0  0  0  0  0
   -1.9697    0.7534   -1.4308 C   0  0  0  0  0  0  0  0  0  0  0  0
   -1.2273   -0.2592   -2.1980 N   0  0  0  0  0  0  0  0  0  0  0  0
   -0.6919    0.1659   -3.4873 C   0  0  0  0  0  0  0  0  0  0  0  0
   -0.6699   -1.3819   -1.6111 C   0  0  0  0  0  0  0  0  0  0  0  0
    0.3345   -1.9286   -2.0528 O   0  0  0  0  0  0  0  0  0  0  0  0
   -1.2652   -1.7722   -0.4423 N   0  0  0  0  0  0  0  0  0  0  0  0
   -0.8183   -2.9583    0.2939 C   0  0  0  0  0  0  0  0  0  0  0  0
   -0.9076   -2.7066    1.8036 C   0  0  0  0  0  0  0  0  0  0  0  0
   -2.2932   -3.0298    2.3450 C   0  0  0  0  0  0  0  0  0  0  0  0
   -2.6506   -4.5036    2.1311 C   0  0  0  0  0  0  0  0  0  0  0  0
   -1.8946   -5.1667    0.9731 C   0  0  0  0  0  0  0  0  0  0  0  0
   -1.6291   -4.1883   -0.1629 C   0  0  0  0  0  0  0  0  0  0  0  0
   -1.8797    2.5186    0.4726 C   0  0  0  0  0  0  0  0  0  0  0  0
   -3.0989    1.8862    1.1505 C   0  0  0  0  0  0  0  0  0  0  0  0
   -2.2703    3.7583   -0.3478 C   0  0  0  0  0  0  0  0  0  0  0  0
   -1.4599    4.9635   -0.1185 N   0  0  0  0  0  0  0  0  0  0  0  0
   -2.2046    6.2394   -0.2283 C   0  0  0  0  0  0  0  0  0  0  0  0
   -1.6496    7.3047    0.7328 C   0  0  0  0  0  0  0  0  0  0  0  0
   -2.3359    6.7700   -1.6727 C   0  0  0  0  0  0  0  0  0  0  0  0
   -3.3715    7.7513   -1.7672 O   0  0  0  0  0  0  0  0  0  0  0  0
   -0.0972    5.0127   -0.4667 C   0  0  0  0  0  0  0  0  0  0  0  0
    0.4073    5.9749   -1.0469 O   0  0  0  0  0  0  0  0  0  0  0  0
    4.3693   -3.0995    0.6342 C   0  0  0  0  0  0  0  0  0  0  0  0
    4.9379   -4.3660    0.8231 C   0  0  0  0  0  0  0  0  0  0  0  0
    3.2715   -7.6399    0.7748 H   0  0  0  0  0  0  0  0  0  0  0  0
    4.1171   -8.1227   -0.7464 H   0  0  0  0  0  0  0  0  0  0  0  0
    4.7364   -8.6257    0.8347 H   0  0  0  0  0  0  0  0  0  0  0  0
    3.0998   -6.1160   -1.4372 H   0  0  0  0  0  0  0  0  0  0  0  0
    2.0947   -3.9120   -1.7568 H   0  0  0  0  0  0  0  0  0  0  0  0
    1.9169   -1.7113   -1.1857 H   0  0  0  0  0  0  0  0  0  0  0  0
    1.3516    0.2501   -0.9779 H   0  0  0  0  0  0  0  0  0  0  0  0
    3.6447    1.7712    1.5702 H   0  0  0  0  0  0  0  0  0  0  0  0
    3.4817    4.0912    2.2546 H   0  0  0  0  0  0  0  0  0  0  0  0
    1.7578    5.5850    1.2871 H   0  0  0  0  0  0  0  0  0  0  0  0
   -0.6509    0.7437    0.2894 H   0  0  0  0  0  0  0  0  0  0  0  0
   -2.8044    0.2488   -0.9391 H   0  0  0  0  0  0  0  0  0  0  0  0
   -2.3997    1.4599   -2.1508 H   0  0  0  0  0  0  0  0  0  0  0  0
   -0.2535   -0.6786   -4.0303 H   0  0  0  0  0  0  0  0  0  0  0  0
   -1.5066    0.5794   -4.0943 H   0  0  0  0  0  0  0  0  0  0  0  0
    0.0847    0.9265   -3.3344 H   0  0  0  0  0  0  0  0  0  0  0  0
   -2.2608   -1.6024   -0.4009 H   0  0  0  0  0  0  0  0  0  0  0  0
    0.2353   -3.1355    0.0545 H   0  0  0  0  0  0  0  0  0  0  0  0
   -0.1709   -3.3373    2.3261 H   0  0  0  0  0  0  0  0  0  0  0  0
   -0.6466   -1.6651    2.0378 H   0  0  0  0  0  0  0  0  0  0  0  0
   -2.3539   -2.7886    3.4111 H   0  0  0  0  0  0  0  0  0  0  0  0
   -3.0288   -2.3929    1.8405 H   0  0  0  0  0  0  0  0  0  0  0  0
   -3.7327   -4.5819    1.9621 H   0  0  0  0  0  0  0  0  0  0  0  0
   -2.4423   -5.0687    3.0481 H   0  0  0  0  0  0  0  0  0  0  0  0
   -0.9382   -5.5729    1.3391 H   0  0  0  0  0  0  0  0  0  0  0  0
   -2.4697   -6.0272    0.6027 H   0  0  0  0  0  0  0  0  0  0  0  0
   -1.0954   -4.6945   -0.9731 H   0  0  0  0  0  0  0  0  0  0  0  0
   -2.5930   -3.8777   -0.5859 H   0  0  0  0  0  0  0  0  0  0  0  0
   -1.2372    2.8455    1.2972 H   0  0  0  0  0  0  0  0  0  0  0  0
   -2.8122    0.9705    1.6777 H   0  0  0  0  0  0  0  0  0  0  0  0
   -3.8969    1.6508    0.4384 H   0  0  0  0  0  0  0  0  0  0  0  0
   -3.5192    2.5760    1.8911 H   0  0  0  0  0  0  0  0  0  0  0  0
   -3.3094    4.0053   -0.1085 H   0  0  0  0  0  0  0  0  0  0  0  0
   -2.2429    3.5652   -1.4227 H   0  0  0  0  0  0  0  0  0  0  0  0
   -3.2179    6.0478    0.1472 H   0  0  0  0  0  0  0  0  0  0  0  0
   -2.3243    8.1666    0.7958 H   0  0  0  0  0  0  0  0  0  0  0  0
   -0.6653    7.6757    0.4135 H   0  0  0  0  0  0  0  0  0  0  0  0
   -1.5388    6.8915    1.7428 H   0  0  0  0  0  0  0  0  0  0  0  0
   -2.6084    5.9582   -2.3508 H   0  0  0  0  0  0  0  0  0  0  0  0
   -1.4135    7.2249   -2.0471 H   0  0  0  0  0  0  0  0  0  0  0  0
   -3.0274    8.5707   -1.3543 H   0  0  0  0  0  0  0  0  0  0  0  0
    4.7521   -2.2792    1.2375 H   0  0  0  0  0  0  0  0  0  0  0  0
    5.7486   -4.4877    1.5362 H   0  0  0  0  0  0  0  0  0  0  0  0
  1  2  1  0
  2  3  1  0
  3  4  2  0
  4  5  1  0
  5  6  2  0
  6  7  1  0
  7  8  1  0
  8  9  2  0
  8 10  1  0
 10 11  1  0
 11 12  2  0
 12 13  1  0
 13 14  2  0
 14 15  1  0
 15 16  2  0
 16 17  1  0
 17 18  1  0
 18 19  1  0
 19 20  1  0
 20 21  1  0
 20 22  1  0
 22 23  2  0
 22 24  1  0
 24 25  1  0
 25 26  1  0
 26 27  1  0
 27 28  1  0
 28 29  1  0
 29 30  1  0
 18 31  1  0
 31 32  1  0
 31 33  1  0
 33 34  1  0
 34 35  1  0
 35 36  1  0
 35 37  1  0
 37 38  1  0
 34 39  1  0
 39 40  2  0
  6 41  1  0
 41 42  2  0
 42  3  1  0
 16 11  1  0
 30 25  1  0
 39 15  1  0
  1 43  1  0
  1 44  1  0
  1 45  1  0
  4 46  1  0
  5 47  1  0
  7 48  1  0
 10 49  1  0
 12 50  1  0
 13 51  1  0
 14 52  1  0
 18 53  1  0
 19 54  1  0
 19 55  1  0
 21 56  1  0
 21 57  1  0
 21 58  1  0
 24 59  1  0
 25 60  1  0
 26 61  1  0
 26 62  1  0
 27 63  1  0
 27 64  1  0
 28 65  1  0
 28 66  1  0
 29 67  1  0
 29 68  1  0
 30 69  1  0
 30 70  1  0
 31 71  1  0
 32 72  1  0
 32 73  1  0
 32 74  1  0
 33 75  1  0
 33 76  1  0
 35 77  1  0
 36 78  1  0
 36 79  1  0
 36 80  1  0
 37 81  1  0
 37 82  1  0
 38 83  1  0
 41 84  1  0
 42 85  1  0
M  END
$$$$
