
     RDKit          3D

 33 35  0  0  0  0  0  0  0  0999 V2000
    5.5310   -0.1761   -0.3253 C   0  0  0  0  0  0  0  0  0  0  0  0
    4.6574   -1.2478    0.0059 O   0  0  0  0  0  0  0  0  0  0  0  0
    3.3393   -0.9401    0.1989 C   0  0  0  0  0  0  0  0  0  0  0  0
    2.5300   -2.0303    0.5252 C   0  0  0  0  0  0  0  0  0  0  0  0
    1.1614   -1.8616    0.7415 C   0  0  0  0  0  0  0  0  0  0  0  0
    0.5875   -0.5907    0.6356 C   0  0  0  0  0  0  0  0  0  0  0  0
    1.3930    0.5183    0.3267 C   0  0  0  0  0  0  0  0  0  0  0  0
    2.7682    0.3306    0.0965 C   0  0  0  0  0  0  0  0  0  0  0  0
    0.7964    1.8963    0.1984 C   0  0  0  0  0  0  0  0  0  0  0  0
   -0.4942    2.0261    1.0030 C   0  0  0  0  0  0  0  0  0  0  0  0
   -1.4515    0.9225    0.6332 C   0  0  0  0  0  0  0  0  0  0  0  0
   -2.6923    1.2003    0.1944 C   0  0  0  0  0  0  0  0  0  0  0  0
   -3.6894    0.2926   -0.2589 C   0  0  0  0  0  0  0  0  0  0  0  0
   -3.6256   -0.9794   -0.8186 C   0  0  0  0  0  0  0  0  0  0  0  0
   -4.9430   -1.4017   -1.1186 C   0  0  0  0  0  0  0  0  0  0  0  0
   -5.7575   -0.3640   -0.7528 C   0  0  0  0  0  0  0  0  0  0  0  0
   -5.0228    0.6580   -0.2551 O   0  0  0  0  0  0  0  0  0  0  0  0
   -0.8803   -0.4441    0.8495 C   0  0  0  0  0  0  0  0  0  0  0  0
   -1.5510   -1.3943    1.2305 O   0  0  0  0  0  0  0  0  0  0  0  0
    5.5664    0.5670    0.4782 H   0  0  0  0  0  0  0  0  0  0  0  0
    6.5377   -0.5889   -0.4415 H   0  0  0  0  0  0  0  0  0  0  0  0
    5.2477    0.2838   -1.2778 H   0  0  0  0  0  0  0  0  0  0  0  0
    2.9685   -3.0222    0.6079 H   0  0  0  0  0  0  0  0  0  0  0  0
    0.5470   -2.7253    0.9883 H   0  0  0  0  0  0  0  0  0  0  0  0
    3.3727    1.1955   -0.1592 H   0  0  0  0  0  0  0  0  0  0  0  0
    1.5100    2.6479    0.5569 H   0  0  0  0  0  0  0  0  0  0  0  0
    0.6048    2.0971   -0.8631 H   0  0  0  0  0  0  0  0  0  0  0  0
   -0.9281    3.0176    0.8264 H   0  0  0  0  0  0  0  0  0  0  0  0
   -0.2785    1.9655    2.0781 H   0  0  0  0  0  0  0  0  0  0  0  0
   -3.0032    2.2422    0.1583 H   0  0  0  0  0  0  0  0  0  0  0  0
   -2.7240   -1.5503   -0.9899 H   0  0  0  0  0  0  0  0  0  0  0  0
   -5.2525   -2.3433   -1.5484 H   0  0  0  0  0  0  0  0  0  0  0  0
   -6.8254   -0.2014   -0.7832 H   0  0  0  0  0  0  0  0  0  0  0  0
  1  2  1  0
  2  3  1  0
  3  4  2  0
  4  5  1  0
  5  6  2  0
  6  7  1  0
  7  8  2  0
  7  9  1  0
  9 10  1  0
 10 11  1  0
 11 12  2  3
 12 13  1  0
 13 14  2  0
 14 15  1  0
 15 16  2  0
 16 17  1  0
 11 18  1  0
 18 19  2  0
  8  3  1  0
 17 13  1  0
 18  6  1  0
  1 20  1  0
  1 21  1  0
  1 22  1  0
  4 23  1  0
  5 24  1  0
  8 25  1  0
  9 26  1  0
  9 27  1  0
 10 28  1  0
 10 29  1  0
 12 30  1  0
 14 31  1  0
 15 32  1  0
 16 33  1  0
M  END
$$$$
