
     RDKit          3D

 61 65  0  0  0  0  0  0  0  0999 V2000
   -9.0241    2.0759    0.1809 C   0  0  0  0  0  0  0  0  0  0  0  0
   -8.2358    1.2172    0.9949 O   0  0  0  0  0  0  0  0  0  0  0  0
   -6.8723    1.2757    0.8476 C   0  0  0  0  0  0  0  0  0  0  0  0
   -6.2104    2.1064   -0.0594 C   0  0  0  0  0  0  0  0  0  0  0  0
   -4.8139    2.1112   -0.1246 C   0  0  0  0  0  0  0  0  0  0  0  0
   -4.0520    1.2831    0.7080 C   0  0  0  0  0  0  0  0  0  0  0  0
   -2.5951    1.3316    0.6311 C   0  0  0  0  0  0  0  0  0  0  0  0
   -1.8256    2.1884   -0.0145 N   0  0  0  0  0  0  0  0  0  0  0  0
   -0.5379    1.7875    0.2831 C   0  0  0  0  0  0  0  0  0  0  0  0
    0.6242    2.5495   -0.2409 C   0  0  0  0  0  0  0  0  0  0  0  0
    1.3977    1.7659   -1.1899 N   0  0  0  0  0  0  0  0  0  0  0  0
    2.6786    1.2901   -1.0435 C   0  0  0  0  0  0  0  0  0  0  0  0
    3.6130    1.5073    0.3994 S   0  0  0  0  0  0  0  0  0  0  0  0
    5.3010    1.2010   -0.1986 C   0  0  0  0  0  0  0  0  0  0  0  0
    5.7782   -0.2025    0.0821 C   0  0  0  0  0  0  0  0  0  0  0  0
    5.6412   -1.2110   -0.8799 C   0  0  0  0  0  0  0  0  0  0  0  0
    6.1008   -2.5042   -0.6242 C   0  0  0  0  0  0  0  0  0  0  0  0
    6.6886   -2.8186    0.6063 C   0  0  0  0  0  0  0  0  0  0  0  0
    7.2163   -4.1977    0.8718 C   0  0  0  0  0  0  0  0  0  0  0  0
    6.8230   -1.8163    1.5705 C   0  0  0  0  0  0  0  0  0  0  0  0
    6.3661   -0.5220    1.3147 C   0  0  0  0  0  0  0  0  0  0  0  0
    3.0982    0.6756   -2.1237 N   0  0  0  0  0  0  0  0  0  0  0  0
    2.0538    0.7374   -3.0097 C   0  0  0  0  0  0  0  0  0  0  0  0
    1.9610    0.2284   -4.3040 C   0  0  0  0  0  0  0  0  0  0  0  0
    0.7639    0.4677   -4.9571 C   0  0  0  0  0  0  0  0  0  0  0  0
   -0.2857    1.1435   -4.4293 N   0  0  0  0  0  0  0  0  0  0  0  0
   -0.1990    1.6279   -3.1676 C   0  0  0  0  0  0  0  0  0  0  0  0
    0.9780    1.4234   -2.4598 C   0  0  0  0  0  0  0  0  0  0  0  0
   -0.5845    0.6748    1.0989 C   0  0  0  0  0  0  0  0  0  0  0  0
    0.4187   -0.1962    1.7399 C   0  0  0  0  0  0  0  0  0  0  0  0
   -1.8996    0.3757    1.3259 O   0  0  0  0  0  0  0  0  0  0  0  0
   -4.7198    0.4412    1.6085 C   0  0  0  0  0  0  0  0  0  0  0  0
   -6.1196    0.4316    1.6868 C   0  0  0  0  0  0  0  0  0  0  0  0
   -6.8423   -0.3604    2.5489 O   0  0  0  0  0  0  0  0  0  0  0  0
   -6.1186   -1.2210    3.4199 C   0  0  0  0  0  0  0  0  0  0  0  0
   -8.9163    1.8215   -0.8792 H   0  0  0  0  0  0  0  0  0  0  0  0
  -10.0739    1.9293    0.4501 H   0  0  0  0  0  0  0  0  0  0  0  0
   -8.7815    3.1284    0.3634 H   0  0  0  0  0  0  0  0  0  0  0  0
   -6.7486    2.7647   -0.7300 H   0  0  0  0  0  0  0  0  0  0  0  0
   -4.3182    2.7750   -0.8345 H   0  0  0  0  0  0  0  0  0  0  0  0
    0.2875    3.4489   -0.7723 H   0  0  0  0  0  0  0  0  0  0  0  0
    1.2590    2.8882    0.5806 H   0  0  0  0  0  0  0  0  0  0  0  0
    5.4070    1.4472   -1.2620 H   0  0  0  0  0  0  0  0  0  0  0  0
    5.9594    1.9057    0.3262 H   0  0  0  0  0  0  0  0  0  0  0  0
    5.1785   -0.9920   -1.8404 H   0  0  0  0  0  0  0  0  0  0  0  0
    5.9921   -3.2671   -1.3945 H   0  0  0  0  0  0  0  0  0  0  0  0
    8.2982   -4.2285    0.6960 H   0  0  0  0  0  0  0  0  0  0  0  0
    7.0162   -4.4917    1.9063 H   0  0  0  0  0  0  0  0  0  0  0  0
    6.7365   -4.9360    0.2241 H   0  0  0  0  0  0  0  0  0  0  0  0
    7.2844   -2.0343    2.5326 H   0  0  0  0  0  0  0  0  0  0  0  0
    6.4770    0.2386    2.0857 H   0  0  0  0  0  0  0  0  0  0  0  0
    2.7730   -0.3192   -4.7612 H   0  0  0  0  0  0  0  0  0  0  0  0
    0.6087    0.1032   -5.9704 H   0  0  0  0  0  0  0  0  0  0  0  0
   -1.0644    2.1500   -2.7759 H   0  0  0  0  0  0  0  0  0  0  0  0
   -0.0512   -0.8960    2.4371 H   0  0  0  0  0  0  0  0  0  0  0  0
    1.1413    0.4007    2.3032 H   0  0  0  0  0  0  0  0  0  0  0  0
    0.9566   -0.7787    0.9859 H   0  0  0  0  0  0  0  0  0  0  0  0
   -4.1272   -0.1967    2.2529 H   0  0  0  0  0  0  0  0  0  0  0  0
   -5.5355   -1.9600    2.8539 H   0  0  0  0  0  0  0  0  0  0  0  0
   -5.4795   -0.6463    4.0979 H   0  0  0  0  0  0  0  0  0  0  0  0
   -6.8454   -1.7687    4.0321 H   0  0  0  0  0  0  0  0  0  0  0  0
  1  2  1  0
  2  3  1  0
  3  4  2  0
  4  5  1  0
  5  6  2  0
  6  7  1  0
  7  8  2  0
  8  9  1  0
  9 10  1  0
 10 11  1  0
 11 12  1  0
 12 13  1  0
 13 14  1  0
 14 15  1  0
 15 16  2  0
 16 17  1  0
 17 18  2  0
 18 19  1  0
 18 20  1  0
 20 21  2  0
 12 22  2  0
 22 23  1  0
 23 24  2  0
 24 25  1  0
 25 26  2  0
 26 27  1  0
 27 28  2  0
  9 29  2  0
 29 30  1  0
 29 31  1  0
  6 32  1  0
 32 33  2  0
 33 34  1  0
 34 35  1  0
 33  3  1  0
 31  7  1  0
 28 11  1  0
 21 15  1  0
 28 23  1  0
  1 36  1  0
  1 37  1  0
  1 38  1  0
  4 39  1  0
  5 40  1  0
 10 41  1  0
 10 42  1  0
 14 43  1  0
 14 44  1  0
 16 45  1  0
 17 46  1  0
 19 47  1  0
 19 48  1  0
 19 49  1  0
 20 50  1  0
 21 51  1  0
 24 52  1  0
 25 53  1  0
 27 54  1  0
 30 55  1  0
 30 56  1  0
 30 57  1  0
 32 58  1  0
 35 59  1  0
 35 60  1  0
 35 61  1  0
M  END
$$$$
