
     RDKit          3D

 36 37  0  0  0  0  0  0  0  0999 V2000
   -2.8912   -0.5323   -2.8190 C   0  0  0  0  0  0  0  0  0  0  0  0
   -1.5555    0.0998   -2.4541 C   0  0  0  0  0  0  0  0  0  0  0  0
   -1.2065    0.1443   -1.0321 N   0  0  0  0  0  0  0  0  0  0  0  0
   -2.0345    1.0601   -0.2299 C   0  0  0  0  0  0  0  0  0  0  0  0
   -3.1459    0.5084    0.6849 C   0  0  0  0  0  0  0  0  0  0  0  0
   -4.1468   -0.1923   -0.0403 O   0  0  0  0  0  0  0  0  0  0  0  0
   -0.9392   -1.1747   -0.4615 C   0  0  0  0  0  0  0  0  0  0  0  0
   -0.0571   -1.0726    0.7602 C   0  0  0  0  0  0  0  0  0  0  0  0
   -0.3928   -1.6079    1.9899 C   0  0  0  0  0  0  0  0  0  0  0  0
    0.7946   -1.3524    3.1797 S   0  0  0  0  0  0  0  0  0  0  0  0
    1.8355   -0.5494    2.0717 C   0  0  0  0  0  0  0  0  0  0  0  0
    3.1144   -0.0220    2.3490 C   0  0  0  0  0  0  0  0  0  0  0  0
    3.8461    0.5931    1.3243 C   0  0  0  0  0  0  0  0  0  0  0  0
    5.1936    1.1868    1.6137 C   0  0  0  0  0  0  0  0  0  0  0  0
    3.2883    0.6988    0.0535 C   0  0  0  0  0  0  0  0  0  0  0  0
    2.0187    0.1749   -0.2145 C   0  0  0  0  0  0  0  0  0  0  0  0
    1.2624   -0.4655    0.8000 C   0  0  0  0  0  0  0  0  0  0  0  0
   -3.0006   -1.5339   -2.3930 H   0  0  0  0  0  0  0  0  0  0  0  0
   -3.7287    0.0891   -2.4917 H   0  0  0  0  0  0  0  0  0  0  0  0
   -2.9686   -0.6276   -3.9075 H   0  0  0  0  0  0  0  0  0  0  0  0
   -1.5243    1.1177   -2.8635 H   0  0  0  0  0  0  0  0  0  0  0  0
   -0.7622   -0.4356   -2.9918 H   0  0  0  0  0  0  0  0  0  0  0  0
   -2.4824    1.8159   -0.8883 H   0  0  0  0  0  0  0  0  0  0  0  0
   -1.3462    1.6214    0.4151 H   0  0  0  0  0  0  0  0  0  0  0  0
   -3.6311    1.3484    1.1943 H   0  0  0  0  0  0  0  0  0  0  0  0
   -2.7475   -0.1527    1.4570 H   0  0  0  0  0  0  0  0  0  0  0  0
   -4.8258   -0.4623    0.6009 H   0  0  0  0  0  0  0  0  0  0  0  0
   -1.8639   -1.7190   -0.2378 H   0  0  0  0  0  0  0  0  0  0  0  0
   -0.3895   -1.7945   -1.1832 H   0  0  0  0  0  0  0  0  0  0  0  0
   -1.2982   -2.1395    2.2487 H   0  0  0  0  0  0  0  0  0  0  0  0
    3.5255   -0.0989    3.3522 H   0  0  0  0  0  0  0  0  0  0  0  0
    5.7082    0.6233    2.3991 H   0  0  0  0  0  0  0  0  0  0  0  0
    5.8321    1.1598    0.7243 H   0  0  0  0  0  0  0  0  0  0  0  0
    5.0826    2.2261    1.9381 H   0  0  0  0  0  0  0  0  0  0  0  0
    3.8327    1.1925   -0.7484 H   0  0  0  0  0  0  0  0  0  0  0  0
    1.6039    0.2726   -1.2149 H   0  0  0  0  0  0  0  0  0  0  0  0
  1  2  1  0
  2  3  1  0
  3  4  1  0
  4  5  1  0
  5  6  1  0
  3  7  1  0
  7  8  1  0
  8  9  2  0
  9 10  1  0
 10 11  1  0
 11 12  2  0
 12 13  1  0
 13 14  1  0
 13 15  2  0
 15 16  1  0
 16 17  2  0
 17  8  1  0
 17 11  1  0
  1 18  1  0
  1 19  1  0
  1 20  1  0
  2 21  1  0
  2 22  1  0
  4 23  1  0
  4 24  1  0
  5 25  1  0
  5 26  1  0
  6 27  1  0
  7 28  1  0
  7 29  1  0
  9 30  1  0
 12 31  1  0
 14 32  1  0
 14 33  1  0
 14 34  1  0
 15 35  1  0
 16 36  1  0
M  END
$$$$
