
     RDKit          3D

 43 45  0  0  0  0  0  0  0  0999 V2000
   -7.0368   -0.5038    1.0958 C   0  0  0  0  0  0  0  0  0  0  0  0
   -5.9016   -1.3016    0.6354 N   0  0  0  0  0  0  0  0  0  0  0  0
   -5.7155   -2.5823    1.3156 C   0  0  0  0  0  0  0  0  0  0  0  0
   -4.7804   -0.6433    0.1144 C   0  0  0  0  0  0  0  0  0  0  0  0
   -4.8284    0.6960   -0.3085 C   0  0  0  0  0  0  0  0  0  0  0  0
   -3.7112    1.3565   -0.8455 C   0  0  0  0  0  0  0  0  0  0  0  0
   -2.4894    0.6990   -0.9824 C   0  0  0  0  0  0  0  0  0  0  0  0
   -1.3519    1.4158   -1.5776 C   0  0  0  0  0  0  0  0  0  0  0  0
   -0.0689    1.2094   -1.2376 C   0  0  0  0  0  0  0  0  0  0  0  0
    1.0249    1.9417   -1.8434 C   0  0  0  0  0  0  0  0  0  0  0  0
    2.3381    1.8075   -1.5971 C   0  0  0  0  0  0  0  0  0  0  0  0
    3.5108    2.7756   -2.4055 S   0  0  0  0  0  0  0  0  0  0  0  0
    4.8522    2.1193   -1.4699 C   0  0  0  0  0  0  0  0  0  0  0  0
    6.3637    2.8310   -1.5939 S   0  0  0  0  0  0  0  0  0  0  0  0
    4.4008    1.0881   -0.6546 N   0  0  0  0  0  0  0  0  0  0  0  0
    5.2485    0.2715    0.1683 C   0  0  0  0  0  0  0  0  0  0  0  0
    6.4839   -0.2065   -0.2951 C   0  0  0  0  0  0  0  0  0  0  0  0
    7.2986   -1.0072    0.5129 C   0  0  0  0  0  0  0  0  0  0  0  0
    6.8876   -1.3527    1.7960 C   0  0  0  0  0  0  0  0  0  0  0  0
    5.6586   -0.9054    2.2685 C   0  0  0  0  0  0  0  0  0  0  0  0
    4.8449   -0.1055    1.4598 C   0  0  0  0  0  0  0  0  0  0  0  0
    3.0201    0.8666   -0.6579 C   0  0  0  0  0  0  0  0  0  0  0  0
    2.4108    0.0078   -0.0315 O   0  0  0  0  0  0  0  0  0  0  0  0
   -2.4234   -0.6406   -0.6019 C   0  0  0  0  0  0  0  0  0  0  0  0
   -3.5470   -1.2922   -0.0667 C   0  0  0  0  0  0  0  0  0  0  0  0
   -6.7366    0.1871    1.8914 H   0  0  0  0  0  0  0  0  0  0  0  0
   -7.4882    0.0573    0.2706 H   0  0  0  0  0  0  0  0  0  0  0  0
   -7.8342   -1.1408    1.4953 H   0  0  0  0  0  0  0  0  0  0  0  0
   -5.0528   -2.4763    2.1817 H   0  0  0  0  0  0  0  0  0  0  0  0
   -6.6698   -2.9822    1.6767 H   0  0  0  0  0  0  0  0  0  0  0  0
   -5.3138   -3.3394    0.6336 H   0  0  0  0  0  0  0  0  0  0  0  0
   -5.7460    1.2717   -0.2378 H   0  0  0  0  0  0  0  0  0  0  0  0
   -3.8170    2.3953   -1.1493 H   0  0  0  0  0  0  0  0  0  0  0  0
   -1.6134    2.1617   -2.3249 H   0  0  0  0  0  0  0  0  0  0  0  0
    0.1689    0.4777   -0.4697 H   0  0  0  0  0  0  0  0  0  0  0  0
    0.7183    2.6862   -2.5794 H   0  0  0  0  0  0  0  0  0  0  0  0
    6.8255   -0.0075   -1.3074 H   0  0  0  0  0  0  0  0  0  0  0  0
    8.2510   -1.3683    0.1321 H   0  0  0  0  0  0  0  0  0  0  0  0
    7.5197   -1.9762    2.4230 H   0  0  0  0  0  0  0  0  0  0  0  0
    5.3274   -1.1774    3.2677 H   0  0  0  0  0  0  0  0  0  0  0  0
    3.8977    0.2341    1.8737 H   0  0  0  0  0  0  0  0  0  0  0  0
   -1.5055   -1.2104   -0.7248 H   0  0  0  0  0  0  0  0  0  0  0  0
   -3.4201   -2.3372    0.1986 H   0  0  0  0  0  0  0  0  0  0  0  0
  1  2  1  0
  2  3  1  0
  2  4  1  0
  4  5  2  0
  5  6  1  0
  6  7  2  0
  7  8  1  0
  8  9  2  3
  9 10  1  0
 10 11  2  3
 11 12  1  0
 12 13  1  0
 13 14  2  0
 13 15  1  0
 15 16  1  0
 16 17  2  0
 17 18  1  0
 18 19  2  0
 19 20  1  0
 20 21  2  0
 15 22  1  0
 22 23  2  0
  7 24  1  0
 24 25  2  0
 25  4  1  0
 22 11  1  0
 21 16  1  0
  1 26  1  0
  1 27  1  0
  1 28  1  0
  3 29  1  0
  3 30  1  0
  3 31  1  0
  5 32  1  0
  6 33  1  0
  8 34  1  0
  9 35  1  0
 10 36  1  0
 17 37  1  0
 18 38  1  0
 19 39  1  0
 20 40  1  0
 21 41  1  0
 24 42  1  0
 25 43  1  0
M  END
$$$$
