
     RDKit          3D

 32 32  0  0  0  0  0  0  0  0999 V2000
   -3.8392   -1.6589    1.5122 C   0  0  0  0  0  0  0  0  0  0  0  0
   -3.6957   -1.4403    0.3396 C   0  0  0  0  0  0  0  0  0  0  0  0
   -3.5130   -1.1719   -1.0968 C   0  0  0  0  0  0  0  0  0  0  0  0
   -2.8061    0.1011   -1.3304 N   0  0  0  0  0  0  0  0  0  0  0  0
   -2.9749    0.4969   -2.7313 C   0  0  0  0  0  0  0  0  0  0  0  0
   -1.3768   -0.0141   -0.9721 C   0  0  0  0  0  0  0  0  0  0  0  0
   -0.7049    1.3580   -0.8129 C   0  0  0  0  0  0  0  0  0  0  0  0
    0.7718    1.2289   -0.4365 C   0  0  0  0  0  0  0  0  0  0  0  0
    0.8798    0.5565    0.8157 O   0  0  0  0  0  0  0  0  0  0  0  0
    2.1319    0.2635    1.2856 C   0  0  0  0  0  0  0  0  0  0  0  0
    3.3213    0.7225    0.7098 C   0  0  0  0  0  0  0  0  0  0  0  0
    4.5564    0.3746    1.2676 C   0  0  0  0  0  0  0  0  0  0  0  0
    4.6075   -0.4304    2.4034 C   0  0  0  0  0  0  0  0  0  0  0  0
    6.1310   -0.8528    3.0811 Cl  0  0  0  0  0  0  0  0  0  0  0  0
    3.4359   -0.8931    2.9921 C   0  0  0  0  0  0  0  0  0  0  0  0
    2.2035   -0.5449    2.4342 C   0  0  0  0  0  0  0  0  0  0  0  0
    0.7729   -1.1488    3.1982 Cl  0  0  0  0  0  0  0  0  0  0  0  0
   -3.9555   -1.8410    2.5553 H   0  0  0  0  0  0  0  0  0  0  0  0
   -2.9907   -2.0072   -1.5802 H   0  0  0  0  0  0  0  0  0  0  0  0
   -4.5156   -1.1257   -1.5417 H   0  0  0  0  0  0  0  0  0  0  0  0
   -2.5253   -0.2262   -3.4215 H   0  0  0  0  0  0  0  0  0  0  0  0
   -4.0386    0.5906   -2.9795 H   0  0  0  0  0  0  0  0  0  0  0  0
   -2.5372    1.4803   -2.9266 H   0  0  0  0  0  0  0  0  0  0  0  0
   -1.2741   -0.5382   -0.0147 H   0  0  0  0  0  0  0  0  0  0  0  0
   -0.8388   -0.6177   -1.7149 H   0  0  0  0  0  0  0  0  0  0  0  0
   -0.7698    1.9383   -1.7387 H   0  0  0  0  0  0  0  0  0  0  0  0
   -1.2287    1.9193   -0.0290 H   0  0  0  0  0  0  0  0  0  0  0  0
    1.1986    2.2354   -0.3538 H   0  0  0  0  0  0  0  0  0  0  0  0
    1.2981    0.6680   -1.2185 H   0  0  0  0  0  0  0  0  0  0  0  0
    3.3242    1.3587   -0.1695 H   0  0  0  0  0  0  0  0  0  0  0  0
    5.4740    0.7385    0.8113 H   0  0  0  0  0  0  0  0  0  0  0  0
    3.4782   -1.5199    3.8783 H   0  0  0  0  0  0  0  0  0  0  0  0
  1  2  3  0
  2  3  1  0
  3  4  1  0
  4  5  1  0
  4  6  1  0
  6  7  1  0
  7  8  1  0
  8  9  1  0
  9 10  1  0
 10 11  2  0
 11 12  1  0
 12 13  2  0
 13 14  1  0
 13 15  1  0
 15 16  2  0
 16 17  1  0
 16 10  1  0
  1 18  1  0
  3 19  1  0
  3 20  1  0
  5 21  1  0
  5 22  1  0
  5 23  1  0
  6 24  1  0
  6 25  1  0
  7 26  1  0
  7 27  1  0
  8 28  1  0
  8 29  1  0
 11 30  1  0
 12 31  1  0
 15 32  1  0
M  END
$$$$
