
     RDKit          3D

 47 51  0  0  0  0  0  0  0  0999 V2000
   -1.1051   -0.7886   -3.6008 C   0  0  0  0  0  0  0  0  0  0  0  0
   -1.8270    0.0057   -2.5569 C   0  0  0  0  0  0  0  0  0  0  0  0
   -2.8860    0.6950   -2.9023 N   0  0  0  0  0  0  0  0  0  0  0  0
   -3.5212    1.4059   -1.9225 C   0  0  0  0  0  0  0  0  0  0  0  0
   -4.9041    2.3610   -2.2370 S   0  0  0  0  0  0  0  0  0  0  0  0
   -5.0163    2.8496   -0.6036 C   0  0  0  0  0  0  0  0  0  0  0  0
   -4.0286    2.3006    0.1954 C   0  0  0  0  0  0  0  0  0  0  0  0
   -3.1853    1.4835   -0.5872 C   0  0  0  0  0  0  0  0  0  0  0  0
   -1.9454    0.6591   -0.2316 C   0  0  0  0  0  0  0  0  0  0  0  0
   -1.3475    0.4914    0.9188 N   0  0  0  0  0  0  0  0  0  0  0  0
   -0.2750   -0.3339    0.6867 N   0  0  0  0  0  0  0  0  0  0  0  0
   -0.2574   -0.6413   -0.5958 C   0  0  0  0  0  0  0  0  0  0  0  0
    0.9569   -1.6316   -1.3247 S   0  0  0  0  0  0  0  0  0  0  0  0
    1.7911   -2.2889    0.1506 C   0  0  0  0  0  0  0  0  0  0  0  0
    2.9304   -3.2000   -0.2769 C   0  0  0  0  0  0  0  0  0  0  0  0
    2.7666   -4.1875   -0.9905 O   0  0  0  0  0  0  0  0  0  0  0  0
    4.1690   -2.8244    0.1973 N   0  0  0  0  0  0  0  0  0  0  0  0
    5.3219   -3.6607   -0.0477 C   0  0  0  0  0  0  0  0  0  0  0  0
    6.5277   -2.9381    0.4183 C   0  0  0  0  0  0  0  0  0  0  0  0
    7.5529   -2.2814   -0.2302 C   0  0  0  0  0  0  0  0  0  0  0  0
    8.4033   -1.7728    0.7807 C   0  0  0  0  0  0  0  0  0  0  0  0
    7.8453   -2.1523    1.9788 C   0  0  0  0  0  0  0  0  0  0  0  0
    6.7013   -2.8534    1.7704 O   0  0  0  0  0  0  0  0  0  0  0  0
   -1.3170   -0.0393   -1.2415 N   0  0  0  0  0  0  0  0  0  0  0  0
   -3.9164    2.6074    1.6564 C   0  0  0  0  0  0  0  0  0  0  0  0
   -5.2089    3.2359    2.2041 C   0  0  0  0  0  0  0  0  0  0  0  0
   -5.7551    4.3228    1.2653 C   0  0  0  0  0  0  0  0  0  0  0  0
   -6.1061    3.7568   -0.1201 C   0  0  0  0  0  0  0  0  0  0  0  0
   -1.1093   -1.8512   -3.3455 H   0  0  0  0  0  0  0  0  0  0  0  0
   -0.0863   -0.4159   -3.7290 H   0  0  0  0  0  0  0  0  0  0  0  0
   -1.6163   -0.6808   -4.5635 H   0  0  0  0  0  0  0  0  0  0  0  0
    1.0957   -2.8765    0.7580 H   0  0  0  0  0  0  0  0  0  0  0  0
    2.1725   -1.4598    0.7547 H   0  0  0  0  0  0  0  0  0  0  0  0
    4.2197   -2.2148    1.0036 H   0  0  0  0  0  0  0  0  0  0  0  0
    5.1919   -4.5990    0.5010 H   0  0  0  0  0  0  0  0  0  0  0  0
    5.3795   -3.8935   -1.1155 H   0  0  0  0  0  0  0  0  0  0  0  0
    7.6666   -2.1773   -1.3009 H   0  0  0  0  0  0  0  0  0  0  0  0
    9.3112   -1.2005    0.6522 H   0  0  0  0  0  0  0  0  0  0  0  0
    8.1216   -2.0080    3.0142 H   0  0  0  0  0  0  0  0  0  0  0  0
   -3.6827    1.7009    2.2255 H   0  0  0  0  0  0  0  0  0  0  0  0
   -3.0856    3.3114    1.7987 H   0  0  0  0  0  0  0  0  0  0  0  0
   -5.9702    2.4556    2.3325 H   0  0  0  0  0  0  0  0  0  0  0  0
   -5.0152    3.6609    3.1955 H   0  0  0  0  0  0  0  0  0  0  0  0
   -5.0003    5.1124    1.1575 H   0  0  0  0  0  0  0  0  0  0  0  0
   -6.6443    4.7872    1.7061 H   0  0  0  0  0  0  0  0  0  0  0  0
   -6.2723    4.5837   -0.8205 H   0  0  0  0  0  0  0  0  0  0  0  0
   -7.0401    3.1846   -0.0534 H   0  0  0  0  0  0  0  0  0  0  0  0
  1  2  1  0
  2  3  2  0
  3  4  1  0
  4  5  1  0
  5  6  1  0
  6  7  2  0
  7  8  1  0
  8  9  1  0
  9 10  2  0
 10 11  1  0
 11 12  2  0
 12 13  1  0
 13 14  1  0
 14 15  1  0
 15 16  2  0
 15 17  1  0
 17 18  1  0
 18 19  1  0
 19 20  2  0
 20 21  1  0
 21 22  2  0
 22 23  1  0
 12 24  1  0
  7 25  1  0
 25 26  1  0
 26 27  1  0
 27 28  1  0
 24  2  1  0
  8  4  2  0
 24  9  1  0
 28  6  1  0
 23 19  1  0
  1 29  1  0
  1 30  1  0
  1 31  1  0
 14 32  1  0
 14 33  1  0
 17 34  1  0
 18 35  1  0
 18 36  1  0
 20 37  1  0
 21 38  1  0
 22 39  1  0
 25 40  1  0
 25 41  1  0
 26 42  1  0
 26 43  1  0
 27 44  1  0
 27 45  1  0
 28 46  1  0
 28 47  1  0
M  END
$$$$
