
     RDKit          3D

 57 59  0  0  0  0  0  0  0  0999 V2000
    8.5613   -2.3614   -3.0523 C   0  0  0  0  0  0  0  0  0  0  0  0
    7.4960   -3.0960   -2.4633 O   0  0  0  0  0  0  0  0  0  0  0  0
    7.0257   -2.6457   -1.2605 C   0  0  0  0  0  0  0  0  0  0  0  0
    5.9774   -3.3968   -0.7253 C   0  0  0  0  0  0  0  0  0  0  0  0
    5.4019   -3.0476    0.4984 C   0  0  0  0  0  0  0  0  0  0  0  0
    5.8744   -1.9401    1.2129 C   0  0  0  0  0  0  0  0  0  0  0  0
    5.2363   -1.5474    2.5195 C   0  0  0  0  0  0  0  0  0  0  0  0
    4.1226   -0.6626    2.3015 N   0  0  0  0  0  0  0  0  0  0  0  0
    2.8324   -1.1214    2.1844 C   0  0  0  0  0  0  0  0  0  0  0  0
    2.4447   -2.2637    2.3862 O   0  0  0  0  0  0  0  0  0  0  0  0
    1.8336   -0.0322    1.7310 C   0  0  0  0  0  0  0  0  0  0  0  0
    2.2368    1.0845    1.4390 O   0  0  0  0  0  0  0  0  0  0  0  0
    0.5293   -0.4631    1.6847 N   0  0  0  0  0  0  0  0  0  0  0  0
   -0.5206    0.3299    1.0651 C   0  0  0  0  0  0  0  0  0  0  0  0
   -1.9297   -0.2075    1.4106 C   0  0  0  0  0  0  0  0  0  0  0  0
   -1.9787   -1.6162    1.0863 O   0  0  0  0  0  0  0  0  0  0  0  0
   -2.4423   -1.6882   -0.2652 C   0  0  0  0  0  0  0  0  0  0  0  0
   -3.4446   -0.5605   -0.3885 C   0  0  0  0  0  0  0  0  0  0  0  0
   -3.0521    0.3865    0.6656 N   0  0  0  0  0  0  0  0  0  0  0  0
   -2.9979    2.0224    0.3209 S   0  0  0  0  0  6  0  0  0  0  0  0
   -2.1783    2.1811   -0.8614 O   0  0  0  0  0  0  0  0  0  0  0  0
   -2.6995    2.7278    1.5469 O   0  0  0  0  0  0  0  0  0  0  0  0
   -4.6811    2.3815   -0.1082 C   0  0  0  0  0  0  0  0  0  0  0  0
   -5.0069    2.7813   -1.4061 C   0  0  0  0  0  0  0  0  0  0  0  0
   -6.3394    3.0570   -1.7309 C   0  0  0  0  0  0  0  0  0  0  0  0
   -7.3389    2.9368   -0.7618 C   0  0  0  0  0  0  0  0  0  0  0  0
   -8.6727    3.1726   -0.9502 O   0  0  0  0  0  0  0  0  0  0  0  0
   -9.0711    3.6338   -2.2352 C   0  0  0  0  0  0  0  0  0  0  0  0
   -6.9962    2.5410    0.5359 C   0  0  0  0  0  0  0  0  0  0  0  0
   -5.6696    2.2657    0.8704 C   0  0  0  0  0  0  0  0  0  0  0  0
    6.9194   -1.1823    0.6681 C   0  0  0  0  0  0  0  0  0  0  0  0
    7.4940   -1.5348   -0.5590 C   0  0  0  0  0  0  0  0  0  0  0  0
    8.8186   -2.8467   -3.9988 H   0  0  0  0  0  0  0  0  0  0  0  0
    9.4525   -2.3793   -2.4163 H   0  0  0  0  0  0  0  0  0  0  0  0
    8.2556   -1.3342   -3.2772 H   0  0  0  0  0  0  0  0  0  0  0  0
    5.6020   -4.2607   -1.2682 H   0  0  0  0  0  0  0  0  0  0  0  0
    4.5780   -3.6426    0.8893 H   0  0  0  0  0  0  0  0  0  0  0  0
    5.9585   -1.0201    3.1524 H   0  0  0  0  0  0  0  0  0  0  0  0
    4.9121   -2.4387    3.0689 H   0  0  0  0  0  0  0  0  0  0  0  0
    4.2900    0.2818    1.9657 H   0  0  0  0  0  0  0  0  0  0  0  0
    0.3858   -1.4671    1.7897 H   0  0  0  0  0  0  0  0  0  0  0  0
   -0.3366    0.2866   -0.0142 H   0  0  0  0  0  0  0  0  0  0  0  0
   -0.3974    1.3702    1.3819 H   0  0  0  0  0  0  0  0  0  0  0  0
   -2.1104   -0.1213    2.4872 H   0  0  0  0  0  0  0  0  0  0  0  0
   -1.5906   -1.5484   -0.9398 H   0  0  0  0  0  0  0  0  0  0  0  0
   -2.8836   -2.6695   -0.4596 H   0  0  0  0  0  0  0  0  0  0  0  0
   -3.4425   -0.1389   -1.3968 H   0  0  0  0  0  0  0  0  0  0  0  0
   -4.4554   -0.9182   -0.1654 H   0  0  0  0  0  0  0  0  0  0  0  0
   -4.2368    2.8854   -2.1675 H   0  0  0  0  0  0  0  0  0  0  0  0
   -6.5632    3.3657   -2.7470 H   0  0  0  0  0  0  0  0  0  0  0  0
   -8.5969    4.5909   -2.4763 H   0  0  0  0  0  0  0  0  0  0  0  0
  -10.1533    3.7948   -2.2119 H   0  0  0  0  0  0  0  0  0  0  0  0
   -8.8627    2.8835   -3.0050 H   0  0  0  0  0  0  0  0  0  0  0  0
   -7.7723    2.4525    1.2932 H   0  0  0  0  0  0  0  0  0  0  0  0
   -5.4156    1.9664    1.8848 H   0  0  0  0  0  0  0  0  0  0  0  0
    7.2955   -0.3080    1.1952 H   0  0  0  0  0  0  0  0  0  0  0  0
    8.3022   -0.9186   -0.9382 H   0  0  0  0  0  0  0  0  0  0  0  0
  1  2  1  0
  2  3  1  0
  3  4  2  0
  4  5  1  0
  5  6  2  0
  6  7  1  0
  7  8  1  0
  8  9  1  0
  9 10  2  0
  9 11  1  0
 11 12  2  0
 11 13  1  0
 13 14  1  0
 14 15  1  0
 15 16  1  0
 16 17  1  0
 17 18  1  0
 18 19  1  0
 19 20  1  0
 20 21  2  0
 20 22  2  0
 20 23  1  0
 23 24  2  0
 24 25  1  0
 25 26  2  0
 26 27  1  0
 27 28  1  0
 26 29  1  0
 29 30  2  0
  6 31  1  0
 31 32  2  0
 32  3  1  0
 19 15  1  0
 30 23  1  0
  1 33  1  0
  1 34  1  0
  1 35  1  0
  4 36  1  0
  5 37  1  0
  7 38  1  0
  7 39  1  0
  8 40  1  0
 13 41  1  0
 14 42  1  0
 14 43  1  0
 15 44  1  0
 17 45  1  0
 17 46  1  0
 18 47  1  0
 18 48  1  0
 24 49  1  0
 25 50  1  0
 28 51  1  0
 28 52  1  0
 28 53  1  0
 29 54  1  0
 30 55  1  0
 31 56  1  0
 32 57  1  0
M  END
$$$$
