
     RDKit          3D

 46 48  0  0  0  0  0  0  0  0999 V2000
    1.8565    3.0831   -2.1138 O   0  0  0  0  0  0  0  0  0  0  0  0
    1.2966    2.4848   -1.1944 C   0  0  0  0  0  0  0  0  0  0  0  0
   -0.2036    2.2139   -1.1722 C   0  0  0  0  0  0  0  0  0  0  0  0
   -0.5039    1.1649   -0.2569 O   0  0  0  0  0  0  0  0  0  0  0  0
   -1.8165    0.8052   -0.1339 C   0  0  0  0  0  0  0  0  0  0  0  0
   -2.8931    1.3801   -0.8058 C   0  0  0  0  0  0  0  0  0  0  0  0
   -4.1941    0.9105   -0.5806 C   0  0  0  0  0  0  0  0  0  0  0  0
   -4.4468   -0.1402    0.3158 C   0  0  0  0  0  0  0  0  0  0  0  0
   -5.8154   -0.6304    0.5464 C   0  0  0  0  0  0  0  0  0  0  0  0
   -6.1312   -1.9914    0.3987 C   0  0  0  0  0  0  0  0  0  0  0  0
   -7.4304   -2.4580    0.6169 C   0  0  0  0  0  0  0  0  0  0  0  0
   -8.4368   -1.5704    0.9884 C   0  0  0  0  0  0  0  0  0  0  0  0
   -8.1454   -0.2174    1.1409 C   0  0  0  0  0  0  0  0  0  0  0  0
   -6.8460    0.2478    0.9211 C   0  0  0  0  0  0  0  0  0  0  0  0
   -3.3518   -0.7078    0.9829 C   0  0  0  0  0  0  0  0  0  0  0  0
   -2.0530   -0.2393    0.7605 C   0  0  0  0  0  0  0  0  0  0  0  0
    1.9758    2.0458   -0.0723 N   0  0  0  0  0  0  0  0  0  0  0  0
    3.3905    2.0152   -0.1611 N   0  0  0  0  0  0  0  0  0  0  0  0
    3.9848    0.7830    0.0845 C   0  0  0  0  0  0  0  0  0  0  0  0
    3.3420   -0.1682    0.5170 O   0  0  0  0  0  0  0  0  0  0  0  0
    5.3318    0.8134   -0.1929 N   0  0  0  0  0  0  0  0  0  0  0  0
    6.2554   -0.2485   -0.1066 C   0  0  0  0  0  0  0  0  0  0  0  0
    5.9093   -1.5715    0.1764 C   0  0  0  0  0  0  0  0  0  0  0  0
    6.9016   -2.5568    0.2349 C   0  0  0  0  0  0  0  0  0  0  0  0
    8.2323   -2.2182    0.0085 C   0  0  0  0  0  0  0  0  0  0  0  0
    9.1736   -3.1688    0.0673 F   0  0  0  0  0  0  0  0  0  0  0  0
    8.5978   -0.9122   -0.2779 C   0  0  0  0  0  0  0  0  0  0  0  0
    7.6058    0.0590   -0.3340 C   0  0  0  0  0  0  0  0  0  0  0  0
    7.9540    1.3261   -0.6122 F   0  0  0  0  0  0  0  0  0  0  0  0
   -0.6969    3.1446   -0.8700 H   0  0  0  0  0  0  0  0  0  0  0  0
   -0.4958    1.9215   -2.1873 H   0  0  0  0  0  0  0  0  0  0  0  0
   -2.7649    2.1917   -1.5142 H   0  0  0  0  0  0  0  0  0  0  0  0
   -5.0178    1.3677   -1.1265 H   0  0  0  0  0  0  0  0  0  0  0  0
   -5.3625   -2.7007    0.0988 H   0  0  0  0  0  0  0  0  0  0  0  0
   -7.6546   -3.5145    0.4943 H   0  0  0  0  0  0  0  0  0  0  0  0
   -9.4470   -1.9329    1.1593 H   0  0  0  0  0  0  0  0  0  0  0  0
   -8.9276    0.4777    1.4344 H   0  0  0  0  0  0  0  0  0  0  0  0
   -6.6378    1.3071    1.0580 H   0  0  0  0  0  0  0  0  0  0  0  0
   -3.5032   -1.5170    1.6946 H   0  0  0  0  0  0  0  0  0  0  0  0
   -1.2219   -0.6965    1.2925 H   0  0  0  0  0  0  0  0  0  0  0  0
    1.5593    1.2667    0.4466 H   0  0  0  0  0  0  0  0  0  0  0  0
    3.7447    2.5388   -0.9609 H   0  0  0  0  0  0  0  0  0  0  0  0
    5.7316    1.7237   -0.3863 H   0  0  0  0  0  0  0  0  0  0  0  0
    4.8800   -1.8695    0.3523 H   0  0  0  0  0  0  0  0  0  0  0  0
    6.6396   -3.5875    0.4559 H   0  0  0  0  0  0  0  0  0  0  0  0
    9.6351   -0.6547   -0.4540 H   0  0  0  0  0  0  0  0  0  0  0  0
  1  2  2  0
  2  3  1  0
  3  4  1  0
  4  5  1  0
  5  6  2  0
  6  7  1  0
  7  8  2  0
  8  9  1  0
  9 10  2  0
 10 11  1  0
 11 12  2  0
 12 13  1  0
 13 14  2  0
  8 15  1  0
 15 16  2  0
  2 17  1  0
 17 18  1  0
 18 19  1  0
 19 20  2  0
 19 21  1  0
 21 22  1  0
 22 23  2  0
 23 24  1  0
 24 25  2  0
 25 26  1  0
 25 27  1  0
 27 28  2  0
 28 29  1  0
 16  5  1  0
 28 22  1  0
 14  9  1  0
  3 30  1  0
  3 31  1  0
  6 32  1  0
  7 33  1  0
 10 34  1  0
 11 35  1  0
 12 36  1  0
 13 37  1  0
 14 38  1  0
 15 39  1  0
 16 40  1  0
 17 41  1  0
 18 42  1  0
 21 43  1  0
 23 44  1  0
 24 45  1  0
 27 46  1  0
M  END
$$$$
