
     RDKit          3D

 51 54  0  0  0  0  0  0  0  0999 V2000
   -6.8469    2.2553   -0.9052 C   0  0  0  0  0  0  0  0  0  0  0  0
   -6.3703    1.5569    0.3630 C   0  0  0  0  0  0  0  0  0  0  0  0
   -5.7294    0.2705    0.0553 N   0  0  0  0  0  0  0  0  0  0  0  0
   -6.6075   -0.9077    0.0893 C   0  0  0  0  0  0  0  0  0  0  0  0
   -6.6867   -1.4953    1.4936 C   0  0  0  0  0  0  0  0  0  0  0  0
   -4.3619    0.1694   -0.1821 C   0  0  0  0  0  0  0  0  0  0  0  0
   -3.6954   -1.0750   -0.2341 C   0  0  0  0  0  0  0  0  0  0  0  0
   -2.3151   -1.1934   -0.4767 C   0  0  0  0  0  0  0  0  0  0  0  0
   -1.5492   -0.0517   -0.6896 C   0  0  0  0  0  0  0  0  0  0  0  0
   -0.1221   -0.1029   -0.9561 C   0  0  0  0  0  0  0  0  0  0  0  0
    0.5696    1.0263   -1.1854 C   0  0  0  0  0  0  0  0  0  0  0  0
    1.9678    0.9240   -1.4496 C   0  0  0  0  0  0  0  0  0  0  0  0
    2.8428    0.2465   -0.7272 N   0  0  0  0  0  0  0  0  0  0  0  0
    4.1197    0.3404   -1.2598 C   0  0  0  0  0  0  0  0  0  0  0  0
    5.2708   -0.2475   -0.5781 C   0  0  0  0  0  0  0  0  0  0  0  0
    6.4361   -0.6126   -1.2632 C   0  0  0  0  0  0  0  0  0  0  0  0
    7.5315   -1.1429   -0.5662 C   0  0  0  0  0  0  0  0  0  0  0  0
    7.4859   -1.3160    0.8210 C   0  0  0  0  0  0  0  0  0  0  0  0
    8.6301   -1.8231    1.3763 O   0  0  0  0  0  0  0  0  0  0  0  0
    8.6881   -1.8668    2.7985 C   0  0  0  0  0  0  0  0  0  0  0  0
    6.3227   -0.9743    1.5071 C   0  0  0  0  0  0  0  0  0  0  0  0
    5.2240   -0.4463    0.8085 C   0  0  0  0  0  0  0  0  0  0  0  0
    4.1932    1.0552   -2.4433 C   0  0  0  0  0  0  0  0  0  0  0  0
    2.6443    1.6314   -2.8855 S   0  0  0  0  0  0  0  0  0  0  0  0
   -0.0885    2.3604   -1.1238 C   0  0  0  0  0  0  0  0  0  0  0  0
    0.5096    3.4135   -1.3104 O   0  0  0  0  0  0  0  0  0  0  0  0
   -1.4519    2.3694   -0.8306 O   0  0  0  0  0  0  0  0  0  0  0  0
   -2.1810    1.1805   -0.6362 C   0  0  0  0  0  0  0  0  0  0  0  0
   -3.5526    1.3001   -0.3870 C   0  0  0  0  0  0  0  0  0  0  0  0
   -7.5761    1.6388   -1.4500 H   0  0  0  0  0  0  0  0  0  0  0  0
   -6.0184    2.4692   -1.5868 H   0  0  0  0  0  0  0  0  0  0  0  0
   -7.3290    3.2073   -0.6506 H   0  0  0  0  0  0  0  0  0  0  0  0
   -5.7092    2.2110    0.9452 H   0  0  0  0  0  0  0  0  0  0  0  0
   -7.2406    1.3900    1.0113 H   0  0  0  0  0  0  0  0  0  0  0  0
   -6.2973   -1.6659   -0.6353 H   0  0  0  0  0  0  0  0  0  0  0  0
   -7.6193   -0.6208   -0.2237 H   0  0  0  0  0  0  0  0  0  0  0  0
   -7.3234   -2.3867    1.4971 H   0  0  0  0  0  0  0  0  0  0  0  0
   -7.1138   -0.7745    2.1949 H   0  0  0  0  0  0  0  0  0  0  0  0
   -5.7021   -1.7761    1.8733 H   0  0  0  0  0  0  0  0  0  0  0  0
   -4.2349   -2.0031   -0.0696 H   0  0  0  0  0  0  0  0  0  0  0  0
   -1.8633   -2.1830   -0.4947 H   0  0  0  0  0  0  0  0  0  0  0  0
    0.3602   -1.0794   -0.9742 H   0  0  0  0  0  0  0  0  0  0  0  0
    6.5131   -0.5024   -2.3389 H   0  0  0  0  0  0  0  0  0  0  0  0
    8.4323   -1.4165   -1.1093 H   0  0  0  0  0  0  0  0  0  0  0  0
    7.9581   -2.5764    3.2019 H   0  0  0  0  0  0  0  0  0  0  0  0
    9.6840   -2.2211    3.0788 H   0  0  0  0  0  0  0  0  0  0  0  0
    8.5536   -0.8686    3.2348 H   0  0  0  0  0  0  0  0  0  0  0  0
    6.2320   -1.0998    2.5823 H   0  0  0  0  0  0  0  0  0  0  0  0
    4.3275   -0.1777    1.3639 H   0  0  0  0  0  0  0  0  0  0  0  0
    5.0549    1.2886   -3.0482 H   0  0  0  0  0  0  0  0  0  0  0  0
   -3.9658    2.3031   -0.3699 H   0  0  0  0  0  0  0  0  0  0  0  0
  1  2  1  0
  2  3  1  0
  3  4  1  0
  4  5  1  0
  3  6  1  0
  6  7  2  0
  7  8  1  0
  8  9  2  0
  9 10  1  0
 10 11  2  0
 11 12  1  0
 12 13  2  0
 13 14  1  0
 14 15  1  0
 15 16  2  0
 16 17  1  0
 17 18  2  0
 18 19  1  0
 19 20  1  0
 18 21  1  0
 21 22  2  0
 14 23  2  0
 23 24  1  0
 11 25  1  0
 25 26  2  0
 25 27  1  0
 27 28  1  0
 28 29  2  0
 29  6  1  0
 28  9  1  0
 24 12  1  0
 22 15  1  0
  1 30  1  0
  1 31  1  0
  1 32  1  0
  2 33  1  0
  2 34  1  0
  4 35  1  0
  4 36  1  0
  5 37  1  0
  5 38  1  0
  5 39  1  0
  7 40  1  0
  8 41  1  0
 10 42  1  0
 16 43  1  0
 17 44  1  0
 20 45  1  0
 20 46  1  0
 20 47  1  0
 21 48  1  0
 22 49  1  0
 23 50  1  0
 29 51  1  0
M  END
$$$$
