
     RDKit          3D

 50 53  0  0  0  0  0  0  0  0999 V2000
    8.4522    1.8343    0.5215 C   0  0  0  0  0  0  0  0  0  0  0  0
    7.1969    2.3396    0.9588 O   0  0  0  0  0  0  0  0  0  0  0  0
    6.0906    1.6049    0.6354 C   0  0  0  0  0  0  0  0  0  0  0  0
    6.0770    0.4070   -0.0723 C   0  0  0  0  0  0  0  0  0  0  0  0
    4.8617   -0.2421   -0.3334 C   0  0  0  0  0  0  0  0  0  0  0  0
    3.6290    0.2834    0.0974 C   0  0  0  0  0  0  0  0  0  0  0  0
    2.3633   -0.4240   -0.1966 C   0  0  0  0  0  0  0  0  0  0  0  0
    1.1464    0.2205   -0.3306 C   0  0  0  0  0  0  0  0  0  0  0  0
    0.0107   -0.5467   -0.5943 C   0  0  0  0  0  0  0  0  0  0  0  0
   -1.2730    0.1882   -0.6632 C   0  0  0  0  0  0  0  0  0  0  0  0
   -1.3734    1.0936   -1.4795 O   0  0  0  0  0  0  0  0  0  0  0  0
   -2.1987   -0.2163    0.2791 N   0  0  0  0  0  0  0  0  0  0  0  0
   -3.5115    0.2697    0.4526 C   0  0  0  0  0  0  0  0  0  0  0  0
   -4.2443   -0.2411    1.5258 C   0  0  0  0  0  0  0  0  0  0  0  0
   -5.5610    0.1693    1.7430 C   0  0  0  0  0  0  0  0  0  0  0  0
   -6.1674    1.1094    0.8973 C   0  0  0  0  0  0  0  0  0  0  0  0
   -7.6001    1.4964    1.1393 C   0  0  0  0  0  0  0  0  0  0  0  0
   -5.4193    1.6724   -0.1508 C   0  0  0  0  0  0  0  0  0  0  0  0
   -6.0129    2.5291   -1.0942 N   0  0  0  0  0  0  0  0  0  0  0  0
   -4.1160    1.2045   -0.3903 C   0  0  0  0  0  0  0  0  0  0  0  0
    0.0929   -1.9433   -0.7744 C   0  0  0  0  0  0  0  0  0  0  0  0
   -0.9940   -2.7900   -1.1155 C   0  0  0  0  0  0  0  0  0  0  0  0
   -0.8152   -4.1638   -1.2636 C   0  0  0  0  0  0  0  0  0  0  0  0
    0.4468   -4.7101   -1.0826 C   0  0  0  0  0  0  0  0  0  0  0  0
    1.5221   -3.8768   -0.7664 C   0  0  0  0  0  0  0  0  0  0  0  0
    1.3717   -2.5045   -0.6170 C   0  0  0  0  0  0  0  0  0  0  0  0
    2.4608   -1.7713   -0.3301 N   0  0  0  0  0  0  0  0  0  0  0  0
    3.6693    1.4900    0.8165 C   0  0  0  0  0  0  0  0  0  0  0  0
    4.8820    2.1400    1.0789 C   0  0  0  0  0  0  0  0  0  0  0  0
    8.6654    0.8606    0.9749 H   0  0  0  0  0  0  0  0  0  0  0  0
    8.4976    1.7809   -0.5713 H   0  0  0  0  0  0  0  0  0  0  0  0
    9.2271    2.5323    0.8529 H   0  0  0  0  0  0  0  0  0  0  0  0
    6.9875   -0.0559   -0.4372 H   0  0  0  0  0  0  0  0  0  0  0  0
    4.8826   -1.1788   -0.8899 H   0  0  0  0  0  0  0  0  0  0  0  0
    1.0605    1.2990   -0.2442 H   0  0  0  0  0  0  0  0  0  0  0  0
   -1.8974   -0.9204    0.9425 H   0  0  0  0  0  0  0  0  0  0  0  0
   -3.8110   -0.9735    2.2015 H   0  0  0  0  0  0  0  0  0  0  0  0
   -6.1171   -0.2612    2.5729 H   0  0  0  0  0  0  0  0  0  0  0  0
   -8.2041    1.3023    0.2471 H   0  0  0  0  0  0  0  0  0  0  0  0
   -8.0392    0.9224    1.9624 H   0  0  0  0  0  0  0  0  0  0  0  0
   -7.6662    2.5570    1.4024 H   0  0  0  0  0  0  0  0  0  0  0  0
   -5.3367    3.0806   -1.6155 H   0  0  0  0  0  0  0  0  0  0  0  0
   -6.7614    3.1010   -0.7196 H   0  0  0  0  0  0  0  0  0  0  0  0
   -3.5862    1.5899   -1.2555 H   0  0  0  0  0  0  0  0  0  0  0  0
   -1.9883   -2.3819   -1.2901 H   0  0  0  0  0  0  0  0  0  0  0  0
   -1.6560   -4.8003   -1.5285 H   0  0  0  0  0  0  0  0  0  0  0  0
    0.6043   -5.7796   -1.1977 H   0  0  0  0  0  0  0  0  0  0  0  0
    2.5115   -4.3116   -0.6390 H   0  0  0  0  0  0  0  0  0  0  0  0
    2.7590    1.9423    1.2023 H   0  0  0  0  0  0  0  0  0  0  0  0
    4.8812    3.0721    1.6391 H   0  0  0  0  0  0  0  0  0  0  0  0
  1  2  1  0
  2  3  1  0
  3  4  2  0
  4  5  1  0
  5  6  2  0
  6  7  1  0
  7  8  2  0
  8  9  1  0
  9 10  1  0
 10 11  2  0
 10 12  1  0
 12 13  1  0
 13 14  2  0
 14 15  1  0
 15 16  2  0
 16 17  1  0
 16 18  1  0
 18 19  1  0
 18 20  2  0
  9 21  2  0
 21 22  1  0
 22 23  2  0
 23 24  1  0
 24 25  2  0
 25 26  1  0
 26 27  2  0
  6 28  1  0
 28 29  2  0
 29  3  1  0
 27  7  1  0
 20 13  1  0
 26 21  1  0
  1 30  1  0
  1 31  1  0
  1 32  1  0
  4 33  1  0
  5 34  1  0
  8 35  1  0
 12 36  1  0
 14 37  1  0
 15 38  1  0
 17 39  1  0
 17 40  1  0
 17 41  1  0
 19 42  1  0
 19 43  1  0
 20 44  1  0
 22 45  1  0
 23 46  1  0
 24 47  1  0
 25 48  1  0
 28 49  1  0
 29 50  1  0
M  END
$$$$
