
     RDKit          3D

 36 37  0  0  0  0  0  0  0  0999 V2000
    1.0052   -0.0337   -3.0097 O   0  0  0  0  0  0  0  0  0  0  0  0
    0.4418   -0.8500   -2.2874 C   0  0  0  0  0  0  0  0  0  0  0  0
   -0.9837   -1.3360   -2.5556 C   0  0  0  0  0  0  0  0  0  0  0  0
   -1.9680   -0.5948   -1.8311 O   0  0  0  0  0  0  0  0  0  0  0  0
   -2.0825   -0.9134   -0.5201 C   0  0  0  0  0  0  0  0  0  0  0  0
   -1.4225   -1.7597    0.0647 O   0  0  0  0  0  0  0  0  0  0  0  0
   -3.1351   -0.0914    0.1344 C   0  0  0  0  0  0  0  0  0  0  0  0
   -3.5143   -0.4227    1.4431 C   0  0  0  0  0  0  0  0  0  0  0  0
   -4.4955    0.3215    2.1032 C   0  0  0  0  0  0  0  0  0  0  0  0
   -5.0959    1.4005    1.4567 C   0  0  0  0  0  0  0  0  0  0  0  0
   -6.4227    2.4078    2.3487 Br  0  0  0  0  0  0  0  0  0  0  0  0
   -4.7236    1.7440    0.1581 C   0  0  0  0  0  0  0  0  0  0  0  0
   -3.7431    0.9988   -0.5044 C   0  0  0  0  0  0  0  0  0  0  0  0
    1.0266   -1.4034   -1.1684 N   0  0  0  0  0  0  0  0  0  0  0  0
    2.3296   -0.9731   -0.6960 C   0  0  0  0  0  0  0  0  0  0  0  0
    2.2758    0.3613    0.0564 C   0  0  0  0  0  0  0  0  0  0  0  0
    3.5384    0.6846    0.6989 N   0  0  0  0  0  0  0  0  0  0  0  0
    3.9354    0.1425    1.8975 C   0  0  0  0  0  0  0  0  0  0  0  0
    3.0969   -0.7161    2.5432 O   0  0  0  0  0  0  0  0  0  0  0  0
    5.1487    0.5270    2.3090 C   0  0  0  0  0  0  0  0  0  0  0  0
    5.8805    1.6184    1.1712 S   0  0  0  0  0  0  0  0  0  0  0  0
    4.4681    1.5185    0.0975 C   0  0  0  0  0  0  0  0  0  0  0  0
    4.3941    2.1017   -0.9704 O   0  0  0  0  0  0  0  0  0  0  0  0
   -1.0675   -2.4105   -2.3496 H   0  0  0  0  0  0  0  0  0  0  0  0
   -1.1898   -1.2069   -3.6239 H   0  0  0  0  0  0  0  0  0  0  0  0
   -3.0490   -1.2635    1.9549 H   0  0  0  0  0  0  0  0  0  0  0  0
   -4.7821    0.0513    3.1163 H   0  0  0  0  0  0  0  0  0  0  0  0
   -5.1873    2.5884   -0.3467 H   0  0  0  0  0  0  0  0  0  0  0  0
   -3.4614    1.2841   -1.5155 H   0  0  0  0  0  0  0  0  0  0  0  0
    0.4007   -1.8506   -0.4967 H   0  0  0  0  0  0  0  0  0  0  0  0
    3.0094   -0.8914   -1.5525 H   0  0  0  0  0  0  0  0  0  0  0  0
    2.7059   -1.7726   -0.0491 H   0  0  0  0  0  0  0  0  0  0  0  0
    1.4864    0.3447    0.8182 H   0  0  0  0  0  0  0  0  0  0  0  0
    2.0149    1.1661   -0.6413 H   0  0  0  0  0  0  0  0  0  0  0  0
    3.5194   -0.9890    3.3757 H   0  0  0  0  0  0  0  0  0  0  0  0
    5.6460    0.2176    3.2165 H   0  0  0  0  0  0  0  0  0  0  0  0
  1  2  2  0
  2  3  1  0
  3  4  1  0
  4  5  1  0
  5  6  2  0
  5  7  1  0
  7  8  2  0
  8  9  1  0
  9 10  2  0
 10 11  1  0
 10 12  1  0
 12 13  2  0
  2 14  1  0
 14 15  1  0
 15 16  1  0
 16 17  1  0
 17 18  1  0
 18 19  1  0
 18 20  2  0
 20 21  1  0
 21 22  1  0
 22 23  2  0
 13  7  1  0
 22 17  1  0
  3 24  1  0
  3 25  1  0
  8 26  1  0
  9 27  1  0
 12 28  1  0
 13 29  1  0
 14 30  1  0
 15 31  1  0
 15 32  1  0
 16 33  1  0
 16 34  1  0
 19 35  1  0
 20 36  1  0
M  END
$$$$
