
     RDKit          3D

 46 49  0  0  0  0  0  0  0  0999 V2000
   -4.2638   -3.4403   -1.9111 C   0  0  0  0  0  0  0  0  0  0  0  0
   -3.0201   -2.7726   -1.7381 O   0  0  0  0  0  0  0  0  0  0  0  0
   -3.0515   -1.5494   -1.1301 C   0  0  0  0  0  0  0  0  0  0  0  0
   -4.1848   -0.8897   -0.6712 C   0  0  0  0  0  0  0  0  0  0  0  0
   -4.0695    0.3639   -0.0600 C   0  0  0  0  0  0  0  0  0  0  0  0
   -2.8189    0.9780    0.0979 C   0  0  0  0  0  0  0  0  0  0  0  0
   -2.6418    2.1881    0.7220 O   0  0  0  0  0  0  0  0  0  0  0  0
   -3.7878    2.8440    1.2482 C   0  0  0  0  0  0  0  0  0  0  0  0
   -1.6566    0.3298   -0.3758 C   0  0  0  0  0  0  0  0  0  0  0  0
   -0.3093    0.9128   -0.2618 C   0  0  0  0  0  0  0  0  0  0  0  0
   -0.1559    2.2247   -0.5453 N   0  0  0  0  0  0  0  0  0  0  0  0
    1.1010    2.7210   -0.4509 C   0  0  0  0  0  0  0  0  0  0  0  0
    1.2718    4.1710   -0.7415 C   0  0  0  0  0  0  0  0  0  0  0  0
    0.1219    4.8473   -1.0474 N   0  0  0  0  0  0  0  0  0  0  0  0
    2.3632    4.7254   -0.7067 O   0  0  0  0  0  0  0  0  0  0  0  0
    2.1621    1.9382   -0.1092 C   0  0  0  0  0  0  0  0  0  0  0  0
    3.5145    2.1999    0.0345 N   0  0  0  0  0  0  0  0  0  0  0  0
    4.1651    1.0109    0.3888 C   0  0  0  0  0  0  0  0  0  0  0  0
    5.3675    0.9434    0.5841 O   0  0  0  0  0  0  0  0  0  0  0  0
    3.1559    0.0007    0.4649 N   0  0  0  0  0  0  0  0  0  0  0  0
    3.3409   -1.3727    0.7866 C   0  0  0  0  0  0  0  0  0  0  0  0
    4.6379   -1.9016    0.9317 C   0  0  0  0  0  0  0  0  0  0  0  0
    4.8560   -3.2493    1.2470 C   0  0  0  0  0  0  0  0  0  0  0  0
    3.7749   -4.0943    1.4255 C   0  0  0  0  0  0  0  0  0  0  0  0
    3.9788   -5.3826    1.7274 F   0  0  0  0  0  0  0  0  0  0  0  0
    2.4833   -3.6139    1.2958 C   0  0  0  0  0  0  0  0  0  0  0  0
    2.2706   -2.2646    0.9805 C   0  0  0  0  0  0  0  0  0  0  0  0
    1.9145    0.6116    0.1474 C   0  0  0  0  0  0  0  0  0  0  0  0
    0.6957    0.0691    0.0680 N   0  0  0  0  0  0  0  0  0  0  0  0
   -1.8048   -0.9393   -0.9782 C   0  0  0  0  0  0  0  0  0  0  0  0
   -4.7345   -3.6543   -0.9458 H   0  0  0  0  0  0  0  0  0  0  0  0
   -4.9334   -2.8650   -2.5590 H   0  0  0  0  0  0  0  0  0  0  0  0
   -4.0642   -4.3967   -2.4038 H   0  0  0  0  0  0  0  0  0  0  0  0
   -5.1759   -1.3211   -0.7669 H   0  0  0  0  0  0  0  0  0  0  0  0
   -4.9839    0.8331    0.2890 H   0  0  0  0  0  0  0  0  0  0  0  0
   -4.2679    2.2394    2.0246 H   0  0  0  0  0  0  0  0  0  0  0  0
   -4.4934    3.1039    0.4524 H   0  0  0  0  0  0  0  0  0  0  0  0
   -3.4540    3.7768    1.7130 H   0  0  0  0  0  0  0  0  0  0  0  0
    0.1582    5.8381   -1.2390 H   0  0  0  0  0  0  0  0  0  0  0  0
   -0.7686    4.3597   -1.0414 H   0  0  0  0  0  0  0  0  0  0  0  0
    3.9635    3.0982   -0.1007 H   0  0  0  0  0  0  0  0  0  0  0  0
    5.5237   -1.2882    0.7937 H   0  0  0  0  0  0  0  0  0  0  0  0
    5.8657   -3.6341    1.3506 H   0  0  0  0  0  0  0  0  0  0  0  0
    1.6421   -4.2840    1.4431 H   0  0  0  0  0  0  0  0  0  0  0  0
    1.2356   -1.9499    0.9133 H   0  0  0  0  0  0  0  0  0  0  0  0
   -0.9240   -1.4656   -1.3461 H   0  0  0  0  0  0  0  0  0  0  0  0
  1  2  1  0
  2  3  1  0
  3  4  2  0
  4  5  1  0
  5  6  2  0
  6  7  1  0
  7  8  1  0
  6  9  1  0
  9 10  1  0
 10 11  2  0
 11 12  1  0
 12 13  1  0
 13 14  1  0
 13 15  2  0
 12 16  2  0
 16 17  1  0
 17 18  1  0
 18 19  2  0
 18 20  1  0
 20 21  1  0
 21 22  2  0
 22 23  1  0
 23 24  2  0
 24 25  1  0
 24 26  1  0
 26 27  2  0
 20 28  1  0
 28 29  2  0
  9 30  2  0
 30  3  1  0
 29 10  1  0
 28 16  1  0
 27 21  1  0
  1 31  1  0
  1 32  1  0
  1 33  1  0
  4 34  1  0
  5 35  1  0
  8 36  1  0
  8 37  1  0
  8 38  1  0
 14 39  1  0
 14 40  1  0
 17 41  1  0
 22 42  1  0
 23 43  1  0
 26 44  1  0
 27 45  1  0
 30 46  1  0
M  END
$$$$
