
     RDKit          3D

 39 41  0  0  0  0  0  0  0  0999 V2000
   -4.1175   -1.0754   -1.2600 C   0  0  0  0  0  0  0  0  0  0  0  0
   -4.0126    0.3524   -0.7412 C   0  0  0  0  0  0  0  0  0  0  0  0
   -2.7478    0.5861   -0.0492 N   0  0  0  0  0  0  0  0  0  0  0  0
   -2.7020    0.2931    1.3055 C   0  0  0  0  0  0  0  0  0  0  0  0
   -3.6545   -0.1498    1.9440 O   0  0  0  0  0  0  0  0  0  0  0  0
   -1.4243    0.5300    1.9917 C   0  0  0  0  0  0  0  0  0  0  0  0
   -1.3384    0.3026    3.3753 C   0  0  0  0  0  0  0  0  0  0  0  0
   -0.1404    0.5230    4.0463 C   0  0  0  0  0  0  0  0  0  0  0  0
    0.9668    0.9696    3.3354 C   0  0  0  0  0  0  0  0  0  0  0  0
    0.8760    1.1936    1.9562 C   0  0  0  0  0  0  0  0  0  0  0  0
   -0.3239    0.9744    1.2601 C   0  0  0  0  0  0  0  0  0  0  0  0
   -0.4522    1.1810   -0.1431 N   0  0  0  0  0  0  0  0  0  0  0  0
    0.6991    1.6016   -0.9497 C   0  0  0  0  0  0  0  0  0  0  0  0
    1.6798    0.4824   -1.2525 C   0  0  0  0  0  0  0  0  0  0  0  0
    1.2415   -0.7362   -1.7974 C   0  0  0  0  0  0  0  0  0  0  0  0
    2.1495   -1.7570   -2.0921 C   0  0  0  0  0  0  0  0  0  0  0  0
    3.5132   -1.5563   -1.8529 C   0  0  0  0  0  0  0  0  0  0  0  0
    4.4722   -2.6247   -2.1590 N   0  0  0  0  0  4  0  0  0  0  0  0
    5.6703   -2.4071   -1.9267 O   0  0  0  0  0  0  0  0  0  0  0  0
    4.0289   -3.6819   -2.6296 O   0  0  0  0  0  1  0  0  0  0  0  0
    3.9714   -0.3410   -1.3301 C   0  0  0  0  0  0  0  0  0  0  0  0
    3.0552    0.6736   -1.0392 C   0  0  0  0  0  0  0  0  0  0  0  0
   -1.6549    0.9720   -0.8137 C   0  0  0  0  0  0  0  0  0  0  0  0
   -1.7441    1.1099   -2.0367 O   0  0  0  0  0  0  0  0  0  0  0  0
   -3.3116   -1.2998   -1.9663 H   0  0  0  0  0  0  0  0  0  0  0  0
   -4.0533   -1.7988   -0.4407 H   0  0  0  0  0  0  0  0  0  0  0  0
   -5.0727   -1.2236   -1.7729 H   0  0  0  0  0  0  0  0  0  0  0  0
   -4.8470    0.5536   -0.0595 H   0  0  0  0  0  0  0  0  0  0  0  0
   -4.1101    1.0533   -1.5780 H   0  0  0  0  0  0  0  0  0  0  0  0
   -2.2075   -0.0468    3.9301 H   0  0  0  0  0  0  0  0  0  0  0  0
   -0.0726    0.3466    5.1169 H   0  0  0  0  0  0  0  0  0  0  0  0
    1.9081    1.1439    3.8523 H   0  0  0  0  0  0  0  0  0  0  0  0
    1.7752    1.5409    1.4597 H   0  0  0  0  0  0  0  0  0  0  0  0
    1.1919    2.4406   -0.4436 H   0  0  0  0  0  0  0  0  0  0  0  0
    0.3686    2.0141   -1.9109 H   0  0  0  0  0  0  0  0  0  0  0  0
    0.1849   -0.8988   -2.0055 H   0  0  0  0  0  0  0  0  0  0  0  0
    1.7780   -2.6910   -2.5090 H   0  0  0  0  0  0  0  0  0  0  0  0
    5.0304   -0.1676   -1.1492 H   0  0  0  0  0  0  0  0  0  0  0  0
    3.4264    1.6178   -0.6441 H   0  0  0  0  0  0  0  0  0  0  0  0
  1  2  1  0
  2  3  1  0
  3  4  1  0
  4  5  2  0
  4  6  1  0
  6  7  2  0
  7  8  1  0
  8  9  2  0
  9 10  1  0
 10 11  2  0
 11 12  1  0
 12 13  1  0
 13 14  1  0
 14 15  2  0
 15 16  1  0
 16 17  2  0
 17 18  1  0
 18 19  2  0
 18 20  1  0
 17 21  1  0
 21 22  2  0
 12 23  1  0
 23 24  2  0
 23  3  1  0
 11  6  1  0
 22 14  1  0
  1 25  1  0
  1 26  1  0
  1 27  1  0
  2 28  1  0
  2 29  1  0
  7 30  1  0
  8 31  1  0
  9 32  1  0
 10 33  1  0
 13 34  1  0
 13 35  1  0
 15 36  1  0
 16 37  1  0
 21 38  1  0
 22 39  1  0
M  CHG  2  18   1  20  -1
M  END
$$$$
