
     RDKit          3D

 58 60  0  0  0  0  0  0  0  0999 V2000
   -1.2166    3.3476   -2.0029 C   0  0  0  0  0  0  0  0  0  0  0  0
   -2.0406    2.1041   -1.7888 C   0  0  0  0  0  0  0  0  0  0  0  0
   -3.2861    2.0151   -2.4380 C   0  0  0  0  0  0  0  0  0  0  0  0
   -4.0955    0.8930   -2.2797 C   0  0  0  0  0  0  0  0  0  0  0  0
   -3.6588   -0.1528   -1.4691 C   0  0  0  0  0  0  0  0  0  0  0  0
   -4.6641   -1.6121   -1.2914 S   0  0  0  0  0  6  0  0  0  0  0  0
   -3.7742   -2.7464   -1.1716 O   0  0  0  0  0  0  0  0  0  0  0  0
   -5.6762   -1.5652   -2.3266 O   0  0  0  0  0  0  0  0  0  0  0  0
   -5.4399   -1.3808    0.1914 N   0  0  0  0  0  0  0  0  0  0  0  0
   -4.6455   -1.5856    1.4334 C   0  0  0  0  0  0  0  0  0  0  0  0
   -5.5095   -1.2549    2.6554 C   0  0  0  0  0  0  0  0  0  0  0  0
   -5.9394    0.1151    2.6892 O   0  0  0  0  0  0  0  0  0  0  0  0
   -6.0677    0.7062    1.3889 C   0  0  0  0  0  0  0  0  0  0  0  0
   -6.4550   -0.2971    0.2973 C   0  0  0  0  0  0  0  0  0  0  0  0
   -2.4094   -0.0965   -0.8429 C   0  0  0  0  0  0  0  0  0  0  0  0
   -1.6003    1.0366   -0.9735 C   0  0  0  0  0  0  0  0  0  0  0  0
   -0.3490    1.1443   -0.3255 N   0  0  0  0  0  0  0  0  0  0  0  0
    0.1916    0.3015    0.6318 C   0  0  0  0  0  0  0  0  0  0  0  0
   -0.3562   -0.6793    1.1284 O   0  0  0  0  0  0  0  0  0  0  0  0
    1.5926    0.7291    1.0872 C   0  0  0  0  0  0  0  0  0  0  0  0
    2.6118    0.5066    0.1125 O   0  0  0  0  0  0  0  0  0  0  0  0
    2.7417    1.4744   -0.8366 C   0  0  0  0  0  0  0  0  0  0  0  0
    1.9759    2.4277   -0.9466 O   0  0  0  0  0  0  0  0  0  0  0  0
    3.8865    1.1852   -1.8060 C   0  0  0  0  0  0  0  0  0  0  0  0
    4.7538    0.0893   -1.3988 N   0  0  0  0  0  0  0  0  0  0  0  0
    5.7790    0.3303   -0.5055 C   0  0  0  0  0  0  0  0  0  0  0  0
    6.0525    1.4537   -0.0985 O   0  0  0  0  0  0  0  0  0  0  0  0
    6.5159   -0.8610   -0.0005 C   0  0  0  0  0  0  0  0  0  0  0  0
    6.6063   -2.0477   -0.7400 C   0  0  0  0  0  0  0  0  0  0  0  0
    7.3086   -3.1398   -0.2242 C   0  0  0  0  0  0  0  0  0  0  0  0
    7.9266   -3.0490    1.0230 C   0  0  0  0  0  0  0  0  0  0  0  0
    7.8526   -1.8650    1.7555 C   0  0  0  0  0  0  0  0  0  0  0  0
    7.1527   -0.7711    1.2438 C   0  0  0  0  0  0  0  0  0  0  0  0
   -1.7580    4.0936   -2.5947 H   0  0  0  0  0  0  0  0  0  0  0  0
   -0.9705    3.8144   -1.0437 H   0  0  0  0  0  0  0  0  0  0  0  0
   -0.2969    3.1021   -2.5429 H   0  0  0  0  0  0  0  0  0  0  0  0
   -3.6320    2.8251   -3.0781 H   0  0  0  0  0  0  0  0  0  0  0  0
   -5.0497    0.8391   -2.7992 H   0  0  0  0  0  0  0  0  0  0  0  0
   -3.7687   -0.9331    1.4328 H   0  0  0  0  0  0  0  0  0  0  0  0
   -4.3217   -2.6293    1.4902 H   0  0  0  0  0  0  0  0  0  0  0  0
   -4.9513   -1.4458    3.5772 H   0  0  0  0  0  0  0  0  0  0  0  0
   -6.4053   -1.8865    2.6771 H   0  0  0  0  0  0  0  0  0  0  0  0
   -6.8240    1.4943    1.4611 H   0  0  0  0  0  0  0  0  0  0  0  0
   -5.1146    1.1904    1.1464 H   0  0  0  0  0  0  0  0  0  0  0  0
   -6.5871    0.2289   -0.6524 H   0  0  0  0  0  0  0  0  0  0  0  0
   -7.4118   -0.7714    0.5454 H   0  0  0  0  0  0  0  0  0  0  0  0
   -2.0825   -0.9595   -0.2710 H   0  0  0  0  0  0  0  0  0  0  0  0
    0.2229    1.9532   -0.5690 H   0  0  0  0  0  0  0  0  0  0  0  0
    1.5746    1.7747    1.4191 H   0  0  0  0  0  0  0  0  0  0  0  0
    1.8548    0.1319    1.9677 H   0  0  0  0  0  0  0  0  0  0  0  0
    4.4806    2.0967   -1.9225 H   0  0  0  0  0  0  0  0  0  0  0  0
    3.4491    0.9007   -2.7674 H   0  0  0  0  0  0  0  0  0  0  0  0
    4.3631   -0.8438   -1.4250 H   0  0  0  0  0  0  0  0  0  0  0  0
    6.1614   -2.1319   -1.7272 H   0  0  0  0  0  0  0  0  0  0  0  0
    7.3827   -4.0600   -0.7988 H   0  0  0  0  0  0  0  0  0  0  0  0
    8.4750   -3.8997    1.4213 H   0  0  0  0  0  0  0  0  0  0  0  0
    8.3424   -1.7912    2.7232 H   0  0  0  0  0  0  0  0  0  0  0  0
    7.1033    0.1518    1.8183 H   0  0  0  0  0  0  0  0  0  0  0  0
  1  2  1  0
  2  3  2  0
  3  4  1  0
  4  5  2  0
  5  6  1  0
  6  7  2  0
  6  8  2  0
  6  9  1  0
  9 10  1  0
 10 11  1  0
 11 12  1  0
 12 13  1  0
 13 14  1  0
  5 15  1  0
 15 16  2  0
 16 17  1  0
 17 18  1  0
 18 19  2  0
 18 20  1  0
 20 21  1  0
 21 22  1  0
 22 23  2  0
 22 24  1  0
 24 25  1  0
 25 26  1  0
 26 27  2  0
 26 28  1  0
 28 29  2  0
 29 30  1  0
 30 31  2  0
 31 32  1  0
 32 33  2  0
 16  2  1  0
 33 28  1  0
 14  9  1  0
  1 34  1  0
  1 35  1  0
  1 36  1  0
  3 37  1  0
  4 38  1  0
 10 39  1  0
 10 40  1  0
 11 41  1  0
 11 42  1  0
 13 43  1  0
 13 44  1  0
 14 45  1  0
 14 46  1  0
 15 47  1  0
 17 48  1  0
 20 49  1  0
 20 50  1  0
 24 51  1  0
 24 52  1  0
 25 53  1  0
 29 54  1  0
 30 55  1  0
 31 56  1  0
 32 57  1  0
 33 58  1  0
M  END
$$$$
