
     RDKit          3D

 74 79  0  0  0  0  0  0  0  0999 V2000
    9.3401    2.4109    0.7342 C   0  0  0  0  0  0  0  0  0  0  0  0
    7.9867    2.7499    1.0093 O   0  0  0  0  0  0  0  0  0  0  0  0
    7.0281    1.9116    0.5127 C   0  0  0  0  0  0  0  0  0  0  0  0
    7.2507    0.7448   -0.2129 C   0  0  0  0  0  0  0  0  0  0  0  0
    6.1662   -0.0216   -0.6634 C   0  0  0  0  0  0  0  0  0  0  0  0
    4.8356    0.3505   -0.4003 C   0  0  0  0  0  0  0  0  0  0  0  0
    3.7102   -0.4712   -0.8901 C   0  0  0  0  0  0  0  0  0  0  0  0
    2.5120   -0.5902   -0.2077 C   0  0  0  0  0  0  0  0  0  0  0  0
    1.4873   -1.3537   -0.7754 C   0  0  0  0  0  0  0  0  0  0  0  0
    0.1938   -1.4234   -0.0427 C   0  0  0  0  0  0  0  0  0  0  0  0
   -0.3049   -2.5158    0.1837 O   0  0  0  0  0  0  0  0  0  0  0  0
   -0.3148   -0.1848    0.2948 N   0  0  0  0  0  0  0  0  0  0  0  0
   -1.5101    0.1252    0.9815 C   0  0  0  0  0  0  0  0  0  0  0  0
   -2.3692   -0.8699    1.4648 C   0  0  0  0  0  0  0  0  0  0  0  0
   -3.5604   -0.5169    2.1052 C   0  0  0  0  0  0  0  0  0  0  0  0
   -4.6629   -1.7712    2.7089 S   0  0  0  0  0  6  0  0  0  0  0  0
   -4.0609   -3.0722    2.5138 O   0  0  0  0  0  0  0  0  0  0  0  0
   -5.1278   -1.3455    4.0122 O   0  0  0  0  0  0  0  0  0  0  0  0
   -5.9709   -1.6525    1.6215 N   0  0  0  0  0  0  0  0  0  0  0  0
   -5.6804   -2.0567    0.2047 C   0  0  0  0  0  0  0  0  0  0  0  0
   -6.3564   -3.3864   -0.1424 C   0  0  0  0  0  0  0  0  0  0  0  0
   -7.7862   -3.3280   -0.0363 O   0  0  0  0  0  0  0  0  0  0  0  0
   -8.2410   -2.4545    1.0079 C   0  0  0  0  0  0  0  0  0  0  0  0
   -7.2266   -2.2830    2.1424 C   0  0  0  0  0  0  0  0  0  0  0  0
   -3.9015    0.8200    2.2974 C   0  0  0  0  0  0  0  0  0  0  0  0
   -3.0416    1.8126    1.8345 C   0  0  0  0  0  0  0  0  0  0  0  0
   -1.8401    1.4939    1.1751 C   0  0  0  0  0  0  0  0  0  0  0  0
   -1.0563    2.5843    0.7752 N   0  0  0  0  0  0  0  0  0  0  0  0
   -1.0092    2.8799   -0.6677 C   0  0  0  0  0  0  0  0  0  0  0  0
   -0.3578    4.2542   -0.8927 C   0  0  0  0  0  0  0  0  0  0  0  0
    0.9310    4.3276   -0.2585 O   0  0  0  0  0  0  0  0  0  0  0  0
    0.7878    4.1708    1.1632 C   0  0  0  0  0  0  0  0  0  0  0  0
    0.2038    2.7928    1.5106 C   0  0  0  0  0  0  0  0  0  0  0  0
    1.6773   -2.0237   -2.0040 C   0  0  0  0  0  0  0  0  0  0  0  0
    0.7043   -2.8190   -2.6627 C   0  0  0  0  0  0  0  0  0  0  0  0
    0.9821   -3.4397   -3.8793 C   0  0  0  0  0  0  0  0  0  0  0  0
    2.2303   -3.2739   -4.4597 C   0  0  0  0  0  0  0  0  0  0  0  0
    3.1895   -2.4867   -3.8192 C   0  0  0  0  0  0  0  0  0  0  0  0
    2.9375   -1.8582   -2.6067 C   0  0  0  0  0  0  0  0  0  0  0  0
    3.9133   -1.1064   -2.0689 N   0  0  0  0  0  0  0  0  0  0  0  0
    4.6346    1.5375    0.3245 C   0  0  0  0  0  0  0  0  0  0  0  0
    5.7159    2.3027    0.7775 C   0  0  0  0  0  0  0  0  0  0  0  0
    9.6057    1.4488    1.1855 H   0  0  0  0  0  0  0  0  0  0  0  0
    9.5351    2.4102   -0.3437 H   0  0  0  0  0  0  0  0  0  0  0  0
    9.9758    3.1784    1.1867 H   0  0  0  0  0  0  0  0  0  0  0  0
    8.2510    0.3990   -0.4521 H   0  0  0  0  0  0  0  0  0  0  0  0
    6.3678   -0.9286   -1.2329 H   0  0  0  0  0  0  0  0  0  0  0  0
    2.3773   -0.1227    0.7616 H   0  0  0  0  0  0  0  0  0  0  0  0
    0.1924    0.6244   -0.0313 H   0  0  0  0  0  0  0  0  0  0  0  0
   -2.1340   -1.9235    1.3502 H   0  0  0  0  0  0  0  0  0  0  0  0
   -4.6059   -2.1317    0.0163 H   0  0  0  0  0  0  0  0  0  0  0  0
   -6.0658   -1.2576   -0.4400 H   0  0  0  0  0  0  0  0  0  0  0  0
   -5.9989   -4.1899    0.5110 H   0  0  0  0  0  0  0  0  0  0  0  0
   -6.1181   -3.6720   -1.1714 H   0  0  0  0  0  0  0  0  0  0  0  0
   -8.4753   -1.4847    0.5532 H   0  0  0  0  0  0  0  0  0  0  0  0
   -9.1769   -2.8686    1.3958 H   0  0  0  0  0  0  0  0  0  0  0  0
   -7.6523   -1.6359    2.9162 H   0  0  0  0  0  0  0  0  0  0  0  0
   -6.9967   -3.2622    2.5785 H   0  0  0  0  0  0  0  0  0  0  0  0
   -4.8230    1.0914    2.8072 H   0  0  0  0  0  0  0  0  0  0  0  0
   -3.3030    2.8576    1.9913 H   0  0  0  0  0  0  0  0  0  0  0  0
   -0.4219    2.1257   -1.2000 H   0  0  0  0  0  0  0  0  0  0  0  0
   -2.0195    2.8865   -1.0928 H   0  0  0  0  0  0  0  0  0  0  0  0
   -0.9933    5.0603   -0.5074 H   0  0  0  0  0  0  0  0  0  0  0  0
   -0.2118    4.4258   -1.9634 H   0  0  0  0  0  0  0  0  0  0  0  0
    1.7807    4.2763    1.6108 H   0  0  0  0  0  0  0  0  0  0  0  0
    0.1576    4.9786    1.5523 H   0  0  0  0  0  0  0  0  0  0  0  0
    0.9399    2.0292    1.2415 H   0  0  0  0  0  0  0  0  0  0  0  0
    0.0341    2.7354    2.5919 H   0  0  0  0  0  0  0  0  0  0  0  0
   -0.2802   -2.9714   -2.2235 H   0  0  0  0  0  0  0  0  0  0  0  0
    0.2267   -4.0526   -4.3642 H   0  0  0  0  0  0  0  0  0  0  0  0
    2.4642   -3.7538   -5.4064 H   0  0  0  0  0  0  0  0  0  0  0  0
    4.1662   -2.3592   -4.2821 H   0  0  0  0  0  0  0  0  0  0  0  0
    3.6321    1.9038    0.5301 H   0  0  0  0  0  0  0  0  0  0  0  0
    5.5310    3.2189    1.3335 H   0  0  0  0  0  0  0  0  0  0  0  0
  1  2  1  0
  2  3  1  0
  3  4  2  0
  4  5  1  0
  5  6  2  0
  6  7  1  0
  7  8  2  0
  8  9  1  0
  9 10  1  0
 10 11  2  0
 10 12  1  0
 12 13  1  0
 13 14  2  0
 14 15  1  0
 15 16  1  0
 16 17  2  0
 16 18  2  0
 16 19  1  0
 19 20  1  0
 20 21  1  0
 21 22  1  0
 22 23  1  0
 23 24  1  0
 15 25  2  0
 25 26  1  0
 26 27  2  0
 27 28  1  0
 28 29  1  0
 29 30  1  0
 30 31  1  0
 31 32  1  0
 32 33  1  0
  9 34  2  0
 34 35  1  0
 35 36  2  0
 36 37  1  0
 37 38  2  0
 38 39  1  0
 39 40  2  0
  6 41  1  0
 41 42  2  0
 42  3  1  0
 40  7  1  0
 27 13  1  0
 33 28  1  0
 39 34  1  0
 24 19  1  0
  1 43  1  0
  1 44  1  0
  1 45  1  0
  4 46  1  0
  5 47  1  0
  8 48  1  0
 12 49  1  0
 14 50  1  0
 20 51  1  0
 20 52  1  0
 21 53  1  0
 21 54  1  0
 23 55  1  0
 23 56  1  0
 24 57  1  0
 24 58  1  0
 25 59  1  0
 26 60  1  0
 29 61  1  0
 29 62  1  0
 30 63  1  0
 30 64  1  0
 32 65  1  0
 32 66  1  0
 33 67  1  0
 33 68  1  0
 35 69  1  0
 36 70  1  0
 37 71  1  0
 38 72  1  0
 41 73  1  0
 42 74  1  0
M  END
$$$$
