
     RDKit          3D

 33 33  0  0  0  0  0  0  0  0999 V2000
   -3.5255   -1.8911    1.3141 C   0  0  0  0  0  0  0  0  0  0  0  0
   -3.7497   -0.6218    0.4909 C   0  0  0  0  0  0  0  0  0  0  0  0
   -3.6910   -0.9198   -1.0087 C   0  0  0  0  0  0  0  0  0  0  0  0
   -2.8684    0.4861    0.8875 N   0  0  0  0  0  0  0  0  0  0  0  0
   -1.4341    0.2215    0.7547 C   0  0  0  0  0  0  0  0  0  0  0  0
   -0.6499    1.4677    1.1804 C   0  0  0  0  0  0  0  0  0  0  0  0
    0.8586    1.2305    1.1356 C   0  0  0  0  0  0  0  0  0  0  0  0
    1.2373    0.9419   -0.2088 O   0  0  0  0  0  0  0  0  0  0  0  0
    2.5405    0.6028   -0.4531 C   0  0  0  0  0  0  0  0  0  0  0  0
    3.5683    0.6783    0.4928 C   0  0  0  0  0  0  0  0  0  0  0  0
    4.8751    0.3158    0.1484 C   0  0  0  0  0  0  0  0  0  0  0  0
    5.1605   -0.1207   -1.1430 C   0  0  0  0  0  0  0  0  0  0  0  0
    6.7702   -0.5639   -1.5575 Cl  0  0  0  0  0  0  0  0  0  0  0  0
    4.1533   -0.1987   -2.0988 C   0  0  0  0  0  0  0  0  0  0  0  0
    2.8487    0.1638   -1.7524 C   0  0  0  0  0  0  0  0  0  0  0  0
    1.5092    0.0329   -3.0965 Br  0  0  0  0  0  0  0  0  0  0  0  0
   -4.3166   -2.6212    1.1099 H   0  0  0  0  0  0  0  0  0  0  0  0
   -2.5692   -2.3705    1.0808 H   0  0  0  0  0  0  0  0  0  0  0  0
   -3.5490   -1.6723    2.3873 H   0  0  0  0  0  0  0  0  0  0  0  0
   -4.7700   -0.2818    0.7092 H   0  0  0  0  0  0  0  0  0  0  0  0
   -4.4742   -1.6342   -1.2856 H   0  0  0  0  0  0  0  0  0  0  0  0
   -2.7306   -1.3536   -1.3051 H   0  0  0  0  0  0  0  0  0  0  0  0
   -3.8529   -0.0101   -1.5973 H   0  0  0  0  0  0  0  0  0  0  0  0
   -3.1060    1.3081    0.3309 H   0  0  0  0  0  0  0  0  0  0  0  0
   -1.1811   -0.0319   -0.2797 H   0  0  0  0  0  0  0  0  0  0  0  0
   -1.1369   -0.6142    1.3968 H   0  0  0  0  0  0  0  0  0  0  0  0
   -0.9037    2.2988    0.5102 H   0  0  0  0  0  0  0  0  0  0  0  0
   -0.9334    1.7612    2.1984 H   0  0  0  0  0  0  0  0  0  0  0  0
    1.1174    0.3940    1.7960 H   0  0  0  0  0  0  0  0  0  0  0  0
    1.3660    2.1409    1.4757 H   0  0  0  0  0  0  0  0  0  0  0  0
    3.3898    1.0212    1.5070 H   0  0  0  0  0  0  0  0  0  0  0  0
    5.6647    0.3792    0.8934 H   0  0  0  0  0  0  0  0  0  0  0  0
    4.3827   -0.5390   -3.1048 H   0  0  0  0  0  0  0  0  0  0  0  0
  1  2  1  0
  2  3  1  0
  2  4  1  0
  4  5  1  0
  5  6  1  0
  6  7  1  0
  7  8  1  0
  8  9  1  0
  9 10  2  0
 10 11  1  0
 11 12  2  0
 12 13  1  0
 12 14  1  0
 14 15  2  0
 15 16  1  0
 15  9  1  0
  1 17  1  0
  1 18  1  0
  1 19  1  0
  2 20  1  0
  3 21  1  0
  3 22  1  0
  3 23  1  0
  4 24  1  0
  5 25  1  0
  5 26  1  0
  6 27  1  0
  6 28  1  0
  7 29  1  0
  7 30  1  0
 10 31  1  0
 11 32  1  0
 14 33  1  0
M  END
$$$$
