
     RDKit          3D

 40 41  0  0  0  0  0  0  0  0999 V2000
    7.6567    0.0295    1.0635 C   0  0  0  0  0  0  0  0  0  0  0  0
    6.8796   -0.7312    0.1471 O   0  0  0  0  0  0  0  0  0  0  0  0
    5.5210   -0.6561    0.2769 C   0  0  0  0  0  0  0  0  0  0  0  0
    4.8038   -1.4571   -0.6129 C   0  0  0  0  0  0  0  0  0  0  0  0
    3.4060   -1.4771   -0.5895 C   0  0  0  0  0  0  0  0  0  0  0  0
    2.7004   -0.7002    0.3352 C   0  0  0  0  0  0  0  0  0  0  0  0
    1.2311   -0.7223    0.3080 C   0  0  0  0  0  0  0  0  0  0  0  0
    0.4663   -0.6260    1.4071 C   0  0  0  0  0  0  0  0  0  0  0  0
   -1.0192   -0.6973    1.3784 C   0  0  0  0  0  0  0  0  0  0  0  0
   -1.5953   -1.2815    2.2862 O   0  0  0  0  0  0  0  0  0  0  0  0
   -1.5940   -0.0086    0.3300 N   0  0  0  0  0  0  0  0  0  0  0  0
   -2.9337    0.1123   -0.0002 C   0  0  0  0  0  0  0  0  0  0  0  0
   -3.8912   -0.5406    0.6678 C   0  0  0  0  0  0  0  0  0  0  0  0
   -5.3046   -0.4069    0.2997 C   0  0  0  0  0  0  0  0  0  0  0  0
   -6.1467   -1.0330    0.9386 O   0  0  0  0  0  0  0  0  0  0  0  0
   -5.5789    0.4259   -0.7578 N   0  0  0  0  0  0  0  0  0  0  0  0
   -6.9591    0.6020   -1.1685 C   0  0  0  0  0  0  0  0  0  0  0  0
   -4.6126    1.1111   -1.4766 C   0  0  0  0  0  0  0  0  0  0  0  0
   -4.9173    1.8388   -2.4250 O   0  0  0  0  0  0  0  0  0  0  0  0
   -3.2859    0.9311   -1.0704 N   0  0  0  0  0  0  0  0  0  0  0  0
   -2.2716    1.6596   -1.8273 C   0  0  0  0  0  0  0  0  0  0  0  0
    3.4235    0.1151    1.2149 C   0  0  0  0  0  0  0  0  0  0  0  0
    4.8247    0.1339    1.1898 C   0  0  0  0  0  0  0  0  0  0  0  0
    7.4775    1.1020    0.9360 H   0  0  0  0  0  0  0  0  0  0  0  0
    7.4693   -0.2832    2.0961 H   0  0  0  0  0  0  0  0  0  0  0  0
    8.7120   -0.1598    0.8448 H   0  0  0  0  0  0  0  0  0  0  0  0
    5.3387   -2.0741   -1.3311 H   0  0  0  0  0  0  0  0  0  0  0  0
    2.8812   -2.1166   -1.2957 H   0  0  0  0  0  0  0  0  0  0  0  0
    0.7867   -0.8749   -0.6725 H   0  0  0  0  0  0  0  0  0  0  0  0
    0.8869   -0.5832    2.4067 H   0  0  0  0  0  0  0  0  0  0  0  0
   -0.9477    0.5140   -0.2397 H   0  0  0  0  0  0  0  0  0  0  0  0
   -3.7147   -1.2047    1.5029 H   0  0  0  0  0  0  0  0  0  0  0  0
   -7.6574    0.0353   -0.5472 H   0  0  0  0  0  0  0  0  0  0  0  0
   -7.0639    0.2774   -2.2094 H   0  0  0  0  0  0  0  0  0  0  0  0
   -7.2144    1.6656   -1.1114 H   0  0  0  0  0  0  0  0  0  0  0  0
   -1.7351    2.3354   -1.1531 H   0  0  0  0  0  0  0  0  0  0  0  0
   -1.5767    0.9443   -2.2794 H   0  0  0  0  0  0  0  0  0  0  0  0
   -2.6947    2.2644   -2.6337 H   0  0  0  0  0  0  0  0  0  0  0  0
    2.9115    0.7562    1.9285 H   0  0  0  0  0  0  0  0  0  0  0  0
    5.3378    0.7807    1.8934 H   0  0  0  0  0  0  0  0  0  0  0  0
  1  2  1  0
  2  3  1  0
  3  4  2  0
  4  5  1  0
  5  6  2  0
  6  7  1  0
  7  8  2  3
  8  9  1  0
  9 10  2  0
  9 11  1  0
 11 12  1  0
 12 13  2  0
 13 14  1  0
 14 15  2  0
 14 16  1  0
 16 17  1  0
 16 18  1  0
 18 19  2  0
 18 20  1  0
 20 21  1  0
  6 22  1  0
 22 23  2  0
 23  3  1  0
 20 12  1  0
  1 24  1  0
  1 25  1  0
  1 26  1  0
  4 27  1  0
  5 28  1  0
  7 29  1  0
  8 30  1  0
 11 31  1  0
 13 32  1  0
 17 33  1  0
 17 34  1  0
 17 35  1  0
 21 36  1  0
 21 37  1  0
 21 38  1  0
 22 39  1  0
 23 40  1  0
M  END
$$$$
