
     RDKit          3D

 58 61  0  0  0  0  0  0  0  0999 V2000
   -2.4600    5.2203   -0.4372 C   0  0  0  0  0  0  0  0  0  0  0  0
   -2.4589    3.8028   -0.5512 O   0  0  0  0  0  0  0  0  0  0  0  0
   -2.6569    3.0889    0.5985 C   0  0  0  0  0  0  0  0  0  0  0  0
   -2.9085    3.6229    1.8624 C   0  0  0  0  0  0  0  0  0  0  0  0
   -3.0923    2.7753    2.9582 C   0  0  0  0  0  0  0  0  0  0  0  0
   -3.0249    1.3913    2.7950 C   0  0  0  0  0  0  0  0  0  0  0  0
   -2.7749    0.8413    1.5326 C   0  0  0  0  0  0  0  0  0  0  0  0
   -2.6801   -0.6115    1.3529 C   0  0  0  0  0  0  0  0  0  0  0  0
   -4.0933   -1.5536    1.5554 S   0  0  0  0  0  0  0  0  0  0  0  0
   -3.2766   -3.0202    1.1926 C   0  0  0  0  0  0  0  0  0  0  0  0
   -3.8338   -4.3128    1.1621 C   0  0  0  0  0  0  0  0  0  0  0  0
   -3.0146   -5.4045    0.8516 C   0  0  0  0  0  0  0  0  0  0  0  0
   -1.6661   -5.2217    0.5768 C   0  0  0  0  0  0  0  0  0  0  0  0
   -0.7676   -6.2054    0.2652 O   0  0  0  0  0  0  0  0  0  0  0  0
   -1.2509   -7.5427    0.2644 C   0  0  0  0  0  0  0  0  0  0  0  0
   -1.1257   -3.9305    0.6066 C   0  0  0  0  0  0  0  0  0  0  0  0
   -1.9272   -2.8002    0.9150 C   0  0  0  0  0  0  0  0  0  0  0  0
   -1.5917   -1.3971    1.0074 C   0  0  0  0  0  0  0  0  0  0  0  0
   -0.2718   -0.8198    0.7837 C   0  0  0  0  0  0  0  0  0  0  0  0
    0.5074   -0.3981    1.8633 C   0  0  0  0  0  0  0  0  0  0  0  0
    1.7684    0.1576    1.6358 C   0  0  0  0  0  0  0  0  0  0  0  0
    2.2645    0.3004    0.3364 C   0  0  0  0  0  0  0  0  0  0  0  0
    3.5052    0.8691    0.2681 O   0  0  0  0  0  0  0  0  0  0  0  0
    4.0885    1.1053   -1.0169 C   0  0  0  0  0  0  0  0  0  0  0  0
    3.5996    2.4424   -1.6055 C   0  0  0  0  0  0  0  0  0  0  0  0
    4.1399    2.8504   -2.9131 N   0  0  0  0  0  0  0  0  0  0  0  0
    5.5870    3.0448   -2.8911 C   0  0  0  0  0  0  0  0  0  0  0  0
    3.7449    1.9469   -3.9896 C   0  0  0  0  0  0  0  0  0  0  0  0
    1.4867   -0.1272   -0.7400 C   0  0  0  0  0  0  0  0  0  0  0  0
    0.2243   -0.6898   -0.5172 C   0  0  0  0  0  0  0  0  0  0  0  0
   -2.5935    1.7012    0.4409 C   0  0  0  0  0  0  0  0  0  0  0  0
   -1.6661    5.5649    0.2340 H   0  0  0  0  0  0  0  0  0  0  0  0
   -2.2586    5.6362   -1.4295 H   0  0  0  0  0  0  0  0  0  0  0  0
   -3.4401    5.5879   -0.1149 H   0  0  0  0  0  0  0  0  0  0  0  0
   -2.9676    4.6929    2.0301 H   0  0  0  0  0  0  0  0  0  0  0  0
   -3.2847    3.1955    3.9419 H   0  0  0  0  0  0  0  0  0  0  0  0
   -3.1605    0.7453    3.6590 H   0  0  0  0  0  0  0  0  0  0  0  0
   -4.8880   -4.4636    1.3786 H   0  0  0  0  0  0  0  0  0  0  0  0
   -3.4731   -6.3880    0.8358 H   0  0  0  0  0  0  0  0  0  0  0  0
   -0.4115   -8.2009    0.0207 H   0  0  0  0  0  0  0  0  0  0  0  0
   -2.0188   -7.6838   -0.5036 H   0  0  0  0  0  0  0  0  0  0  0  0
   -1.6226   -7.8297    1.2539 H   0  0  0  0  0  0  0  0  0  0  0  0
   -0.0675   -3.7945    0.3931 H   0  0  0  0  0  0  0  0  0  0  0  0
    0.1410   -0.4948    2.8822 H   0  0  0  0  0  0  0  0  0  0  0  0
    2.3684    0.4878    2.4804 H   0  0  0  0  0  0  0  0  0  0  0  0
    3.9429    0.2536   -1.6893 H   0  0  0  0  0  0  0  0  0  0  0  0
    5.1686    1.1649   -0.8420 H   0  0  0  0  0  0  0  0  0  0  0  0
    2.5041    2.4359   -1.6701 H   0  0  0  0  0  0  0  0  0  0  0  0
    3.8097    3.2369   -0.8758 H   0  0  0  0  0  0  0  0  0  0  0  0
    6.1358    2.1061   -2.7582 H   0  0  0  0  0  0  0  0  0  0  0  0
    5.9230    3.5024   -3.8282 H   0  0  0  0  0  0  0  0  0  0  0  0
    5.8750    3.7320   -2.0876 H   0  0  0  0  0  0  0  0  0  0  0  0
    2.6554    1.8288   -4.0162 H   0  0  0  0  0  0  0  0  0  0  0  0
    4.0386    2.3616   -4.9607 H   0  0  0  0  0  0  0  0  0  0  0  0
    4.1986    0.9539   -3.8954 H   0  0  0  0  0  0  0  0  0  0  0  0
    1.8210   -0.0343   -1.7671 H   0  0  0  0  0  0  0  0  0  0  0  0
   -0.3727   -1.0148   -1.3665 H   0  0  0  0  0  0  0  0  0  0  0  0
   -2.3973    1.2923   -0.5477 H   0  0  0  0  0  0  0  0  0  0  0  0
  1  2  1  0
  2  3  1  0
  3  4  2  0
  4  5  1  0
  5  6  2  0
  6  7  1  0
  7  8  1  0
  8  9  1  0
  9 10  1  0
 10 11  2  0
 11 12  1  0
 12 13  2  0
 13 14  1  0
 14 15  1  0
 13 16  1  0
 16 17  2  0
 17 18  1  0
 18 19  1  0
 19 20  2  0
 20 21  1  0
 21 22  2  0
 22 23  1  0
 23 24  1  0
 24 25  1  0
 25 26  1  0
 26 27  1  0
 26 28  1  0
 22 29  1  0
 29 30  2  0
  7 31  2  0
 31  3  1  0
 18  8  2  0
 30 19  1  0
 17 10  1  0
  1 32  1  0
  1 33  1  0
  1 34  1  0
  4 35  1  0
  5 36  1  0
  6 37  1  0
 11 38  1  0
 12 39  1  0
 15 40  1  0
 15 41  1  0
 15 42  1  0
 16 43  1  0
 20 44  1  0
 21 45  1  0
 24 46  1  0
 24 47  1  0
 25 48  1  0
 25 49  1  0
 27 50  1  0
 27 51  1  0
 27 52  1  0
 28 53  1  0
 28 54  1  0
 28 55  1  0
 29 56  1  0
 30 57  1  0
 31 58  1  0
M  END
$$$$
