
     RDKit          3D

 53 56  0  0  0  0  0  0  0  0999 V2000
   -8.5530    2.6802   -1.1219 C   0  0  0  0  0  0  0  0  0  0  0  0
   -7.2186    2.0624   -0.8273 C   0  0  0  0  0  0  0  0  0  0  0  0
   -7.0889    1.0828    0.1623 C   0  0  0  0  0  0  0  0  0  0  0  0
   -5.8384    0.5271    0.4619 C   0  0  0  0  0  0  0  0  0  0  0  0
   -4.6951    0.9436   -0.2281 C   0  0  0  0  0  0  0  0  0  0  0  0
   -3.3959    0.4134    0.0473 N   0  0  0  0  0  0  0  0  0  0  0  0
   -2.3070    1.1234   -0.3551 N   0  0  0  0  0  0  0  0  0  0  0  0
   -1.2635    0.5091    0.2060 C   0  0  0  0  0  0  0  0  0  0  0  0
    0.1307    0.9243    0.1273 C   0  0  0  0  0  0  0  0  0  0  0  0
    0.5149    1.9323   -0.4630 O   0  0  0  0  0  0  0  0  0  0  0  0
    0.9947    0.0547    0.8216 N   0  0  0  0  0  0  0  0  0  0  0  0
    2.4238    0.3065    0.7470 C   0  0  0  0  0  0  0  0  0  0  0  0
    3.0283   -0.2960   -0.5239 C   0  0  0  0  0  0  0  0  0  0  0  0
    2.3980   -0.9503   -1.3506 O   0  0  0  0  0  0  0  0  0  0  0  0
    4.3827   -0.0343   -0.6586 N   0  0  0  0  0  0  0  0  0  0  0  0
    5.1477   -0.6381   -1.7356 C   0  0  0  0  0  0  0  0  0  0  0  0
    6.5157    0.0189   -1.9332 C   0  0  0  0  0  0  0  0  0  0  0  0
    7.4385   -0.2248   -0.7702 C   0  0  0  0  0  0  0  0  0  0  0  0
    8.2354   -1.3272   -0.5308 C   0  0  0  0  0  0  0  0  0  0  0  0
    8.9751   -1.2078    0.6809 C   0  0  0  0  0  0  0  0  0  0  0  0
    8.7226   -0.0168    1.3236 C   0  0  0  0  0  0  0  0  0  0  0  0
    7.5990    0.9477    0.4700 S   0  0  0  0  0  0  0  0  0  0  0  0
    0.6011   -1.0916    1.5234 N   0  0  0  0  0  0  0  0  0  0  0  0
   -0.6524   -1.4480    1.5701 C   0  0  0  0  0  0  0  0  0  0  0  0
   -1.0115   -2.6902    2.3347 C   0  0  0  0  0  0  0  0  0  0  0  0
   -1.6451   -0.6461    0.8967 C   0  0  0  0  0  0  0  0  0  0  0  0
   -3.0117   -0.7633    0.7028 C   0  0  0  0  0  0  0  0  0  0  0  0
   -3.9252   -1.8898    1.0249 C   0  0  0  0  0  0  0  0  0  0  0  0
   -4.8222    1.9575   -1.1921 C   0  0  0  0  0  0  0  0  0  0  0  0
   -6.0722    2.5081   -1.4901 C   0  0  0  0  0  0  0  0  0  0  0  0
   -8.6903    3.5811   -0.5161 H   0  0  0  0  0  0  0  0  0  0  0  0
   -9.3662    1.9807   -0.9032 H   0  0  0  0  0  0  0  0  0  0  0  0
   -8.6315    2.9488   -2.1807 H   0  0  0  0  0  0  0  0  0  0  0  0
   -7.9632    0.7522    0.7198 H   0  0  0  0  0  0  0  0  0  0  0  0
   -5.7982   -0.1885    1.2737 H   0  0  0  0  0  0  0  0  0  0  0  0
    2.6111    1.3856    0.7494 H   0  0  0  0  0  0  0  0  0  0  0  0
    2.9110   -0.1384    1.6215 H   0  0  0  0  0  0  0  0  0  0  0  0
    4.8939    0.2622    0.1654 H   0  0  0  0  0  0  0  0  0  0  0  0
    4.5650   -0.5529   -2.6601 H   0  0  0  0  0  0  0  0  0  0  0  0
    5.2492   -1.7057   -1.5073 H   0  0  0  0  0  0  0  0  0  0  0  0
    6.3927    1.0950   -2.1084 H   0  0  0  0  0  0  0  0  0  0  0  0
    6.9792   -0.3942   -2.8379 H   0  0  0  0  0  0  0  0  0  0  0  0
    8.2866   -2.1833   -1.1938 H   0  0  0  0  0  0  0  0  0  0  0  0
    9.6606   -1.9561    1.0598 H   0  0  0  0  0  0  0  0  0  0  0  0
    9.1468    0.3364    2.2536 H   0  0  0  0  0  0  0  0  0  0  0  0
   -1.8593   -2.4964    2.9969 H   0  0  0  0  0  0  0  0  0  0  0  0
   -1.2655   -3.4893    1.6332 H   0  0  0  0  0  0  0  0  0  0  0  0
   -0.1643   -3.0199    2.9434 H   0  0  0  0  0  0  0  0  0  0  0  0
   -4.7424   -1.9754    0.3026 H   0  0  0  0  0  0  0  0  0  0  0  0
   -3.3965   -2.8461    0.9796 H   0  0  0  0  0  0  0  0  0  0  0  0
   -4.3358   -1.7808    2.0332 H   0  0  0  0  0  0  0  0  0  0  0  0
   -3.9515    2.3269   -1.7333 H   0  0  0  0  0  0  0  0  0  0  0  0
   -6.1391    3.2902   -2.2433 H   0  0  0  0  0  0  0  0  0  0  0  0
  1  2  1  0
  2  3  2  0
  3  4  1  0
  4  5  2  0
  5  6  1  0
  6  7  1  0
  7  8  2  0
  8  9  1  0
  9 10  2  0
  9 11  1  0
 11 12  1  0
 12 13  1  0
 13 14  2  0
 13 15  1  0
 15 16  1  0
 16 17  1  0
 17 18  1  0
 18 19  2  0
 19 20  1  0
 20 21  2  0
 21 22  1  0
 11 23  1  0
 23 24  2  0
 24 25  1  0
 24 26  1  0
 26 27  2  0
 27 28  1  0
  5 29  1  0
 29 30  2  0
 30  2  1  0
 27  6  1  0
 26  8  1  0
 22 18  1  0
  1 31  1  0
  1 32  1  0
  1 33  1  0
  3 34  1  0
  4 35  1  0
 12 36  1  0
 12 37  1  0
 15 38  1  0
 16 39  1  0
 16 40  1  0
 17 41  1  0
 17 42  1  0
 19 43  1  0
 20 44  1  0
 21 45  1  0
 25 46  1  0
 25 47  1  0
 25 48  1  0
 28 49  1  0
 28 50  1  0
 28 51  1  0
 29 52  1  0
 30 53  1  0
M  END
$$$$
