
     RDKit          3D

 33 35  0  0  0  0  0  0  0  0999 V2000
    5.0219    1.0180   -1.4168 C   0  0  0  0  0  0  0  0  0  0  0  0
    4.3080    0.3449   -0.3563 N   0  0  0  0  0  0  0  0  0  0  0  0
    4.8502   -0.2992    0.7136 C   0  0  0  0  0  0  0  0  0  0  0  0
    3.7779   -0.7661    1.4456 C   0  0  0  0  0  0  0  0  0  0  0  0
    3.8587   -1.4699    2.6800 N   0  0  0  0  0  4  0  0  0  0  0  0
    3.2590   -0.9770    3.6411 O   0  0  0  0  0  0  0  0  0  0  0  0
    4.5863   -2.4705    2.6967 O   0  0  0  0  0  1  0  0  0  0  0  0
    2.6235   -0.3902    0.7262 C   0  0  0  0  0  0  0  0  0  0  0  0
    1.2167   -0.7049    1.0264 C   0  0  0  0  0  0  0  0  0  0  0  0
    0.9198   -1.4901    1.9146 O   0  0  0  0  0  0  0  0  0  0  0  0
    0.3662   -0.0345    0.1657 N   0  0  0  0  0  0  0  0  0  0  0  0
   -1.0171   -0.0714    0.1318 C   0  0  0  0  0  0  0  0  0  0  0  0
   -1.9106   -0.9979    1.2731 S   0  0  0  0  0  0  0  0  0  0  0  0
   -3.3536   -0.5223    0.5849 C   0  0  0  0  0  0  0  0  0  0  0  0
   -3.2104    0.3171   -0.4832 C   0  0  0  0  0  0  0  0  0  0  0  0
   -1.8525    0.5919   -0.7621 C   0  0  0  0  0  0  0  0  0  0  0  0
   -1.3883    1.4359   -1.8194 C   0  0  0  0  0  0  0  0  0  0  0  0
   -0.9938    2.1175   -2.6718 N   0  0  0  0  0  0  0  0  0  0  0  0
   -4.5315    0.6959   -1.0450 C   0  0  0  0  0  0  0  0  0  0  0  0
   -5.5144    0.2270    0.0747 C   0  0  0  0  0  0  0  0  0  0  0  0
   -4.7595   -0.8450    0.9204 C   0  0  0  0  0  0  0  0  0  0  0  0
    2.9595    0.3235   -0.3753 N   0  0  0  0  0  0  0  0  0  0  0  0
    4.7229    2.0690   -1.4186 H   0  0  0  0  0  0  0  0  0  0  0  0
    4.7597    0.5403   -2.3640 H   0  0  0  0  0  0  0  0  0  0  0  0
    6.0971    0.9347   -1.2404 H   0  0  0  0  0  0  0  0  0  0  0  0
    5.9178   -0.3643    0.8762 H   0  0  0  0  0  0  0  0  0  0  0  0
    0.8513    0.5315   -0.5298 H   0  0  0  0  0  0  0  0  0  0  0  0
   -4.7228    0.1503   -1.9749 H   0  0  0  0  0  0  0  0  0  0  0  0
   -4.6241    1.7701   -1.2272 H   0  0  0  0  0  0  0  0  0  0  0  0
   -5.7546    1.0838    0.7183 H   0  0  0  0  0  0  0  0  0  0  0  0
   -6.4571   -0.1521   -0.3320 H   0  0  0  0  0  0  0  0  0  0  0  0
   -4.9870   -0.7423    1.9849 H   0  0  0  0  0  0  0  0  0  0  0  0
   -5.0192   -1.8533    0.5825 H   0  0  0  0  0  0  0  0  0  0  0  0
  1  2  1  0
  2  3  1  0
  3  4  2  0
  4  5  1  0
  5  6  2  0
  5  7  1  0
  4  8  1  0
  8  9  1  0
  9 10  2  0
  9 11  1  0
 11 12  1  0
 12 13  1  0
 13 14  1  0
 14 15  2  0
 15 16  1  0
 16 17  1  0
 17 18  3  0
 15 19  1  0
 19 20  1  0
 20 21  1  0
  8 22  2  0
 22  2  1  0
 16 12  2  0
 21 14  1  0
  1 23  1  0
  1 24  1  0
  1 25  1  0
  3 26  1  0
 11 27  1  0
 19 28  1  0
 19 29  1  0
 20 30  1  0
 20 31  1  0
 21 32  1  0
 21 33  1  0
M  CHG  2   5   1   7  -1
M  END
$$$$
