
     RDKit          3D

 53 58  0  0  0  0  0  0  0  0999 V2000
    1.0061   -1.8244   -0.4976 O   0  0  0  0  0  0  0  0  0  0  0  0
    1.2270   -1.0866    0.4643 C   0  0  0  0  0  0  0  0  0  0  0  0
    0.0579   -0.5087    1.2879 C   0  0  0  0  0  0  0  0  0  0  0  0
   -1.1162   -0.2425    0.4412 N   0  0  0  0  0  4  0  0  0  0  0  0
   -1.5732    0.9986    0.0032 C   0  0  0  0  0  0  0  0  0  0  0  0
   -2.6825    0.8102   -0.8132 C   0  0  0  0  0  0  0  0  0  0  0  0
   -3.5278    1.9373   -1.5123 C   0  0  0  0  0  0  0  0  0  0  0  0
   -4.6688    1.6174   -2.2549 C   0  0  0  0  0  0  0  0  0  0  0  0
   -5.4103    2.6291   -2.8736 C   0  0  0  0  0  0  0  0  0  0  0  0
   -5.0110    3.9530   -2.7469 C   0  0  0  0  0  0  0  0  0  0  0  0
   -5.7229    4.9184   -3.3404 F   0  0  0  0  0  0  0  0  0  0  0  0
   -3.8834    4.2868   -2.0089 C   0  0  0  0  0  0  0  0  0  0  0  0
   -3.1390    3.2796   -1.3874 C   0  0  0  0  0  0  0  0  0  0  0  0
   -2.8301   -0.5648   -0.8351 N   0  0  0  0  0  0  0  0  0  0  0  0
   -1.9136   -1.1696   -0.0830 C   0  0  0  0  0  0  0  0  0  0  0  0
   -2.0741   -2.6422   -0.0412 C   0  0  0  0  0  0  0  0  0  0  0  0
   -3.0491   -2.8926   -1.2073 C   0  0  0  0  0  0  0  0  0  0  0  0
   -3.7319   -1.5216   -1.4630 C   0  0  0  0  0  0  0  0  0  0  0  0
    2.4870   -0.7659    0.9838 N   0  0  0  0  0  0  0  0  0  0  0  0
    3.4489   -1.7914    1.3091 C   0  0  0  0  0  0  0  0  0  0  0  0
    3.2906   -3.1073    0.8291 C   0  0  0  0  0  0  0  0  0  0  0  0
    4.2083   -4.1204    1.1312 C   0  0  0  0  0  0  0  0  0  0  0  0
    5.3024   -3.8497    1.9380 C   0  0  0  0  0  0  0  0  0  0  0  0
    5.4683   -2.5688    2.4520 C   0  0  0  0  0  0  0  0  0  0  0  0
    4.5518   -1.5458    2.1493 C   0  0  0  0  0  0  0  0  0  0  0  0
    4.8052    0.0025    2.9791 S   0  0  0  0  0  0  0  0  0  0  0  0
    3.9125    1.0753    1.8960 C   0  0  0  0  0  0  0  0  0  0  0  0
    4.2429    2.4402    1.9301 C   0  0  0  0  0  0  0  0  0  0  0  0
    3.5942    3.3549    1.1045 C   0  0  0  0  0  0  0  0  0  0  0  0
    2.6149    2.9110    0.2289 C   0  0  0  0  0  0  0  0  0  0  0  0
    2.2707    1.5572    0.2011 C   0  0  0  0  0  0  0  0  0  0  0  0
    2.8934    0.6158    1.0517 C   0  0  0  0  0  0  0  0  0  0  0  0
   -0.2275   -1.2569    2.0361 H   0  0  0  0  0  0  0  0  0  0  0  0
    0.3262    0.4072    1.8194 H   0  0  0  0  0  0  0  0  0  0  0  0
   -1.0472    1.8759    0.3393 H   0  0  0  0  0  0  0  0  0  0  0  0
   -5.0192    0.5996   -2.3664 H   0  0  0  0  0  0  0  0  0  0  0  0
   -6.2994    2.3950   -3.4532 H   0  0  0  0  0  0  0  0  0  0  0  0
   -3.5936    5.3305   -1.9235 H   0  0  0  0  0  0  0  0  0  0  0  0
   -2.2626    3.5784   -0.8202 H   0  0  0  0  0  0  0  0  0  0  0  0
   -2.5172   -2.8757    0.9295 H   0  0  0  0  0  0  0  0  0  0  0  0
   -1.1109   -3.1317   -0.1725 H   0  0  0  0  0  0  0  0  0  0  0  0
   -3.7663   -3.6910   -0.9998 H   0  0  0  0  0  0  0  0  0  0  0  0
   -2.4772   -3.1765   -2.0987 H   0  0  0  0  0  0  0  0  0  0  0  0
   -4.7046   -1.4666   -0.9659 H   0  0  0  0  0  0  0  0  0  0  0  0
   -3.8278   -1.3257   -2.5332 H   0  0  0  0  0  0  0  0  0  0  0  0
    2.4743   -3.3896    0.1715 H   0  0  0  0  0  0  0  0  0  0  0  0
    4.0693   -5.1194    0.7233 H   0  0  0  0  0  0  0  0  0  0  0  0
    6.0206   -4.6318    2.1734 H   0  0  0  0  0  0  0  0  0  0  0  0
    6.3203   -2.3734    3.1025 H   0  0  0  0  0  0  0  0  0  0  0  0
    5.0253    2.8007    2.5974 H   0  0  0  0  0  0  0  0  0  0  0  0
    3.8768    4.4053    1.1304 H   0  0  0  0  0  0  0  0  0  0  0  0
    2.1416    3.6140   -0.4528 H   0  0  0  0  0  0  0  0  0  0  0  0
    1.5506    1.2467   -0.5524 H   0  0  0  0  0  0  0  0  0  0  0  0
  1  2  2  0
  2  3  1  0
  3  4  1  0
  4  5  1  0
  5  6  2  0
  6  7  1  0
  7  8  2  0
  8  9  1  0
  9 10  2  0
 10 11  1  0
 10 12  1  0
 12 13  2  0
  6 14  1  0
 14 15  1  0
 15 16  1  0
 16 17  1  0
 17 18  1  0
  2 19  1  0
 19 20  1  0
 20 21  2  0
 21 22  1  0
 22 23  2  0
 23 24  1  0
 24 25  2  0
 25 26  1  0
 26 27  1  0
 27 28  2  0
 28 29  1  0
 29 30  2  0
 30 31  1  0
 31 32  2  0
 15  4  2  0
 32 19  1  0
 13  7  1  0
 18 14  1  0
 25 20  1  0
 32 27  1  0
  3 33  1  0
  3 34  1  0
  5 35  1  0
  8 36  1  0
  9 37  1  0
 12 38  1  0
 13 39  1  0
 16 40  1  0
 16 41  1  0
 17 42  1  0
 17 43  1  0
 18 44  1  0
 18 45  1  0
 21 46  1  0
 22 47  1  0
 23 48  1  0
 24 49  1  0
 28 50  1  0
 29 51  1  0
 30 52  1  0
 31 53  1  0
M  CHG  1   4   1
M  END
$$$$
