
     RDKit          3D

 57 62  0  0  0  0  0  0  0  0999 V2000
    7.7965   -3.4423   -0.7007 C   0  0  0  0  0  0  0  0  0  0  0  0
    6.5412   -3.7486   -0.1053 O   0  0  0  0  0  0  0  0  0  0  0  0
    5.5919   -2.7665   -0.1085 C   0  0  0  0  0  0  0  0  0  0  0  0
    5.7117   -1.5067   -0.6919 C   0  0  0  0  0  0  0  0  0  0  0  0
    4.6504   -0.5921   -0.6273 C   0  0  0  0  0  0  0  0  0  0  0  0
    3.4633   -0.9312    0.0237 C   0  0  0  0  0  0  0  0  0  0  0  0
    2.2627    0.0794    0.0945 C   0  0  0  0  0  0  0  0  0  0  0  0
    1.0182   -0.1594    0.6657 C   0  0  0  0  0  0  0  0  0  0  0  0
    0.2108    0.9621    0.4835 N   0  0  0  0  0  4  0  0  0  0  0  0
   -1.1824    1.1317    0.9288 C   0  0  0  0  0  0  0  0  0  0  0  0
   -2.1620    1.1940   -0.2579 C   0  0  0  0  0  0  0  0  0  0  0  0
   -1.8652    1.8221   -1.2755 O   0  0  0  0  0  0  0  0  0  0  0  0
   -3.3862    0.5621   -0.0073 N   0  0  0  0  0  0  0  0  0  0  0  0
   -3.4093   -0.8529    0.2715 C   0  0  0  0  0  0  0  0  0  0  0  0
   -2.3276   -1.6551   -0.1579 C   0  0  0  0  0  0  0  0  0  0  0  0
   -2.2892   -3.0297    0.0909 C   0  0  0  0  0  0  0  0  0  0  0  0
   -3.3390   -3.6381    0.7640 C   0  0  0  0  0  0  0  0  0  0  0  0
   -4.4286   -2.8727    1.1719 C   0  0  0  0  0  0  0  0  0  0  0  0
   -4.4765   -1.4912    0.9181 C   0  0  0  0  0  0  0  0  0  0  0  0
   -5.9023   -0.6176    1.4896 S   0  0  0  0  0  0  0  0  0  0  0  0
   -5.8315    0.8070    0.4335 C   0  0  0  0  0  0  0  0  0  0  0  0
   -7.0306    1.5288    0.2863 C   0  0  0  0  0  0  0  0  0  0  0  0
   -7.0683    2.7080   -0.4481 C   0  0  0  0  0  0  0  0  0  0  0  0
   -5.9029    3.1814   -1.0301 C   0  0  0  0  0  0  0  0  0  0  0  0
   -4.7034    2.4744   -0.8779 C   0  0  0  0  0  0  0  0  0  0  0  0
   -4.6384    1.2633   -0.1601 C   0  0  0  0  0  0  0  0  0  0  0  0
    0.9315    1.8695   -0.1722 C   0  0  0  0  0  0  0  0  0  0  0  0
    2.1532    1.3774   -0.3685 N   0  0  0  0  0  0  0  0  0  0  0  0
    3.0263    2.3456   -1.0185 C   0  0  0  0  0  0  0  0  0  0  0  0
    2.2448    3.6809   -0.8850 C   0  0  0  0  0  0  0  0  0  0  0  0
    0.7784    3.2571   -0.6727 C   0  0  0  0  0  0  0  0  0  0  0  0
    3.3413   -2.1967    0.6069 C   0  0  0  0  0  0  0  0  0  0  0  0
    4.4023   -3.1043    0.5378 C   0  0  0  0  0  0  0  0  0  0  0  0
    7.6840   -3.2450   -1.7721 H   0  0  0  0  0  0  0  0  0  0  0  0
    8.4454   -4.3175   -0.5894 H   0  0  0  0  0  0  0  0  0  0  0  0
    8.2797   -2.6003   -0.1937 H   0  0  0  0  0  0  0  0  0  0  0  0
    6.6170   -1.2074   -1.2126 H   0  0  0  0  0  0  0  0  0  0  0  0
    4.7878    0.3672   -1.1104 H   0  0  0  0  0  0  0  0  0  0  0  0
    0.5942   -1.0073    1.1774 H   0  0  0  0  0  0  0  0  0  0  0  0
   -1.4300    0.3376    1.6388 H   0  0  0  0  0  0  0  0  0  0  0  0
   -1.2492    2.0835    1.4671 H   0  0  0  0  0  0  0  0  0  0  0  0
   -1.5156   -1.2394   -0.7510 H   0  0  0  0  0  0  0  0  0  0  0  0
   -1.4561   -3.6322   -0.2657 H   0  0  0  0  0  0  0  0  0  0  0  0
   -3.3237   -4.7092    0.9551 H   0  0  0  0  0  0  0  0  0  0  0  0
   -5.2533   -3.3675    1.6844 H   0  0  0  0  0  0  0  0  0  0  0  0
   -7.9492    1.1763    0.7540 H   0  0  0  0  0  0  0  0  0  0  0  0
   -8.0026    3.2547   -0.5613 H   0  0  0  0  0  0  0  0  0  0  0  0
   -5.9221    4.1010   -1.6120 H   0  0  0  0  0  0  0  0  0  0  0  0
   -3.8387    2.8970   -1.3809 H   0  0  0  0  0  0  0  0  0  0  0  0
    3.1495    2.0611   -2.0671 H   0  0  0  0  0  0  0  0  0  0  0  0
    3.9917    2.4046   -0.5121 H   0  0  0  0  0  0  0  0  0  0  0  0
    2.5965    4.2110    0.0079 H   0  0  0  0  0  0  0  0  0  0  0  0
    2.3803    4.3413   -1.7455 H   0  0  0  0  0  0  0  0  0  0  0  0
    0.2362    3.2005   -1.6173 H   0  0  0  0  0  0  0  0  0  0  0  0
    0.2531    3.8543    0.0723 H   0  0  0  0  0  0  0  0  0  0  0  0
    2.4398   -2.5151    1.1210 H   0  0  0  0  0  0  0  0  0  0  0  0
    4.3047   -4.0889    0.9933 H   0  0  0  0  0  0  0  0  0  0  0  0
  1  2  1  0
  2  3  1  0
  3  4  2  0
  4  5  1  0
  5  6  2  0
  6  7  1  0
  7  8  2  0
  8  9  1  0
  9 10  1  0
 10 11  1  0
 11 12  2  0
 11 13  1  0
 13 14  1  0
 14 15  2  0
 15 16  1  0
 16 17  2  0
 17 18  1  0
 18 19  2  0
 19 20  1  0
 20 21  1  0
 21 22  2  0
 22 23  1  0
 23 24  2  0
 24 25  1  0
 25 26  2  0
  9 27  2  0
 27 28  1  0
 28 29  1  0
 29 30  1  0
 30 31  1  0
  6 32  1  0
 32 33  2  0
 33  3  1  0
 28  7  1  0
 26 13  1  0
 31 27  1  0
 19 14  1  0
 26 21  1  0
  1 34  1  0
  1 35  1  0
  1 36  1  0
  4 37  1  0
  5 38  1  0
  8 39  1  0
 10 40  1  0
 10 41  1  0
 15 42  1  0
 16 43  1  0
 17 44  1  0
 18 45  1  0
 22 46  1  0
 23 47  1  0
 24 48  1  0
 25 49  1  0
 29 50  1  0
 29 51  1  0
 30 52  1  0
 30 53  1  0
 31 54  1  0
 31 55  1  0
 32 56  1  0
 33 57  1  0
M  CHG  1   9   1
M  END
$$$$
