
     RDKit          3D

 52 55  0  0  0  0  0  0  0  0999 V2000
    8.1523   -1.9544    2.4616 C   0  0  0  0  0  0  0  0  0  0  0  0
    7.6464   -1.0142    1.5211 O   0  0  0  0  0  0  0  0  0  0  0  0
    6.2932   -0.8165    1.5205 C   0  0  0  0  0  0  0  0  0  0  0  0
    5.3692   -1.4433    2.3550 C   0  0  0  0  0  0  0  0  0  0  0  0
    4.0020   -1.1451    2.2543 C   0  0  0  0  0  0  0  0  0  0  0  0
    3.5438   -0.2197    1.3153 C   0  0  0  0  0  0  0  0  0  0  0  0
    2.1915    0.1377    1.1546 N   0  0  0  0  0  0  0  0  0  0  0  0
    1.0898   -0.3774    1.8218 C   0  0  0  0  0  0  0  0  0  0  0  0
    1.0997   -1.2524    2.6839 O   0  0  0  0  0  0  0  0  0  0  0  0
   -0.2089    0.3038    1.4233 C   0  0  0  0  0  0  0  0  0  0  0  0
   -0.5665    0.0028   -0.3298 S   0  0  0  0  0  0  0  0  0  0  0  0
   -2.0228    0.9840   -0.4565 C   0  0  0  0  0  0  0  0  0  0  0  0
   -1.8661    2.2432   -0.1725 N   0  0  0  0  0  0  0  0  0  0  0  0
   -2.9942    3.0072   -0.1792 C   0  0  0  0  0  0  0  0  0  0  0  0
   -4.2281    2.5519   -0.3921 C   0  0  0  0  0  0  0  0  0  0  0  0
   -4.4361    1.1180   -0.6728 C   0  0  0  0  0  0  0  0  0  0  0  0
   -5.5708    0.6664   -0.8190 O   0  0  0  0  0  0  0  0  0  0  0  0
   -3.2478    0.3813   -0.7588 N   0  0  0  0  0  0  0  0  0  0  0  0
   -3.3529   -0.9803   -1.1883 C   0  0  0  0  0  0  0  0  0  0  0  0
   -4.1173   -1.8815   -0.4317 C   0  0  0  0  0  0  0  0  0  0  0  0
   -4.2226   -3.2163   -0.8189 C   0  0  0  0  0  0  0  0  0  0  0  0
   -3.5756   -3.6570   -1.9695 C   0  0  0  0  0  0  0  0  0  0  0  0
   -2.8399   -2.7625   -2.7507 C   0  0  0  0  0  0  0  0  0  0  0  0
   -2.7345   -1.4169   -2.3802 C   0  0  0  0  0  0  0  0  0  0  0  0
   -2.1057   -0.4512   -3.1285 O   0  0  0  0  0  0  0  0  0  0  0  0
   -1.4757   -0.8660   -4.3332 C   0  0  0  0  0  0  0  0  0  0  0  0
   -5.4751    3.7289   -0.3012 S   0  0  0  0  0  0  0  0  0  0  0  0
   -4.2582    5.0943   -0.3009 C   0  0  0  0  0  0  0  0  0  0  0  0
   -2.9177    4.4766    0.1110 C   0  0  0  0  0  0  0  0  0  0  0  0
    4.4743    0.4076    0.4799 C   0  0  0  0  0  0  0  0  0  0  0  0
    5.8369    0.1095    0.5838 C   0  0  0  0  0  0  0  0  0  0  0  0
    7.7810   -2.9613    2.2447 H   0  0  0  0  0  0  0  0  0  0  0  0
    7.9172   -1.6561    3.4907 H   0  0  0  0  0  0  0  0  0  0  0  0
    9.2429   -1.9707    2.3650 H   0  0  0  0  0  0  0  0  0  0  0  0
    5.6690   -2.1686    3.1055 H   0  0  0  0  0  0  0  0  0  0  0  0
    3.3217   -1.6590    2.9285 H   0  0  0  0  0  0  0  0  0  0  0  0
    1.9887    0.8052    0.4181 H   0  0  0  0  0  0  0  0  0  0  0  0
   -0.1143    1.3739    1.6323 H   0  0  0  0  0  0  0  0  0  0  0  0
   -1.0231   -0.0974    2.0344 H   0  0  0  0  0  0  0  0  0  0  0  0
   -4.6310   -1.5513    0.4679 H   0  0  0  0  0  0  0  0  0  0  0  0
   -4.8127   -3.9102   -0.2277 H   0  0  0  0  0  0  0  0  0  0  0  0
   -3.6579   -4.6994   -2.2697 H   0  0  0  0  0  0  0  0  0  0  0  0
   -2.3739   -3.1471   -3.6516 H   0  0  0  0  0  0  0  0  0  0  0  0
   -2.2057   -1.2721   -5.0401 H   0  0  0  0  0  0  0  0  0  0  0  0
   -0.6734   -1.5835   -4.1326 H   0  0  0  0  0  0  0  0  0  0  0  0
   -1.0226    0.0178   -4.7943 H   0  0  0  0  0  0  0  0  0  0  0  0
   -4.1962    5.5011   -1.3174 H   0  0  0  0  0  0  0  0  0  0  0  0
   -4.5635    5.8973    0.3771 H   0  0  0  0  0  0  0  0  0  0  0  0
   -2.7377    4.6303    1.1814 H   0  0  0  0  0  0  0  0  0  0  0  0
   -2.0980    4.9560   -0.4360 H   0  0  0  0  0  0  0  0  0  0  0  0
    4.1592    1.1337   -0.2640 H   0  0  0  0  0  0  0  0  0  0  0  0
    6.5476    0.6031   -0.0743 H   0  0  0  0  0  0  0  0  0  0  0  0
  1  2  1  0
  2  3  1  0
  3  4  2  0
  4  5  1  0
  5  6  2  0
  6  7  1  0
  7  8  1  0
  8  9  2  0
  8 10  1  0
 10 11  1  0
 11 12  1  0
 12 13  2  0
 13 14  1  0
 14 15  2  0
 15 16  1  0
 16 17  2  0
 16 18  1  0
 18 19  1  0
 19 20  2  0
 20 21  1  0
 21 22  2  0
 22 23  1  0
 23 24  2  0
 24 25  1  0
 25 26  1  0
 15 27  1  0
 27 28  1  0
 28 29  1  0
  6 30  1  0
 30 31  2  0
 31  3  1  0
 18 12  1  0
 24 19  1  0
 29 14  1  0
  1 32  1  0
  1 33  1  0
  1 34  1  0
  4 35  1  0
  5 36  1  0
  7 37  1  0
 10 38  1  0
 10 39  1  0
 20 40  1  0
 21 41  1  0
 22 42  1  0
 23 43  1  0
 26 44  1  0
 26 45  1  0
 26 46  1  0
 28 47  1  0
 28 48  1  0
 29 49  1  0
 29 50  1  0
 30 51  1  0
 31 52  1  0
M  END
$$$$
