
     RDKit          3D

 42 46  0  0  0  0  0  0  0  0999 V2000
    1.4852    0.0899    1.8423 O   0  0  0  0  0  0  0  0  0  0  0  0
    1.9504   -0.1111    0.7245 C   0  0  0  0  0  0  0  0  0  0  0  0
    1.2282   -0.4403   -0.3996 O   0  0  0  0  0  0  0  0  0  0  0  0
   -0.1633   -0.4012   -0.2057 C   0  0  0  0  0  0  0  0  0  0  0  0
   -0.8870    0.7475   -0.2267 C   0  0  0  0  0  0  0  0  0  0  0  0
   -0.2198    2.0476   -0.4455 C   0  0  0  0  0  0  0  0  0  0  0  0
    0.4137    2.3327   -1.6639 C   0  0  0  0  0  0  0  0  0  0  0  0
    1.0688    3.5513   -1.8525 C   0  0  0  0  0  0  0  0  0  0  0  0
    1.0944    4.4954   -0.8276 C   0  0  0  0  0  0  0  0  0  0  0  0
    0.4643    4.2237    0.3855 C   0  0  0  0  0  0  0  0  0  0  0  0
   -0.1903    3.0052    0.5764 C   0  0  0  0  0  0  0  0  0  0  0  0
   -2.3902    0.7094   -0.0017 C   0  0  0  0  0  0  0  0  0  0  0  0
   -3.0705    1.7323    0.0139 O   0  0  0  0  0  0  0  0  0  0  0  0
   -2.9301   -0.5378    0.1726 N   0  0  0  0  0  0  0  0  0  0  0  0
   -2.1756   -1.6951    0.1481 C   0  0  0  0  0  0  0  0  0  0  0  0
   -2.9625   -2.8202    0.3306 C   0  0  0  0  0  0  0  0  0  0  0  0
   -2.3661   -4.0649    0.3257 C   0  0  0  0  0  0  0  0  0  0  0  0
   -0.9766   -4.1315    0.1325 C   0  0  0  0  0  0  0  0  0  0  0  0
   -0.2021   -2.9639   -0.0502 C   0  0  0  0  0  0  0  0  0  0  0  0
   -0.8106   -1.7087   -0.0410 C   0  0  0  0  0  0  0  0  0  0  0  0
   -4.3967   -2.4234    0.5062 C   0  0  0  0  0  0  0  0  0  0  0  0
   -4.3340   -0.8791    0.3930 C   0  0  0  0  0  0  0  0  0  0  0  0
    3.3576   -0.0556    0.4003 C   0  0  0  0  0  0  0  0  0  0  0  0
    4.4508    0.2593    1.1880 C   0  0  0  0  0  0  0  0  0  0  0  0
    5.5956    0.1584    0.3618 C   0  0  0  0  0  0  0  0  0  0  0  0
    5.1381   -0.2130   -0.8795 C   0  0  0  0  0  0  0  0  0  0  0  0
    3.7876   -0.3482   -0.8690 O   0  0  0  0  0  0  0  0  0  0  0  0
    0.4013    1.6075   -2.4745 H   0  0  0  0  0  0  0  0  0  0  0  0
    1.5562    3.7642   -2.8003 H   0  0  0  0  0  0  0  0  0  0  0  0
    1.6009    5.4456   -0.9756 H   0  0  0  0  0  0  0  0  0  0  0  0
    0.4780    4.9607    1.1842 H   0  0  0  0  0  0  0  0  0  0  0  0
   -0.6777    2.8071    1.5290 H   0  0  0  0  0  0  0  0  0  0  0  0
   -2.9482   -4.9702    0.4657 H   0  0  0  0  0  0  0  0  0  0  0  0
   -0.4842   -5.1024    0.1236 H   0  0  0  0  0  0  0  0  0  0  0  0
    0.8705   -3.0604   -0.1983 H   0  0  0  0  0  0  0  0  0  0  0  0
   -5.0253   -2.8475   -0.2827 H   0  0  0  0  0  0  0  0  0  0  0  0
   -4.7758   -2.7283    1.4863 H   0  0  0  0  0  0  0  0  0  0  0  0
   -4.9300   -0.5052   -0.4468 H   0  0  0  0  0  0  0  0  0  0  0  0
   -4.6826   -0.3868    1.3075 H   0  0  0  0  0  0  0  0  0  0  0  0
    4.4115    0.5320    2.2344 H   0  0  0  0  0  0  0  0  0  0  0  0
    6.6261    0.3362    0.6361 H   0  0  0  0  0  0  0  0  0  0  0  0
    5.6201   -0.4113   -1.8271 H   0  0  0  0  0  0  0  0  0  0  0  0
  1  2  2  0
  2  3  1  0
  3  4  1  0
  4  5  2  0
  5  6  1  0
  6  7  2  0
  7  8  1  0
  8  9  2  0
  9 10  1  0
 10 11  2  0
  5 12  1  0
 12 13  2  0
 12 14  1  0
 14 15  1  0
 15 16  2  0
 16 17  1  0
 17 18  2  0
 18 19  1  0
 19 20  2  0
 16 21  1  0
 21 22  1  0
  2 23  1  0
 23 24  2  0
 24 25  1  0
 25 26  2  0
 26 27  1  0
 20  4  1  0
 27 23  1  0
 11  6  1  0
 22 14  1  0
 20 15  1  0
  7 28  1  0
  8 29  1  0
  9 30  1  0
 10 31  1  0
 11 32  1  0
 17 33  1  0
 18 34  1  0
 19 35  1  0
 21 36  1  0
 21 37  1  0
 22 38  1  0
 22 39  1  0
 24 40  1  0
 25 41  1  0
 26 42  1  0
M  END
$$$$
