
     RDKit          3D

 55 60  0  0  0  0  0  0  0  0999 V2000
    4.5205   -1.8631    0.8637 O   0  0  0  0  0  0  0  0  0  0  0  0
    4.1423   -0.7150    1.0889 C   0  0  0  0  0  0  0  0  0  0  0  0
    5.1091    0.3738    1.0752 C   0  0  0  0  0  0  0  0  0  0  0  0
    6.2557    0.4904    0.2332 C   0  0  0  0  0  0  0  0  0  0  0  0
    6.8959    1.6515    0.5936 C   0  0  0  0  0  0  0  0  0  0  0  0
    6.2427    2.2490    1.6216 O   0  0  0  0  0  0  0  0  0  0  0  0
    5.1794    1.4602    1.9242 C   0  0  0  0  0  0  0  0  0  0  0  0
    2.7963   -0.4208    1.3455 N   0  0  0  0  0  0  0  0  0  0  0  0
    2.2150    0.9097    1.1817 C   0  0  0  0  0  0  0  0  0  0  0  0
    0.7140    0.8666    0.8785 C   0  0  0  0  0  0  0  0  0  0  0  0
    0.3884   -0.1808   -0.2175 C   0  0  0  0  0  0  0  0  0  0  0  0
    0.9672   -1.5777    0.1791 C   0  0  0  0  0  0  0  0  0  0  0  0
    1.8535   -1.5258    1.4226 C   0  0  0  0  0  0  0  0  0  0  0  0
    1.1431    0.1776   -1.4090 O   0  0  0  0  0  0  0  0  0  0  0  0
    0.6143    1.1081   -2.2520 C   0  0  0  0  0  0  0  0  0  0  0  0
    1.4720    1.5953   -3.2399 C   0  0  0  0  0  0  0  0  0  0  0  0
    1.0259    2.5708   -4.1334 C   0  0  0  0  0  0  0  0  0  0  0  0
   -0.2762    3.0507   -4.0335 C   0  0  0  0  0  0  0  0  0  0  0  0
   -0.6982    3.9906   -4.8885 F   0  0  0  0  0  0  0  0  0  0  0  0
   -1.1443    2.5687   -3.0631 C   0  0  0  0  0  0  0  0  0  0  0  0
   -0.6913    1.5847   -2.1811 C   0  0  0  0  0  0  0  0  0  0  0  0
   -1.5827    1.0370   -1.1515 C   0  0  0  0  0  0  0  0  0  0  0  0
   -2.6065    1.6420   -0.8449 O   0  0  0  0  0  0  0  0  0  0  0  0
   -1.1344   -0.2716   -0.5130 C   0  0  0  0  0  0  0  0  0  0  0  0
   -1.9985   -0.6229    0.6907 C   0  0  0  0  0  0  0  0  0  0  0  0
   -2.9742   -1.5261    0.0152 C   0  0  0  0  0  0  0  0  0  0  0  0
   -4.2340   -1.9570    0.6666 C   0  0  0  0  0  0  0  0  0  0  0  0
   -4.5449   -1.5884    1.9809 C   0  0  0  0  0  0  0  0  0  0  0  0
   -5.7423   -2.0174    2.5640 C   0  0  0  0  0  0  0  0  0  0  0  0
   -6.6261   -2.8136    1.8367 C   0  0  0  0  0  0  0  0  0  0  0  0
   -8.0955   -3.3385    2.5599 Cl  0  0  0  0  0  0  0  0  0  0  0  0
   -6.3245   -3.1865    0.5293 C   0  0  0  0  0  0  0  0  0  0  0  0
   -5.1291   -2.7590   -0.0552 C   0  0  0  0  0  0  0  0  0  0  0  0
   -2.6162   -1.9272   -1.1629 N   0  0  0  0  0  0  0  0  0  0  0  0
   -1.3803   -1.3170   -1.4676 O   0  0  0  0  0  0  0  0  0  0  0  0
    6.5640   -0.1994   -0.5408 H   0  0  0  0  0  0  0  0  0  0  0  0
    7.7864    2.1569    0.2460 H   0  0  0  0  0  0  0  0  0  0  0  0
    4.5887    1.7946    2.7651 H   0  0  0  0  0  0  0  0  0  0  0  0
    2.7404    1.4376    0.3782 H   0  0  0  0  0  0  0  0  0  0  0  0
    2.3705    1.4634    2.1130 H   0  0  0  0  0  0  0  0  0  0  0  0
    0.4041    1.8740    0.5776 H   0  0  0  0  0  0  0  0  0  0  0  0
    0.1657    0.6346    1.7996 H   0  0  0  0  0  0  0  0  0  0  0  0
    0.1764   -2.3107    0.3717 H   0  0  0  0  0  0  0  0  0  0  0  0
    1.5572   -1.9848   -0.6531 H   0  0  0  0  0  0  0  0  0  0  0  0
    1.2443   -1.3782    2.3226 H   0  0  0  0  0  0  0  0  0  0  0  0
    2.3673   -2.4839    1.5532 H   0  0  0  0  0  0  0  0  0  0  0  0
    2.4899    1.2188   -3.3119 H   0  0  0  0  0  0  0  0  0  0  0  0
    1.6844    2.9591   -4.9047 H   0  0  0  0  0  0  0  0  0  0  0  0
   -2.1593    2.9512   -3.0093 H   0  0  0  0  0  0  0  0  0  0  0  0
   -2.4745    0.2379    1.1655 H   0  0  0  0  0  0  0  0  0  0  0  0
   -1.4690   -1.2041    1.4514 H   0  0  0  0  0  0  0  0  0  0  0  0
   -3.8771   -0.9707    2.5735 H   0  0  0  0  0  0  0  0  0  0  0  0
   -5.9804   -1.7269    3.5843 H   0  0  0  0  0  0  0  0  0  0  0  0
   -7.0110   -3.8067   -0.0413 H   0  0  0  0  0  0  0  0  0  0  0  0
   -4.9039   -3.0551   -1.0786 H   0  0  0  0  0  0  0  0  0  0  0  0
  1  2  2  0
  2  3  1  0
  3  4  1  0
  4  5  2  0
  5  6  1  0
  6  7  1  0
  2  8  1  0
  8  9  1  0
  9 10  1  0
 10 11  1  0
 11 12  1  0
 12 13  1  0
 11 14  1  0
 14 15  1  0
 15 16  2  0
 16 17  1  0
 17 18  2  0
 18 19  1  0
 18 20  1  0
 20 21  2  0
 21 22  1  0
 22 23  2  0
 22 24  1  0
 24 25  1  0
 25 26  1  0
 26 27  1  0
 27 28  2  0
 28 29  1  0
 29 30  2  0
 30 31  1  0
 30 32  1  0
 32 33  2  0
 26 34  2  0
 34 35  1  0
  7  3  2  0
 13  8  1  0
 21 15  1  0
 35 24  1  0
 24 11  1  0
 33 27  1  0
  4 36  1  0
  5 37  1  0
  7 38  1  0
  9 39  1  0
  9 40  1  0
 10 41  1  0
 10 42  1  0
 12 43  1  0
 12 44  1  0
 13 45  1  0
 13 46  1  0
 16 47  1  0
 17 48  1  0
 20 49  1  0
 25 50  1  0
 25 51  1  0
 28 52  1  0
 29 53  1  0
 32 54  1  0
 33 55  1  0
M  END
$$$$
