
     RDKit          3D

 44 46  0  0  0  0  0  0  0  0999 V2000
   -6.9455    0.5718    0.7803 C   0  0  0  0  0  0  0  0  0  0  0  0
   -5.5503    0.3593    0.2692 C   0  0  0  0  0  0  0  0  0  0  0  0
   -5.3357    0.0028   -1.0707 C   0  0  0  0  0  0  0  0  0  0  0  0
   -4.0380   -0.1452   -1.5812 C   0  0  0  0  0  0  0  0  0  0  0  0
   -3.8451   -0.4927   -3.0311 C   0  0  0  0  0  0  0  0  0  0  0  0
   -2.9484    0.0380   -0.7148 C   0  0  0  0  0  0  0  0  0  0  0  0
   -1.6772   -0.0472   -1.2190 O   0  0  0  0  0  0  0  0  0  0  0  0
   -1.1332   -1.3677   -1.0729 C   0  0  0  0  0  0  0  0  0  0  0  0
    0.3951   -1.2789   -0.9573 C   0  0  0  0  0  0  0  0  0  0  0  0
    1.0774   -2.2919   -0.8437 O   0  0  0  0  0  0  0  0  0  0  0  0
    0.8375    0.0267   -0.9910 N   0  0  0  0  0  0  0  0  0  0  0  0
    2.1022    0.4207   -0.6673 C   0  0  0  0  0  0  0  0  0  0  0  0
    3.1694   -0.2843   -0.3969 N   0  0  0  0  0  0  0  0  0  0  0  0
    4.1714    0.5741    0.0441 C   0  0  0  0  0  0  0  0  0  0  0  0
    5.4730    0.1099    0.4998 C   0  0  0  0  0  0  0  0  0  0  0  0
    6.1800   -0.8480   -0.2271 C   0  0  0  0  0  0  0  0  0  0  0  0
    7.4627   -1.1854    0.1987 C   0  0  0  0  0  0  0  0  0  0  0  0
    7.9842   -0.5808    1.3433 C   0  0  0  0  0  0  0  0  0  0  0  0
    7.2056    0.3561    2.0092 C   0  0  0  0  0  0  0  0  0  0  0  0
    5.9746    0.7324    1.6023 N   0  0  0  0  0  0  0  0  0  0  0  0
    3.8583    1.9241   -0.0011 C   0  0  0  0  0  0  0  0  0  0  0  0
    2.2543    2.1242   -0.5574 S   0  0  0  0  0  0  0  0  0  0  0  0
   -3.1375    0.4324    0.6218 C   0  0  0  0  0  0  0  0  0  0  0  0
   -1.9930    0.6601    1.5675 C   0  0  0  0  0  0  0  0  0  0  0  0
   -4.4474    0.5791    1.1032 C   0  0  0  0  0  0  0  0  0  0  0  0
   -7.3099    1.5562    0.4694 H   0  0  0  0  0  0  0  0  0  0  0  0
   -7.6196   -0.1965    0.3913 H   0  0  0  0  0  0  0  0  0  0  0  0
   -6.9834    0.5166    1.8743 H   0  0  0  0  0  0  0  0  0  0  0  0
   -6.1922   -0.1402   -1.7280 H   0  0  0  0  0  0  0  0  0  0  0  0
   -3.0969    0.1637   -3.4855 H   0  0  0  0  0  0  0  0  0  0  0  0
   -3.5307   -1.5350   -3.1392 H   0  0  0  0  0  0  0  0  0  0  0  0
   -4.7725   -0.3597   -3.5995 H   0  0  0  0  0  0  0  0  0  0  0  0
   -1.3741   -1.9541   -1.9676 H   0  0  0  0  0  0  0  0  0  0  0  0
   -1.5069   -1.8750   -0.1735 H   0  0  0  0  0  0  0  0  0  0  0  0
    0.1421    0.7567   -1.0798 H   0  0  0  0  0  0  0  0  0  0  0  0
    5.7589   -1.2855   -1.1316 H   0  0  0  0  0  0  0  0  0  0  0  0
    8.0630   -1.8951   -0.3714 H   0  0  0  0  0  0  0  0  0  0  0  0
    8.9791   -0.8241    1.7001 H   0  0  0  0  0  0  0  0  0  0  0  0
    7.5701    0.8584    2.9040 H   0  0  0  0  0  0  0  0  0  0  0  0
    4.4879    2.7696    0.2555 H   0  0  0  0  0  0  0  0  0  0  0  0
   -1.0787    0.9361    1.0359 H   0  0  0  0  0  0  0  0  0  0  0  0
   -2.2171    1.4829    2.2572 H   0  0  0  0  0  0  0  0  0  0  0  0
   -1.8040   -0.2471    2.1533 H   0  0  0  0  0  0  0  0  0  0  0  0
   -4.6096    0.8825    2.1388 H   0  0  0  0  0  0  0  0  0  0  0  0
  1  2  1  0
  2  3  2  0
  3  4  1  0
  4  5  1  0
  4  6  2  0
  6  7  1  0
  7  8  1  0
  8  9  1  0
  9 10  2  0
  9 11  1  0
 11 12  1  0
 12 13  2  0
 13 14  1  0
 14 15  1  0
 15 16  2  0
 16 17  1  0
 17 18  2  0
 18 19  1  0
 19 20  2  0
 14 21  2  0
 21 22  1  0
  6 23  1  0
 23 24  1  0
 23 25  2  0
 25  2  1  0
 22 12  1  0
 20 15  1  0
  1 26  1  0
  1 27  1  0
  1 28  1  0
  3 29  1  0
  5 30  1  0
  5 31  1  0
  5 32  1  0
  8 33  1  0
  8 34  1  0
 11 35  1  0
 16 36  1  0
 17 37  1  0
 18 38  1  0
 19 39  1  0
 21 40  1  0
 24 41  1  0
 24 42  1  0
 24 43  1  0
 25 44  1  0
M  END
$$$$
