
     RDKit          3D

 44 45  0  0  0  0  0  0  0  0999 V2000
    8.6805    0.6740    0.0330 C   0  0  0  0  0  0  0  0  0  0  0  0
    7.6440    1.6413    0.5740 C   0  0  0  0  0  0  0  0  0  0  0  0
    6.3293    1.2052    0.1963 O   0  0  0  0  0  0  0  0  0  0  0  0
    5.7098    0.3757    1.0704 C   0  0  0  0  0  0  0  0  0  0  0  0
    6.1594   -0.0134    2.1373 O   0  0  0  0  0  0  0  0  0  0  0  0
    4.3660   -0.0129    0.5579 C   0  0  0  0  0  0  0  0  0  0  0  0
    3.5600   -0.8267    1.3709 C   0  0  0  0  0  0  0  0  0  0  0  0
    2.2939   -1.2285    0.9371 C   0  0  0  0  0  0  0  0  0  0  0  0
    1.8308   -0.8126   -0.3139 C   0  0  0  0  0  0  0  0  0  0  0  0
    0.2449   -1.3618   -0.8908 S   0  0  0  0  0  6  0  0  0  0  0  0
    0.2574   -1.3640   -2.3343 O   0  0  0  0  0  0  0  0  0  0  0  0
   -0.1512   -2.5179   -0.1110 O   0  0  0  0  0  0  0  0  0  0  0  0
   -0.7602   -0.0479   -0.3803 N   0  0  0  0  0  0  0  0  0  0  0  0
   -2.0382   -0.5310    0.0922 N   0  0  0  0  0  0  0  0  0  0  0  0
   -3.1390   -0.7616   -1.2279 S   0  0  0  0  0  6  0  0  0  0  0  0
   -3.1667   -2.1754   -1.5182 O   0  0  0  0  0  0  0  0  0  0  0  0
   -2.7964    0.2306   -2.2289 O   0  0  0  0  0  0  0  0  0  0  0  0
   -4.6696   -0.3014   -0.4686 C   0  0  0  0  0  0  0  0  0  0  0  0
   -5.0767    1.0339   -0.4873 C   0  0  0  0  0  0  0  0  0  0  0  0
   -6.2925    1.3904    0.0974 C   0  0  0  0  0  0  0  0  0  0  0  0
   -7.1109    0.4151    0.6840 C   0  0  0  0  0  0  0  0  0  0  0  0
   -8.4036    0.8108    1.3359 C   0  0  0  0  0  0  0  0  0  0  0  0
   -6.6888   -0.9204    0.6953 C   0  0  0  0  0  0  0  0  0  0  0  0
   -5.4739   -1.2836    0.1124 C   0  0  0  0  0  0  0  0  0  0  0  0
    2.6281   -0.0139   -1.1402 C   0  0  0  0  0  0  0  0  0  0  0  0
    3.8927    0.3901   -0.6999 C   0  0  0  0  0  0  0  0  0  0  0  0
    8.5841    0.5777   -1.0537 H   0  0  0  0  0  0  0  0  0  0  0  0
    9.6922    1.0171    0.2673 H   0  0  0  0  0  0  0  0  0  0  0  0
    8.5433   -0.3258    0.4573 H   0  0  0  0  0  0  0  0  0  0  0  0
    7.7355    1.7587    1.6604 H   0  0  0  0  0  0  0  0  0  0  0  0
    7.7931    2.6315    0.1288 H   0  0  0  0  0  0  0  0  0  0  0  0
    3.9224   -1.1604    2.3428 H   0  0  0  0  0  0  0  0  0  0  0  0
    1.6869   -1.8678    1.5749 H   0  0  0  0  0  0  0  0  0  0  0  0
   -0.8789    0.5778   -1.1980 H   0  0  0  0  0  0  0  0  0  0  0  0
   -1.9408   -1.4501    0.5612 H   0  0  0  0  0  0  0  0  0  0  0  0
   -4.4597    1.7989   -0.9523 H   0  0  0  0  0  0  0  0  0  0  0  0
   -6.6058    2.4312    0.0846 H   0  0  0  0  0  0  0  0  0  0  0  0
   -8.9105    1.5846    0.7500 H   0  0  0  0  0  0  0  0  0  0  0  0
   -8.2111    1.1932    2.3427 H   0  0  0  0  0  0  0  0  0  0  0  0
   -9.0865   -0.0423    1.4102 H   0  0  0  0  0  0  0  0  0  0  0  0
   -7.3092   -1.6888    1.1545 H   0  0  0  0  0  0  0  0  0  0  0  0
   -5.1677   -2.3275    0.1167 H   0  0  0  0  0  0  0  0  0  0  0  0
    2.2807    0.2910   -2.1263 H   0  0  0  0  0  0  0  0  0  0  0  0
    4.5032    1.0069   -1.3546 H   0  0  0  0  0  0  0  0  0  0  0  0
  1  2  1  0
  2  3  1  0
  3  4  1  0
  4  5  2  0
  4  6  1  0
  6  7  2  0
  7  8  1  0
  8  9  2  0
  9 10  1  0
 10 11  2  0
 10 12  2  0
 10 13  1  0
 13 14  1  0
 14 15  1  0
 15 16  2  0
 15 17  2  0
 15 18  1  0
 18 19  2  0
 19 20  1  0
 20 21  2  0
 21 22  1  0
 21 23  1  0
 23 24  2  0
  9 25  1  0
 25 26  2  0
 26  6  1  0
 24 18  1  0
  1 27  1  0
  1 28  1  0
  1 29  1  0
  2 30  1  0
  2 31  1  0
  7 32  1  0
  8 33  1  0
 13 34  1  0
 14 35  1  0
 19 36  1  0
 20 37  1  0
 22 38  1  0
 22 39  1  0
 22 40  1  0
 23 41  1  0
 24 42  1  0
 25 43  1  0
 26 44  1  0
M  END
$$$$
