
     RDKit          3D

 51 55  0  0  0  0  0  0  0  0999 V2000
   -8.2292   -1.6707    0.8612 F   0  0  0  0  0  0  0  0  0  0  0  0
   -7.5213   -0.5777    0.5468 C   0  0  0  0  0  0  0  0  0  0  0  0
   -8.1191    0.6735    0.6369 C   0  0  0  0  0  0  0  0  0  0  0  0
   -7.3810    1.8104    0.3136 C   0  0  0  0  0  0  0  0  0  0  0  0
   -6.0513    1.6854   -0.0981 C   0  0  0  0  0  0  0  0  0  0  0  0
   -5.4489    0.4217   -0.1941 C   0  0  0  0  0  0  0  0  0  0  0  0
   -4.0052    0.2909   -0.6203 C   0  0  0  0  0  0  0  0  0  0  0  0
   -3.0560    0.2929    0.5899 C   0  0  0  0  0  0  0  0  0  0  0  0
   -1.6337    0.3016    0.2176 N   0  0  0  0  0  0  0  0  0  0  0  0
   -0.7803    0.6337    1.3837 C   0  0  0  0  0  0  0  0  0  0  0  0
    0.6025   -0.0606    1.4289 C   0  0  0  0  0  0  0  0  0  0  0  0
    1.1738   -0.1658    0.0854 N   0  0  0  0  0  0  0  0  0  0  0  0
    2.5520   -0.2181   -0.0889 C   0  0  0  0  0  0  0  0  0  0  0  0
    3.0688   -1.2263   -0.7467 N   0  0  0  0  0  0  0  0  0  0  0  0
    4.4633   -1.3392   -0.9108 C   0  0  0  0  0  0  0  0  0  0  0  0
    4.9618   -2.4437   -1.6044 C   0  0  0  0  0  0  0  0  0  0  0  0
    6.3373   -2.6119   -1.7852 C   0  0  0  0  0  0  0  0  0  0  0  0
    7.2312   -1.6721   -1.2708 C   0  0  0  0  0  0  0  0  0  0  0  0
    6.7557   -0.5601   -0.5748 C   0  0  0  0  0  0  0  0  0  0  0  0
    5.3770   -0.4060   -0.4015 C   0  0  0  0  0  0  0  0  0  0  0  0
    4.8123    0.6895    0.2710 N   0  0  0  0  0  0  0  0  0  0  0  0
    5.4286    1.7748    0.8481 C   0  0  0  0  0  0  0  0  0  0  0  0
    4.4510    2.6293    1.3101 C   0  0  0  0  0  0  0  0  0  0  0  0
    3.2025    2.0328    1.0187 C   0  0  0  0  0  0  0  0  0  0  0  0
    3.4482    0.8113    0.4162 C   0  0  0  0  0  0  0  0  0  0  0  0
    0.3056   -0.8827   -0.8692 C   0  0  0  0  0  0  0  0  0  0  0  0
   -1.1760   -0.9449   -0.4164 C   0  0  0  0  0  0  0  0  0  0  0  0
   -6.1983   -0.7145    0.1380 C   0  0  0  0  0  0  0  0  0  0  0  0
   -9.1524    0.7541    0.9580 H   0  0  0  0  0  0  0  0  0  0  0  0
   -7.8388    2.7940    0.3816 H   0  0  0  0  0  0  0  0  0  0  0  0
   -5.4856    2.5822   -0.3452 H   0  0  0  0  0  0  0  0  0  0  0  0
   -3.7516    1.1145   -1.3002 H   0  0  0  0  0  0  0  0  0  0  0  0
   -3.8983   -0.6302   -1.2050 H   0  0  0  0  0  0  0  0  0  0  0  0
   -3.2679    1.1981    1.1755 H   0  0  0  0  0  0  0  0  0  0  0  0
   -3.2766   -0.5605    1.2452 H   0  0  0  0  0  0  0  0  0  0  0  0
   -1.2879    0.3995    2.3288 H   0  0  0  0  0  0  0  0  0  0  0  0
   -0.6267    1.7197    1.3694 H   0  0  0  0  0  0  0  0  0  0  0  0
    0.4947   -1.0708    1.8453 H   0  0  0  0  0  0  0  0  0  0  0  0
    1.2497    0.4863    2.1207 H   0  0  0  0  0  0  0  0  0  0  0  0
    4.2680   -3.1781   -2.0046 H   0  0  0  0  0  0  0  0  0  0  0  0
    6.7087   -3.4774   -2.3280 H   0  0  0  0  0  0  0  0  0  0  0  0
    8.3006   -1.8066   -1.4149 H   0  0  0  0  0  0  0  0  0  0  0  0
    7.4693    0.1591   -0.1873 H   0  0  0  0  0  0  0  0  0  0  0  0
    6.5039    1.8747    0.8698 H   0  0  0  0  0  0  0  0  0  0  0  0
    4.6208    3.5842    1.7906 H   0  0  0  0  0  0  0  0  0  0  0  0
    2.2260    2.4515    1.2223 H   0  0  0  0  0  0  0  0  0  0  0  0
    0.6537   -1.9116   -1.0195 H   0  0  0  0  0  0  0  0  0  0  0  0
    0.3632   -0.3635   -1.8335 H   0  0  0  0  0  0  0  0  0  0  0  0
   -1.3043   -1.7845    0.2801 H   0  0  0  0  0  0  0  0  0  0  0  0
   -1.7736   -1.1789   -1.3037 H   0  0  0  0  0  0  0  0  0  0  0  0
   -5.7661   -1.7090    0.0814 H   0  0  0  0  0  0  0  0  0  0  0  0
  1  2  1  0
  2  3  2  0
  3  4  1  0
  4  5  2  0
  5  6  1  0
  6  7  1  0
  7  8  1  0
  8  9  1  0
  9 10  1  0
 10 11  1  0
 11 12  1  0
 12 13  1  0
 13 14  2  0
 14 15  1  0
 15 16  2  0
 16 17  1  0
 17 18  2  0
 18 19  1  0
 19 20  2  0
 20 21  1  0
 21 22  1  0
 22 23  2  0
 23 24  1  0
 24 25  2  0
 12 26  1  0
 26 27  1  0
  6 28  2  0
 28  2  1  0
 27  9  1  0
 25 13  1  0
 20 15  1  0
 25 21  1  0
  3 29  1  0
  4 30  1  0
  5 31  1  0
  7 32  1  0
  7 33  1  0
  8 34  1  0
  8 35  1  0
 10 36  1  0
 10 37  1  0
 11 38  1  0
 11 39  1  0
 16 40  1  0
 17 41  1  0
 18 42  1  0
 19 43  1  0
 22 44  1  0
 23 45  1  0
 24 46  1  0
 26 47  1  0
 26 48  1  0
 27 49  1  0
 27 50  1  0
 28 51  1  0
M  END
$$$$
