
     RDKit          3D

 74 75  0  0  0  0  0  0  0  0999 V2000
   -0.7821    5.9018    3.7063 C   0  0  0  0  0  0  0  0  0  0  0  0
   -0.7698    4.8280    2.7728 O   0  0  0  0  0  0  0  0  0  0  0  0
   -0.8130    3.5513    3.2749 C   0  0  0  0  0  0  0  0  0  0  0  0
   -0.5379    3.2416    4.6066 C   0  0  0  0  0  0  0  0  0  0  0  0
   -0.6702    1.9343    5.0635 C   0  0  0  0  0  0  0  0  0  0  0  0
   -1.0712    0.9258    4.1909 C   0  0  0  0  0  0  0  0  0  0  0  0
   -1.3093    1.1801    2.8205 C   0  0  0  0  0  0  0  0  0  0  0  0
   -1.8540    0.0420    1.9342 C   0  0  0  0  0  0  0  0  0  0  0  0
   -1.5405   -1.4173    2.4033 C   0  0  0  0  0  0  0  0  0  0  0  0
   -2.4058   -2.2966    2.3845 O   0  0  0  0  0  0  0  0  0  0  0  0
   -0.2159   -1.6728    2.7319 N   0  0  0  0  0  0  0  0  0  0  0  0
    0.3536   -3.0101    2.9295 C   0  0  0  0  0  0  0  0  0  0  0  0
   -0.3037   -3.7287    4.1192 C   0  0  0  0  0  0  0  0  0  0  0  0
    0.2129   -3.8526    1.6491 C   0  0  0  0  0  0  0  0  0  0  0  0
    1.8540   -2.8398    3.2329 C   0  0  0  0  0  0  0  0  0  0  0  0
   -1.6094    0.1174    0.4547 N   0  0  0  0  0  0  0  0  0  0  0  0
   -0.2542    0.0571    0.0936 C   0  0  0  0  0  0  0  0  0  0  0  0
    0.6474    0.0569    0.9451 O   0  0  0  0  0  0  0  0  0  0  0  0
    0.1439   -0.0030   -1.3654 C   0  0  0  0  0  0  0  0  0  0  0  0
    1.6544   -0.1747   -1.5528 C   0  0  0  0  0  0  0  0  0  0  0  0
    1.9975   -0.4371   -3.0051 C   0  0  0  0  0  0  0  0  0  0  0  0
    1.1402   -0.7152   -3.8400 O   0  0  0  0  0  0  0  0  0  0  0  0
    3.3511   -0.3475   -3.2459 N   0  0  0  0  0  0  0  0  0  0  0  0
    3.9463   -0.5440   -4.4758 C   0  0  0  0  0  0  0  0  0  0  0  0
    3.3651   -0.9417   -5.7001 C   0  0  0  0  0  0  0  0  0  0  0  0
    4.4096   -0.9746   -6.5907 C   0  0  0  0  0  0  0  0  0  0  0  0
    4.5251   -1.3100   -8.0226 C   0  0  0  0  0  0  0  0  0  0  0  0
    5.5501   -0.6021   -5.9497 O   0  0  0  0  0  0  0  0  0  0  0  0
    5.2631   -0.3497   -4.6173 N   0  0  0  0  0  0  0  0  0  0  0  0
   -2.8099   -0.0591   -0.4810 C   0  0  0  0  0  0  0  0  0  0  0  0
   -4.1562    0.4074    0.1550 C   0  0  0  0  0  0  0  0  0  0  0  0
   -2.7066    0.7912   -1.7728 C   0  0  0  0  0  0  0  0  0  0  0  0
   -2.9814   -1.5443   -0.8644 C   0  0  0  0  0  0  0  0  0  0  0  0
   -1.1753    2.5167    2.3784 C   0  0  0  0  0  0  0  0  0  0  0  0
   -1.5119    2.8090    1.0759 O   0  0  0  0  0  0  0  0  0  0  0  0
   -0.4385    3.4396    0.3626 C   0  0  0  0  0  0  0  0  0  0  0  0
   -0.8814    6.8379    3.1388 H   0  0  0  0  0  0  0  0  0  0  0  0
    0.1666    5.9496    4.2550 H   0  0  0  0  0  0  0  0  0  0  0  0
   -1.6356    5.8304    4.3942 H   0  0  0  0  0  0  0  0  0  0  0  0
   -0.2325    3.9970    5.3216 H   0  0  0  0  0  0  0  0  0  0  0  0
   -0.4746    1.7014    6.1100 H   0  0  0  0  0  0  0  0  0  0  0  0
   -1.2081   -0.0730    4.6131 H   0  0  0  0  0  0  0  0  0  0  0  0
   -2.9241    0.1383    2.1283 H   0  0  0  0  0  0  0  0  0  0  0  0
    0.4209   -0.9695    2.3500 H   0  0  0  0  0  0  0  0  0  0  0  0
   -1.3681   -3.9420    3.9495 H   0  0  0  0  0  0  0  0  0  0  0  0
    0.1876   -4.6881    4.3107 H   0  0  0  0  0  0  0  0  0  0  0  0
   -0.2343   -3.1223    5.0295 H   0  0  0  0  0  0  0  0  0  0  0  0
    0.6805   -4.8368    1.7709 H   0  0  0  0  0  0  0  0  0  0  0  0
    0.7007   -3.3490    0.8022 H   0  0  0  0  0  0  0  0  0  0  0  0
   -0.8343   -4.0220    1.3741 H   0  0  0  0  0  0  0  0  0  0  0  0
    2.0144   -2.1961    4.1033 H   0  0  0  0  0  0  0  0  0  0  0  0
    2.3380   -3.8045    3.4212 H   0  0  0  0  0  0  0  0  0  0  0  0
    2.3681   -2.3734    2.3858 H   0  0  0  0  0  0  0  0  0  0  0  0
   -0.3640   -0.8463   -1.8340 H   0  0  0  0  0  0  0  0  0  0  0  0
   -0.1409    0.9316   -1.8573 H   0  0  0  0  0  0  0  0  0  0  0  0
    2.0227   -1.0235   -0.9627 H   0  0  0  0  0  0  0  0  0  0  0  0
    2.1726    0.7307   -1.2169 H   0  0  0  0  0  0  0  0  0  0  0  0
    3.9957   -0.0761   -2.5149 H   0  0  0  0  0  0  0  0  0  0  0  0
    2.3317   -1.1913   -5.9032 H   0  0  0  0  0  0  0  0  0  0  0  0
    3.9456   -2.2122   -8.2529 H   0  0  0  0  0  0  0  0  0  0  0  0
    4.1380   -0.4905   -8.6361 H   0  0  0  0  0  0  0  0  0  0  0  0
    5.5684   -1.4950   -8.3037 H   0  0  0  0  0  0  0  0  0  0  0  0
   -4.0746    1.4324    0.5400 H   0  0  0  0  0  0  0  0  0  0  0  0
   -4.4873   -0.2499    0.9684 H   0  0  0  0  0  0  0  0  0  0  0  0
   -4.9771    0.3879   -0.5782 H   0  0  0  0  0  0  0  0  0  0  0  0
   -3.6823    0.8929   -2.2685 H   0  0  0  0  0  0  0  0  0  0  0  0
   -2.0640    0.3428   -2.5382 H   0  0  0  0  0  0  0  0  0  0  0  0
   -2.3476    1.8059   -1.5583 H   0  0  0  0  0  0  0  0  0  0  0  0
   -2.0732   -1.9794   -1.2923 H   0  0  0  0  0  0  0  0  0  0  0  0
   -3.2433   -2.1455    0.0083 H   0  0  0  0  0  0  0  0  0  0  0  0
   -3.7868   -1.6649   -1.5972 H   0  0  0  0  0  0  0  0  0  0  0  0
    0.5507    3.1508    0.7406 H   0  0  0  0  0  0  0  0  0  0  0  0
   -0.5002    3.1131   -0.6803 H   0  0  0  0  0  0  0  0  0  0  0  0
   -0.5651    4.5289    0.3663 H   0  0  0  0  0  0  0  0  0  0  0  0
  1  2  1  0
  2  3  1  0
  3  4  2  0
  4  5  1  0
  5  6  2  0
  6  7  1  0
  7  8  1  0
  8  9  1  0
  9 10  2  0
  9 11  1  0
 11 12  1  0
 12 13  1  0
 12 14  1  0
 12 15  1  0
  8 16  1  0
 16 17  1  0
 17 18  2  0
 17 19  1  0
 19 20  1  0
 20 21  1  0
 21 22  2  0
 21 23  1  0
 23 24  1  0
 24 25  1  0
 25 26  2  0
 26 27  1  0
 26 28  1  0
 28 29  1  0
 16 30  1  0
 30 31  1  0
 30 32  1  0
 30 33  1  0
  7 34  2  0
 34 35  1  0
 35 36  1  0
 34  3  1  0
 29 24  2  0
  1 37  1  0
  1 38  1  0
  1 39  1  0
  4 40  1  0
  5 41  1  0
  6 42  1  0
  8 43  1  0
 11 44  1  0
 13 45  1  0
 13 46  1  0
 13 47  1  0
 14 48  1  0
 14 49  1  0
 14 50  1  0
 15 51  1  0
 15 52  1  0
 15 53  1  0
 19 54  1  0
 19 55  1  0
 20 56  1  0
 20 57  1  0
 23 58  1  0
 25 59  1  0
 27 60  1  0
 27 61  1  0
 27 62  1  0
 31 63  1  0
 31 64  1  0
 31 65  1  0
 32 66  1  0
 32 67  1  0
 32 68  1  0
 33 69  1  0
 33 70  1  0
 33 71  1  0
 36 72  1  0
 36 73  1  0
 36 74  1  0
M  END
$$$$
