
     RDKit          3D

 38 40  0  0  0  0  0  0  0  0999 V2000
   -7.8847    0.8058   -0.2461 C   0  0  0  0  0  0  0  0  0  0  0  0
   -6.4329    1.0309   -0.6300 C   0  0  0  0  0  0  0  0  0  0  0  0
   -5.9458   -0.0486   -1.4267 O   0  0  0  0  0  0  0  0  0  0  0  0
   -5.4777   -1.1676   -0.6665 C   0  0  0  0  0  0  0  0  0  0  0  0
   -4.0644   -0.9237   -0.2513 C   0  0  0  0  0  0  0  0  0  0  0  0
   -3.6844   -0.5910    0.9669 N   0  0  0  0  0  0  0  0  0  0  0  0
   -2.3164   -0.4292    1.0530 N   0  0  0  0  0  0  0  0  0  0  0  0
   -1.7159   -0.6519   -0.0955 C   0  0  0  0  0  0  0  0  0  0  0  0
   -0.3584   -0.5462   -0.2402 N   0  0  0  0  0  0  0  0  0  0  0  0
    0.3869   -0.7731   -1.3732 C   0  0  0  0  0  0  0  0  0  0  0  0
   -0.0284   -1.1249   -2.4734 O   0  0  0  0  0  0  0  0  0  0  0  0
    1.8853   -0.5401   -1.1535 C   0  0  0  0  0  0  0  0  0  0  0  0
    2.1562   -0.1667    0.1962 O   0  0  0  0  0  0  0  0  0  0  0  0
    3.4641    0.0772    0.5191 C   0  0  0  0  0  0  0  0  0  0  0  0
    3.6702    0.4531    1.8625 C   0  0  0  0  0  0  0  0  0  0  0  0
    4.9515    0.7364    2.3460 C   0  0  0  0  0  0  0  0  0  0  0  0
    6.0011    0.6343    1.4622 C   0  0  0  0  0  0  0  0  0  0  0  0
    5.8057    0.2674    0.1519 C   0  0  0  0  0  0  0  0  0  0  0  0
    4.5521   -0.0178   -0.3529 C   0  0  0  0  0  0  0  0  0  0  0  0
    6.9694    0.2252   -0.5524 O   0  0  0  0  0  0  0  0  0  0  0  0
    7.9180    0.6078    0.4660 C   0  0  0  0  0  0  0  0  0  0  0  0
    7.3088    0.8695    1.7473 O   0  0  0  0  0  0  0  0  0  0  0  0
   -2.7662   -1.0748   -1.3668 S   0  0  0  0  0  0  0  0  0  0  0  0
   -8.2818    1.6746    0.2865 H   0  0  0  0  0  0  0  0  0  0  0  0
   -7.9961   -0.0730    0.3959 H   0  0  0  0  0  0  0  0  0  0  0  0
   -8.4950    0.6290   -1.1378 H   0  0  0  0  0  0  0  0  0  0  0  0
   -5.8081    1.1916    0.2550 H   0  0  0  0  0  0  0  0  0  0  0  0
   -6.3667    1.9348   -1.2447 H   0  0  0  0  0  0  0  0  0  0  0  0
   -5.5334   -2.0511   -1.3116 H   0  0  0  0  0  0  0  0  0  0  0  0
   -6.1181   -1.3578    0.2011 H   0  0  0  0  0  0  0  0  0  0  0  0
    0.1375   -0.2754    0.6019 H   0  0  0  0  0  0  0  0  0  0  0  0
    2.3947   -1.4803   -1.3942 H   0  0  0  0  0  0  0  0  0  0  0  0
    2.1882    0.2623   -1.8361 H   0  0  0  0  0  0  0  0  0  0  0  0
    2.8201    0.5257    2.5377 H   0  0  0  0  0  0  0  0  0  0  0  0
    5.1131    1.0261    3.3780 H   0  0  0  0  0  0  0  0  0  0  0  0
    4.4596   -0.3013   -1.3933 H   0  0  0  0  0  0  0  0  0  0  0  0
    8.6502   -0.1994    0.5840 H   0  0  0  0  0  0  0  0  0  0  0  0
    8.4416    1.5122    0.1349 H   0  0  0  0  0  0  0  0  0  0  0  0
  1  2  1  0
  2  3  1  0
  3  4  1  0
  4  5  1  0
  5  6  2  0
  6  7  1  0
  7  8  2  0
  8  9  1  0
  9 10  1  0
 10 11  2  0
 10 12  1  0
 12 13  1  0
 13 14  1  0
 14 15  2  0
 15 16  1  0
 16 17  2  0
 17 18  1  0
 18 19  2  0
 18 20  1  0
 20 21  1  0
 21 22  1  0
  8 23  1  0
 23  5  1  0
 19 14  1  0
 22 17  1  0
  1 24  1  0
  1 25  1  0
  1 26  1  0
  2 27  1  0
  2 28  1  0
  4 29  1  0
  4 30  1  0
  9 31  1  0
 12 32  1  0
 12 33  1  0
 15 34  1  0
 16 35  1  0
 19 36  1  0
 21 37  1  0
 21 38  1  0
M  END
$$$$
