
     RDKit          3D

 57 62  0  0  0  0  0  0  0  0999 V2000
    8.7127   -1.4615   -1.6597 C   0  0  0  0  0  0  0  0  0  0  0  0
    7.5530   -1.9393   -2.3311 O   0  0  0  0  0  0  0  0  0  0  0  0
    6.3486   -1.4389   -1.9269 C   0  0  0  0  0  0  0  0  0  0  0  0
    6.1434   -0.5035   -0.9148 C   0  0  0  0  0  0  0  0  0  0  0  0
    4.8459   -0.0771   -0.5966 C   0  0  0  0  0  0  0  0  0  0  0  0
    3.7446   -0.5854   -1.2879 C   0  0  0  0  0  0  0  0  0  0  0  0
    2.2873   -0.1186   -0.9340 C   0  0  0  0  0  0  0  0  0  0  0  0
    1.1205   -0.4783   -1.6001 C   0  0  0  0  0  0  0  0  0  0  0  0
    0.0402    0.1641   -0.9973 N   0  0  0  0  0  4  0  0  0  0  0  0
   -1.3876    0.0136   -1.3362 C   0  0  0  0  0  0  0  0  0  0  0  0
   -2.1048   -0.8178   -0.2499 C   0  0  0  0  0  0  0  0  0  0  0  0
   -1.4906   -1.7625    0.2522 O   0  0  0  0  0  0  0  0  0  0  0  0
   -3.3394   -0.3105    0.1921 N   0  0  0  0  0  0  0  0  0  0  0  0
   -3.7876   -0.5041    1.5531 C   0  0  0  0  0  0  0  0  0  0  0  0
   -3.4441   -1.6597    2.2774 C   0  0  0  0  0  0  0  0  0  0  0  0
   -3.8592   -1.8486    3.5996 C   0  0  0  0  0  0  0  0  0  0  0  0
   -4.6289   -0.8835    4.2339 C   0  0  0  0  0  0  0  0  0  0  0  0
   -4.9796    0.2727    3.5445 C   0  0  0  0  0  0  0  0  0  0  0  0
   -4.5680    0.4647    2.2158 C   0  0  0  0  0  0  0  0  0  0  0  0
   -4.9893    2.0158    1.4537 S   0  0  0  0  0  0  0  0  0  0  0  0
   -5.0241    1.4771   -0.2329 C   0  0  0  0  0  0  0  0  0  0  0  0
   -5.8512    2.1699   -1.1284 C   0  0  0  0  0  0  0  0  0  0  0  0
   -5.9123    1.7988   -2.4697 C   0  0  0  0  0  0  0  0  0  0  0  0
   -5.1596    0.7214   -2.9205 C   0  0  0  0  0  0  0  0  0  0  0  0
   -4.3295    0.0311   -2.0337 C   0  0  0  0  0  0  0  0  0  0  0  0
   -4.2222    0.4166   -0.6823 C   0  0  0  0  0  0  0  0  0  0  0  0
    0.5140    0.8525    0.0355 C   0  0  0  0  0  0  0  0  0  0  0  0
    1.8349    0.7123    0.0763 N   0  0  0  0  0  0  0  0  0  0  0  0
    2.4207    1.4198    1.2055 C   0  0  0  0  0  0  0  0  0  0  0  0
    1.1908    1.8122    2.0703 C   0  0  0  0  0  0  0  0  0  0  0  0
   -0.0200    1.7044    1.1229 C   0  0  0  0  0  0  0  0  0  0  0  0
    3.9498   -1.5173   -2.3101 C   0  0  0  0  0  0  0  0  0  0  0  0
    5.2463   -1.9377   -2.6225 C   0  0  0  0  0  0  0  0  0  0  0  0
    8.6826   -1.7087   -0.5936 H   0  0  0  0  0  0  0  0  0  0  0  0
    9.5812   -1.9649   -2.0941 H   0  0  0  0  0  0  0  0  0  0  0  0
    8.8389   -0.3848   -1.8138 H   0  0  0  0  0  0  0  0  0  0  0  0
    6.9717   -0.0870   -0.3510 H   0  0  0  0  0  0  0  0  0  0  0  0
    4.7403    0.6600    0.1888 H   0  0  0  0  0  0  0  0  0  0  0  0
    0.9193   -1.1192   -2.4420 H   0  0  0  0  0  0  0  0  0  0  0  0
   -1.4707   -0.4989   -2.2984 H   0  0  0  0  0  0  0  0  0  0  0  0
   -1.7883    1.0272   -1.4183 H   0  0  0  0  0  0  0  0  0  0  0  0
   -2.8868   -2.4756    1.8254 H   0  0  0  0  0  0  0  0  0  0  0  0
   -3.5913   -2.7623    4.1265 H   0  0  0  0  0  0  0  0  0  0  0  0
   -4.9582   -1.0314    5.2602 H   0  0  0  0  0  0  0  0  0  0  0  0
   -5.5785    1.0260    4.0538 H   0  0  0  0  0  0  0  0  0  0  0  0
   -6.4637    3.0025   -0.7848 H   0  0  0  0  0  0  0  0  0  0  0  0
   -6.5678    2.3352   -3.1531 H   0  0  0  0  0  0  0  0  0  0  0  0
   -5.2410    0.4032   -3.9583 H   0  0  0  0  0  0  0  0  0  0  0  0
   -3.8219   -0.8530   -2.4121 H   0  0  0  0  0  0  0  0  0  0  0  0
    3.1013    0.7730    1.7639 H   0  0  0  0  0  0  0  0  0  0  0  0
    2.9413    2.3071    0.8323 H   0  0  0  0  0  0  0  0  0  0  0  0
    1.0782    1.0817    2.8805 H   0  0  0  0  0  0  0  0  0  0  0  0
    1.2907    2.8023    2.5235 H   0  0  0  0  0  0  0  0  0  0  0  0
   -0.8812    1.2141    1.5774 H   0  0  0  0  0  0  0  0  0  0  0  0
   -0.2852    2.6611    0.6670 H   0  0  0  0  0  0  0  0  0  0  0  0
    3.1314   -1.9443   -2.8808 H   0  0  0  0  0  0  0  0  0  0  0  0
    5.4028   -2.6659   -3.4163 H   0  0  0  0  0  0  0  0  0  0  0  0
  1  2  1  0
  2  3  1  0
  3  4  2  0
  4  5  1  0
  5  6  2  0
  6  7  1  0
  7  8  2  0
  8  9  1  0
  9 10  1  0
 10 11  1  0
 11 12  2  0
 11 13  1  0
 13 14  1  0
 14 15  2  0
 15 16  1  0
 16 17  2  0
 17 18  1  0
 18 19  2  0
 19 20  1  0
 20 21  1  0
 21 22  2  0
 22 23  1  0
 23 24  2  0
 24 25  1  0
 25 26  2  0
  9 27  2  0
 27 28  1  0
 28 29  1  0
 29 30  1  0
 30 31  1  0
  6 32  1  0
 32 33  2  0
 33  3  1  0
 28  7  1  0
 26 13  1  0
 31 27  1  0
 19 14  1  0
 26 21  1  0
  1 34  1  0
  1 35  1  0
  1 36  1  0
  4 37  1  0
  5 38  1  0
  8 39  1  0
 10 40  1  0
 10 41  1  0
 15 42  1  0
 16 43  1  0
 17 44  1  0
 18 45  1  0
 22 46  1  0
 23 47  1  0
 24 48  1  0
 25 49  1  0
 29 50  1  0
 29 51  1  0
 30 52  1  0
 30 53  1  0
 31 54  1  0
 31 55  1  0
 32 56  1  0
 33 57  1  0
M  CHG  1   9   1
M  END
$$$$
