
     RDKit          3D

 23 24  0  0  0  0  0  0  0  0999 V2000
    1.0961   -1.8864   -0.7605 O   0  0  0  0  0  0  0  0  0  0  0  0
    1.7821   -0.8900   -0.6499 C   0  0  0  0  0  0  0  0  0  0  0  0
    3.0527   -0.7660   -1.1350 O   0  0  0  0  0  0  0  0  0  0  0  0
    3.5047    0.5768   -0.9648 C   0  0  0  0  0  0  0  0  0  0  0  0
    2.7184    1.1349    0.1918 C   0  0  0  0  0  0  0  0  0  0  0  0
    1.4478    0.3776    0.0514 C   0  0  0  0  0  0  0  0  0  0  0  0
    0.2458    0.8252    0.4457 C   0  0  0  0  0  0  0  0  0  0  0  0
   -1.0472    0.1505    0.3007 C   0  0  0  0  0  0  0  0  0  0  0  0
   -1.3063   -1.0827    0.9075 C   0  0  0  0  0  0  0  0  0  0  0  0
   -2.5634   -1.6798    0.7870 C   0  0  0  0  0  0  0  0  0  0  0  0
   -3.5742   -1.0423    0.0702 C   0  0  0  0  0  0  0  0  0  0  0  0
   -3.3298    0.1931   -0.5262 C   0  0  0  0  0  0  0  0  0  0  0  0
   -2.0722    0.7897   -0.4078 C   0  0  0  0  0  0  0  0  0  0  0  0
    3.3274    1.1268   -1.8964 H   0  0  0  0  0  0  0  0  0  0  0  0
    4.5797    0.5776   -0.7605 H   0  0  0  0  0  0  0  0  0  0  0  0
    2.6103    2.2211    0.1284 H   0  0  0  0  0  0  0  0  0  0  0  0
    3.1955    0.8770    1.1441 H   0  0  0  0  0  0  0  0  0  0  0  0
    0.1756    1.8066    0.9116 H   0  0  0  0  0  0  0  0  0  0  0  0
   -0.5289   -1.5976    1.4670 H   0  0  0  0  0  0  0  0  0  0  0  0
   -2.7482   -2.6463    1.2483 H   0  0  0  0  0  0  0  0  0  0  0  0
   -4.5501   -1.5107   -0.0261 H   0  0  0  0  0  0  0  0  0  0  0  0
   -4.1169    0.6911   -1.0860 H   0  0  0  0  0  0  0  0  0  0  0  0
   -1.8989    1.7537   -0.8796 H   0  0  0  0  0  0  0  0  0  0  0  0
  1  2  2  0
  2  3  1  0
  3  4  1  0
  4  5  1  0
  5  6  1  0
  6  7  2  3
  7  8  1  0
  8  9  2  0
  9 10  1  0
 10 11  2  0
 11 12  1  0
 12 13  2  0
  6  2  1  0
 13  8  1  0
  4 14  1  0
  4 15  1  0
  5 16  1  0
  5 17  1  0
  7 18  1  0
  9 19  1  0
 10 20  1  0
 11 21  1  0
 12 22  1  0
 13 23  1  0
M  END
$$$$
