
     RDKit          3D

 36 37  0  0  0  0  0  0  0  0999 V2000
   -2.1212   -0.6087    1.6293 O   0  0  0  0  0  0  0  0  0  0  0  0
   -0.9004   -0.6139    1.4741 C   0  0  0  0  0  0  0  0  0  0  0  0
    0.0760   -0.0733    2.5211 C   0  0  0  0  0  0  0  0  0  0  0  0
    1.3654    0.2712    2.0064 O   0  0  0  0  0  0  0  0  0  0  0  0
    1.3963    1.4408    1.3199 C   0  0  0  0  0  0  0  0  0  0  0  0
    0.4347    2.1501    1.0792 O   0  0  0  0  0  0  0  0  0  0  0  0
    2.7767    1.7485    0.8622 C   0  0  0  0  0  0  0  0  0  0  0  0
    2.9645    2.8736    0.0481 C   0  0  0  0  0  0  0  0  0  0  0  0
    4.2426    3.1979   -0.4047 C   0  0  0  0  0  0  0  0  0  0  0  0
    4.4665    4.5788   -1.4056 Cl  0  0  0  0  0  0  0  0  0  0  0  0
    5.3397    2.4150   -0.0559 C   0  0  0  0  0  0  0  0  0  0  0  0
    5.1498    1.2994    0.7555 C   0  0  0  0  0  0  0  0  0  0  0  0
    6.4993    0.3259    1.1935 Cl  0  0  0  0  0  0  0  0  0  0  0  0
    3.8782    0.9596    1.2183 C   0  0  0  0  0  0  0  0  0  0  0  0
   -0.3094   -1.1569    0.3515 N   0  0  0  0  0  0  0  0  0  0  0  0
   -1.1121   -1.8087   -0.6654 C   0  0  0  0  0  0  0  0  0  0  0  0
   -2.0401   -0.8372   -1.4116 C   0  0  0  0  0  0  0  0  0  0  0  0
   -3.3180   -1.4451   -1.7174 N   0  0  0  0  0  0  0  0  0  0  0  0
   -4.4417   -1.3698   -0.9284 C   0  0  0  0  0  0  0  0  0  0  0  0
   -4.4543   -0.7027    0.2602 O   0  0  0  0  0  0  0  0  0  0  0  0
   -5.5080   -2.0044   -1.4244 C   0  0  0  0  0  0  0  0  0  0  0  0
   -5.1450   -2.7812   -2.9335 S   0  0  0  0  0  0  0  0  0  0  0  0
   -3.4696   -2.2116   -2.8650 C   0  0  0  0  0  0  0  0  0  0  0  0
   -2.6198   -2.4846   -3.6976 O   0  0  0  0  0  0  0  0  0  0  0  0
   -0.3750    0.7868    3.0299 H   0  0  0  0  0  0  0  0  0  0  0  0
    0.2237   -0.8608    3.2675 H   0  0  0  0  0  0  0  0  0  0  0  0
    2.1158    3.4961   -0.2319 H   0  0  0  0  0  0  0  0  0  0  0  0
    6.3337    2.6731   -0.4121 H   0  0  0  0  0  0  0  0  0  0  0  0
    3.7599    0.0868    1.8556 H   0  0  0  0  0  0  0  0  0  0  0  0
    0.6974   -1.2730    0.3414 H   0  0  0  0  0  0  0  0  0  0  0  0
   -1.6847   -2.5986   -0.1646 H   0  0  0  0  0  0  0  0  0  0  0  0
   -0.4262   -2.2927   -1.3687 H   0  0  0  0  0  0  0  0  0  0  0  0
   -2.2099    0.0991   -0.8688 H   0  0  0  0  0  0  0  0  0  0  0  0
   -1.5552   -0.5481   -2.3529 H   0  0  0  0  0  0  0  0  0  0  0  0
   -3.5520   -0.6794    0.6447 H   0  0  0  0  0  0  0  0  0  0  0  0
   -6.4778   -2.0521   -0.9499 H   0  0  0  0  0  0  0  0  0  0  0  0
  1  2  2  0
  2  3  1  0
  3  4  1  0
  4  5  1  0
  5  6  2  0
  5  7  1  0
  7  8  2  0
  8  9  1  0
  9 10  1  0
  9 11  2  0
 11 12  1  0
 12 13  1  0
 12 14  2  0
  2 15  1  0
 15 16  1  0
 16 17  1  0
 17 18  1  0
 18 19  1  0
 19 20  1  0
 19 21  2  0
 21 22  1  0
 22 23  1  0
 23 24  2  0
 14  7  1  0
 23 18  1  0
  3 25  1  0
  3 26  1  0
  8 27  1  0
 11 28  1  0
 14 29  1  0
 15 30  1  0
 16 31  1  0
 16 32  1  0
 17 33  1  0
 17 34  1  0
 20 35  1  0
 21 36  1  0
M  END
$$$$
