
     RDKit          3D

 46 49  0  0  0  0  0  0  0  0999 V2000
   -3.5284    6.0009    1.3777 N   0  0  0  0  0  0  0  0  0  0  0  0
   -3.9567    4.7291    1.2769 C   0  0  0  0  0  0  0  0  0  0  0  0
   -5.1770    4.3165    1.6170 N   0  0  0  0  0  0  0  0  0  0  0  0
   -5.2000    2.9536    1.3437 O   0  0  0  0  0  0  0  0  0  0  0  0
   -3.9768    2.5186    0.8352 N   0  0  0  0  0  0  0  0  0  0  0  0
   -3.2275    3.6211    0.8041 C   0  0  0  0  0  0  0  0  0  0  0  0
   -1.8802    3.5834    0.3639 N   0  0  0  0  0  0  0  0  0  0  0  0
   -1.0910    4.6930    0.4146 N   0  0  0  0  0  0  0  0  0  0  0  0
    0.1254    4.3845    0.0012 N   0  0  0  0  0  0  0  0  0  0  0  0
    0.1497    3.0558   -0.3135 C   0  0  0  0  0  0  0  0  0  0  0  0
    1.3634    2.3936   -0.7915 C   0  0  0  0  0  0  0  0  0  0  0  0
    2.1391    2.9460   -1.5650 O   0  0  0  0  0  0  0  0  0  0  0  0
    1.5321    1.1136   -0.2749 N   0  0  0  0  0  0  0  0  0  0  0  0
    2.5659    0.3249   -0.6869 N   0  0  0  0  0  0  0  0  0  0  0  0
    2.6595   -0.8216   -0.0914 C   0  0  0  0  0  0  0  0  0  0  0  0
    3.7124   -1.7956   -0.4372 C   0  0  0  0  0  0  0  0  0  0  0  0
    4.6779   -1.4951   -1.4022 C   0  0  0  0  0  0  0  0  0  0  0  0
    5.6605   -2.4353   -1.7143 C   0  0  0  0  0  0  0  0  0  0  0  0
    5.6769   -3.6702   -1.0649 C   0  0  0  0  0  0  0  0  0  0  0  0
    4.7119   -3.9690   -0.1018 C   0  0  0  0  0  0  0  0  0  0  0  0
    3.7265   -3.0323    0.2149 C   0  0  0  0  0  0  0  0  0  0  0  0
   -1.1253    2.5258   -0.1426 C   0  0  0  0  0  0  0  0  0  0  0  0
   -1.6448    1.1724   -0.4694 C   0  0  0  0  0  0  0  0  0  0  0  0
   -1.3470    0.0462    0.9368 S   0  0  0  0  0  0  0  0  0  0  0  0
   -1.7924   -1.5027    0.1758 C   0  0  0  0  0  0  0  0  0  0  0  0
   -1.0598   -2.0230   -0.8969 C   0  0  0  0  0  0  0  0  0  0  0  0
   -1.4166   -3.2484   -1.4637 C   0  0  0  0  0  0  0  0  0  0  0  0
   -2.5014   -3.9620   -0.9575 C   0  0  0  0  0  0  0  0  0  0  0  0
   -3.2277   -3.4541    0.1183 C   0  0  0  0  0  0  0  0  0  0  0  0
   -2.8715   -2.2294    0.6867 C   0  0  0  0  0  0  0  0  0  0  0  0
   -4.0731    6.6700    1.9114 H   0  0  0  0  0  0  0  0  0  0  0  0
   -2.5417    6.2387    1.2800 H   0  0  0  0  0  0  0  0  0  0  0  0
    0.9061    0.7696    0.4479 H   0  0  0  0  0  0  0  0  0  0  0  0
    1.9493   -1.1248    0.6994 H   0  0  0  0  0  0  0  0  0  0  0  0
    4.6716   -0.5330   -1.9108 H   0  0  0  0  0  0  0  0  0  0  0  0
    6.4136   -2.2028   -2.4634 H   0  0  0  0  0  0  0  0  0  0  0  0
    6.4447   -4.4004   -1.3098 H   0  0  0  0  0  0  0  0  0  0  0  0
    4.7297   -4.9325    0.4017 H   0  0  0  0  0  0  0  0  0  0  0  0
    2.9808   -3.2782    0.9661 H   0  0  0  0  0  0  0  0  0  0  0  0
   -2.7015    1.1693   -0.7449 H   0  0  0  0  0  0  0  0  0  0  0  0
   -1.1097    0.7982   -1.3495 H   0  0  0  0  0  0  0  0  0  0  0  0
   -0.2034   -1.4903   -1.3034 H   0  0  0  0  0  0  0  0  0  0  0  0
   -0.8463   -3.6473   -2.2994 H   0  0  0  0  0  0  0  0  0  0  0  0
   -2.7792   -4.9160   -1.3992 H   0  0  0  0  0  0  0  0  0  0  0  0
   -4.0717   -4.0120    0.5167 H   0  0  0  0  0  0  0  0  0  0  0  0
   -3.4465   -1.8487    1.5281 H   0  0  0  0  0  0  0  0  0  0  0  0
  1  2  1  0
  2  3  2  0
  3  4  1  0
  4  5  1  0
  5  6  2  0
  6  7  1  0
  7  8  1  0
  8  9  2  0
  9 10  1  0
 10 11  1  0
 11 12  2  0
 11 13  1  0
 13 14  1  0
 14 15  2  3
 15 16  1  0
 16 17  2  0
 17 18  1  0
 18 19  2  0
 19 20  1  0
 20 21  2  0
 10 22  2  0
 22 23  1  0
 23 24  1  0
 24 25  1  0
 25 26  2  0
 26 27  1  0
 27 28  2  0
 28 29  1  0
 29 30  2  0
  6  2  1  0
 22  7  1  0
 30 25  1  0
 21 16  1  0
  1 31  1  0
  1 32  1  0
 13 33  1  0
 15 34  1  0
 17 35  1  0
 18 36  1  0
 19 37  1  0
 20 38  1  0
 21 39  1  0
 23 40  1  0
 23 41  1  0
 26 42  1  0
 27 43  1  0
 28 44  1  0
 29 45  1  0
 30 46  1  0
M  END
$$$$
