
     RDKit          3D

 28 28  0  0  0  0  0  0  0  0999 V2000
   -2.3443    0.2946   -1.6873 C   0  0  0  0  0  0  0  0  0  0  0  0
   -1.8371   -0.1509   -0.3035 C   0  0  0  0  0  0  0  0  0  0  0  0
   -1.0623   -1.4644   -0.4628 C   0  0  0  0  0  0  0  0  0  0  0  0
   -3.0516   -0.3588    0.6117 C   0  0  0  0  0  0  0  0  0  0  0  0
   -0.8975    0.9332    0.2763 C   0  0  0  0  0  0  0  0  0  0  0  0
   -0.4838    1.8500   -0.4390 O   0  0  0  0  0  0  0  0  0  0  0  0
   -0.5454    0.8339    1.7587 C   0  0  0  0  0  0  0  0  0  0  0  0
    0.9308    1.7857    2.2138 S   0  0  0  0  0  0  0  0  0  0  0  0
    2.1548    0.9388    1.2473 C   0  0  0  0  0  0  0  0  0  0  0  0
    1.9081   -0.3254    0.8545 N   0  0  0  0  0  0  0  0  0  0  0  0
    2.8811   -0.9270    0.1440 C   0  0  0  0  0  0  0  0  0  0  0  0
    4.0756   -0.3264   -0.1724 C   0  0  0  0  0  0  0  0  0  0  0  0
    4.2321    0.9563    0.2926 C   0  0  0  0  0  0  0  0  0  0  0  0
    3.2969    1.6049    1.0088 N   0  0  0  0  0  0  0  0  0  0  0  0
   -3.0257   -0.4468   -2.1198 H   0  0  0  0  0  0  0  0  0  0  0  0
   -1.5155    0.4326   -2.3914 H   0  0  0  0  0  0  0  0  0  0  0  0
   -2.8825    1.2474   -1.6232 H   0  0  0  0  0  0  0  0  0  0  0  0
   -0.7207   -1.8555    0.5011 H   0  0  0  0  0  0  0  0  0  0  0  0
   -0.1756   -1.3243   -1.0913 H   0  0  0  0  0  0  0  0  0  0  0  0
   -1.6845   -2.2371   -0.9284 H   0  0  0  0  0  0  0  0  0  0  0  0
   -3.5676    0.5891    0.8023 H   0  0  0  0  0  0  0  0  0  0  0  0
   -3.7728   -1.0513    0.1630 H   0  0  0  0  0  0  0  0  0  0  0  0
   -2.7632   -0.7760    1.5826 H   0  0  0  0  0  0  0  0  0  0  0  0
   -0.4051   -0.2084    2.0545 H   0  0  0  0  0  0  0  0  0  0  0  0
   -1.3890    1.2366    2.3279 H   0  0  0  0  0  0  0  0  0  0  0  0
    2.6635   -1.9422   -0.1748 H   0  0  0  0  0  0  0  0  0  0  0  0
    4.8411   -0.8284   -0.7467 H   0  0  0  0  0  0  0  0  0  0  0  0
    5.1403    1.5197    0.0996 H   0  0  0  0  0  0  0  0  0  0  0  0
  1  2  1  0
  2  3  1  0
  2  4  1  0
  2  5  1  0
  5  6  2  0
  5  7  1  0
  7  8  1  0
  8  9  1  0
  9 10  2  0
 10 11  1  0
 11 12  2  0
 12 13  1  0
 13 14  2  0
 14  9  1  0
  1 15  1  0
  1 16  1  0
  1 17  1  0
  3 18  1  0
  3 19  1  0
  3 20  1  0
  4 21  1  0
  4 22  1  0
  4 23  1  0
  7 24  1  0
  7 25  1  0
 11 26  1  0
 12 27  1  0
 13 28  1  0
M  END
$$$$
