
     RDKit          3D

 54 57  0  0  0  0  0  0  0  0999 V2000
   -2.4229    2.6672   -4.0030 C   0  0  0  0  0  0  0  0  0  0  0  0
   -3.3597    2.9317   -2.9673 O   0  0  0  0  0  0  0  0  0  0  0  0
   -3.3014    2.1491   -1.8428 C   0  0  0  0  0  0  0  0  0  0  0  0
   -2.2947    1.2160   -1.5686 C   0  0  0  0  0  0  0  0  0  0  0  0
   -2.2994    0.4540   -0.3818 C   0  0  0  0  0  0  0  0  0  0  0  0
   -1.2293   -0.5202   -0.0742 C   0  0  0  0  0  0  0  0  0  0  0  0
    0.0840   -0.3551   -0.4766 C   0  0  0  0  0  0  0  0  0  0  0  0
    1.0165   -1.3327   -0.1264 C   0  0  0  0  0  0  0  0  0  0  0  0
    2.4148   -1.0769   -0.5412 C   0  0  0  0  0  0  0  0  0  0  0  0
    2.6348   -0.8993   -1.7318 O   0  0  0  0  0  0  0  0  0  0  0  0
    3.3106   -1.0150    0.5082 N   0  0  0  0  0  0  0  0  0  0  0  0
    4.7039   -0.8146    0.4326 C   0  0  0  0  0  0  0  0  0  0  0  0
    5.4082   -0.6796   -0.7662 C   0  0  0  0  0  0  0  0  0  0  0  0
    6.7953   -0.4945   -0.7596 C   0  0  0  0  0  0  0  0  0  0  0  0
    7.4761   -0.4477    0.4509 C   0  0  0  0  0  0  0  0  0  0  0  0
    8.8267   -0.2738    0.5025 O   0  0  0  0  0  0  0  0  0  0  0  0
    6.7935   -0.5802    1.6520 C   0  0  0  0  0  0  0  0  0  0  0  0
    5.4089   -0.7643    1.6430 C   0  0  0  0  0  0  0  0  0  0  0  0
    0.6349   -2.4899    0.5848 C   0  0  0  0  0  0  0  0  0  0  0  0
    1.4961   -3.5685    0.9161 C   0  0  0  0  0  0  0  0  0  0  0  0
    1.0280   -4.6666    1.6351 C   0  0  0  0  0  0  0  0  0  0  0  0
   -0.3025   -4.7092    2.0254 C   0  0  0  0  0  0  0  0  0  0  0  0
   -1.1573   -3.6587    1.6833 C   0  0  0  0  0  0  0  0  0  0  0  0
   -0.7171   -2.5553    0.9642 C   0  0  0  0  0  0  0  0  0  0  0  0
   -1.6087   -1.5969    0.6589 N   0  0  0  0  0  0  0  0  0  0  0  0
   -3.3708    0.6398    0.5165 C   0  0  0  0  0  0  0  0  0  0  0  0
   -4.3927    1.5579    0.2603 C   0  0  0  0  0  0  0  0  0  0  0  0
   -5.4517    1.7922    1.0992 O   0  0  0  0  0  0  0  0  0  0  0  0
   -5.7606    0.7672    2.0360 C   0  0  0  0  0  0  0  0  0  0  0  0
   -4.3323    2.3293   -0.9085 C   0  0  0  0  0  0  0  0  0  0  0  0
   -5.3489    3.2166   -1.1868 O   0  0  0  0  0  0  0  0  0  0  0  0
   -5.0331    4.4976   -0.6443 C   0  0  0  0  0  0  0  0  0  0  0  0
   -2.6598    3.3260   -4.8444 H   0  0  0  0  0  0  0  0  0  0  0  0
   -1.4031    2.8980   -3.6772 H   0  0  0  0  0  0  0  0  0  0  0  0
   -2.5024    1.6338   -4.3575 H   0  0  0  0  0  0  0  0  0  0  0  0
   -1.4949    1.0579   -2.2852 H   0  0  0  0  0  0  0  0  0  0  0  0
    0.4031    0.5206   -1.0331 H   0  0  0  0  0  0  0  0  0  0  0  0
    2.9279   -1.1041    1.4424 H   0  0  0  0  0  0  0  0  0  0  0  0
    4.9061   -0.7136   -1.7288 H   0  0  0  0  0  0  0  0  0  0  0  0
    7.3171   -0.3905   -1.7060 H   0  0  0  0  0  0  0  0  0  0  0  0
    9.1673   -0.2274   -0.4061 H   0  0  0  0  0  0  0  0  0  0  0  0
    7.3378   -0.5470    2.5922 H   0  0  0  0  0  0  0  0  0  0  0  0
    4.8963   -0.8739    2.5952 H   0  0  0  0  0  0  0  0  0  0  0  0
    2.5374   -3.5726    0.5982 H   0  0  0  0  0  0  0  0  0  0  0  0
    1.6978   -5.4879    1.8792 H   0  0  0  0  0  0  0  0  0  0  0  0
   -0.6847   -5.5608    2.5831 H   0  0  0  0  0  0  0  0  0  0  0  0
   -2.2033   -3.7079    1.9795 H   0  0  0  0  0  0  0  0  0  0  0  0
   -3.3763    0.0533    1.4317 H   0  0  0  0  0  0  0  0  0  0  0  0
   -5.0183    0.7379    2.8402 H   0  0  0  0  0  0  0  0  0  0  0  0
   -6.7285    1.0071    2.4878 H   0  0  0  0  0  0  0  0  0  0  0  0
   -5.8543   -0.2090    1.5478 H   0  0  0  0  0  0  0  0  0  0  0  0
   -4.9409    4.4589    0.4469 H   0  0  0  0  0  0  0  0  0  0  0  0
   -4.1177    4.9046   -1.0875 H   0  0  0  0  0  0  0  0  0  0  0  0
   -5.8558    5.1762   -0.8887 H   0  0  0  0  0  0  0  0  0  0  0  0
  1  2  1  0
  2  3  1  0
  3  4  2  0
  4  5  1  0
  5  6  1  0
  6  7  2  0
  7  8  1  0
  8  9  1  0
  9 10  2  0
  9 11  1  0
 11 12  1  0
 12 13  2  0
 13 14  1  0
 14 15  2  0
 15 16  1  0
 15 17  1  0
 17 18  2  0
  8 19  2  0
 19 20  1  0
 20 21  2  0
 21 22  1  0
 22 23  2  0
 23 24  1  0
 24 25  2  0
  5 26  2  0
 26 27  1  0
 27 28  1  0
 28 29  1  0
 27 30  2  0
 30 31  1  0
 31 32  1  0
 30  3  1  0
 25  6  1  0
 18 12  1  0
 24 19  1  0
  1 33  1  0
  1 34  1  0
  1 35  1  0
  4 36  1  0
  7 37  1  0
 11 38  1  0
 13 39  1  0
 14 40  1  0
 16 41  1  0
 17 42  1  0
 18 43  1  0
 20 44  1  0
 21 45  1  0
 22 46  1  0
 23 47  1  0
 26 48  1  0
 29 49  1  0
 29 50  1  0
 29 51  1  0
 32 52  1  0
 32 53  1  0
 32 54  1  0
M  END
$$$$
