
     RDKit          3D

 68 70  0  0  0  0  0  0  0  0999 V2000
   -5.2989    4.5833    2.7285 C   0  0  0  0  0  0  0  0  0  0  0  0
   -4.3867    3.7488    3.4303 O   0  0  0  0  0  0  0  0  0  0  0  0
   -3.7282    2.7997    2.6978 C   0  0  0  0  0  0  0  0  0  0  0  0
   -2.8316    2.0186    3.4289 C   0  0  0  0  0  0  0  0  0  0  0  0
   -2.0867    1.0144    2.8072 C   0  0  0  0  0  0  0  0  0  0  0  0
   -2.2339    0.7671    1.4343 C   0  0  0  0  0  0  0  0  0  0  0  0
   -1.4020   -0.3330    0.7715 C   0  0  0  0  0  0  0  0  0  0  0  0
   -2.2174   -1.1439   -0.2848 C   0  0  0  0  0  0  0  0  0  0  0  0
   -1.9222   -1.1955   -1.4766 O   0  0  0  0  0  0  0  0  0  0  0  0
   -3.3203   -1.8004    0.2466 N   0  0  0  0  0  0  0  0  0  0  0  0
   -4.2844   -2.5950   -0.5285 C   0  0  0  0  0  0  0  0  0  0  0  0
   -5.3270   -3.1637    0.4532 C   0  0  0  0  0  0  0  0  0  0  0  0
   -3.5930   -3.7744   -1.2309 C   0  0  0  0  0  0  0  0  0  0  0  0
   -5.0127   -1.7158   -1.5572 C   0  0  0  0  0  0  0  0  0  0  0  0
   -0.0863    0.1108    0.2580 N   0  0  0  0  0  0  0  0  0  0  0  0
    0.9173   -0.8598    0.1993 C   0  0  0  0  0  0  0  0  0  0  0  0
    0.7482   -2.0010    0.6367 O   0  0  0  0  0  0  0  0  0  0  0  0
    2.2658   -0.4334   -0.3663 C   0  0  0  0  0  0  0  0  0  0  0  0
    3.3139   -1.5257   -0.1750 C   0  0  0  0  0  0  0  0  0  0  0  0
    4.7151   -1.0415   -0.4884 C   0  0  0  0  0  0  0  0  0  0  0  0
    4.9546    0.1111   -0.8305 O   0  0  0  0  0  0  0  0  0  0  0  0
    5.6452   -2.0430   -0.3255 N   0  0  0  0  0  0  0  0  0  0  0  0
    7.0047   -1.9050   -0.4923 C   0  0  0  0  0  0  0  0  0  0  0  0
    7.7554   -0.7683   -0.8632 C   0  0  0  0  0  0  0  0  0  0  0  0
    9.0579   -1.1991   -0.8610 C   0  0  0  0  0  0  0  0  0  0  0  0
   10.3543   -0.5640   -1.1496 C   0  0  0  0  0  0  0  0  0  0  0  0
    9.0913   -2.5116   -0.5132 O   0  0  0  0  0  0  0  0  0  0  0  0
    7.8028   -2.9577   -0.2826 N   0  0  0  0  0  0  0  0  0  0  0  0
   -0.0120    1.3156   -0.4895 C   0  0  0  0  0  0  0  0  0  0  0  0
    0.1411    2.5320    0.1879 C   0  0  0  0  0  0  0  0  0  0  0  0
    0.2305    3.7305   -0.5239 C   0  0  0  0  0  0  0  0  0  0  0  0
    0.1710    3.7154   -1.9159 C   0  0  0  0  0  0  0  0  0  0  0  0
    0.0253    2.5044   -2.5819 C   0  0  0  0  0  0  0  0  0  0  0  0
   -0.0280    2.4942   -3.9202 F   0  0  0  0  0  0  0  0  0  0  0  0
   -0.0631    1.3047   -1.8847 C   0  0  0  0  0  0  0  0  0  0  0  0
   -3.1347    1.5596    0.7036 C   0  0  0  0  0  0  0  0  0  0  0  0
   -3.8768    2.5661    1.3317 C   0  0  0  0  0  0  0  0  0  0  0  0
   -5.7330    5.2834    3.4483 H   0  0  0  0  0  0  0  0  0  0  0  0
   -4.7862    5.1715    1.9601 H   0  0  0  0  0  0  0  0  0  0  0  0
   -6.1190    3.9983    2.2980 H   0  0  0  0  0  0  0  0  0  0  0  0
   -2.7097    2.1989    4.4942 H   0  0  0  0  0  0  0  0  0  0  0  0
   -1.3883    0.4308    3.4039 H   0  0  0  0  0  0  0  0  0  0  0  0
   -1.1959   -1.0700    1.5620 H   0  0  0  0  0  0  0  0  0  0  0  0
   -3.5608   -1.5906    1.2092 H   0  0  0  0  0  0  0  0  0  0  0  0
   -6.0653   -3.7881   -0.0600 H   0  0  0  0  0  0  0  0  0  0  0  0
   -5.8675   -2.3599    0.9658 H   0  0  0  0  0  0  0  0  0  0  0  0
   -4.8466   -3.7748    1.2256 H   0  0  0  0  0  0  0  0  0  0  0  0
   -3.0289   -4.3838   -0.5154 H   0  0  0  0  0  0  0  0  0  0  0  0
   -2.8911   -3.4401   -2.0012 H   0  0  0  0  0  0  0  0  0  0  0  0
   -4.3249   -4.4256   -1.7215 H   0  0  0  0  0  0  0  0  0  0  0  0
   -4.3323   -1.3348   -2.3261 H   0  0  0  0  0  0  0  0  0  0  0  0
   -5.4755   -0.8473   -1.0728 H   0  0  0  0  0  0  0  0  0  0  0  0
   -5.8034   -2.2767   -2.0684 H   0  0  0  0  0  0  0  0  0  0  0  0
    2.1687   -0.2242   -1.4365 H   0  0  0  0  0  0  0  0  0  0  0  0
    2.5827    0.4841    0.1438 H   0  0  0  0  0  0  0  0  0  0  0  0
    3.3095   -1.8800    0.8623 H   0  0  0  0  0  0  0  0  0  0  0  0
    3.0833   -2.3793   -0.8232 H   0  0  0  0  0  0  0  0  0  0  0  0
    5.3579   -2.9738   -0.0524 H   0  0  0  0  0  0  0  0  0  0  0  0
    7.4035    0.2243   -1.0993 H   0  0  0  0  0  0  0  0  0  0  0  0
   10.8382   -1.0504   -2.0021 H   0  0  0  0  0  0  0  0  0  0  0  0
   11.0210   -0.6395   -0.2846 H   0  0  0  0  0  0  0  0  0  0  0  0
   10.2273    0.4961   -1.3910 H   0  0  0  0  0  0  0  0  0  0  0  0
    0.1969    2.5552    1.2739 H   0  0  0  0  0  0  0  0  0  0  0  0
    0.3503    4.6704    0.0081 H   0  0  0  0  0  0  0  0  0  0  0  0
    0.2403    4.6366   -2.4855 H   0  0  0  0  0  0  0  0  0  0  0  0
   -0.1827    0.3813   -2.4422 H   0  0  0  0  0  0  0  0  0  0  0  0
   -3.2600    1.4116   -0.3686 H   0  0  0  0  0  0  0  0  0  0  0  0
   -4.5569    3.1518    0.7221 H   0  0  0  0  0  0  0  0  0  0  0  0
  1  2  1  0
  2  3  1  0
  3  4  2  0
  4  5  1  0
  5  6  2  0
  6  7  1  0
  7  8  1  0
  8  9  2  0
  8 10  1  0
 10 11  1  0
 11 12  1  0
 11 13  1  0
 11 14  1  0
  7 15  1  0
 15 16  1  0
 16 17  2  0
 16 18  1  0
 18 19  1  0
 19 20  1  0
 20 21  2  0
 20 22  1  0
 22 23  1  0
 23 24  1  0
 24 25  2  0
 25 26  1  0
 25 27  1  0
 27 28  1  0
 15 29  1  0
 29 30  2  0
 30 31  1  0
 31 32  2  0
 32 33  1  0
 33 34  1  0
 33 35  2  0
  6 36  1  0
 36 37  2  0
 37  3  1  0
 28 23  2  0
 35 29  1  0
  1 38  1  0
  1 39  1  0
  1 40  1  0
  4 41  1  0
  5 42  1  0
  7 43  1  0
 10 44  1  0
 12 45  1  0
 12 46  1  0
 12 47  1  0
 13 48  1  0
 13 49  1  0
 13 50  1  0
 14 51  1  0
 14 52  1  0
 14 53  1  0
 18 54  1  0
 18 55  1  0
 19 56  1  0
 19 57  1  0
 22 58  1  0
 24 59  1  0
 26 60  1  0
 26 61  1  0
 26 62  1  0
 30 63  1  0
 31 64  1  0
 32 65  1  0
 35 66  1  0
 36 67  1  0
 37 68  1  0
M  END
$$$$
