
     RDKit          3D

 55 58  0  0  0  0  0  0  0  0999 V2000
    8.4657   -1.7406   -1.2770 C   0  0  0  0  0  0  0  0  0  0  0  0
    8.0045   -0.5815   -0.5975 O   0  0  0  0  0  0  0  0  0  0  0  0
    6.6492   -0.4308   -0.4403 C   0  0  0  0  0  0  0  0  0  0  0  0
    5.6939   -1.3337   -0.9164 C   0  0  0  0  0  0  0  0  0  0  0  0
    4.3335   -1.0923   -0.7122 C   0  0  0  0  0  0  0  0  0  0  0  0
    3.9142    0.0593   -0.0398 C   0  0  0  0  0  0  0  0  0  0  0  0
    2.4513    0.2756    0.1484 C   0  0  0  0  0  0  0  0  0  0  0  0
    1.9609    1.6893    0.0696 C   0  0  0  0  0  0  0  0  0  0  0  0
    0.6378    1.8753    0.2457 C   0  0  0  0  0  0  0  0  0  0  0  0
   -0.0232    3.1986    0.1938 C   0  0  0  0  0  0  0  0  0  0  0  0
    0.8772    4.1920   -0.0559 F   0  0  0  0  0  0  0  0  0  0  0  0
   -0.9529    3.2871   -0.7901 F   0  0  0  0  0  0  0  0  0  0  0  0
   -0.6254    3.5333    1.3620 F   0  0  0  0  0  0  0  0  0  0  0  0
   -0.1861    0.7802    0.4767 N   0  0  0  0  0  0  0  0  0  0  0  0
   -1.5242    0.7646    0.6793 N   0  0  0  0  0  0  0  0  0  0  0  0
   -1.8616   -0.5284    0.8281 C   0  0  0  0  0  0  0  0  0  0  0  0
   -3.2327   -1.0286    1.0945 C   0  0  0  0  0  0  0  0  0  0  0  0
   -3.3760   -2.1882    1.4905 O   0  0  0  0  0  0  0  0  0  0  0  0
   -4.3422   -0.1944    0.9002 N   0  0  0  0  0  0  0  0  0  0  0  0
   -4.2842    1.1284    0.2950 C   0  0  0  0  0  0  0  0  0  0  0  0
   -5.6580   -0.6852    1.2966 C   0  0  0  0  0  0  0  0  0  0  0  0
   -6.4889   -1.1403    0.1180 C   0  0  0  0  0  0  0  0  0  0  0  0
   -7.6004   -0.3971   -0.3055 C   0  0  0  0  0  0  0  0  0  0  0  0
   -8.3620   -0.8194   -1.3970 C   0  0  0  0  0  0  0  0  0  0  0  0
   -8.0220   -1.9879   -2.0757 C   0  0  0  0  0  0  0  0  0  0  0  0
   -6.9213   -2.7361   -1.6639 C   0  0  0  0  0  0  0  0  0  0  0  0
   -6.1590   -2.3155   -0.5730 C   0  0  0  0  0  0  0  0  0  0  0  0
   -0.7090   -1.3508    0.7471 C   0  0  0  0  0  0  0  0  0  0  0  0
    0.3481   -0.5076    0.5145 C   0  0  0  0  0  0  0  0  0  0  0  0
    1.6787   -0.7553    0.3435 N   0  0  0  0  0  0  0  0  0  0  0  0
    4.8653    0.9585    0.4590 C   0  0  0  0  0  0  0  0  0  0  0  0
    6.2314    0.7216    0.2587 C   0  0  0  0  0  0  0  0  0  0  0  0
    7.2338    1.5492    0.7023 O   0  0  0  0  0  0  0  0  0  0  0  0
    6.8713    2.6815    1.4788 C   0  0  0  0  0  0  0  0  0  0  0  0
    8.1809   -2.6523   -0.7417 H   0  0  0  0  0  0  0  0  0  0  0  0
    9.5589   -1.6995   -1.3044 H   0  0  0  0  0  0  0  0  0  0  0  0
    8.1082   -1.7600   -2.3118 H   0  0  0  0  0  0  0  0  0  0  0  0
    5.9729   -2.2371   -1.4486 H   0  0  0  0  0  0  0  0  0  0  0  0
    3.6031   -1.8082   -1.0854 H   0  0  0  0  0  0  0  0  0  0  0  0
    2.6437    2.5008   -0.1480 H   0  0  0  0  0  0  0  0  0  0  0  0
   -5.2825    1.4636    0.0002 H   0  0  0  0  0  0  0  0  0  0  0  0
   -3.8869    1.8363    1.0277 H   0  0  0  0  0  0  0  0  0  0  0  0
   -3.6594    1.1075   -0.6016 H   0  0  0  0  0  0  0  0  0  0  0  0
   -5.5707   -1.5168    2.0058 H   0  0  0  0  0  0  0  0  0  0  0  0
   -6.1645    0.1202    1.8431 H   0  0  0  0  0  0  0  0  0  0  0  0
   -7.8804    0.5177    0.2115 H   0  0  0  0  0  0  0  0  0  0  0  0
   -9.2213   -0.2364   -1.7179 H   0  0  0  0  0  0  0  0  0  0  0  0
   -8.6151   -2.3166   -2.9250 H   0  0  0  0  0  0  0  0  0  0  0  0
   -6.6550   -3.6488   -2.1904 H   0  0  0  0  0  0  0  0  0  0  0  0
   -5.3037   -2.9117   -0.2598 H   0  0  0  0  0  0  0  0  0  0  0  0
   -0.6643   -2.4263    0.8466 H   0  0  0  0  0  0  0  0  0  0  0  0
    4.5354    1.8237    1.0209 H   0  0  0  0  0  0  0  0  0  0  0  0
    7.7915    3.1993    1.7657 H   0  0  0  0  0  0  0  0  0  0  0  0
    6.3573    2.3826    2.3984 H   0  0  0  0  0  0  0  0  0  0  0  0
    6.2644    3.3813    0.8951 H   0  0  0  0  0  0  0  0  0  0  0  0
  1  2  1  0
  2  3  1  0
  3  4  2  0
  4  5  1  0
  5  6  2  0
  6  7  1  0
  7  8  1  0
  8  9  2  0
  9 10  1  0
 10 11  1  0
 10 12  1  0
 10 13  1  0
  9 14  1  0
 14 15  1  0
 15 16  2  0
 16 17  1  0
 17 18  2  0
 17 19  1  0
 19 20  1  0
 19 21  1  0
 21 22  1  0
 22 23  2  0
 23 24  1  0
 24 25  2  0
 25 26  1  0
 26 27  2  0
 16 28  1  0
 28 29  2  0
 29 30  1  0
  6 31  1  0
 31 32  2  0
 32 33  1  0
 33 34  1  0
 32  3  1  0
 30  7  2  0
 29 14  1  0
 27 22  1  0
  1 35  1  0
  1 36  1  0
  1 37  1  0
  4 38  1  0
  5 39  1  0
  8 40  1  0
 20 41  1  0
 20 42  1  0
 20 43  1  0
 21 44  1  0
 21 45  1  0
 23 46  1  0
 24 47  1  0
 25 48  1  0
 26 49  1  0
 27 50  1  0
 28 51  1  0
 31 52  1  0
 34 53  1  0
 34 54  1  0
 34 55  1  0
M  END
$$$$
