
     RDKit          3D

 30 32  0  0  0  0  0  0  0  0999 V2000
   -0.1392    2.0467    0.7363 C   0  0  0  0  0  0  0  0  0  0  0  0
   -0.6023    0.7282    0.3522 N   0  0  0  0  0  0  0  0  0  0  0  0
    0.2151   -0.3166   -0.0335 C   0  0  0  0  0  0  0  0  0  0  0  0
    1.6727   -0.2395   -0.1076 C   0  0  0  0  0  0  0  0  0  0  0  0
    2.2733    0.2594   -1.2706 C   0  0  0  0  0  0  0  0  0  0  0  0
    3.6640    0.3564   -1.3626 C   0  0  0  0  0  0  0  0  0  0  0  0
    4.4648   -0.0449   -0.2935 C   0  0  0  0  0  0  0  0  0  0  0  0
    3.8776   -0.5470    0.8675 C   0  0  0  0  0  0  0  0  0  0  0  0
    2.4911   -0.6463    0.9560 C   0  0  0  0  0  0  0  0  0  0  0  0
    1.9856   -1.1477    2.1254 O   0  0  0  0  0  0  0  0  0  0  0  0
   -0.6062   -1.3928   -0.3107 C   0  0  0  0  0  0  0  0  0  0  0  0
   -1.9515   -0.9950   -0.0994 C   0  0  0  0  0  0  0  0  0  0  0  0
   -3.1899   -1.6547   -0.2259 C   0  0  0  0  0  0  0  0  0  0  0  0
   -4.3712   -0.9624    0.0570 C   0  0  0  0  0  0  0  0  0  0  0  0
   -4.3304    0.3690    0.4583 C   0  0  0  0  0  0  0  0  0  0  0  0
   -3.1129    1.0442    0.5908 C   0  0  0  0  0  0  0  0  0  0  0  0
   -1.9295    0.3404    0.3098 C   0  0  0  0  0  0  0  0  0  0  0  0
    0.8087    1.9608    1.2725 H   0  0  0  0  0  0  0  0  0  0  0  0
   -0.0153    2.6393   -0.1734 H   0  0  0  0  0  0  0  0  0  0  0  0
   -0.8682    2.5160    1.4002 H   0  0  0  0  0  0  0  0  0  0  0  0
    1.6593    0.5717   -2.1124 H   0  0  0  0  0  0  0  0  0  0  0  0
    4.1221    0.7428   -2.2696 H   0  0  0  0  0  0  0  0  0  0  0  0
    5.5468    0.0293   -0.3647 H   0  0  0  0  0  0  0  0  0  0  0  0
    4.4975   -0.8640    1.7014 H   0  0  0  0  0  0  0  0  0  0  0  0
    1.0223   -1.2414    2.0180 H   0  0  0  0  0  0  0  0  0  0  0  0
   -0.2702   -2.3677   -0.6410 H   0  0  0  0  0  0  0  0  0  0  0  0
   -3.2291   -2.6926   -0.5433 H   0  0  0  0  0  0  0  0  0  0  0  0
   -5.3277   -1.4696   -0.0410 H   0  0  0  0  0  0  0  0  0  0  0  0
   -5.2586    0.8943    0.6715 H   0  0  0  0  0  0  0  0  0  0  0  0
   -3.0987    2.0837    0.9014 H   0  0  0  0  0  0  0  0  0  0  0  0
  1  2  1  0
  2  3  1  0
  3  4  1  0
  4  5  2  0
  5  6  1  0
  6  7  2  0
  7  8  1  0
  8  9  2  0
  9 10  1  0
  3 11  2  0
 11 12  1  0
 12 13  2  0
 13 14  1  0
 14 15  2  0
 15 16  1  0
 16 17  2  0
 17  2  1  0
  9  4  1  0
 17 12  1  0
  1 18  1  0
  1 19  1  0
  1 20  1  0
  5 21  1  0
  6 22  1  0
  7 23  1  0
  8 24  1  0
 10 25  1  0
 11 26  1  0
 13 27  1  0
 14 28  1  0
 15 29  1  0
 16 30  1  0
M  END
$$$$
