
     RDKit          3D

 40 41  0  0  0  0  0  0  0  0999 V2000
   -6.7288    1.4799   -0.7836 C   0  0  0  0  0  0  0  0  0  0  0  0
   -5.9920    1.0321    0.3467 O   0  0  0  0  0  0  0  0  0  0  0  0
   -4.6466    1.2741    0.3463 C   0  0  0  0  0  0  0  0  0  0  0  0
   -3.9678    0.7990    1.4721 C   0  0  0  0  0  0  0  0  0  0  0  0
   -2.5881    0.9808    1.6038 C   0  0  0  0  0  0  0  0  0  0  0  0
   -1.8691    1.6462    0.6042 C   0  0  0  0  0  0  0  0  0  0  0  0
   -0.4036    1.8230    0.7882 C   0  0  0  0  0  0  0  0  0  0  0  0
    0.2169    1.4052    1.7544 O   0  0  0  0  0  0  0  0  0  0  0  0
    0.1349    2.4979   -0.2561 O   0  0  0  0  0  0  0  0  0  0  0  0
    1.5385    2.7453   -0.1639 C   0  0  0  0  0  0  0  0  0  0  0  0
    2.3925    1.5210   -0.4997 C   0  0  0  0  0  0  0  0  0  0  0  0
    2.8651    1.3366   -1.6180 O   0  0  0  0  0  0  0  0  0  0  0  0
    2.5843    0.6565    0.5566 N   0  0  0  0  0  0  0  0  0  0  0  0
    3.2782   -0.6069    0.3936 C   0  0  0  0  0  0  0  0  0  0  0  0
    2.3918   -1.6938   -0.2246 C   0  0  0  0  0  0  0  0  0  0  0  0
    3.0718   -2.9750   -0.2996 N   0  0  0  0  0  0  0  0  0  0  0  0
    3.7732   -3.4014   -1.3990 C   0  0  0  0  0  0  0  0  0  0  0  0
    3.7851   -2.6219   -2.5147 O   0  0  0  0  0  0  0  0  0  0  0  0
    4.3891   -4.5785   -1.2438 C   0  0  0  0  0  0  0  0  0  0  0  0
    4.1183   -5.2253    0.3465 S   0  0  0  0  0  0  0  0  0  0  0  0
    3.1473   -3.8119    0.8018 C   0  0  0  0  0  0  0  0  0  0  0  0
    2.6697   -3.6455    1.9121 O   0  0  0  0  0  0  0  0  0  0  0  0
   -2.5478    2.1192   -0.5271 C   0  0  0  0  0  0  0  0  0  0  0  0
   -3.9310    1.9332   -0.6540 C   0  0  0  0  0  0  0  0  0  0  0  0
   -6.6715    2.5686   -0.8876 H   0  0  0  0  0  0  0  0  0  0  0  0
   -6.3923    0.9784   -1.6965 H   0  0  0  0  0  0  0  0  0  0  0  0
   -7.7796    1.2158   -0.6262 H   0  0  0  0  0  0  0  0  0  0  0  0
   -4.5192    0.2810    2.2548 H   0  0  0  0  0  0  0  0  0  0  0  0
   -2.0838    0.5987    2.4898 H   0  0  0  0  0  0  0  0  0  0  0  0
    1.7837    3.5333   -0.8847 H   0  0  0  0  0  0  0  0  0  0  0  0
    1.8057    3.1373    0.8257 H   0  0  0  0  0  0  0  0  0  0  0  0
    1.9599    0.7591    1.3593 H   0  0  0  0  0  0  0  0  0  0  0  0
    4.1665   -0.4451   -0.2276 H   0  0  0  0  0  0  0  0  0  0  0  0
    3.6207   -0.9099    1.3885 H   0  0  0  0  0  0  0  0  0  0  0  0
    2.0368   -1.3985   -1.2183 H   0  0  0  0  0  0  0  0  0  0  0  0
    1.4974   -1.8198    0.3980 H   0  0  0  0  0  0  0  0  0  0  0  0
    4.3370   -3.0490   -3.1904 H   0  0  0  0  0  0  0  0  0  0  0  0
    4.9892   -5.0891   -1.9827 H   0  0  0  0  0  0  0  0  0  0  0  0
   -2.0165    2.6348   -1.3244 H   0  0  0  0  0  0  0  0  0  0  0  0
   -4.4160    2.3147   -1.5461 H   0  0  0  0  0  0  0  0  0  0  0  0
  1  2  1  0
  2  3  1  0
  3  4  2  0
  4  5  1  0
  5  6  2  0
  6  7  1  0
  7  8  2  0
  7  9  1  0
  9 10  1  0
 10 11  1  0
 11 12  2  0
 11 13  1  0
 13 14  1  0
 14 15  1  0
 15 16  1  0
 16 17  1  0
 17 18  1  0
 17 19  2  0
 19 20  1  0
 20 21  1  0
 21 22  2  0
  6 23  1  0
 23 24  2  0
 24  3  1  0
 21 16  1  0
  1 25  1  0
  1 26  1  0
  1 27  1  0
  4 28  1  0
  5 29  1  0
 10 30  1  0
 10 31  1  0
 13 32  1  0
 14 33  1  0
 14 34  1  0
 15 35  1  0
 15 36  1  0
 18 37  1  0
 19 38  1  0
 23 39  1  0
 24 40  1  0
M  END
$$$$
