
     RDKit          3D

 32 34  0  0  0  0  0  0  0  0999 V2000
   -0.3193    1.2148    0.7290 O   0  0  0  0  0  0  0  0  0  0  0  0
   -0.2699    0.1773    0.0884 C   0  0  0  0  0  0  0  0  0  0  0  0
   -1.4721   -0.5940   -0.3767 C   0  0  0  0  0  0  0  0  0  0  0  0
   -2.8848   -0.2441   -0.2212 C   0  0  0  0  0  0  0  0  0  0  0  0
   -3.8740   -1.2414   -0.1958 C   0  0  0  0  0  0  0  0  0  0  0  0
   -5.2249   -0.9128   -0.0476 C   0  0  0  0  0  0  0  0  0  0  0  0
   -5.6085    0.4189    0.0810 C   0  0  0  0  0  0  0  0  0  0  0  0
   -4.6421    1.4203    0.0650 C   0  0  0  0  0  0  0  0  0  0  0  0
   -3.2913    1.0905   -0.0833 C   0  0  0  0  0  0  0  0  0  0  0  0
   -0.9458   -1.6405   -1.0312 C   0  0  0  0  0  0  0  0  0  0  0  0
    0.4295   -1.6960   -1.0242 N   0  0  0  0  0  0  0  0  0  0  0  0
    0.8525   -0.5362   -0.3562 N   0  0  0  0  0  0  0  0  0  0  0  0
    2.2253   -0.2920   -0.1310 C   0  0  0  0  0  0  0  0  0  0  0  0
    3.1892   -1.2443   -0.5100 C   0  0  0  0  0  0  0  0  0  0  0  0
    4.5546   -1.0252   -0.2980 C   0  0  0  0  0  0  0  0  0  0  0  0
    4.9852    0.1558    0.2981 C   0  0  0  0  0  0  0  0  0  0  0  0
    4.0377    1.1119    0.6805 C   0  0  0  0  0  0  0  0  0  0  0  0
    4.4897    2.3616    1.3043 N   0  0  0  0  0  4  0  0  0  0  0  0
    3.6667    3.2786    1.4278 O   0  0  0  0  0  0  0  0  0  0  0  0
    5.6746    2.4278    1.6629 O   0  0  0  0  0  1  0  0  0  0  0  0
    2.6663    0.8939    0.4713 C   0  0  0  0  0  0  0  0  0  0  0  0
   -3.6073   -2.2927   -0.2759 H   0  0  0  0  0  0  0  0  0  0  0  0
   -5.9759   -1.6984   -0.0261 H   0  0  0  0  0  0  0  0  0  0  0  0
   -6.6576    0.6764    0.2000 H   0  0  0  0  0  0  0  0  0  0  0  0
   -4.9346    2.4620    0.1719 H   0  0  0  0  0  0  0  0  0  0  0  0
   -2.5631    1.8996   -0.0905 H   0  0  0  0  0  0  0  0  0  0  0  0
   -1.4807   -2.4052   -1.5791 H   0  0  0  0  0  0  0  0  0  0  0  0
    0.8062   -1.7671   -1.9715 H   0  0  0  0  0  0  0  0  0  0  0  0
    2.8917   -2.1901   -0.9568 H   0  0  0  0  0  0  0  0  0  0  0  0
    5.2781   -1.7822   -0.5931 H   0  0  0  0  0  0  0  0  0  0  0  0
    6.0496    0.3156    0.4583 H   0  0  0  0  0  0  0  0  0  0  0  0
    1.9548    1.6570    0.7771 H   0  0  0  0  0  0  0  0  0  0  0  0
  1  2  2  0
  2  3  1  0
  3  4  1  0
  4  5  2  0
  5  6  1  0
  6  7  2  0
  7  8  1  0
  8  9  2  0
  3 10  2  0
 10 11  1  0
 11 12  1  0
 12 13  1  0
 13 14  2  0
 14 15  1  0
 15 16  2  0
 16 17  1  0
 17 18  1  0
 18 19  2  0
 18 20  1  0
 17 21  2  0
 12  2  1  0
 21 13  1  0
  9  4  1  0
  5 22  1  0
  6 23  1  0
  7 24  1  0
  8 25  1  0
  9 26  1  0
 10 27  1  0
 11 28  1  0
 14 29  1  0
 15 30  1  0
 16 31  1  0
 21 32  1  0
M  CHG  2  18   1  20  -1
M  END
$$$$
