
     RDKit          3D

 54 56  0  0  0  0  0  0  0  0999 V2000
    8.0296    2.3104    1.2615 C   0  0  0  0  0  0  0  0  0  0  0  0
    7.3559    1.1957    1.8326 O   0  0  0  0  0  0  0  0  0  0  0  0
    6.6246    0.4141    0.9804 C   0  0  0  0  0  0  0  0  0  0  0  0
    5.9294   -0.6286    1.5961 C   0  0  0  0  0  0  0  0  0  0  0  0
    5.1414   -1.5044    0.8453 C   0  0  0  0  0  0  0  0  0  0  0  0
    5.0371   -1.3480   -0.5410 C   0  0  0  0  0  0  0  0  0  0  0  0
    4.1772   -2.2828   -1.3544 C   0  0  0  0  0  0  0  0  0  0  0  0
    2.9411   -1.6112   -1.9616 C   0  0  0  0  0  0  0  0  0  0  0  0
    1.9583   -1.1062   -0.9033 C   0  0  0  0  0  0  0  0  0  0  0  0
    0.7337   -0.5613   -1.5341 C   0  0  0  0  0  0  0  0  0  0  0  0
   -0.3663   -1.1818   -1.9037 N   0  0  0  0  0  0  0  0  0  0  0  0
   -1.1820   -0.2175   -2.4529 N   0  0  0  0  0  0  0  0  0  0  0  0
   -0.5294    0.9256   -2.3727 C   0  0  0  0  0  0  0  0  0  0  0  0
   -1.1405    2.4490   -2.9292 S   0  0  0  0  0  0  0  0  0  0  0  0
   -2.8835    2.0293   -3.1995 C   0  0  0  0  0  0  0  0  0  0  0  0
   -3.6235    1.9316   -1.8735 C   0  0  0  0  0  0  0  0  0  0  0  0
   -3.9951    2.9499   -1.2931 O   0  0  0  0  0  0  0  0  0  0  0  0
   -3.8195    0.6301   -1.4445 N   0  0  0  0  0  0  0  0  0  0  0  0
   -4.5344    0.1823   -0.3056 C   0  0  0  0  0  0  0  0  0  0  0  0
   -5.2052    1.0460    0.5646 C   0  0  0  0  0  0  0  0  0  0  0  0
   -5.9053    0.5663    1.6904 C   0  0  0  0  0  0  0  0  0  0  0  0
   -6.6137    1.5514    2.5827 C   0  0  0  0  0  0  0  0  0  0  0  0
   -5.9593   -0.8179    1.9381 C   0  0  0  0  0  0  0  0  0  0  0  0
   -6.6983   -1.3793    3.1214 C   0  0  0  0  0  0  0  0  0  0  0  0
   -5.2944   -1.6896    1.0657 C   0  0  0  0  0  0  0  0  0  0  0  0
   -4.5952   -1.1963   -0.0416 C   0  0  0  0  0  0  0  0  0  0  0  0
   -3.7638   -2.4704   -1.1844 Br  0  0  0  0  0  0  0  0  0  0  0  0
    0.7073    0.7791   -1.8041 O   0  0  0  0  0  0  0  0  0  0  0  0
    5.7428   -0.3064   -1.1573 C   0  0  0  0  0  0  0  0  0  0  0  0
    6.5304    0.5703   -0.4020 C   0  0  0  0  0  0  0  0  0  0  0  0
    8.5313    2.8483    2.0714 H   0  0  0  0  0  0  0  0  0  0  0  0
    8.7970    1.9851    0.5511 H   0  0  0  0  0  0  0  0  0  0  0  0
    7.3225    3.0022    0.7913 H   0  0  0  0  0  0  0  0  0  0  0  0
    6.0036   -0.7609    2.6732 H   0  0  0  0  0  0  0  0  0  0  0  0
    4.6122   -2.3057    1.3557 H   0  0  0  0  0  0  0  0  0  0  0  0
    3.8640   -3.1380   -0.7420 H   0  0  0  0  0  0  0  0  0  0  0  0
    4.7941   -2.7016   -2.1603 H   0  0  0  0  0  0  0  0  0  0  0  0
    3.2393   -0.7826   -2.6162 H   0  0  0  0  0  0  0  0  0  0  0  0
    2.4359   -2.3428   -2.6059 H   0  0  0  0  0  0  0  0  0  0  0  0
    2.4211   -0.3293   -0.2852 H   0  0  0  0  0  0  0  0  0  0  0  0
    1.6771   -1.9256   -0.2325 H   0  0  0  0  0  0  0  0  0  0  0  0
   -3.3504    2.8313   -3.7809 H   0  0  0  0  0  0  0  0  0  0  0  0
   -2.9906    1.1127   -3.7888 H   0  0  0  0  0  0  0  0  0  0  0  0
   -3.3295   -0.1071   -1.9512 H   0  0  0  0  0  0  0  0  0  0  0  0
   -5.1964    2.1189    0.3956 H   0  0  0  0  0  0  0  0  0  0  0  0
   -6.3535    1.3781    3.6323 H   0  0  0  0  0  0  0  0  0  0  0  0
   -7.6966    1.4587    2.4557 H   0  0  0  0  0  0  0  0  0  0  0  0
   -6.3315    2.5830    2.3475 H   0  0  0  0  0  0  0  0  0  0  0  0
   -6.2073   -1.0782    4.0517 H   0  0  0  0  0  0  0  0  0  0  0  0
   -7.7358   -1.0314    3.1254 H   0  0  0  0  0  0  0  0  0  0  0  0
   -6.7245   -2.4736    3.0949 H   0  0  0  0  0  0  0  0  0  0  0  0
   -5.3272   -2.7622    1.2479 H   0  0  0  0  0  0  0  0  0  0  0  0
    5.6878   -0.1691   -2.2354 H   0  0  0  0  0  0  0  0  0  0  0  0
    7.0583    1.3602   -0.9258 H   0  0  0  0  0  0  0  0  0  0  0  0
  1  2  1  0
  2  3  1  0
  3  4  2  0
  4  5  1  0
  5  6  2  0
  6  7  1  0
  7  8  1  0
  8  9  1  0
  9 10  1  0
 10 11  2  0
 11 12  1  0
 12 13  2  0
 13 14  1  0
 14 15  1  0
 15 16  1  0
 16 17  2  0
 16 18  1  0
 18 19  1  0
 19 20  2  0
 20 21  1  0
 21 22  1  0
 21 23  2  0
 23 24  1  0
 23 25  1  0
 25 26  2  0
 26 27  1  0
 13 28  1  0
  6 29  1  0
 29 30  2  0
 30  3  1  0
 28 10  1  0
 26 19  1  0
  1 31  1  0
  1 32  1  0
  1 33  1  0
  4 34  1  0
  5 35  1  0
  7 36  1  0
  7 37  1  0
  8 38  1  0
  8 39  1  0
  9 40  1  0
  9 41  1  0
 15 42  1  0
 15 43  1  0
 18 44  1  0
 20 45  1  0
 22 46  1  0
 22 47  1  0
 22 48  1  0
 24 49  1  0
 24 50  1  0
 24 51  1  0
 25 52  1  0
 29 53  1  0
 30 54  1  0
M  END
$$$$
