
     RDKit          3D

 35 35  0  0  0  0  0  0  0  0999 V2000
   -3.3973   -1.7088   -0.5079 C   0  0  0  0  0  0  0  0  0  0  0  0
   -3.3587   -0.4655    0.3891 C   0  0  0  0  0  0  0  0  0  0  0  0
   -4.7809    0.0660    0.6139 C   0  0  0  0  0  0  0  0  0  0  0  0
   -2.4584    0.6188   -0.0654 N   0  0  0  0  0  0  0  0  0  0  0  0
   -2.7154    1.0603   -1.4390 C   0  0  0  0  0  0  0  0  0  0  0  0
   -1.0386    0.2534    0.1176 C   0  0  0  0  0  0  0  0  0  0  0  0
   -0.0735    1.4495    0.0526 C   0  0  0  0  0  0  0  0  0  0  0  0
    1.2540    1.0499    0.4413 O   0  0  0  0  0  0  0  0  0  0  0  0
    1.9920    0.4699   -0.5341 C   0  0  0  0  0  0  0  0  0  0  0  0
    1.6308    0.1938   -1.6652 O   0  0  0  0  0  0  0  0  0  0  0  0
    3.3060    0.0960    0.0152 C   0  0  0  0  0  0  0  0  0  0  0  0
    3.6528   -1.2618   -0.0469 C   0  0  0  0  0  0  0  0  0  0  0  0
    4.8785   -1.6951    0.4587 C   0  0  0  0  0  0  0  0  0  0  0  0
    5.7637   -0.7748    1.0174 C   0  0  0  0  0  0  0  0  0  0  0  0
    5.4304    0.5812    1.0620 C   0  0  0  0  0  0  0  0  0  0  0  0
    4.2030    1.0238    0.5559 C   0  0  0  0  0  0  0  0  0  0  0  0
    3.8705    2.8929    0.5855 Br  0  0  0  0  0  0  0  0  0  0  0  0
   -2.3997   -2.1361   -0.6480 H   0  0  0  0  0  0  0  0  0  0  0  0
   -4.0205   -2.4858   -0.0509 H   0  0  0  0  0  0  0  0  0  0  0  0
   -3.8203   -1.4901   -1.4938 H   0  0  0  0  0  0  0  0  0  0  0  0
   -3.0146   -0.7893    1.3809 H   0  0  0  0  0  0  0  0  0  0  0  0
   -5.3910   -0.6872    1.1254 H   0  0  0  0  0  0  0  0  0  0  0  0
   -5.2867    0.3130   -0.3247 H   0  0  0  0  0  0  0  0  0  0  0  0
   -4.7701    0.9613    1.2453 H   0  0  0  0  0  0  0  0  0  0  0  0
   -3.7684    1.3152   -1.5919 H   0  0  0  0  0  0  0  0  0  0  0  0
   -2.1613    1.9777   -1.6620 H   0  0  0  0  0  0  0  0  0  0  0  0
   -2.4321    0.3062   -2.1812 H   0  0  0  0  0  0  0  0  0  0  0  0
   -0.9005   -0.2035    1.1068 H   0  0  0  0  0  0  0  0  0  0  0  0
   -0.7313   -0.5133   -0.6040 H   0  0  0  0  0  0  0  0  0  0  0  0
   -0.3874    2.2211    0.7644 H   0  0  0  0  0  0  0  0  0  0  0  0
   -0.0478    1.9160   -0.9387 H   0  0  0  0  0  0  0  0  0  0  0  0
    2.9665   -1.9822   -0.4882 H   0  0  0  0  0  0  0  0  0  0  0  0
    5.1441   -2.7489    0.4141 H   0  0  0  0  0  0  0  0  0  0  0  0
    6.7209   -1.1110    1.4100 H   0  0  0  0  0  0  0  0  0  0  0  0
    6.1416    1.2871    1.4855 H   0  0  0  0  0  0  0  0  0  0  0  0
  1  2  1  0
  2  3  1  0
  2  4  1  0
  4  5  1  0
  4  6  1  0
  6  7  1  0
  7  8  1  0
  8  9  1  0
  9 10  2  0
  9 11  1  0
 11 12  2  0
 12 13  1  0
 13 14  2  0
 14 15  1  0
 15 16  2  0
 16 17  1  0
 16 11  1  0
  1 18  1  0
  1 19  1  0
  1 20  1  0
  2 21  1  0
  3 22  1  0
  3 23  1  0
  3 24  1  0
  5 25  1  0
  5 26  1  0
  5 27  1  0
  6 28  1  0
  6 29  1  0
  7 30  1  0
  7 31  1  0
 12 32  1  0
 13 33  1  0
 14 34  1  0
 15 35  1  0
M  END
$$$$
