
     RDKit          3D

 43 45  0  0  0  0  0  0  0  0999 V2000
    7.9484   -1.8518    1.3367 C   0  0  0  0  0  0  0  0  0  0  0  0
    6.5910   -1.4703    1.1080 O   0  0  0  0  0  0  0  0  0  0  0  0
    6.3897   -0.1283    1.1121 C   0  0  0  0  0  0  0  0  0  0  0  0
    7.2486    0.7211    1.2884 O   0  0  0  0  0  0  0  0  0  0  0  0
    4.9556    0.1881    0.8685 C   0  0  0  0  0  0  0  0  0  0  0  0
    3.9873   -0.8049    0.6681 C   0  0  0  0  0  0  0  0  0  0  0  0
    2.6486   -0.4571    0.4423 C   0  0  0  0  0  0  0  0  0  0  0  0
    2.2672    0.8847    0.4148 C   0  0  0  0  0  0  0  0  0  0  0  0
    1.0036    1.3600    0.2063 O   0  0  0  0  0  0  0  0  0  0  0  0
   -0.0280    0.4061   -0.0219 C   0  0  0  0  0  0  0  0  0  0  0  0
   -1.3957    1.0881   -0.2355 C   0  0  0  0  0  0  0  0  0  0  0  0
   -1.4707    2.3169   -0.1810 O   0  0  0  0  0  0  0  0  0  0  0  0
   -2.4874    0.2174   -0.4936 N   0  0  0  0  0  0  0  0  0  0  0  0
   -2.2284   -1.1886   -0.8367 C   0  0  0  0  0  0  0  0  0  0  0  0
   -3.4421   -2.0969   -0.7883 C   0  0  0  0  0  0  0  0  0  0  0  0
   -4.5183   -1.5287   -1.6846 C   0  0  0  0  0  0  0  0  0  0  0  0
   -4.8282   -0.1230   -1.2529 C   0  0  0  0  0  0  0  0  0  0  0  0
   -6.1334    0.3583   -1.4713 C   0  0  0  0  0  0  0  0  0  0  0  0
   -6.4893    1.6443   -1.0846 C   0  0  0  0  0  0  0  0  0  0  0  0
   -5.5445    2.4560   -0.4749 C   0  0  0  0  0  0  0  0  0  0  0  0
   -4.2400    1.9897   -0.2707 C   0  0  0  0  0  0  0  0  0  0  0  0
   -3.8399    0.7068   -0.6760 C   0  0  0  0  0  0  0  0  0  0  0  0
    3.2329    1.8741    0.6153 C   0  0  0  0  0  0  0  0  0  0  0  0
    4.5691    1.5325    0.8407 C   0  0  0  0  0  0  0  0  0  0  0  0
    8.5958   -1.4574    0.5472 H   0  0  0  0  0  0  0  0  0  0  0  0
    8.2825   -1.5092    2.3210 H   0  0  0  0  0  0  0  0  0  0  0  0
    8.0013   -2.9438    1.3141 H   0  0  0  0  0  0  0  0  0  0  0  0
    4.2589   -1.8577    0.6853 H   0  0  0  0  0  0  0  0  0  0  0  0
    1.9348   -1.2601    0.2939 H   0  0  0  0  0  0  0  0  0  0  0  0
    0.2115   -0.1659   -0.9250 H   0  0  0  0  0  0  0  0  0  0  0  0
   -0.1180   -0.2397    0.8590 H   0  0  0  0  0  0  0  0  0  0  0  0
   -1.4859   -1.6016   -0.1476 H   0  0  0  0  0  0  0  0  0  0  0  0
   -1.7815   -1.1993   -1.8391 H   0  0  0  0  0  0  0  0  0  0  0  0
   -3.1706   -3.1066   -1.1154 H   0  0  0  0  0  0  0  0  0  0  0  0
   -3.8076   -2.1753    0.2438 H   0  0  0  0  0  0  0  0  0  0  0  0
   -5.4106   -2.1617   -1.6134 H   0  0  0  0  0  0  0  0  0  0  0  0
   -4.1942   -1.5209   -2.7321 H   0  0  0  0  0  0  0  0  0  0  0  0
   -6.8818   -0.2772   -1.9402 H   0  0  0  0  0  0  0  0  0  0  0  0
   -7.4994    2.0084   -1.2495 H   0  0  0  0  0  0  0  0  0  0  0  0
   -5.8119    3.4593   -0.1527 H   0  0  0  0  0  0  0  0  0  0  0  0
   -3.5637    2.6705    0.2358 H   0  0  0  0  0  0  0  0  0  0  0  0
    2.9411    2.9224    0.5957 H   0  0  0  0  0  0  0  0  0  0  0  0
    5.3030    2.3214    0.9942 H   0  0  0  0  0  0  0  0  0  0  0  0
  1  2  1  0
  2  3  1  0
  3  4  2  0
  3  5  1  0
  5  6  2  0
  6  7  1  0
  7  8  2  0
  8  9  1  0
  9 10  1  0
 10 11  1  0
 11 12  2  0
 11 13  1  0
 13 14  1  0
 14 15  1  0
 15 16  1  0
 16 17  1  0
 17 18  2  0
 18 19  1  0
 19 20  2  0
 20 21  1  0
 21 22  2  0
  8 23  1  0
 23 24  2  0
 24  5  1  0
 22 13  1  0
 22 17  1  0
  1 25  1  0
  1 26  1  0
  1 27  1  0
  6 28  1  0
  7 29  1  0
 10 30  1  0
 10 31  1  0
 14 32  1  0
 14 33  1  0
 15 34  1  0
 15 35  1  0
 16 36  1  0
 16 37  1  0
 18 38  1  0
 19 39  1  0
 20 40  1  0
 21 41  1  0
 23 42  1  0
 24 43  1  0
M  END
$$$$
