
     RDKit          3D

 52 55  0  0  0  0  0  0  0  0999 V2000
    6.8570    1.0344    3.8842 C   0  0  0  0  0  0  0  0  0  0  0  0
    5.5762    0.9375    4.4940 O   0  0  0  0  0  0  0  0  0  0  0  0
    4.5862    0.3471    3.7581 C   0  0  0  0  0  0  0  0  0  0  0  0
    4.7291   -0.2203    2.4928 C   0  0  0  0  0  0  0  0  0  0  0  0
    3.6230   -0.7900    1.8486 C   0  0  0  0  0  0  0  0  0  0  0  0
    2.3621   -0.8053    2.4585 C   0  0  0  0  0  0  0  0  0  0  0  0
    1.3058   -1.3863    1.7308 N   0  0  0  0  0  0  0  0  0  0  0  0
   -0.0341   -1.4461    2.0698 C   0  0  0  0  0  0  0  0  0  0  0  0
   -0.5260   -1.0689    3.1328 O   0  0  0  0  0  0  0  0  0  0  0  0
   -0.9159   -2.1416    1.0345 C   0  0  0  0  0  0  0  0  0  0  0  0
   -0.3582   -1.9427   -0.6890 S   0  0  0  0  0  0  0  0  0  0  0  0
   -0.8647   -0.2762   -0.9575 C   0  0  0  0  0  0  0  0  0  0  0  0
   -0.5001    0.5706   -0.0455 N   0  0  0  0  0  0  0  0  0  0  0  0
   -0.9394    1.8506   -0.1902 C   0  0  0  0  0  0  0  0  0  0  0  0
   -1.6890    2.2939   -1.1971 C   0  0  0  0  0  0  0  0  0  0  0  0
   -2.0700    1.3643   -2.2831 C   0  0  0  0  0  0  0  0  0  0  0  0
   -2.6756    1.7699   -3.2763 O   0  0  0  0  0  0  0  0  0  0  0  0
   -1.6271    0.0478   -2.0812 N   0  0  0  0  0  0  0  0  0  0  0  0
   -1.9848   -0.9114   -3.0763 C   0  0  0  0  0  0  0  0  0  0  0  0
   -0.9906   -1.5107   -3.8649 C   0  0  0  0  0  0  0  0  0  0  0  0
   -1.3394   -2.4271   -4.8581 C   0  0  0  0  0  0  0  0  0  0  0  0
   -2.6794   -2.7520   -5.0698 C   0  0  0  0  0  0  0  0  0  0  0  0
   -3.6775   -2.1575   -4.2948 C   0  0  0  0  0  0  0  0  0  0  0  0
   -3.3361   -1.2245   -3.3116 C   0  0  0  0  0  0  0  0  0  0  0  0
   -4.2829   -0.6782   -2.4793 O   0  0  0  0  0  0  0  0  0  0  0  0
   -5.3696   -0.0871   -3.1945 C   0  0  0  0  0  0  0  0  0  0  0  0
   -2.1049    3.9575   -1.1319 S   0  0  0  0  0  0  0  0  0  0  0  0
   -1.4933    4.1014    0.5873 C   0  0  0  0  0  0  0  0  0  0  0  0
   -0.5927    2.8863    0.8371 C   0  0  0  0  0  0  0  0  0  0  0  0
    2.2265   -0.2488    3.7298 C   0  0  0  0  0  0  0  0  0  0  0  0
    3.3320    0.3247    4.3708 C   0  0  0  0  0  0  0  0  0  0  0  0
    7.5231    1.5455    4.5867 H   0  0  0  0  0  0  0  0  0  0  0  0
    7.2775    0.0429    3.6884 H   0  0  0  0  0  0  0  0  0  0  0  0
    6.8131    1.6346    2.9688 H   0  0  0  0  0  0  0  0  0  0  0  0
    5.6853   -0.2391    1.9777 H   0  0  0  0  0  0  0  0  0  0  0  0
    3.7663   -1.2180    0.8577 H   0  0  0  0  0  0  0  0  0  0  0  0
    1.5262   -1.7002    0.7920 H   0  0  0  0  0  0  0  0  0  0  0  0
   -0.9237   -3.2107    1.2715 H   0  0  0  0  0  0  0  0  0  0  0  0
   -1.9400   -1.7629    1.1262 H   0  0  0  0  0  0  0  0  0  0  0  0
    0.0569   -1.2540   -3.7277 H   0  0  0  0  0  0  0  0  0  0  0  0
   -0.5654   -2.8870   -5.4686 H   0  0  0  0  0  0  0  0  0  0  0  0
   -2.9477   -3.4741   -5.8377 H   0  0  0  0  0  0  0  0  0  0  0  0
   -4.7123   -2.4457   -4.4533 H   0  0  0  0  0  0  0  0  0  0  0  0
   -5.8480    0.6412   -2.5295 H   0  0  0  0  0  0  0  0  0  0  0  0
   -6.1164   -0.8470   -3.4527 H   0  0  0  0  0  0  0  0  0  0  0  0
   -5.0344    0.4447   -4.0937 H   0  0  0  0  0  0  0  0  0  0  0  0
   -0.9548    5.0433    0.7368 H   0  0  0  0  0  0  0  0  0  0  0  0
   -2.3571    4.0849    1.2626 H   0  0  0  0  0  0  0  0  0  0  0  0
    0.4639    3.1640    0.7393 H   0  0  0  0  0  0  0  0  0  0  0  0
   -0.7437    2.5098    1.8547 H   0  0  0  0  0  0  0  0  0  0  0  0
    1.2765   -0.2419    4.2531 H   0  0  0  0  0  0  0  0  0  0  0  0
    3.2083    0.7585    5.3597 H   0  0  0  0  0  0  0  0  0  0  0  0
  1  2  1  0
  2  3  1  0
  3  4  2  0
  4  5  1  0
  5  6  2  0
  6  7  1  0
  7  8  1  0
  8  9  2  0
  8 10  1  0
 10 11  1  0
 11 12  1  0
 12 13  2  0
 13 14  1  0
 14 15  2  0
 15 16  1  0
 16 17  2  0
 16 18  1  0
 18 19  1  0
 19 20  2  0
 20 21  1  0
 21 22  2  0
 22 23  1  0
 23 24  2  0
 24 25  1  0
 25 26  1  0
 15 27  1  0
 27 28  1  0
 28 29  1  0
  6 30  1  0
 30 31  2  0
 31  3  1  0
 18 12  1  0
 24 19  1  0
 29 14  1  0
  1 32  1  0
  1 33  1  0
  1 34  1  0
  4 35  1  0
  5 36  1  0
  7 37  1  0
 10 38  1  0
 10 39  1  0
 20 40  1  0
 21 41  1  0
 22 42  1  0
 23 43  1  0
 26 44  1  0
 26 45  1  0
 26 46  1  0
 28 47  1  0
 28 48  1  0
 29 49  1  0
 29 50  1  0
 30 51  1  0
 31 52  1  0
M  END
$$$$
