
     RDKit          3D

 46 48  0  0  0  0  0  0  0  0999 V2000
    7.9496   -1.7547    2.3120 C   0  0  0  0  0  0  0  0  0  0  0  0
    7.6748   -2.1730    0.8800 C   0  0  0  0  0  0  0  0  0  0  0  0
    6.8531   -1.1919    0.2287 O   0  0  0  0  0  0  0  0  0  0  0  0
    5.5147   -1.3551    0.3689 C   0  0  0  0  0  0  0  0  0  0  0  0
    4.9603   -2.2410    1.0008 O   0  0  0  0  0  0  0  0  0  0  0  0
    4.7759   -0.2916   -0.3625 C   0  0  0  0  0  0  0  0  0  0  0  0
    5.4245    0.6937   -1.1148 C   0  0  0  0  0  0  0  0  0  0  0  0
    4.6750    1.6612   -1.7818 C   0  0  0  0  0  0  0  0  0  0  0  0
    3.2789    1.6520   -1.7018 C   0  0  0  0  0  0  0  0  0  0  0  0
    2.6163    0.6754   -0.9567 C   0  0  0  0  0  0  0  0  0  0  0  0
    1.2138    0.6028   -0.8193 N   0  0  0  0  0  0  0  0  0  0  0  0
    0.2680    1.3903   -1.4509 C   0  0  0  0  0  0  0  0  0  0  0  0
    0.4742    2.2471   -2.3027 O   0  0  0  0  0  0  0  0  0  0  0  0
   -1.1433    1.1085   -1.0640 C   0  0  0  0  0  0  0  0  0  0  0  0
   -1.4980    0.7618    0.2434 C   0  0  0  0  0  0  0  0  0  0  0  0
   -2.8381    0.5094    0.5660 C   0  0  0  0  0  0  0  0  0  0  0  0
   -3.8370    0.6084   -0.4055 C   0  0  0  0  0  0  0  0  0  0  0  0
   -5.2055    0.3654   -0.1651 N   0  0  0  0  0  0  0  0  0  0  0  0
   -5.8213    0.0771    1.0472 C   0  0  0  0  0  0  0  0  0  0  0  0
   -5.2356    0.0298    2.1247 O   0  0  0  0  0  0  0  0  0  0  0  0
   -7.2557   -0.1559    0.9333 C   0  0  0  0  0  0  0  0  0  0  0  0
   -8.0966   -0.4325   -0.1346 C   0  0  0  0  0  0  0  0  0  0  0  0
   -9.4056   -0.5643    0.3929 C   0  0  0  0  0  0  0  0  0  0  0  0
   -9.2933   -0.3617    1.7467 C   0  0  0  0  0  0  0  0  0  0  0  0
   -8.0023   -0.1239    2.0841 O   0  0  0  0  0  0  0  0  0  0  0  0
   -3.4751    0.9689   -1.7102 C   0  0  0  0  0  0  0  0  0  0  0  0
   -2.1397    1.2251   -2.0373 C   0  0  0  0  0  0  0  0  0  0  0  0
    3.3739   -0.2934   -0.2865 C   0  0  0  0  0  0  0  0  0  0  0  0
    8.6283   -2.4614    2.7980 H   0  0  0  0  0  0  0  0  0  0  0  0
    7.0228   -1.7040    2.8918 H   0  0  0  0  0  0  0  0  0  0  0  0
    8.3981   -0.7569    2.3385 H   0  0  0  0  0  0  0  0  0  0  0  0
    8.6166   -2.2210    0.3231 H   0  0  0  0  0  0  0  0  0  0  0  0
    7.2211   -3.1700    0.8304 H   0  0  0  0  0  0  0  0  0  0  0  0
    6.5083    0.7199   -1.1930 H   0  0  0  0  0  0  0  0  0  0  0  0
    5.1745    2.4282   -2.3681 H   0  0  0  0  0  0  0  0  0  0  0  0
    2.7365    2.4292   -2.2316 H   0  0  0  0  0  0  0  0  0  0  0  0
    0.8686   -0.1539   -0.2416 H   0  0  0  0  0  0  0  0  0  0  0  0
   -0.7549    0.7116    1.0353 H   0  0  0  0  0  0  0  0  0  0  0  0
   -3.0647    0.2437    1.5943 H   0  0  0  0  0  0  0  0  0  0  0  0
   -5.8144    0.4748   -0.9629 H   0  0  0  0  0  0  0  0  0  0  0  0
   -7.8097   -0.5490   -1.1705 H   0  0  0  0  0  0  0  0  0  0  0  0
  -10.3170   -0.7851   -0.1441 H   0  0  0  0  0  0  0  0  0  0  0  0
   -9.9979   -0.3596    2.5677 H   0  0  0  0  0  0  0  0  0  0  0  0
   -4.2238    1.0652   -2.4922 H   0  0  0  0  0  0  0  0  0  0  0  0
   -1.8782    1.5149   -3.0538 H   0  0  0  0  0  0  0  0  0  0  0  0
    2.8803   -1.0642    0.3026 H   0  0  0  0  0  0  0  0  0  0  0  0
  1  2  1  0
  2  3  1  0
  3  4  1  0
  4  5  2  0
  4  6  1  0
  6  7  2  0
  7  8  1  0
  8  9  2  0
  9 10  1  0
 10 11  1  0
 11 12  1  0
 12 13  2  0
 12 14  1  0
 14 15  2  0
 15 16  1  0
 16 17  2  0
 17 18  1  0
 18 19  1  0
 19 20  2  0
 19 21  1  0
 21 22  2  0
 22 23  1  0
 23 24  2  0
 24 25  1  0
 17 26  1  0
 26 27  2  0
 10 28  2  0
 28  6  1  0
 27 14  1  0
 25 21  1  0
  1 29  1  0
  1 30  1  0
  1 31  1  0
  2 32  1  0
  2 33  1  0
  7 34  1  0
  8 35  1  0
  9 36  1  0
 11 37  1  0
 15 38  1  0
 16 39  1  0
 18 40  1  0
 22 41  1  0
 23 42  1  0
 24 43  1  0
 26 44  1  0
 27 45  1  0
 28 46  1  0
M  END
$$$$
