
     RDKit          3D

 43 45  0  0  0  0  0  0  0  0999 V2000
   -7.0628   -0.3743    1.1072 C   0  0  0  0  0  0  0  0  0  0  0  0
   -5.9189   -1.2048    0.7341 N   0  0  0  0  0  0  0  0  0  0  0  0
   -5.7374   -2.4185    1.5290 C   0  0  0  0  0  0  0  0  0  0  0  0
   -4.7921   -0.5905    0.1729 C   0  0  0  0  0  0  0  0  0  0  0  0
   -4.8341    0.7106   -0.3562 C   0  0  0  0  0  0  0  0  0  0  0  0
   -3.7107    1.3253   -0.9333 C   0  0  0  0  0  0  0  0  0  0  0  0
   -2.4883    0.6583   -1.0055 C   0  0  0  0  0  0  0  0  0  0  0  0
   -1.3446    1.3256   -1.6453 C   0  0  0  0  0  0  0  0  0  0  0  0
   -0.0629    1.1366   -1.2904 C   0  0  0  0  0  0  0  0  0  0  0  0
    1.0345    1.8220   -1.9430 C   0  0  0  0  0  0  0  0  0  0  0  0
    2.3479    1.6918   -1.6956 C   0  0  0  0  0  0  0  0  0  0  0  0
    3.5229    2.6008   -2.5670 S   0  0  0  0  0  0  0  0  0  0  0  0
    4.8814    1.8090   -1.7720 C   0  0  0  0  0  0  0  0  0  0  0  0
    6.4352    2.0874   -2.3331 S   0  0  0  0  0  0  0  0  0  0  0  0
    4.4163    0.9528   -0.7807 N   0  0  0  0  0  0  0  0  0  0  0  0
    5.2607    0.2177    0.1188 C   0  0  0  0  0  0  0  0  0  0  0  0
    6.3875    0.8057    0.7137 C   0  0  0  0  0  0  0  0  0  0  0  0
    7.1999    0.0836    1.5948 C   0  0  0  0  0  0  0  0  0  0  0  0
    6.8939   -1.2374    1.9046 C   0  0  0  0  0  0  0  0  0  0  0  0
    5.7713   -1.8340    1.3407 C   0  0  0  0  0  0  0  0  0  0  0  0
    4.9598   -1.1110    0.4606 C   0  0  0  0  0  0  0  0  0  0  0  0
    3.0275    0.8126   -0.6964 C   0  0  0  0  0  0  0  0  0  0  0  0
    2.4048    0.1078    0.0886 O   0  0  0  0  0  0  0  0  0  0  0  0
   -2.4282   -0.6465   -0.5184 C   0  0  0  0  0  0  0  0  0  0  0  0
   -3.5579   -1.2525    0.0563 C   0  0  0  0  0  0  0  0  0  0  0  0
   -7.8659   -0.9780    1.5448 H   0  0  0  0  0  0  0  0  0  0  0  0
   -6.7769    0.3813    1.8474 H   0  0  0  0  0  0  0  0  0  0  0  0
   -7.5009    0.1147    0.2307 H   0  0  0  0  0  0  0  0  0  0  0  0
   -5.3283   -3.2331    0.9219 H   0  0  0  0  0  0  0  0  0  0  0  0
   -5.0830   -2.2333    2.3880 H   0  0  0  0  0  0  0  0  0  0  0  0
   -6.6944   -2.7863    1.9161 H   0  0  0  0  0  0  0  0  0  0  0  0
   -5.7511    1.2912   -0.3402 H   0  0  0  0  0  0  0  0  0  0  0  0
   -3.8121    2.3368   -1.3195 H   0  0  0  0  0  0  0  0  0  0  0  0
   -1.6004    2.0205   -2.4422 H   0  0  0  0  0  0  0  0  0  0  0  0
    0.1711    0.4585   -0.4739 H   0  0  0  0  0  0  0  0  0  0  0  0
    0.7306    2.5210   -2.7235 H   0  0  0  0  0  0  0  0  0  0  0  0
    6.6387    1.8493    0.5438 H   0  0  0  0  0  0  0  0  0  0  0  0
    8.0668    0.5604    2.0460 H   0  0  0  0  0  0  0  0  0  0  0  0
    7.5239   -1.7980    2.5904 H   0  0  0  0  0  0  0  0  0  0  0  0
    5.5219   -2.8640    1.5838 H   0  0  0  0  0  0  0  0  0  0  0  0
    4.0997   -1.6204    0.0312 H   0  0  0  0  0  0  0  0  0  0  0  0
   -1.5102   -1.2251   -0.5858 H   0  0  0  0  0  0  0  0  0  0  0  0
   -3.4354   -2.2731    0.4053 H   0  0  0  0  0  0  0  0  0  0  0  0
  1  2  1  0
  2  3  1  0
  2  4  1  0
  4  5  2  0
  5  6  1  0
  6  7  2  0
  7  8  1  0
  8  9  2  3
  9 10  1  0
 10 11  2  3
 11 12  1  0
 12 13  1  0
 13 14  2  0
 13 15  1  0
 15 16  1  0
 16 17  2  0
 17 18  1  0
 18 19  2  0
 19 20  1  0
 20 21  2  0
 15 22  1  0
 22 23  2  0
  7 24  1  0
 24 25  2  0
 25  4  1  0
 22 11  1  0
 21 16  1  0
  1 26  1  0
  1 27  1  0
  1 28  1  0
  3 29  1  0
  3 30  1  0
  3 31  1  0
  5 32  1  0
  6 33  1  0
  8 34  1  0
  9 35  1  0
 10 36  1  0
 17 37  1  0
 18 38  1  0
 19 39  1  0
 20 40  1  0
 21 41  1  0
 24 42  1  0
 25 43  1  0
M  END
$$$$
