
     RDKit          3D

 42 44  0  0  0  0  0  0  0  0999 V2000
   -0.7409   -3.1707   -0.6739 C   0  0  0  0  0  0  0  0  0  0  0  0
   -0.8855   -1.7187   -0.3426 C   0  0  0  0  0  0  0  0  0  0  0  0
    0.0632   -0.8465    0.0386 C   0  0  0  0  0  0  0  0  0  0  0  0
    1.4232   -0.9011    0.1972 N   0  0  0  0  0  0  0  0  0  0  0  0
    2.3129   -1.8215   -0.3151 C   0  0  0  0  0  0  0  0  0  0  0  0
    2.0339   -2.7357   -1.0868 O   0  0  0  0  0  0  0  0  0  0  0  0
    3.7344   -1.6230    0.1576 C   0  0  0  0  0  0  0  0  0  0  0  0
    4.3082   -0.4229   -0.4174 N   0  0  0  0  0  0  0  0  0  0  0  0
    5.1022   -0.3349   -1.5260 C   0  0  0  0  0  0  0  0  0  0  0  0
    5.4090    0.9998   -1.6735 C   0  0  0  0  0  0  0  0  0  0  0  0
    4.7549    1.6389   -0.5960 C   0  0  0  0  0  0  0  0  0  0  0  0
    4.7466    3.0520   -0.2576 N   0  0  0  0  0  4  0  0  0  0  0  0
    5.3269    3.8062   -1.0547 O   0  0  0  0  0  0  0  0  0  0  0  0
    4.1845    3.4082    0.7874 O   0  0  0  0  0  1  0  0  0  0  0  0
    4.0718    0.7681    0.1725 N   0  0  0  0  0  0  0  0  0  0  0  0
   -0.6652    0.4219    0.3720 C   0  0  0  0  0  0  0  0  0  0  0  0
   -0.0854    1.4043    0.8117 O   0  0  0  0  0  0  0  0  0  0  0  0
   -2.0205    0.1802    0.1395 N   0  0  0  0  0  0  0  0  0  0  0  0
   -3.0986    0.8684    0.7545 C   0  0  0  0  0  0  0  0  0  0  0  0
   -2.9607    2.2027    1.1635 C   0  0  0  0  0  0  0  0  0  0  0  0
   -4.0222    2.8858    1.7690 C   0  0  0  0  0  0  0  0  0  0  0  0
   -5.2383    2.2426    1.9799 C   0  0  0  0  0  0  0  0  0  0  0  0
   -5.3931    0.9154    1.5886 C   0  0  0  0  0  0  0  0  0  0  0  0
   -4.3311    0.2355    0.9816 C   0  0  0  0  0  0  0  0  0  0  0  0
   -2.1730   -1.1454   -0.3642 N   0  0  0  0  0  0  0  0  0  0  0  0
   -2.9123   -1.2019   -1.6407 C   0  0  0  0  0  0  0  0  0  0  0  0
   -1.6700   -3.7113   -0.4564 H   0  0  0  0  0  0  0  0  0  0  0  0
    0.0316   -3.6496   -0.0649 H   0  0  0  0  0  0  0  0  0  0  0  0
   -0.5152   -3.3041   -1.7373 H   0  0  0  0  0  0  0  0  0  0  0  0
    1.8231   -0.0427    0.5910 H   0  0  0  0  0  0  0  0  0  0  0  0
    3.7670   -1.5385    1.2488 H   0  0  0  0  0  0  0  0  0  0  0  0
    4.3502   -2.4787   -0.1402 H   0  0  0  0  0  0  0  0  0  0  0  0
    5.3738   -1.2065   -2.1086 H   0  0  0  0  0  0  0  0  0  0  0  0
    6.0179    1.4564   -2.4430 H   0  0  0  0  0  0  0  0  0  0  0  0
   -2.0319    2.7457    1.0059 H   0  0  0  0  0  0  0  0  0  0  0  0
   -3.8923    3.9220    2.0744 H   0  0  0  0  0  0  0  0  0  0  0  0
   -6.0605    2.7737    2.4536 H   0  0  0  0  0  0  0  0  0  0  0  0
   -6.3358    0.4031    1.7625 H   0  0  0  0  0  0  0  0  0  0  0  0
   -4.4750   -0.8093    0.7196 H   0  0  0  0  0  0  0  0  0  0  0  0
   -2.3340   -0.7351   -2.4474 H   0  0  0  0  0  0  0  0  0  0  0  0
   -3.1164   -2.2430   -1.9142 H   0  0  0  0  0  0  0  0  0  0  0  0
   -3.8773   -0.6902   -1.5763 H   0  0  0  0  0  0  0  0  0  0  0  0
  1  2  1  0
  2  3  2  0
  3  4  1  0
  4  5  1  0
  5  6  2  0
  5  7  1  0
  7  8  1  0
  8  9  1  0
  9 10  2  0
 10 11  1  0
 11 12  1  0
 12 13  2  0
 12 14  1  0
 11 15  2  0
  3 16  1  0
 16 17  2  0
 16 18  1  0
 18 19  1  0
 19 20  2  0
 20 21  1  0
 21 22  2  0
 22 23  1  0
 23 24  2  0
 18 25  1  0
 25 26  1  0
 25  2  1  0
 15  8  1  0
 24 19  1  0
  1 27  1  0
  1 28  1  0
  1 29  1  0
  4 30  1  0
  7 31  1  0
  7 32  1  0
  9 33  1  0
 10 34  1  0
 20 35  1  0
 21 36  1  0
 22 37  1  0
 23 38  1  0
 24 39  1  0
 26 40  1  0
 26 41  1  0
 26 42  1  0
M  CHG  2  12   1  14  -1
M  END
$$$$
