
     RDKit          3D

 55 58  0  0  0  0  0  0  0  0999 V2000
    3.5741   -2.7115   -0.2414 C   0  0  0  0  0  0  0  0  0  0  0  0
    3.0307   -1.5258    0.3694 N   0  0  0  0  0  0  0  0  0  0  0  0
    3.0551   -0.2428   -0.1321 C   0  0  0  0  0  0  0  0  0  0  0  0
    3.6780    0.1742   -1.4245 C   0  0  0  0  0  0  0  0  0  0  0  0
    5.1854    0.0395   -1.4481 C   0  0  0  0  0  0  0  0  0  0  0  0
    5.8200   -0.6604   -2.4851 C   0  0  0  0  0  0  0  0  0  0  0  0
    7.2112   -0.7762   -2.5148 C   0  0  0  0  0  0  0  0  0  0  0  0
    7.9829   -0.1876   -1.5148 C   0  0  0  0  0  0  0  0  0  0  0  0
    7.3658    0.5230   -0.4876 C   0  0  0  0  0  0  0  0  0  0  0  0
    5.9756    0.6415   -0.4562 C   0  0  0  0  0  0  0  0  0  0  0  0
    2.4444    0.5593    0.7213 N   0  0  0  0  0  0  0  0  0  0  0  0
    2.0471   -0.1853    1.7997 N   0  0  0  0  0  0  0  0  0  0  0  0
    2.3961   -1.4309    1.5760 C   0  0  0  0  0  0  0  0  0  0  0  0
    2.0798   -2.7692    2.6206 S   0  0  0  0  0  0  0  0  0  0  0  0
    0.9007   -2.0268    3.7893 C   0  0  0  0  0  0  0  0  0  0  0  0
   -0.4777   -1.8849    3.1577 C   0  0  0  0  0  0  0  0  0  0  0  0
   -1.3270   -2.7610    3.3056 O   0  0  0  0  0  0  0  0  0  0  0  0
   -0.6320   -0.7094    2.4434 N   0  0  0  0  0  0  0  0  0  0  0  0
   -1.7752   -0.2543    1.7611 C   0  0  0  0  0  0  0  0  0  0  0  0
   -1.6410    0.9026    0.9936 C   0  0  0  0  0  0  0  0  0  0  0  0
   -2.7335    1.4228    0.2848 C   0  0  0  0  0  0  0  0  0  0  0  0
   -3.9972    0.8160    0.3150 C   0  0  0  0  0  0  0  0  0  0  0  0
   -5.0721    1.3338   -0.3834 N   0  0  0  0  0  0  0  0  0  0  0  0
   -6.4611    0.9623   -0.0721 C   0  0  0  0  0  0  0  0  0  0  0  0
   -7.4178    2.0759   -0.5315 C   0  0  0  0  0  0  0  0  0  0  0  0
   -7.3534    2.3635   -1.9354 O   0  0  0  0  0  0  0  0  0  0  0  0
   -6.0713    2.0819   -2.5125 C   0  0  0  0  0  0  0  0  0  0  0  0
   -4.8935    2.2319   -1.5344 C   0  0  0  0  0  0  0  0  0  0  0  0
   -4.1061   -0.3418    1.0999 C   0  0  0  0  0  0  0  0  0  0  0  0
   -3.0178   -0.8733    1.8117 C   0  0  0  0  0  0  0  0  0  0  0  0
    4.5512   -2.9116    0.2060 H   0  0  0  0  0  0  0  0  0  0  0  0
    2.8966   -3.5528   -0.0758 H   0  0  0  0  0  0  0  0  0  0  0  0
    3.6747   -2.5668   -1.3188 H   0  0  0  0  0  0  0  0  0  0  0  0
    3.2277   -0.4061   -2.2391 H   0  0  0  0  0  0  0  0  0  0  0  0
    3.4286    1.2238   -1.6270 H   0  0  0  0  0  0  0  0  0  0  0  0
    5.2379   -1.1177   -3.2823 H   0  0  0  0  0  0  0  0  0  0  0  0
    7.6947   -1.3204   -3.3222 H   0  0  0  0  0  0  0  0  0  0  0  0
    9.0662   -0.2751   -1.5403 H   0  0  0  0  0  0  0  0  0  0  0  0
    7.9668    0.9916    0.2880 H   0  0  0  0  0  0  0  0  0  0  0  0
    5.5110    1.2090    0.3492 H   0  0  0  0  0  0  0  0  0  0  0  0
    0.8078   -2.6896    4.6564 H   0  0  0  0  0  0  0  0  0  0  0  0
    1.2587   -1.0628    4.1658 H   0  0  0  0  0  0  0  0  0  0  0  0
    0.2132   -0.1546    2.2993 H   0  0  0  0  0  0  0  0  0  0  0  0
   -0.6857    1.4196    0.9315 H   0  0  0  0  0  0  0  0  0  0  0  0
   -2.5733    2.3386   -0.2770 H   0  0  0  0  0  0  0  0  0  0  0  0
   -6.7043    0.0251   -0.5858 H   0  0  0  0  0  0  0  0  0  0  0  0
   -6.6018    0.8227    1.0056 H   0  0  0  0  0  0  0  0  0  0  0  0
   -8.4519    1.8018   -0.3000 H   0  0  0  0  0  0  0  0  0  0  0  0
   -7.1994    3.0066    0.0056 H   0  0  0  0  0  0  0  0  0  0  0  0
   -5.9400    2.7588   -3.3629 H   0  0  0  0  0  0  0  0  0  0  0  0
   -6.1057    1.0610   -2.9117 H   0  0  0  0  0  0  0  0  0  0  0  0
   -4.8396    3.2652   -1.1726 H   0  0  0  0  0  0  0  0  0  0  0  0
   -3.9729    2.0011   -2.0823 H   0  0  0  0  0  0  0  0  0  0  0  0
   -5.0469   -0.8817    1.1620 H   0  0  0  0  0  0  0  0  0  0  0  0
   -3.1839   -1.7729    2.3951 H   0  0  0  0  0  0  0  0  0  0  0  0
  1  2  1  0
  2  3  1  0
  3  4  1  0
  4  5  1  0
  5  6  2  0
  6  7  1  0
  7  8  2  0
  8  9  1  0
  9 10  2  0
  3 11  2  0
 11 12  1  0
 12 13  2  0
 13 14  1  0
 14 15  1  0
 15 16  1  0
 16 17  2  0
 16 18  1  0
 18 19  1  0
 19 20  2  0
 20 21  1  0
 21 22  2  0
 22 23  1  0
 23 24  1  0
 24 25  1  0
 25 26  1  0
 26 27  1  0
 27 28  1  0
 22 29  1  0
 29 30  2  0
 13  2  1  0
 30 19  1  0
 10  5  1  0
 28 23  1  0
  1 31  1  0
  1 32  1  0
  1 33  1  0
  4 34  1  0
  4 35  1  0
  6 36  1  0
  7 37  1  0
  8 38  1  0
  9 39  1  0
 10 40  1  0
 15 41  1  0
 15 42  1  0
 18 43  1  0
 20 44  1  0
 21 45  1  0
 24 46  1  0
 24 47  1  0
 25 48  1  0
 25 49  1  0
 27 50  1  0
 27 51  1  0
 28 52  1  0
 28 53  1  0
 29 54  1  0
 30 55  1  0
M  END
$$$$
