
     RDKit          3D

 60 63  0  0  0  0  0  0  0  0999 V2000
    8.1202   -3.8184    0.9858 C   0  0  0  0  0  0  0  0  0  0  0  0
    8.4247   -2.4299    0.9875 O   0  0  0  0  0  0  0  0  0  0  0  0
    7.4673   -1.5881    0.4921 C   0  0  0  0  0  0  0  0  0  0  0  0
    6.2367   -1.9680   -0.0426 C   0  0  0  0  0  0  0  0  0  0  0  0
    5.3460   -0.9975   -0.5146 C   0  0  0  0  0  0  0  0  0  0  0  0
    5.6742    0.3644   -0.4629 C   0  0  0  0  0  0  0  0  0  0  0  0
    4.6926    1.4009   -0.9454 C   0  0  0  0  0  0  0  0  0  0  0  0
    3.6972    1.6654    0.0696 N   0  0  0  0  0  0  0  0  0  0  0  0
    2.4376    1.0960    0.0169 C   0  0  0  0  0  0  0  0  0  0  0  0
    2.0888    0.3743   -0.9167 O   0  0  0  0  0  0  0  0  0  0  0  0
    1.5570    1.3585    1.2611 C   0  0  0  0  0  0  0  0  0  0  0  0
    1.5572    2.8140    1.7276 C   0  0  0  0  0  0  0  0  0  0  0  0
    0.2023    0.8367    1.0329 N   0  0  0  0  0  0  0  0  0  0  0  0
   -0.1374   -0.3046    1.7780 N   0  0  0  0  0  0  0  0  0  0  0  0
   -1.2919   -0.8903    1.6240 C   0  0  0  0  0  0  0  0  0  0  0  0
   -1.5853   -2.1113    2.4485 C   0  0  0  0  0  0  0  0  0  0  0  0
   -2.2411   -0.3524    0.6819 C   0  0  0  0  0  0  0  0  0  0  0  0
   -3.4935   -0.7474    0.2407 C   0  0  0  0  0  0  0  0  0  0  0  0
   -4.2439   -2.0018    0.5066 C   0  0  0  0  0  0  0  0  0  0  0  0
   -3.9292    0.2791   -0.6069 N   0  0  0  0  0  0  0  0  0  0  0  0
   -5.2115    0.5242   -1.1911 C   0  0  0  0  0  0  0  0  0  0  0  0
   -5.3054    1.4272   -2.2631 C   0  0  0  0  0  0  0  0  0  0  0  0
   -6.5386    1.7001   -2.8629 C   0  0  0  0  0  0  0  0  0  0  0  0
   -7.7027    1.0810   -2.4017 C   0  0  0  0  0  0  0  0  0  0  0  0
   -9.0308    1.3991   -3.0214 C   0  0  0  0  0  0  0  0  0  0  0  0
   -7.6182    0.2137   -1.3080 C   0  0  0  0  0  0  0  0  0  0  0  0
   -6.3844   -0.0627   -0.7050 C   0  0  0  0  0  0  0  0  0  0  0  0
   -2.9211    1.1552   -0.8656 N   0  0  0  0  0  0  0  0  0  0  0  0
   -1.9279    0.7976   -0.0488 C   0  0  0  0  0  0  0  0  0  0  0  0
   -0.6429    1.4703    0.0951 C   0  0  0  0  0  0  0  0  0  0  0  0
   -0.3399    2.4895   -0.5214 O   0  0  0  0  0  0  0  0  0  0  0  0
    6.9083    0.7401    0.0799 C   0  0  0  0  0  0  0  0  0  0  0  0
    7.7963   -0.2317    0.5488 C   0  0  0  0  0  0  0  0  0  0  0  0
    7.2419   -4.0312    1.6042 H   0  0  0  0  0  0  0  0  0  0  0  0
    7.9857   -4.1921   -0.0343 H   0  0  0  0  0  0  0  0  0  0  0  0
    8.9711   -4.3478    1.4245 H   0  0  0  0  0  0  0  0  0  0  0  0
    5.9353   -3.0079   -0.1079 H   0  0  0  0  0  0  0  0  0  0  0  0
    4.3847   -1.3086   -0.9235 H   0  0  0  0  0  0  0  0  0  0  0  0
    4.2260    1.0780   -1.8830 H   0  0  0  0  0  0  0  0  0  0  0  0
    5.2060    2.3473   -1.1484 H   0  0  0  0  0  0  0  0  0  0  0  0
    4.0279    2.0583    0.9390 H   0  0  0  0  0  0  0  0  0  0  0  0
    1.9971    0.7550    2.0669 H   0  0  0  0  0  0  0  0  0  0  0  0
    2.5195    3.0782    2.1786 H   0  0  0  0  0  0  0  0  0  0  0  0
    1.3937    3.5131    0.9020 H   0  0  0  0  0  0  0  0  0  0  0  0
    0.7820    2.9854    2.4822 H   0  0  0  0  0  0  0  0  0  0  0  0
   -1.5389   -2.9996    1.8132 H   0  0  0  0  0  0  0  0  0  0  0  0
   -2.5759   -2.0333    2.9038 H   0  0  0  0  0  0  0  0  0  0  0  0
   -0.8442   -2.2178    3.2464 H   0  0  0  0  0  0  0  0  0  0  0  0
   -3.5599   -2.8356    0.6878 H   0  0  0  0  0  0  0  0  0  0  0  0
   -4.8814   -1.8934    1.3889 H   0  0  0  0  0  0  0  0  0  0  0  0
   -4.8510   -2.3057   -0.3511 H   0  0  0  0  0  0  0  0  0  0  0  0
   -4.4188    1.9252   -2.6540 H   0  0  0  0  0  0  0  0  0  0  0  0
   -6.5780    2.4025   -3.6927 H   0  0  0  0  0  0  0  0  0  0  0  0
   -8.9179    1.6469   -4.0820 H   0  0  0  0  0  0  0  0  0  0  0  0
   -9.7060    0.5391   -2.9596 H   0  0  0  0  0  0  0  0  0  0  0  0
   -9.4906    2.2482   -2.5066 H   0  0  0  0  0  0  0  0  0  0  0  0
   -8.5192   -0.2458   -0.9066 H   0  0  0  0  0  0  0  0  0  0  0  0
   -6.3957   -0.7008    0.1697 H   0  0  0  0  0  0  0  0  0  0  0  0
    7.1912    1.7885    0.1415 H   0  0  0  0  0  0  0  0  0  0  0  0
    8.7546    0.0705    0.9649 H   0  0  0  0  0  0  0  0  0  0  0  0
  1  2  1  0
  2  3  1  0
  3  4  2  0
  4  5  1  0
  5  6  2  0
  6  7  1  0
  7  8  1  0
  8  9  1  0
  9 10  2  0
  9 11  1  0
 11 12  1  0
 11 13  1  0
 13 14  1  0
 14 15  2  0
 15 16  1  0
 15 17  1  0
 17 18  2  0
 18 19  1  0
 18 20  1  0
 20 21  1  0
 21 22  2  0
 22 23  1  0
 23 24  2  0
 24 25  1  0
 24 26  1  0
 26 27  2  0
 20 28  1  0
 28 29  2  0
 29 30  1  0
 30 31  2  0
  6 32  1  0
 32 33  2  0
 33  3  1  0
 30 13  1  0
 29 17  1  0
 27 21  1  0
  1 34  1  0
  1 35  1  0
  1 36  1  0
  4 37  1  0
  5 38  1  0
  7 39  1  0
  7 40  1  0
  8 41  1  0
 11 42  1  0
 12 43  1  0
 12 44  1  0
 12 45  1  0
 16 46  1  0
 16 47  1  0
 16 48  1  0
 19 49  1  0
 19 50  1  0
 19 51  1  0
 22 52  1  0
 23 53  1  0
 25 54  1  0
 25 55  1  0
 25 56  1  0
 26 57  1  0
 27 58  1  0
 32 59  1  0
 33 60  1  0
M  END
$$$$
