
     RDKit          3D

 52 54  0  0  0  0  0  0  0  0999 V2000
   -4.8770   -1.9046    0.3520 C   0  0  0  0  0  0  0  0  0  0  0  0
   -3.5551   -2.0754   -0.2343 N   0  0  0  0  0  0  0  0  0  0  0  0
   -3.4858   -2.1545   -1.6934 C   0  0  0  0  0  0  0  0  0  0  0  0
   -3.8666   -0.8536   -2.3621 C   0  0  0  0  0  0  0  0  0  0  0  0
   -3.0349    0.2709   -2.2540 C   0  0  0  0  0  0  0  0  0  0  0  0
   -3.3908    1.4770   -2.8588 C   0  0  0  0  0  0  0  0  0  0  0  0
   -4.5797    1.5722   -3.5790 C   0  0  0  0  0  0  0  0  0  0  0  0
   -5.4139    0.4619   -3.6954 C   0  0  0  0  0  0  0  0  0  0  0  0
   -5.0606   -0.7455   -3.0900 C   0  0  0  0  0  0  0  0  0  0  0  0
   -2.3697   -1.8866    0.4708 C   0  0  0  0  0  0  0  0  0  0  0  0
   -1.2618   -1.9619   -0.0679 O   0  0  0  0  0  0  0  0  0  0  0  0
   -2.4837   -1.5910    1.9740 C   0  0  0  0  0  0  0  0  0  0  0  0
   -1.2210   -1.2555    2.5559 O   0  0  0  0  0  0  0  0  0  0  0  0
   -0.7719   -0.0129    2.2218 C   0  0  0  0  0  0  0  0  0  0  0  0
   -1.4117    0.8247    1.5941 O   0  0  0  0  0  0  0  0  0  0  0  0
    0.6521    0.1805    2.7046 C   0  0  0  0  0  0  0  0  0  0  0  0
    0.9991    1.6042    2.6381 N   0  0  0  0  0  0  0  0  0  0  0  0
    2.5075    2.1165    3.1156 S   0  0  0  0  0  6  0  0  0  0  0  0
    2.7640    1.5586    4.4250 O   0  0  0  0  0  0  0  0  0  0  0  0
    2.5698    3.5381    2.8628 O   0  0  0  0  0  0  0  0  0  0  0  0
    3.5795    1.3151    1.9506 C   0  0  0  0  0  0  0  0  0  0  0  0
    4.3679    0.2365    2.3516 C   0  0  0  0  0  0  0  0  0  0  0  0
    5.2060   -0.3811    1.4221 C   0  0  0  0  0  0  0  0  0  0  0  0
    5.2688    0.0767    0.0949 C   0  0  0  0  0  0  0  0  0  0  0  0
    6.1069   -0.5372   -0.8492 C   0  0  0  0  0  0  0  0  0  0  0  0
    6.1637   -0.0703   -2.1635 C   0  0  0  0  0  0  0  0  0  0  0  0
    5.3850    1.0164   -2.5507 C   0  0  0  0  0  0  0  0  0  0  0  0
    4.5463    1.6394   -1.6253 C   0  0  0  0  0  0  0  0  0  0  0  0
    4.4757    1.1813   -0.3002 C   0  0  0  0  0  0  0  0  0  0  0  0
    3.6359    1.7974    0.6390 C   0  0  0  0  0  0  0  0  0  0  0  0
   -4.8888   -2.2286    1.3949 H   0  0  0  0  0  0  0  0  0  0  0  0
   -5.1533   -0.8471    0.3049 H   0  0  0  0  0  0  0  0  0  0  0  0
   -5.6053   -2.5056   -0.2002 H   0  0  0  0  0  0  0  0  0  0  0  0
   -4.1532   -2.9647   -2.0121 H   0  0  0  0  0  0  0  0  0  0  0  0
   -2.4814   -2.4411   -2.0258 H   0  0  0  0  0  0  0  0  0  0  0  0
   -2.1036    0.2114   -1.6928 H   0  0  0  0  0  0  0  0  0  0  0  0
   -2.7392    2.3419   -2.7650 H   0  0  0  0  0  0  0  0  0  0  0  0
   -4.8554    2.5123   -4.0497 H   0  0  0  0  0  0  0  0  0  0  0  0
   -6.3408    0.5373   -4.2582 H   0  0  0  0  0  0  0  0  0  0  0  0
   -5.7246   -1.6007   -3.1910 H   0  0  0  0  0  0  0  0  0  0  0  0
   -2.8307   -2.5017    2.4724 H   0  0  0  0  0  0  0  0  0  0  0  0
   -3.2084   -0.7924    2.1653 H   0  0  0  0  0  0  0  0  0  0  0  0
    1.3010   -0.4053    2.0483 H   0  0  0  0  0  0  0  0  0  0  0  0
    0.7280   -0.1681    3.7386 H   0  0  0  0  0  0  0  0  0  0  0  0
    0.5058    2.1848    1.9568 H   0  0  0  0  0  0  0  0  0  0  0  0
    4.3401   -0.1276    3.3763 H   0  0  0  0  0  0  0  0  0  0  0  0
    5.8166   -1.2235    1.7415 H   0  0  0  0  0  0  0  0  0  0  0  0
    6.7253   -1.3866   -0.5674 H   0  0  0  0  0  0  0  0  0  0  0  0
    6.8171   -0.5553   -2.8842 H   0  0  0  0  0  0  0  0  0  0  0  0
    5.4301    1.3809   -3.5738 H   0  0  0  0  0  0  0  0  0  0  0  0
    3.9472    2.4881   -1.9487 H   0  0  0  0  0  0  0  0  0  0  0  0
    3.0294    2.6543    0.3517 H   0  0  0  0  0  0  0  0  0  0  0  0
  1  2  1  0
  2  3  1  0
  3  4  1  0
  4  5  2  0
  5  6  1  0
  6  7  2  0
  7  8  1  0
  8  9  2  0
  2 10  1  0
 10 11  2  0
 10 12  1  0
 12 13  1  0
 13 14  1  0
 14 15  2  0
 14 16  1  0
 16 17  1  0
 17 18  1  0
 18 19  2  0
 18 20  2  0
 18 21  1  0
 21 22  2  0
 22 23  1  0
 23 24  2  0
 24 25  1  0
 25 26  2  0
 26 27  1  0
 27 28  2  0
 28 29  1  0
 29 30  2  0
  9  4  1  0
 30 21  1  0
 29 24  1  0
  1 31  1  0
  1 32  1  0
  1 33  1  0
  3 34  1  0
  3 35  1  0
  5 36  1  0
  6 37  1  0
  7 38  1  0
  8 39  1  0
  9 40  1  0
 12 41  1  0
 12 42  1  0
 16 43  1  0
 16 44  1  0
 17 45  1  0
 22 46  1  0
 23 47  1  0
 25 48  1  0
 26 49  1  0
 27 50  1  0
 28 51  1  0
 30 52  1  0
M  END
$$$$
