
     RDKit          3D

 34 36  0  0  0  0  0  0  0  0999 V2000
    4.0051   -0.0022    1.0484 N   0  0  0  0  0  0  0  0  0  0  0  0
    3.4041   -1.0347    0.2132 C   0  0  0  0  0  0  0  0  0  0  0  0
    2.0445   -0.6012   -0.3297 C   0  0  0  0  0  0  0  0  0  0  0  0
    1.0021   -0.4140    0.7842 C   0  0  0  0  0  0  0  0  0  0  0  0
   -0.3234   -0.0429    0.2272 N   0  0  0  0  0  0  0  0  0  0  0  0
   -1.2334   -1.1036   -0.0566 C   0  0  0  0  0  0  0  0  0  0  0  0
   -0.8218   -2.4551   -0.1230 C   0  0  0  0  0  0  0  0  0  0  0  0
   -1.7058   -3.5026   -0.4115 C   0  0  0  0  0  0  0  0  0  0  0  0
   -3.0422   -3.2342   -0.6496 C   0  0  0  0  0  0  0  0  0  0  0  0
   -3.4851   -1.9182   -0.6004 C   0  0  0  0  0  0  0  0  0  0  0  0
   -2.5983   -0.8606   -0.3125 C   0  0  0  0  0  0  0  0  0  0  0  0
   -3.3361    0.7547   -0.2667 S   0  0  0  0  0  0  0  0  0  0  0  0
   -1.9185    1.8169   -0.1415 C   0  0  0  0  0  0  0  0  0  0  0  0
   -2.1878    3.1946   -0.2752 C   0  0  0  0  0  0  0  0  0  0  0  0
   -1.1709    4.1371   -0.1773 C   0  0  0  0  0  0  0  0  0  0  0  0
    0.1214    3.7014    0.0565 C   0  0  0  0  0  0  0  0  0  0  0  0
    1.4002    4.8487    0.1724 Cl  0  0  0  0  0  0  0  0  0  0  0  0
    0.3980    2.3372    0.1939 C   0  0  0  0  0  0  0  0  0  0  0  0
   -0.6099    1.3494    0.1034 C   0  0  0  0  0  0  0  0  0  0  0  0
    4.2112    0.8216    0.4817 H   0  0  0  0  0  0  0  0  0  0  0  0
    4.9087   -0.3298    1.3922 H   0  0  0  0  0  0  0  0  0  0  0  0
    3.2976   -1.9558    0.7965 H   0  0  0  0  0  0  0  0  0  0  0  0
    4.0772   -1.2541   -0.6229 H   0  0  0  0  0  0  0  0  0  0  0  0
    1.7014   -1.3598   -1.0426 H   0  0  0  0  0  0  0  0  0  0  0  0
    2.1577    0.3184   -0.9158 H   0  0  0  0  0  0  0  0  0  0  0  0
    1.3369    0.3290    1.5185 H   0  0  0  0  0  0  0  0  0  0  0  0
    0.9321   -1.3223    1.3965 H   0  0  0  0  0  0  0  0  0  0  0  0
    0.2121   -2.7436    0.0330 H   0  0  0  0  0  0  0  0  0  0  0  0
   -1.3396   -4.5254   -0.4517 H   0  0  0  0  0  0  0  0  0  0  0  0
   -3.7365   -4.0389   -0.8736 H   0  0  0  0  0  0  0  0  0  0  0  0
   -4.5378   -1.7148   -0.7881 H   0  0  0  0  0  0  0  0  0  0  0  0
   -3.2042    3.5398   -0.4568 H   0  0  0  0  0  0  0  0  0  0  0  0
   -1.3949    5.1943   -0.2841 H   0  0  0  0  0  0  0  0  0  0  0  0
    1.4359    2.0707    0.3618 H   0  0  0  0  0  0  0  0  0  0  0  0
  1  2  1  0
  2  3  1  0
  3  4  1  0
  4  5  1  0
  5  6  1  0
  6  7  2  0
  7  8  1  0
  8  9  2  0
  9 10  1  0
 10 11  2  0
 11 12  1  0
 12 13  1  0
 13 14  2  0
 14 15  1  0
 15 16  2  0
 16 17  1  0
 16 18  1  0
 18 19  2  0
 19  5  1  0
 11  6  1  0
 19 13  1  0
  1 20  1  0
  1 21  1  0
  2 22  1  0
  2 23  1  0
  3 24  1  0
  3 25  1  0
  4 26  1  0
  4 27  1  0
  7 28  1  0
  8 29  1  0
  9 30  1  0
 10 31  1  0
 14 32  1  0
 15 33  1  0
 18 34  1  0
M  END
$$$$
