
     RDKit          3D

 68 71  0  0  0  0  0  0  0  0999 V2000
   -0.9054   -5.1424   -3.5725 C   0  0  0  0  0  0  0  0  0  0  0  0
   -1.3020   -4.1481   -2.5221 C   0  0  0  0  0  0  0  0  0  0  0  0
   -1.6556   -2.8434   -2.8803 C   0  0  0  0  0  0  0  0  0  0  0  0
   -2.0052   -1.9068   -1.9020 C   0  0  0  0  0  0  0  0  0  0  0  0
   -2.0022   -2.2506   -0.5428 C   0  0  0  0  0  0  0  0  0  0  0  0
   -2.3512   -1.2466    0.5557 C   0  0  0  0  0  0  0  0  0  0  0  0
   -3.5859   -0.3532    0.2231 C   0  0  0  0  0  0  0  0  0  0  0  0
   -4.7013   -0.8353    0.0180 O   0  0  0  0  0  0  0  0  0  0  0  0
   -3.3455    1.0078    0.1546 N   0  0  0  0  0  0  0  0  0  0  0  0
   -4.3801    1.9419   -0.2628 C   0  0  0  0  0  0  0  0  0  0  0  0
   -4.1024    3.3400    0.2816 C   0  0  0  0  0  0  0  0  0  0  0  0
   -3.0597    3.9229   -0.6701 C   0  0  0  0  0  0  0  0  0  0  0  0
   -3.2605    3.2031   -2.0065 C   0  0  0  0  0  0  0  0  0  0  0  0
   -4.3603    2.1648   -1.7759 C   0  0  0  0  0  0  0  0  0  0  0  0
   -1.1429   -0.5652    1.1017 N   0  0  0  0  0  0  0  0  0  0  0  0
   -0.9448   -0.6537    2.5510 C   0  0  0  0  0  0  0  0  0  0  0  0
   -0.4565   -2.0029    2.9400 C   0  0  0  0  0  0  0  0  0  0  0  0
    0.6310   -2.7761    2.5851 C   0  0  0  0  0  0  0  0  0  0  0  0
    0.5153   -3.9881    3.3107 C   0  0  0  0  0  0  0  0  0  0  0  0
   -0.6262   -3.8760    4.0674 C   0  0  0  0  0  0  0  0  0  0  0  0
   -1.2221   -2.6765    3.8478 O   0  0  0  0  0  0  0  0  0  0  0  0
   -0.3465    0.2180    0.2841 C   0  0  0  0  0  0  0  0  0  0  0  0
   -0.7454    0.6256   -0.8071 O   0  0  0  0  0  0  0  0  0  0  0  0
    1.0099    0.6444    0.8074 C   0  0  0  0  0  0  0  0  0  0  0  0
    1.9353    1.0712   -0.3282 C   0  0  0  0  0  0  0  0  0  0  0  0
    3.2911    1.4915    0.1993 C   0  0  0  0  0  0  0  0  0  0  0  0
    3.5406    1.5174    1.4007 O   0  0  0  0  0  0  0  0  0  0  0  0
    4.1583    1.8323   -0.8133 N   0  0  0  0  0  0  0  0  0  0  0  0
    5.4530    2.2677   -0.6289 C   0  0  0  0  0  0  0  0  0  0  0  0
    6.1713    2.4655    0.5740 C   0  0  0  0  0  0  0  0  0  0  0  0
    7.4080    2.8992    0.1711 C   0  0  0  0  0  0  0  0  0  0  0  0
    8.6433    3.2757    0.8786 C   0  0  0  0  0  0  0  0  0  0  0  0
    7.4374    2.9635   -1.1872 O   0  0  0  0  0  0  0  0  0  0  0  0
    6.2048    2.5801   -1.6906 N   0  0  0  0  0  0  0  0  0  0  0  0
   -1.6313   -3.5610   -0.1929 C   0  0  0  0  0  0  0  0  0  0  0  0
   -1.2787   -4.4961   -1.1687 C   0  0  0  0  0  0  0  0  0  0  0  0
    0.1566   -5.0311   -3.8111 H   0  0  0  0  0  0  0  0  0  0  0  0
   -1.0820   -6.1672   -3.2294 H   0  0  0  0  0  0  0  0  0  0  0  0
   -1.4940   -4.9994   -4.4836 H   0  0  0  0  0  0  0  0  0  0  0  0
   -1.6637   -2.5425   -3.9254 H   0  0  0  0  0  0  0  0  0  0  0  0
   -2.2750   -0.9026   -2.2228 H   0  0  0  0  0  0  0  0  0  0  0  0
   -2.7462   -1.8497    1.3880 H   0  0  0  0  0  0  0  0  0  0  0  0
   -2.3963    1.2408   -0.1270 H   0  0  0  0  0  0  0  0  0  0  0  0
   -5.3549    1.5692    0.0714 H   0  0  0  0  0  0  0  0  0  0  0  0
   -3.7575    3.3382    1.3212 H   0  0  0  0  0  0  0  0  0  0  0  0
   -5.0138    3.9490    0.2304 H   0  0  0  0  0  0  0  0  0  0  0  0
   -3.1700    5.0087   -0.7658 H   0  0  0  0  0  0  0  0  0  0  0  0
   -2.0468    3.7286   -0.2945 H   0  0  0  0  0  0  0  0  0  0  0  0
   -2.3278    2.7121   -2.3103 H   0  0  0  0  0  0  0  0  0  0  0  0
   -3.5381    3.9026   -2.8042 H   0  0  0  0  0  0  0  0  0  0  0  0
   -5.3200    2.5862   -2.0976 H   0  0  0  0  0  0  0  0  0  0  0  0
   -4.1833    1.2510   -2.3533 H   0  0  0  0  0  0  0  0  0  0  0  0
   -0.2393    0.1042    2.9038 H   0  0  0  0  0  0  0  0  0  0  0  0
   -1.9030   -0.4259    3.0343 H   0  0  0  0  0  0  0  0  0  0  0  0
    1.4046   -2.5105    1.8777 H   0  0  0  0  0  0  0  0  0  0  0  0
    1.1780   -4.8407    3.2811 H   0  0  0  0  0  0  0  0  0  0  0  0
   -1.1311   -4.5292    4.7677 H   0  0  0  0  0  0  0  0  0  0  0  0
    0.8598    1.4818    1.4977 H   0  0  0  0  0  0  0  0  0  0  0  0
    1.4741   -0.1804    1.3547 H   0  0  0  0  0  0  0  0  0  0  0  0
    1.5060    1.9141   -0.8803 H   0  0  0  0  0  0  0  0  0  0  0  0
    2.0702    0.2414   -1.0314 H   0  0  0  0  0  0  0  0  0  0  0  0
    3.8751    1.7773   -1.7832 H   0  0  0  0  0  0  0  0  0  0  0  0
    5.8398    2.3137    1.5920 H   0  0  0  0  0  0  0  0  0  0  0  0
    9.4269    2.5310    0.7006 H   0  0  0  0  0  0  0  0  0  0  0  0
    9.0052    4.2477    0.5352 H   0  0  0  0  0  0  0  0  0  0  0  0
    8.4707    3.3423    1.9595 H   0  0  0  0  0  0  0  0  0  0  0  0
   -1.6199   -3.8709    0.8502 H   0  0  0  0  0  0  0  0  0  0  0  0
   -0.9919   -5.5006   -0.8633 H   0  0  0  0  0  0  0  0  0  0  0  0
  1  2  1  0
  2  3  2  0
  3  4  1  0
  4  5  2  0
  5  6  1  0
  6  7  1  0
  7  8  2  0
  7  9  1  0
  9 10  1  0
 10 11  1  0
 11 12  1  0
 12 13  1  0
 13 14  1  0
  6 15  1  0
 15 16  1  0
 16 17  1  0
 17 18  2  0
 18 19  1  0
 19 20  2  0
 20 21  1  0
 15 22  1  0
 22 23  2  0
 22 24  1  0
 24 25  1  0
 25 26  1  0
 26 27  2  0
 26 28  1  0
 28 29  1  0
 29 30  1  0
 30 31  2  0
 31 32  1  0
 31 33  1  0
 33 34  1  0
  5 35  1  0
 35 36  2  0
 36  2  1  0
 14 10  1  0
 21 17  1  0
 34 29  2  0
  1 37  1  0
  1 38  1  0
  1 39  1  0
  3 40  1  0
  4 41  1  0
  6 42  1  0
  9 43  1  0
 10 44  1  0
 11 45  1  0
 11 46  1  0
 12 47  1  0
 12 48  1  0
 13 49  1  0
 13 50  1  0
 14 51  1  0
 14 52  1  0
 16 53  1  0
 16 54  1  0
 18 55  1  0
 19 56  1  0
 20 57  1  0
 24 58  1  0
 24 59  1  0
 25 60  1  0
 25 61  1  0
 28 62  1  0
 30 63  1  0
 32 64  1  0
 32 65  1  0
 32 66  1  0
 35 67  1  0
 36 68  1  0
M  END
$$$$
