
     RDKit          3D

 49 50  0  0  0  0  0  0  0  0999 V2000
    5.8441   -0.6977    1.7377 C   0  0  0  0  0  0  0  0  0  0  0  0
    5.3753   -1.8643    0.8840 C   0  0  0  0  0  0  0  0  0  0  0  0
    4.3464   -1.4279   -0.0155 O   0  0  0  0  0  0  0  0  0  0  0  0
    3.0707   -1.4719    0.4732 C   0  0  0  0  0  0  0  0  0  0  0  0
    2.7960   -1.8566    1.6053 O   0  0  0  0  0  0  0  0  0  0  0  0
    2.0699   -1.0054   -0.4998 C   0  0  0  0  0  0  0  0  0  0  0  0
    2.2806   -0.3506   -1.7684 C   0  0  0  0  0  0  0  0  0  0  0  0
    3.6027    0.0042   -2.3731 C   0  0  0  0  0  0  0  0  0  0  0  0
    1.0322   -0.1115   -2.3292 C   0  0  0  0  0  0  0  0  0  0  0  0
    0.6914    0.5011   -3.6486 C   0  0  0  0  0  0  0  0  0  0  0  0
    0.0734   -0.5128   -1.4162 N   0  0  0  0  0  0  0  0  0  0  0  0
   -1.3782   -0.3367   -1.5697 C   0  0  0  0  0  0  0  0  0  0  0  0
   -1.9486    0.6817   -0.6072 C   0  0  0  0  0  0  0  0  0  0  0  0
   -1.4235    1.9839   -0.5655 C   0  0  0  0  0  0  0  0  0  0  0  0
   -1.9432    2.9320    0.3134 C   0  0  0  0  0  0  0  0  0  0  0  0
   -2.9874    2.5954    1.1749 C   0  0  0  0  0  0  0  0  0  0  0  0
   -3.5318    1.3098    1.1567 C   0  0  0  0  0  0  0  0  0  0  0  0
   -4.5260    0.8899    1.9944 O   0  0  0  0  0  0  0  0  0  0  0  0
   -4.8598    1.7292    3.0950 C   0  0  0  0  0  0  0  0  0  0  0  0
   -3.0359    0.3692    0.2300 C   0  0  0  0  0  0  0  0  0  0  0  0
   -3.5284   -0.9142    0.1489 O   0  0  0  0  0  0  0  0  0  0  0  0
   -4.9159   -0.9520   -0.1772 C   0  0  0  0  0  0  0  0  0  0  0  0
    0.6887   -1.1280   -0.3420 C   0  0  0  0  0  0  0  0  0  0  0  0
   -0.0883   -1.7566    0.7710 C   0  0  0  0  0  0  0  0  0  0  0  0
    6.1902    0.1263    1.1016 H   0  0  0  0  0  0  0  0  0  0  0  0
    6.6624   -1.0060    2.3974 H   0  0  0  0  0  0  0  0  0  0  0  0
    5.0282   -0.3148    2.3489 H   0  0  0  0  0  0  0  0  0  0  0  0
    5.0432   -2.7151    1.5026 H   0  0  0  0  0  0  0  0  0  0  0  0
    6.2029   -2.2282    0.2641 H   0  0  0  0  0  0  0  0  0  0  0  0
    3.4990    0.6546   -3.2493 H   0  0  0  0  0  0  0  0  0  0  0  0
    4.1284   -0.9039   -2.6923 H   0  0  0  0  0  0  0  0  0  0  0  0
    4.2251    0.5472   -1.6512 H   0  0  0  0  0  0  0  0  0  0  0  0
    0.3550    1.5358   -3.5060 H   0  0  0  0  0  0  0  0  0  0  0  0
   -0.0964   -0.0659   -4.1634 H   0  0  0  0  0  0  0  0  0  0  0  0
    1.5564    0.5168   -4.3246 H   0  0  0  0  0  0  0  0  0  0  0  0
   -1.5980   -0.0100   -2.5895 H   0  0  0  0  0  0  0  0  0  0  0  0
   -1.8199   -1.3325   -1.4658 H   0  0  0  0  0  0  0  0  0  0  0  0
   -0.5896    2.2670   -1.2108 H   0  0  0  0  0  0  0  0  0  0  0  0
   -1.5169    3.9371    0.3403 H   0  0  0  0  0  0  0  0  0  0  0  0
   -3.3476    3.3632    1.8524 H   0  0  0  0  0  0  0  0  0  0  0  0
   -5.3603    2.6393    2.7473 H   0  0  0  0  0  0  0  0  0  0  0  0
   -5.5716    1.1818    3.7328 H   0  0  0  0  0  0  0  0  0  0  0  0
   -3.9774    1.9648    3.7061 H   0  0  0  0  0  0  0  0  0  0  0  0
   -5.5226   -1.0189    0.7337 H   0  0  0  0  0  0  0  0  0  0  0  0
   -5.0888   -1.8607   -0.7591 H   0  0  0  0  0  0  0  0  0  0  0  0
   -5.2338   -0.1040   -0.7874 H   0  0  0  0  0  0  0  0  0  0  0  0
   -0.3669   -1.0000    1.5099 H   0  0  0  0  0  0  0  0  0  0  0  0
    0.4900   -2.5336    1.2806 H   0  0  0  0  0  0  0  0  0  0  0  0
   -0.9952   -2.2501    0.4065 H   0  0  0  0  0  0  0  0  0  0  0  0
  1  2  1  0
  2  3  1  0
  3  4  1  0
  4  5  2  0
  4  6  1  0
  6  7  1  0
  7  8  1  0
  7  9  2  0
  9 10  1  0
  9 11  1  0
 11 12  1  0
 12 13  1  0
 13 14  2  0
 14 15  1  0
 15 16  2  0
 16 17  1  0
 17 18  1  0
 18 19  1  0
 17 20  2  0
 20 21  1  0
 21 22  1  0
 11 23  1  0
 23 24  1  0
 23  6  2  0
 20 13  1  0
  1 25  1  0
  1 26  1  0
  1 27  1  0
  2 28  1  0
  2 29  1  0
  8 30  1  0
  8 31  1  0
  8 32  1  0
 10 33  1  0
 10 34  1  0
 10 35  1  0
 12 36  1  0
 12 37  1  0
 14 38  1  0
 15 39  1  0
 16 40  1  0
 19 41  1  0
 19 42  1  0
 19 43  1  0
 22 44  1  0
 22 45  1  0
 22 46  1  0
 24 47  1  0
 24 48  1  0
 24 49  1  0
M  END
$$$$
