
     RDKit          3D

 52 54  0  0  0  0  0  0  0  0999 V2000
    7.6020    1.2761   -3.0906 C   0  0  0  0  0  0  0  0  0  0  0  0
    6.8267    0.1794   -2.4230 C   0  0  0  0  0  0  0  0  0  0  0  0
    5.7187   -0.3925   -3.0578 C   0  0  0  0  0  0  0  0  0  0  0  0
    4.9737   -1.3878   -2.4212 C   0  0  0  0  0  0  0  0  0  0  0  0
    5.3213   -1.8273   -1.1365 C   0  0  0  0  0  0  0  0  0  0  0  0
    4.4950   -2.8779   -0.4425 C   0  0  0  0  0  0  0  0  0  0  0  0
    3.4054   -2.2760    0.2803 N   0  0  0  0  0  0  0  0  0  0  0  0
    2.1529   -2.1295   -0.2654 C   0  0  0  0  0  0  0  0  0  0  0  0
    1.7562   -2.6085   -1.3180 O   0  0  0  0  0  0  0  0  0  0  0  0
    1.2122   -1.2477    0.5876 C   0  0  0  0  0  0  0  0  0  0  0  0
    1.5852   -0.8250    1.6728 O   0  0  0  0  0  0  0  0  0  0  0  0
   -0.0135   -1.0236    0.0069 N   0  0  0  0  0  0  0  0  0  0  0  0
   -1.1047   -0.3864    0.7262 C   0  0  0  0  0  0  0  0  0  0  0  0
   -2.2042    0.1310   -0.2311 C   0  0  0  0  0  0  0  0  0  0  0  0
   -2.6192   -0.9555   -1.0905 O   0  0  0  0  0  0  0  0  0  0  0  0
   -3.7108   -1.5878   -0.4177 C   0  0  0  0  0  0  0  0  0  0  0  0
   -4.4604   -0.4518    0.2442 C   0  0  0  0  0  0  0  0  0  0  0  0
   -3.4483    0.6038    0.4012 N   0  0  0  0  0  0  0  0  0  0  0  0
   -3.3378    1.4214    1.8568 S   0  0  0  0  0  6  0  0  0  0  0  0
   -3.2475    0.4238    2.9014 O   0  0  0  0  0  0  0  0  0  0  0  0
   -2.3426    2.4602    1.7138 O   0  0  0  0  0  0  0  0  0  0  0  0
   -4.9224    2.2142    1.9695 C   0  0  0  0  0  0  0  0  0  0  0  0
   -5.8486    1.8017    2.9329 C   0  0  0  0  0  0  0  0  0  0  0  0
   -7.0876    2.4411    3.0102 C   0  0  0  0  0  0  0  0  0  0  0  0
   -7.3856    3.4854    2.1319 C   0  0  0  0  0  0  0  0  0  0  0  0
   -9.0649    4.3472    2.2407 Br  0  0  0  0  0  0  0  0  0  0  0  0
   -6.4564    3.9019    1.1772 C   0  0  0  0  0  0  0  0  0  0  0  0
   -5.2161    3.2668    1.0957 C   0  0  0  0  0  0  0  0  0  0  0  0
    6.4166   -1.2366   -0.4930 C   0  0  0  0  0  0  0  0  0  0  0  0
    7.1613   -0.2408   -1.1309 C   0  0  0  0  0  0  0  0  0  0  0  0
    8.6498    1.2645   -2.7706 H   0  0  0  0  0  0  0  0  0  0  0  0
    7.5928    1.1540   -4.1794 H   0  0  0  0  0  0  0  0  0  0  0  0
    7.1659    2.2494   -2.8397 H   0  0  0  0  0  0  0  0  0  0  0  0
    5.4238   -0.0632   -4.0517 H   0  0  0  0  0  0  0  0  0  0  0  0
    4.1101   -1.8144   -2.9299 H   0  0  0  0  0  0  0  0  0  0  0  0
    5.1070   -3.4286    0.2800 H   0  0  0  0  0  0  0  0  0  0  0  0
    4.1144   -3.6056   -1.1684 H   0  0  0  0  0  0  0  0  0  0  0  0
    3.6025   -1.7089    1.0997 H   0  0  0  0  0  0  0  0  0  0  0  0
   -0.2257   -1.5714   -0.8267 H   0  0  0  0  0  0  0  0  0  0  0  0
   -1.5017   -1.1461    1.4084 H   0  0  0  0  0  0  0  0  0  0  0  0
   -0.6904    0.4226    1.3348 H   0  0  0  0  0  0  0  0  0  0  0  0
   -1.7976    0.9137   -0.8802 H   0  0  0  0  0  0  0  0  0  0  0  0
   -3.3129   -2.2946    0.3193 H   0  0  0  0  0  0  0  0  0  0  0  0
   -4.3260   -2.1403   -1.1329 H   0  0  0  0  0  0  0  0  0  0  0  0
   -4.9229   -0.7760    1.1794 H   0  0  0  0  0  0  0  0  0  0  0  0
   -5.2467   -0.0715   -0.4170 H   0  0  0  0  0  0  0  0  0  0  0  0
   -5.6153    0.9953    3.6250 H   0  0  0  0  0  0  0  0  0  0  0  0
   -7.8100    2.1241    3.7596 H   0  0  0  0  0  0  0  0  0  0  0  0
   -6.6866    4.7202    0.4982 H   0  0  0  0  0  0  0  0  0  0  0  0
   -4.4858    3.5938    0.3581 H   0  0  0  0  0  0  0  0  0  0  0  0
    6.6954   -1.5430    0.5125 H   0  0  0  0  0  0  0  0  0  0  0  0
    8.0034    0.2089   -0.6096 H   0  0  0  0  0  0  0  0  0  0  0  0
  1  2  1  0
  2  3  2  0
  3  4  1  0
  4  5  2  0
  5  6  1  0
  6  7  1  0
  7  8  1  0
  8  9  2  0
  8 10  1  0
 10 11  2  0
 10 12  1  0
 12 13  1  0
 13 14  1  0
 14 15  1  0
 15 16  1  0
 16 17  1  0
 17 18  1  0
 18 19  1  0
 19 20  2  0
 19 21  2  0
 19 22  1  0
 22 23  2  0
 23 24  1  0
 24 25  2  0
 25 26  1  0
 25 27  1  0
 27 28  2  0
  5 29  1  0
 29 30  2  0
 30  2  1  0
 18 14  1  0
 28 22  1  0
  1 31  1  0
  1 32  1  0
  1 33  1  0
  3 34  1  0
  4 35  1  0
  6 36  1  0
  6 37  1  0
  7 38  1  0
 12 39  1  0
 13 40  1  0
 13 41  1  0
 14 42  1  0
 16 43  1  0
 16 44  1  0
 17 45  1  0
 17 46  1  0
 23 47  1  0
 24 48  1  0
 27 49  1  0
 28 50  1  0
 29 51  1  0
 30 52  1  0
M  END
$$$$
