
     RDKit          3D

 56 60  0  0  0  0  0  0  0  0999 V2000
   -5.2806   -1.6217   -2.6239 C   0  0  0  0  0  0  0  0  0  0  0  0
   -3.9152   -1.4706   -2.0146 C   0  0  0  0  0  0  0  0  0  0  0  0
   -2.7949   -1.5864   -2.8533 C   0  0  0  0  0  0  0  0  0  0  0  0
   -1.4974   -1.4753   -2.3453 C   0  0  0  0  0  0  0  0  0  0  0  0
   -1.2751   -1.2641   -0.9790 C   0  0  0  0  0  0  0  0  0  0  0  0
    0.0883   -1.1458   -0.4512 C   0  0  0  0  0  0  0  0  0  0  0  0
    0.6572    0.0551   -0.6845 N   0  0  0  0  0  0  0  0  0  0  0  0
    1.9194    0.3142   -0.2339 N   0  0  0  0  0  0  0  0  0  0  0  0
    2.6250   -0.6171    0.4427 C   0  0  0  0  0  0  0  0  0  0  0  0
    3.9552   -0.3342    0.8609 N   0  0  0  0  0  0  0  0  0  0  0  0
    4.5826    0.9322    0.9266 C   0  0  0  0  0  0  0  0  0  0  0  0
    3.8655    2.1088    1.2413 C   0  0  0  0  0  0  0  0  0  0  0  0
    4.5071    3.3470    1.3731 C   0  0  0  0  0  0  0  0  0  0  0  0
    5.8709    3.3791    1.2071 C   0  0  0  0  0  0  0  0  0  0  0  0
    6.5881    2.2405    0.9289 C   0  0  0  0  0  0  0  0  0  0  0  0
    5.9798    1.0085    0.7974 C   0  0  0  0  0  0  0  0  0  0  0  0
    7.9229    2.4829    0.8172 O   0  0  0  0  0  0  0  0  0  0  0  0
    7.9617    3.9038    1.0715 C   0  0  0  0  0  0  0  0  0  0  0  0
    6.6609    4.4807    1.3077 O   0  0  0  0  0  0  0  0  0  0  0  0
    2.0662   -1.8878    0.7166 C   0  0  0  0  0  0  0  0  0  0  0  0
    2.7424   -2.8951    1.4514 C   0  0  0  0  0  0  0  0  0  0  0  0
    2.1668   -4.1424    1.6928 C   0  0  0  0  0  0  0  0  0  0  0  0
    0.8977   -4.4187    1.2087 C   0  0  0  0  0  0  0  0  0  0  0  0
    0.2024   -3.4435    0.4945 C   0  0  0  0  0  0  0  0  0  0  0  0
    0.7611   -2.1645    0.2462 C   0  0  0  0  0  0  0  0  0  0  0  0
   -2.3879   -1.1489   -0.1344 C   0  0  0  0  0  0  0  0  0  0  0  0
   -3.6951   -1.2465   -0.6428 C   0  0  0  0  0  0  0  0  0  0  0  0
   -5.0375   -1.0873    0.5211 S   0  0  0  0  0  6  0  0  0  0  0  0
   -6.0283   -2.0953    0.2107 O   0  0  0  0  0  0  0  0  0  0  0  0
   -4.4957   -0.9638    1.8572 O   0  0  0  0  0  0  0  0  0  0  0  0
   -5.7076    0.3949    0.1025 N   0  0  0  0  0  0  0  0  0  0  0  0
   -5.0511    1.6151    0.5902 C   0  0  0  0  0  0  0  0  0  0  0  0
   -5.4544    2.8064   -0.2794 C   0  0  0  0  0  0  0  0  0  0  0  0
   -4.8504    3.9953    0.2146 O   0  0  0  0  0  0  0  0  0  0  0  0
   -5.2313   -1.5851   -3.7180 H   0  0  0  0  0  0  0  0  0  0  0  0
   -5.7134   -2.5901   -2.3514 H   0  0  0  0  0  0  0  0  0  0  0  0
   -5.9478   -0.8119   -2.3175 H   0  0  0  0  0  0  0  0  0  0  0  0
   -2.9213   -1.7596   -3.9203 H   0  0  0  0  0  0  0  0  0  0  0  0
   -0.6521   -1.5528   -3.0278 H   0  0  0  0  0  0  0  0  0  0  0  0
    4.5703   -1.0361    0.4623 H   0  0  0  0  0  0  0  0  0  0  0  0
    2.7897    2.0696    1.3994 H   0  0  0  0  0  0  0  0  0  0  0  0
    3.9470    4.2449    1.6075 H   0  0  0  0  0  0  0  0  0  0  0  0
    6.5850    0.1319    0.5959 H   0  0  0  0  0  0  0  0  0  0  0  0
    8.4171    4.4029    0.2083 H   0  0  0  0  0  0  0  0  0  0  0  0
    8.5881    4.0823    1.9547 H   0  0  0  0  0  0  0  0  0  0  0  0
    3.7307   -2.7051    1.8659 H   0  0  0  0  0  0  0  0  0  0  0  0
    2.7077   -4.8908    2.2682 H   0  0  0  0  0  0  0  0  0  0  0  0
    0.4399   -5.3874    1.3944 H   0  0  0  0  0  0  0  0  0  0  0  0
   -0.7941   -3.6926    0.1340 H   0  0  0  0  0  0  0  0  0  0  0  0
   -2.2272   -0.9699    0.9293 H   0  0  0  0  0  0  0  0  0  0  0  0
   -6.7261    0.3638    0.0946 H   0  0  0  0  0  0  0  0  0  0  0  0
   -5.3426    1.8011    1.6302 H   0  0  0  0  0  0  0  0  0  0  0  0
   -3.9602    1.5145    0.5669 H   0  0  0  0  0  0  0  0  0  0  0  0
   -5.1324    2.6517   -1.3157 H   0  0  0  0  0  0  0  0  0  0  0  0
   -6.5416    2.9374   -0.2756 H   0  0  0  0  0  0  0  0  0  0  0  0
   -5.1352    4.7259   -0.3632 H   0  0  0  0  0  0  0  0  0  0  0  0
  1  2  1  0
  2  3  2  0
  3  4  1  0
  4  5  2  0
  5  6  1  0
  6  7  2  0
  7  8  1  0
  8  9  2  0
  9 10  1  0
 10 11  1  0
 11 12  2  0
 12 13  1  0
 13 14  2  0
 14 15  1  0
 15 16  2  0
 15 17  1  0
 17 18  1  0
 18 19  1  0
  9 20  1  0
 20 21  2  0
 21 22  1  0
 22 23  2  0
 23 24  1  0
 24 25  2  0
  5 26  1  0
 26 27  2  0
 27 28  1  0
 28 29  2  0
 28 30  2  0
 28 31  1  0
 31 32  1  0
 32 33  1  0
 33 34  1  0
 27  2  1  0
 25  6  1  0
 16 11  1  0
 25 20  1  0
 19 14  1  0
  1 35  1  0
  1 36  1  0
  1 37  1  0
  3 38  1  0
  4 39  1  0
 10 40  1  0
 12 41  1  0
 13 42  1  0
 16 43  1  0
 18 44  1  0
 18 45  1  0
 21 46  1  0
 22 47  1  0
 23 48  1  0
 24 49  1  0
 26 50  1  0
 31 51  1  0
 32 52  1  0
 32 53  1  0
 33 54  1  0
 33 55  1  0
 34 56  1  0
M  END
$$$$
