
     RDKit          3D

 50 52  0  0  0  0  0  0  0  0999 V2000
    1.6437    1.5658   -3.4678 C   0  0  0  0  0  0  0  0  0  0  0  0
    1.9021    0.2337   -2.7843 C   0  0  0  0  0  0  0  0  0  0  0  0
    2.4646    0.4109   -1.4382 N   0  0  0  0  0  4  0  0  0  0  0  0
    1.7176    0.4260   -0.3397 C   0  0  0  0  0  0  0  0  0  0  0  0
    0.2981    0.3569   -0.2844 C   0  0  0  0  0  0  0  0  0  0  0  0
   -0.3515   -0.3836    0.6287 C   0  0  0  0  0  0  0  0  0  0  0  0
   -1.7983   -0.4495    0.6997 C   0  0  0  0  0  0  0  0  0  0  0  0
   -2.4382   -1.1702    1.6357 C   0  0  0  0  0  0  0  0  0  0  0  0
   -3.8235   -1.2706    1.8191 N   0  0  0  0  0  0  0  0  0  0  0  0
   -4.2689   -1.8870    3.0108 C   0  0  0  0  0  0  0  0  0  0  0  0
   -5.7298   -2.2704    3.1167 C   0  0  0  0  0  0  0  0  0  0  0  0
   -3.5107   -2.1587    3.9488 O   0  0  0  0  0  0  0  0  0  0  0  0
   -4.7584   -0.7565    0.8663 C   0  0  0  0  0  0  0  0  0  0  0  0
   -4.7080   -1.1772   -0.4705 C   0  0  0  0  0  0  0  0  0  0  0  0
   -5.6191   -0.6776   -1.4031 C   0  0  0  0  0  0  0  0  0  0  0  0
   -6.5798    0.2522   -1.0093 C   0  0  0  0  0  0  0  0  0  0  0  0
   -6.6316    0.6837    0.3152 C   0  0  0  0  0  0  0  0  0  0  0  0
   -5.7246    0.1820    1.2509 C   0  0  0  0  0  0  0  0  0  0  0  0
    2.7051    0.6077    1.0572 S   0  0  0  0  0  0  0  0  0  0  0  0
    4.1490    0.6618    0.1268 C   0  0  0  0  0  0  0  0  0  0  0  0
    5.4752    0.8037    0.5778 C   0  0  0  0  0  0  0  0  0  0  0  0
    6.4959    0.8261   -0.3747 C   0  0  0  0  0  0  0  0  0  0  0  0
    7.8300    0.9566   -0.1111 O   0  0  0  0  0  0  0  0  0  0  0  0
    8.2230    1.0762    1.2523 C   0  0  0  0  0  0  0  0  0  0  0  0
    6.1903    0.7112   -1.7307 C   0  0  0  0  0  0  0  0  0  0  0  0
    4.8691    0.5697   -2.1752 C   0  0  0  0  0  0  0  0  0  0  0  0
    3.8330    0.5430   -1.2227 C   0  0  0  0  0  0  0  0  0  0  0  0
    1.2210    1.4069   -4.4644 H   0  0  0  0  0  0  0  0  0  0  0  0
    0.9417    2.1745   -2.8897 H   0  0  0  0  0  0  0  0  0  0  0  0
    2.5688    2.1401   -3.5757 H   0  0  0  0  0  0  0  0  0  0  0  0
    2.5852   -0.3756   -3.3864 H   0  0  0  0  0  0  0  0  0  0  0  0
    0.9731   -0.3450   -2.7288 H   0  0  0  0  0  0  0  0  0  0  0  0
   -0.2736    0.9231   -1.0160 H   0  0  0  0  0  0  0  0  0  0  0  0
    0.1889   -0.9714    1.3717 H   0  0  0  0  0  0  0  0  0  0  0  0
   -2.3600    0.1437   -0.0171 H   0  0  0  0  0  0  0  0  0  0  0  0
   -1.8518   -1.7103    2.3800 H   0  0  0  0  0  0  0  0  0  0  0  0
   -6.1351   -2.6023    2.1580 H   0  0  0  0  0  0  0  0  0  0  0  0
   -6.3096   -1.4359    3.5169 H   0  0  0  0  0  0  0  0  0  0  0  0
   -5.8197   -3.1144    3.8087 H   0  0  0  0  0  0  0  0  0  0  0  0
   -3.9831   -1.9234   -0.7858 H   0  0  0  0  0  0  0  0  0  0  0  0
   -5.5903   -1.0226   -2.4337 H   0  0  0  0  0  0  0  0  0  0  0  0
   -7.2939    0.6382   -1.7336 H   0  0  0  0  0  0  0  0  0  0  0  0
   -7.3794    1.4126    0.6198 H   0  0  0  0  0  0  0  0  0  0  0  0
   -5.7652    0.5525    2.2725 H   0  0  0  0  0  0  0  0  0  0  0  0
    5.6748    0.8927    1.6410 H   0  0  0  0  0  0  0  0  0  0  0  0
    7.7989    1.9781    1.7057 H   0  0  0  0  0  0  0  0  0  0  0  0
    7.9483    0.1814    1.8203 H   0  0  0  0  0  0  0  0  0  0  0  0
    9.3129    1.1686    1.2795 H   0  0  0  0  0  0  0  0  0  0  0  0
    7.0020    0.7334   -2.4591 H   0  0  0  0  0  0  0  0  0  0  0  0
    4.6917    0.4892   -3.2436 H   0  0  0  0  0  0  0  0  0  0  0  0
  1  2  1  0
  2  3  1  0
  3  4  2  0
  4  5  1  0
  5  6  2  3
  6  7  1  0
  7  8  2  3
  8  9  1  0
  9 10  1  0
 10 11  1  0
 10 12  2  0
  9 13  1  0
 13 14  2  0
 14 15  1  0
 15 16  2  0
 16 17  1  0
 17 18  2  0
  4 19  1  0
 19 20  1  0
 20 21  2  0
 21 22  1  0
 22 23  1  0
 23 24  1  0
 22 25  2  0
 25 26  1  0
 26 27  2  0
 27  3  1  0
 18 13  1  0
 27 20  1  0
  1 28  1  0
  1 29  1  0
  1 30  1  0
  2 31  1  0
  2 32  1  0
  5 33  1  0
  6 34  1  0
  7 35  1  0
  8 36  1  0
 11 37  1  0
 11 38  1  0
 11 39  1  0
 14 40  1  0
 15 41  1  0
 16 42  1  0
 17 43  1  0
 18 44  1  0
 21 45  1  0
 24 46  1  0
 24 47  1  0
 24 48  1  0
 25 49  1  0
 26 50  1  0
M  CHG  1   3   1
M  END
$$$$
