
     RDKit          3D

 51 53  0  0  0  0  0  0  0  0999 V2000
    8.0439    1.7929    2.2010 C   0  0  0  0  0  0  0  0  0  0  0  0
    8.6723    1.0334    1.1762 O   0  0  0  0  0  0  0  0  0  0  0  0
    7.8553    0.3856    0.2902 C   0  0  0  0  0  0  0  0  0  0  0  0
    8.5265   -0.3390   -0.6949 C   0  0  0  0  0  0  0  0  0  0  0  0
    7.8128   -1.0473   -1.6597 C   0  0  0  0  0  0  0  0  0  0  0  0
    6.4170   -1.0370   -1.6456 C   0  0  0  0  0  0  0  0  0  0  0  0
    5.7301   -0.3177   -0.6669 C   0  0  0  0  0  0  0  0  0  0  0  0
    4.3271   -0.2611   -0.5861 N   0  0  0  0  0  0  0  0  0  0  0  0
    3.4041   -0.8721   -1.4089 C   0  0  0  0  0  0  0  0  0  0  0  0
    3.5867   -1.5868   -2.3840 O   0  0  0  0  0  0  0  0  0  0  0  0
    1.9557   -0.5688   -0.9764 C   0  0  0  0  0  0  0  0  0  0  0  0
    1.7699    0.1661   -0.0146 O   0  0  0  0  0  0  0  0  0  0  0  0
    1.0297   -1.1999   -1.7863 N   0  0  0  0  0  0  0  0  0  0  0  0
   -0.3364   -1.1020   -1.7516 N   0  0  0  0  0  0  0  0  0  0  0  0
   -0.9278   -0.6047   -0.7145 C   0  0  0  0  0  0  0  0  0  0  0  0
   -2.3792   -0.5084   -0.7295 C   0  0  0  0  0  0  0  0  0  0  0  0
   -3.2567   -0.9201   -1.7606 C   0  0  0  0  0  0  0  0  0  0  0  0
   -4.5545   -0.6704   -1.3627 C   0  0  0  0  0  0  0  0  0  0  0  0
   -5.7989   -1.0424   -2.0967 C   0  0  0  0  0  0  0  0  0  0  0  0
   -4.5114   -0.0971   -0.0955 N   0  0  0  0  0  0  0  0  0  0  0  0
   -5.6412    0.2743    0.6919 C   0  0  0  0  0  0  0  0  0  0  0  0
   -5.6941   -0.0707    2.0479 C   0  0  0  0  0  0  0  0  0  0  0  0
   -6.8058    0.2845    2.8167 C   0  0  0  0  0  0  0  0  0  0  0  0
   -7.8676    0.9862    2.2388 C   0  0  0  0  0  0  0  0  0  0  0  0
   -9.2085    1.3900    3.2501 Cl  0  0  0  0  0  0  0  0  0  0  0  0
   -7.8155    1.3338    0.8844 C   0  0  0  0  0  0  0  0  0  0  0  0
   -9.0854    2.2098    0.1050 Cl  0  0  0  0  0  0  0  0  0  0  0  0
   -6.7042    0.9774    0.1116 C   0  0  0  0  0  0  0  0  0  0  0  0
   -3.1712    0.0327    0.2783 C   0  0  0  0  0  0  0  0  0  0  0  0
   -2.7214    0.7255    1.5258 C   0  0  0  0  0  0  0  0  0  0  0  0
    6.4577    0.3940    0.3005 C   0  0  0  0  0  0  0  0  0  0  0  0
    7.4392    1.1523    2.8518 H   0  0  0  0  0  0  0  0  0  0  0  0
    8.8305    2.2432    2.8140 H   0  0  0  0  0  0  0  0  0  0  0  0
    7.4449    2.6059    1.7778 H   0  0  0  0  0  0  0  0  0  0  0  0
    9.6137   -0.3512   -0.7110 H   0  0  0  0  0  0  0  0  0  0  0  0
    8.3435   -1.6081   -2.4253 H   0  0  0  0  0  0  0  0  0  0  0  0
    5.8979   -1.6006   -2.4147 H   0  0  0  0  0  0  0  0  0  0  0  0
    3.9175    0.2935    0.1628 H   0  0  0  0  0  0  0  0  0  0  0  0
    1.4036   -1.7008   -2.5944 H   0  0  0  0  0  0  0  0  0  0  0  0
   -0.4173   -0.2710    0.1991 H   0  0  0  0  0  0  0  0  0  0  0  0
   -2.9653   -1.3844   -2.6959 H   0  0  0  0  0  0  0  0  0  0  0  0
   -6.2139   -0.1770   -2.6215 H   0  0  0  0  0  0  0  0  0  0  0  0
   -6.5562   -1.4600   -1.4264 H   0  0  0  0  0  0  0  0  0  0  0  0
   -5.5827   -1.8080   -2.8505 H   0  0  0  0  0  0  0  0  0  0  0  0
   -4.9021   -0.6524    2.5139 H   0  0  0  0  0  0  0  0  0  0  0  0
   -6.8419    0.0015    3.8666 H   0  0  0  0  0  0  0  0  0  0  0  0
   -6.6618    1.2914   -0.9282 H   0  0  0  0  0  0  0  0  0  0  0  0
   -1.7455    1.1992    1.3780 H   0  0  0  0  0  0  0  0  0  0  0  0
   -3.4058    1.5256    1.8226 H   0  0  0  0  0  0  0  0  0  0  0  0
   -2.6248    0.0096    2.3475 H   0  0  0  0  0  0  0  0  0  0  0  0
    5.9173    0.9505    1.0584 H   0  0  0  0  0  0  0  0  0  0  0  0
  1  2  1  0
  2  3  1  0
  3  4  2  0
  4  5  1  0
  5  6  2  0
  6  7  1  0
  7  8  1  0
  8  9  1  0
  9 10  2  0
  9 11  1  0
 11 12  2  0
 11 13  1  0
 13 14  1  0
 14 15  2  3
 15 16  1  0
 16 17  1  0
 17 18  2  0
 18 19  1  0
 18 20  1  0
 20 21  1  0
 21 22  2  0
 22 23  1  0
 23 24  2  0
 24 25  1  0
 24 26  1  0
 26 27  1  0
 26 28  2  0
 20 29  1  0
 29 30  1  0
  7 31  2  0
 31  3  1  0
 29 16  2  0
 28 21  1  0
  1 32  1  0
  1 33  1  0
  1 34  1  0
  4 35  1  0
  5 36  1  0
  6 37  1  0
  8 38  1  0
 13 39  1  0
 15 40  1  0
 17 41  1  0
 19 42  1  0
 19 43  1  0
 19 44  1  0
 22 45  1  0
 23 46  1  0
 28 47  1  0
 30 48  1  0
 30 49  1  0
 30 50  1  0
 31 51  1  0
M  END
$$$$
