
     RDKit          3D

 41 42  0  0  0  0  0  0  0  0999 V2000
    7.0399    0.9638    1.1926 C   0  0  0  0  0  0  0  0  0  0  0  0
    5.7354    0.4452    0.9307 O   0  0  0  0  0  0  0  0  0  0  0  0
    5.2067    0.8495   -0.2570 C   0  0  0  0  0  0  0  0  0  0  0  0
    5.7744    1.5973   -1.0433 O   0  0  0  0  0  0  0  0  0  0  0  0
    3.8668    0.3190   -0.4414 C   0  0  0  0  0  0  0  0  0  0  0  0
    2.9549    0.7799   -1.3803 C   0  0  0  0  0  0  0  0  0  0  0  0
    1.7486    0.0751   -1.2137 C   0  0  0  0  0  0  0  0  0  0  0  0
    1.9152   -0.8274   -0.1761 C   0  0  0  0  0  0  0  0  0  0  0  0
    0.7590   -1.9620    0.5538 S   0  0  0  0  0  6  0  0  0  0  0  0
    1.0452   -3.2312   -0.0710 O   0  0  0  0  0  0  0  0  0  0  0  0
    0.8756   -1.7588    1.9794 O   0  0  0  0  0  0  0  0  0  0  0  0
   -0.7783   -1.4990    0.0720 N   0  0  0  0  0  0  0  0  0  0  0  0
   -1.3445   -0.3346    0.7655 C   0  0  0  0  0  0  0  0  0  0  0  0
   -2.6779    0.0514    0.1711 C   0  0  0  0  0  0  0  0  0  0  0  0
   -2.7653    0.4710   -1.1623 C   0  0  0  0  0  0  0  0  0  0  0  0
   -3.9984    0.8293   -1.7118 C   0  0  0  0  0  0  0  0  0  0  0  0
   -5.1636    0.7761   -0.9446 C   0  0  0  0  0  0  0  0  0  0  0  0
   -6.3003    1.1534   -1.6043 O   0  0  0  0  0  0  0  0  0  0  0  0
   -7.5150    1.1163   -0.8663 C   0  0  0  0  0  0  0  0  0  0  0  0
   -5.0844    0.3583    0.3836 C   0  0  0  0  0  0  0  0  0  0  0  0
   -3.8498   -0.0020    0.9375 C   0  0  0  0  0  0  0  0  0  0  0  0
    3.2391   -0.7249    0.2279 N   0  0  0  0  0  0  0  0  0  0  0  0
    3.8799   -1.6131    1.1807 C   0  0  0  0  0  0  0  0  0  0  0  0
    7.3699    0.5755    2.1601 H   0  0  0  0  0  0  0  0  0  0  0  0
    7.0142    2.0566    1.2492 H   0  0  0  0  0  0  0  0  0  0  0  0
    7.7471    0.6298    0.4269 H   0  0  0  0  0  0  0  0  0  0  0  0
    3.1494    1.5733   -2.0935 H   0  0  0  0  0  0  0  0  0  0  0  0
    0.8336    0.2120   -1.7759 H   0  0  0  0  0  0  0  0  0  0  0  0
   -1.4022   -2.3056    0.0559 H   0  0  0  0  0  0  0  0  0  0  0  0
   -1.4774   -0.5755    1.8265 H   0  0  0  0  0  0  0  0  0  0  0  0
   -0.6709    0.5264    0.6955 H   0  0  0  0  0  0  0  0  0  0  0  0
   -1.8737    0.5161   -1.7838 H   0  0  0  0  0  0  0  0  0  0  0  0
   -4.0520    1.1515   -2.7491 H   0  0  0  0  0  0  0  0  0  0  0  0
   -7.7473    0.0974   -0.5391 H   0  0  0  0  0  0  0  0  0  0  0  0
   -8.3202    1.4439   -1.5310 H   0  0  0  0  0  0  0  0  0  0  0  0
   -7.4824    1.8071   -0.0173 H   0  0  0  0  0  0  0  0  0  0  0  0
   -5.9631    0.3010    1.0173 H   0  0  0  0  0  0  0  0  0  0  0  0
   -3.8154   -0.3244    1.9764 H   0  0  0  0  0  0  0  0  0  0  0  0
    3.3406   -2.5587    1.2461 H   0  0  0  0  0  0  0  0  0  0  0  0
    3.8967   -1.1166    2.1536 H   0  0  0  0  0  0  0  0  0  0  0  0
    4.8897   -1.8422    0.8314 H   0  0  0  0  0  0  0  0  0  0  0  0
  1  2  1  0
  2  3  1  0
  3  4  2  0
  3  5  1  0
  5  6  2  0
  6  7  1  0
  7  8  2  0
  8  9  1  0
  9 10  2  0
  9 11  2  0
  9 12  1  0
 12 13  1  0
 13 14  1  0
 14 15  2  0
 15 16  1  0
 16 17  2  0
 17 18  1  0
 18 19  1  0
 17 20  1  0
 20 21  2  0
  8 22  1  0
 22 23  1  0
 22  5  1  0
 21 14  1  0
  1 24  1  0
  1 25  1  0
  1 26  1  0
  6 27  1  0
  7 28  1  0
 12 29  1  0
 13 30  1  0
 13 31  1  0
 15 32  1  0
 16 33  1  0
 19 34  1  0
 19 35  1  0
 19 36  1  0
 20 37  1  0
 21 38  1  0
 23 39  1  0
 23 40  1  0
 23 41  1  0
M  END
$$$$
