
     RDKit          3D

 57 60  0  0  0  0  0  0  0  0999 V2000
    2.3550    0.7194    2.2637 C   0  0  0  0  0  0  0  0  0  0  0  0
    2.4536    0.6855    0.7744 C   0  0  0  0  0  0  0  0  0  0  0  0
    1.5529    1.2131   -0.1303 C   0  0  0  0  0  0  0  0  0  0  0  0
    2.0898    1.0541   -1.4222 C   0  0  0  0  0  0  0  0  0  0  0  0
    1.5202    1.4604   -2.6669 C   0  0  0  0  0  0  0  0  0  0  0  0
    0.2399    1.3423   -3.0582 C   0  0  0  0  0  0  0  0  0  0  0  0
   -0.8303    0.7069   -2.2811 C   0  0  0  0  0  0  0  0  0  0  0  0
   -0.8082   -0.6815   -2.1397 C   0  0  0  0  0  0  0  0  0  0  0  0
   -1.8077   -1.3221   -1.4309 C   0  0  0  0  0  0  0  0  0  0  0  0
   -2.8376   -0.5747   -0.8692 C   0  0  0  0  0  0  0  0  0  0  0  0
   -3.8640   -1.2164   -0.1458 C   0  0  0  0  0  0  0  0  0  0  0  0
   -4.9348   -0.5233    0.4420 C   0  0  0  0  0  0  0  0  0  0  0  0
   -5.9258   -1.1708    1.1743 N   0  0  0  0  0  0  0  0  0  0  0  0
   -6.0564   -2.6281    1.1093 C   0  0  0  0  0  0  0  0  0  0  0  0
   -7.1338   -0.4493    1.5803 C   0  0  0  0  0  0  0  0  0  0  0  0
   -4.9176    0.8677    0.2781 C   0  0  0  0  0  0  0  0  0  0  0  0
   -3.9071    1.5319   -0.4369 C   0  0  0  0  0  0  0  0  0  0  0  0
   -2.8456    0.8301   -1.0246 C   0  0  0  0  0  0  0  0  0  0  0  0
   -1.8351    1.4428   -1.7258 N   0  0  0  0  0  4  0  0  0  0  0  0
   -1.8304    2.9202   -1.8419 C   0  0  0  0  0  0  0  0  0  0  0  0
    3.3172    0.4252   -1.2953 C   0  0  0  0  0  0  0  0  0  0  0  0
    4.2349   -0.0518   -2.3783 C   0  0  0  0  0  0  0  0  0  0  0  0
    3.5534    0.2042    0.0656 N   0  0  0  0  0  0  0  0  0  0  0  0
    4.7158   -0.3961    0.6316 C   0  0  0  0  0  0  0  0  0  0  0  0
    4.5902   -1.3724    1.6277 C   0  0  0  0  0  0  0  0  0  0  0  0
    5.7318   -1.9572    2.1798 C   0  0  0  0  0  0  0  0  0  0  0  0
    6.9977   -1.5687    1.7445 C   0  0  0  0  0  0  0  0  0  0  0  0
    7.1267   -0.5953    0.7553 C   0  0  0  0  0  0  0  0  0  0  0  0
    5.9894   -0.0085    0.1966 C   0  0  0  0  0  0  0  0  0  0  0  0
    3.3119    0.9725    2.7298 H   0  0  0  0  0  0  0  0  0  0  0  0
    1.6344    1.4821    2.5797 H   0  0  0  0  0  0  0  0  0  0  0  0
    2.0033   -0.2412    2.6509 H   0  0  0  0  0  0  0  0  0  0  0  0
    0.6273    1.6958    0.1509 H   0  0  0  0  0  0  0  0  0  0  0  0
    2.2186    1.8935   -3.3849 H   0  0  0  0  0  0  0  0  0  0  0  0
   -0.0462    1.6942   -4.0472 H   0  0  0  0  0  0  0  0  0  0  0  0
   -0.0016   -1.2696   -2.5759 H   0  0  0  0  0  0  0  0  0  0  0  0
   -1.7726   -2.4057   -1.3222 H   0  0  0  0  0  0  0  0  0  0  0  0
   -3.8075   -2.2983   -0.0413 H   0  0  0  0  0  0  0  0  0  0  0  0
   -5.1543   -3.1212    1.4868 H   0  0  0  0  0  0  0  0  0  0  0  0
   -6.8811   -2.9877    1.7347 H   0  0  0  0  0  0  0  0  0  0  0  0
   -6.2535   -2.9569    0.0831 H   0  0  0  0  0  0  0  0  0  0  0  0
   -7.6907   -0.0975    0.7050 H   0  0  0  0  0  0  0  0  0  0  0  0
   -6.8870    0.4008    2.2253 H   0  0  0  0  0  0  0  0  0  0  0  0
   -7.8060   -1.0865    2.1658 H   0  0  0  0  0  0  0  0  0  0  0  0
   -5.7009    1.4853    0.7128 H   0  0  0  0  0  0  0  0  0  0  0  0
   -3.9983    2.6120   -0.5021 H   0  0  0  0  0  0  0  0  0  0  0  0
   -2.7283    3.2154   -2.3923 H   0  0  0  0  0  0  0  0  0  0  0  0
   -0.9573    3.2980   -2.3721 H   0  0  0  0  0  0  0  0  0  0  0  0
   -1.8202    3.3383   -0.8312 H   0  0  0  0  0  0  0  0  0  0  0  0
    3.6829   -0.2297   -3.3074 H   0  0  0  0  0  0  0  0  0  0  0  0
    4.7151   -1.0003   -2.1197 H   0  0  0  0  0  0  0  0  0  0  0  0
    5.0027    0.6985   -2.5888 H   0  0  0  0  0  0  0  0  0  0  0  0
    3.6174   -1.7233    1.9588 H   0  0  0  0  0  0  0  0  0  0  0  0
    5.6351   -2.7226    2.9462 H   0  0  0  0  0  0  0  0  0  0  0  0
    7.8852   -2.0242    2.1777 H   0  0  0  0  0  0  0  0  0  0  0  0
    8.1160   -0.2865    0.4258 H   0  0  0  0  0  0  0  0  0  0  0  0
    6.1215    0.7770   -0.5420 H   0  0  0  0  0  0  0  0  0  0  0  0
  1  2  1  0
  2  3  2  0
  3  4  1  0
  4  5  1  0
  5  6  2  3
  6  7  1  0
  7  8  2  0
  8  9  1  0
  9 10  2  0
 10 11  1  0
 11 12  2  0
 12 13  1  0
 13 14  1  0
 13 15  1  0
 12 16  1  0
 16 17  2  0
 17 18  1  0
 18 19  2  0
 19 20  1  0
  4 21  2  0
 21 22  1  0
 21 23  1  0
 23 24  1  0
 24 25  2  0
 25 26  1  0
 26 27  2  0
 27 28  1  0
 28 29  2  0
 23  2  1  0
 29 24  1  0
 19  7  1  0
 18 10  1  0
  1 30  1  0
  1 31  1  0
  1 32  1  0
  3 33  1  0
  5 34  1  0
  6 35  1  0
  8 36  1  0
  9 37  1  0
 11 38  1  0
 14 39  1  0
 14 40  1  0
 14 41  1  0
 15 42  1  0
 15 43  1  0
 15 44  1  0
 16 45  1  0
 17 46  1  0
 20 47  1  0
 20 48  1  0
 20 49  1  0
 22 50  1  0
 22 51  1  0
 22 52  1  0
 25 53  1  0
 26 54  1  0
 27 55  1  0
 28 56  1  0
 29 57  1  0
M  CHG  1  19   1
M  END
$$$$
