
     RDKit          3D

 39 40  0  0  0  0  0  0  0  0999 V2000
   -1.6952   -0.7280   -2.3099 C   0  0  0  0  0  0  0  0  0  0  0  0
   -2.5199   -0.1870   -1.1578 C   0  0  0  0  0  0  0  0  0  0  0  0
   -1.9645    0.4029   -0.0802 C   0  0  0  0  0  0  0  0  0  0  0  0
   -0.4941    0.5137    0.1390 C   0  0  0  0  0  0  0  0  0  0  0  0
    0.3677   -0.3755   -0.2341 N   0  0  0  0  0  0  0  0  0  0  0  0
    1.6619   -0.1076    0.0950 N   0  0  0  0  0  0  0  0  0  0  0  0
    2.6776   -0.9612   -0.2958 C   0  0  0  0  0  0  0  0  0  0  0  0
    2.5129   -1.9715   -0.9761 O   0  0  0  0  0  0  0  0  0  0  0  0
    4.0599   -0.5934    0.1540 C   0  0  0  0  0  0  0  0  0  0  0  0
    5.1059   -1.4454   -0.2406 C   0  0  0  0  0  0  0  0  0  0  0  0
    6.4193   -1.1730    0.1388 C   0  0  0  0  0  0  0  0  0  0  0  0
    7.8134   -2.3297   -0.4015 Br  0  0  0  0  0  0  0  0  0  0  0  0
    6.7145   -0.0544    0.9137 C   0  0  0  0  0  0  0  0  0  0  0  0
    5.6878    0.8014    1.3142 C   0  0  0  0  0  0  0  0  0  0  0  0
    4.3675    0.5335    0.9365 C   0  0  0  0  0  0  0  0  0  0  0  0
    3.3828    1.3963    1.3474 O   0  0  0  0  0  0  0  0  0  0  0  0
   -2.8451    1.0204    0.9399 C   0  0  0  0  0  0  0  0  0  0  0  0
   -2.3448    1.6931    1.8424 O   0  0  0  0  0  0  0  0  0  0  0  0
   -4.1995    0.8104    0.8089 N   0  0  0  0  0  0  0  0  0  0  0  0
   -5.0831    1.3730    1.8128 C   0  0  0  0  0  0  0  0  0  0  0  0
   -4.7885    0.2162   -0.2958 C   0  0  0  0  0  0  0  0  0  0  0  0
   -6.0136    0.1641   -0.4220 O   0  0  0  0  0  0  0  0  0  0  0  0
   -3.9135   -0.2972   -1.2557 N   0  0  0  0  0  0  0  0  0  0  0  0
   -4.5244   -0.9702   -2.4024 C   0  0  0  0  0  0  0  0  0  0  0  0
   -1.5751   -1.8119   -2.2167 H   0  0  0  0  0  0  0  0  0  0  0  0
   -0.7067   -0.2690   -2.3859 H   0  0  0  0  0  0  0  0  0  0  0  0
   -2.1615   -0.5092   -3.2760 H   0  0  0  0  0  0  0  0  0  0  0  0
   -0.1779    1.4148    0.6961 H   0  0  0  0  0  0  0  0  0  0  0  0
    1.8926    0.7077    0.6611 H   0  0  0  0  0  0  0  0  0  0  0  0
    4.8890   -2.3243   -0.8460 H   0  0  0  0  0  0  0  0  0  0  0  0
    7.7390    0.1582    1.2099 H   0  0  0  0  0  0  0  0  0  0  0  0
    5.9386    1.6692    1.9181 H   0  0  0  0  0  0  0  0  0  0  0  0
    3.7846    2.0921    1.9000 H   0  0  0  0  0  0  0  0  0  0  0  0
   -5.4582    2.3328    1.4431 H   0  0  0  0  0  0  0  0  0  0  0  0
   -4.5646    1.5346    2.7621 H   0  0  0  0  0  0  0  0  0  0  0  0
   -5.9340    0.7071    1.9880 H   0  0  0  0  0  0  0  0  0  0  0  0
   -4.0330   -1.9323   -2.5775 H   0  0  0  0  0  0  0  0  0  0  0  0
   -5.5872   -1.1743   -2.2443 H   0  0  0  0  0  0  0  0  0  0  0  0
   -4.4308   -0.3265   -3.2824 H   0  0  0  0  0  0  0  0  0  0  0  0
  1  2  1  0
  2  3  2  0
  3  4  1  0
  4  5  2  3
  5  6  1  0
  6  7  1  0
  7  8  2  0
  7  9  1  0
  9 10  2  0
 10 11  1  0
 11 12  1  0
 11 13  2  0
 13 14  1  0
 14 15  2  0
 15 16  1  0
  3 17  1  0
 17 18  2  0
 17 19  1  0
 19 20  1  0
 19 21  1  0
 21 22  2  0
 21 23  1  0
 23 24  1  0
 23  2  1  0
 15  9  1  0
  1 25  1  0
  1 26  1  0
  1 27  1  0
  4 28  1  0
  6 29  1  0
 10 30  1  0
 13 31  1  0
 14 32  1  0
 16 33  1  0
 20 34  1  0
 20 35  1  0
 20 36  1  0
 24 37  1  0
 24 38  1  0
 24 39  1  0
M  END
$$$$
