
     RDKit          3D

 29 29  0  0  0  0  0  0  0  0999 V2000
   -6.1858   -2.3067   -0.2176 C   0  0  0  0  0  0  0  0  0  0  0  0
   -5.0206   -2.1311    0.0160 C   0  0  0  0  0  0  0  0  0  0  0  0
   -3.5957   -1.9150    0.3020 C   0  0  0  0  0  0  0  0  0  0  0  0
   -3.1582   -0.6686   -0.3212 N   0  0  0  0  0  0  0  0  0  0  0  0
   -1.7745   -0.3227    0.0149 C   0  0  0  0  0  0  0  0  0  0  0  0
   -0.7571   -1.1458   -0.7813 C   0  0  0  0  0  0  0  0  0  0  0  0
    0.6824   -0.7943   -0.4045 C   0  0  0  0  0  0  0  0  0  0  0  0
    0.9142    0.5860   -0.6744 O   0  0  0  0  0  0  0  0  0  0  0  0
    2.1342    1.1123   -0.3426 C   0  0  0  0  0  0  0  0  0  0  0  0
    3.2222    0.3628    0.1173 C   0  0  0  0  0  0  0  0  0  0  0  0
    4.4335    0.9916    0.4257 C   0  0  0  0  0  0  0  0  0  0  0  0
    4.5631    2.3702    0.2740 C   0  0  0  0  0  0  0  0  0  0  0  0
    6.0563    3.1336    0.6563 Cl  0  0  0  0  0  0  0  0  0  0  0  0
    3.4940    3.1317   -0.1845 C   0  0  0  0  0  0  0  0  0  0  0  0
    2.2852    2.5026   -0.4921 C   0  0  0  0  0  0  0  0  0  0  0  0
    0.9812    3.4920   -1.0535 Cl  0  0  0  0  0  0  0  0  0  0  0  0
   -7.2181   -2.4585   -0.4333 H   0  0  0  0  0  0  0  0  0  0  0  0
   -3.0244   -2.7650   -0.0846 H   0  0  0  0  0  0  0  0  0  0  0  0
   -3.4499   -1.8751    1.3877 H   0  0  0  0  0  0  0  0  0  0  0  0
   -3.7711    0.0783    0.0068 H   0  0  0  0  0  0  0  0  0  0  0  0
   -1.6360    0.7375   -0.2282 H   0  0  0  0  0  0  0  0  0  0  0  0
   -1.5999   -0.4183    1.0934 H   0  0  0  0  0  0  0  0  0  0  0  0
   -0.9062   -0.9538   -1.8513 H   0  0  0  0  0  0  0  0  0  0  0  0
   -0.9041   -2.2180   -0.6134 H   0  0  0  0  0  0  0  0  0  0  0  0
    0.8407   -1.0058    0.6601 H   0  0  0  0  0  0  0  0  0  0  0  0
    1.3596   -1.4102   -1.0078 H   0  0  0  0  0  0  0  0  0  0  0  0
    3.1655   -0.7138    0.2422 H   0  0  0  0  0  0  0  0  0  0  0  0
    5.2723    0.3977    0.7814 H   0  0  0  0  0  0  0  0  0  0  0  0
    3.5975    4.2066   -0.3028 H   0  0  0  0  0  0  0  0  0  0  0  0
  1  2  3  0
  2  3  1  0
  3  4  1  0
  4  5  1  0
  5  6  1  0
  6  7  1  0
  7  8  1  0
  8  9  1  0
  9 10  2  0
 10 11  1  0
 11 12  2  0
 12 13  1  0
 12 14  1  0
 14 15  2  0
 15 16  1  0
 15  9  1  0
  1 17  1  0
  3 18  1  0
  3 19  1  0
  4 20  1  0
  5 21  1  0
  5 22  1  0
  6 23  1  0
  6 24  1  0
  7 25  1  0
  7 26  1  0
 10 27  1  0
 11 28  1  0
 14 29  1  0
M  END
$$$$
