
     RDKit          3D

 55 60  0  0  0  0  0  0  0  0999 V2000
   -3.2972    0.5808    2.2914 O   0  0  0  0  0  0  0  0  0  0  0  0
   -3.5630    0.7682    1.1055 C   0  0  0  0  0  0  0  0  0  0  0  0
   -4.3061    1.9477    0.6901 C   0  0  0  0  0  0  0  0  0  0  0  0
   -5.2098    2.1489   -0.3952 C   0  0  0  0  0  0  0  0  0  0  0  0
   -5.6578    3.4453   -0.3005 C   0  0  0  0  0  0  0  0  0  0  0  0
   -5.1098    4.0559    0.7793 O   0  0  0  0  0  0  0  0  0  0  0  0
   -4.3121    3.1409    1.3857 C   0  0  0  0  0  0  0  0  0  0  0  0
   -3.1880   -0.1493    0.1138 N   0  0  0  0  0  0  0  0  0  0  0  0
   -2.6713   -1.4369    0.5573 C   0  0  0  0  0  0  0  0  0  0  0  0
   -1.1555   -1.3773    0.7431 C   0  0  0  0  0  0  0  0  0  0  0  0
   -0.4394   -0.8909   -0.5456 C   0  0  0  0  0  0  0  0  0  0  0  0
   -1.1073    0.4228   -1.0487 C   0  0  0  0  0  0  0  0  0  0  0  0
   -2.6300    0.2917   -1.1628 C   0  0  0  0  0  0  0  0  0  0  0  0
   -0.7140   -1.8393   -1.6122 O   0  0  0  0  0  0  0  0  0  0  0  0
    0.0662   -2.9532   -1.6931 C   0  0  0  0  0  0  0  0  0  0  0  0
   -0.3890   -3.9569   -2.5507 C   0  0  0  0  0  0  0  0  0  0  0  0
    0.3320   -5.1451   -2.6809 C   0  0  0  0  0  0  0  0  0  0  0  0
    1.5055   -5.3199   -1.9544 C   0  0  0  0  0  0  0  0  0  0  0  0
    2.1913   -6.4630   -2.0781 F   0  0  0  0  0  0  0  0  0  0  0  0
    1.9766   -4.3267   -1.1065 C   0  0  0  0  0  0  0  0  0  0  0  0
    1.2531   -3.1367   -0.9902 C   0  0  0  0  0  0  0  0  0  0  0  0
    1.7308   -2.0569   -0.1170 C   0  0  0  0  0  0  0  0  0  0  0  0
    2.5934   -2.2954    0.7241 O   0  0  0  0  0  0  0  0  0  0  0  0
    1.0880   -0.6911   -0.3290 C   0  0  0  0  0  0  0  0  0  0  0  0
    1.4674    0.2727    0.7870 C   0  0  0  0  0  0  0  0  0  0  0  0
    2.5866    0.9882    0.1119 C   0  0  0  0  0  0  0  0  0  0  0  0
    3.4939    1.8998    0.8490 C   0  0  0  0  0  0  0  0  0  0  0  0
    4.5527    2.5049    0.1601 C   0  0  0  0  0  0  0  0  0  0  0  0
    5.4214    3.3725    0.8249 C   0  0  0  0  0  0  0  0  0  0  0  0
    5.2367    3.6403    2.1799 C   0  0  0  0  0  0  0  0  0  0  0  0
    4.1840    3.0426    2.8713 C   0  0  0  0  0  0  0  0  0  0  0  0
    3.3119    2.1738    2.2095 C   0  0  0  0  0  0  0  0  0  0  0  0
    2.6765    0.7789   -1.1629 N   0  0  0  0  0  0  0  0  0  0  0  0
    1.6680   -0.1388   -1.5232 O   0  0  0  0  0  0  0  0  0  0  0  0
   -5.5055    1.4298   -1.1463 H   0  0  0  0  0  0  0  0  0  0  0  0
   -6.3405    4.0490   -0.8824 H   0  0  0  0  0  0  0  0  0  0  0  0
   -3.8183    3.4748    2.2883 H   0  0  0  0  0  0  0  0  0  0  0  0
   -3.1535   -1.7332    1.4956 H   0  0  0  0  0  0  0  0  0  0  0  0
   -2.9451   -2.1865   -0.1942 H   0  0  0  0  0  0  0  0  0  0  0  0
   -0.9256   -0.7049    1.5774 H   0  0  0  0  0  0  0  0  0  0  0  0
   -0.8113   -2.3772    1.0303 H   0  0  0  0  0  0  0  0  0  0  0  0
   -0.7200    0.6906   -2.0394 H   0  0  0  0  0  0  0  0  0  0  0  0
   -0.8848    1.2557   -0.3740 H   0  0  0  0  0  0  0  0  0  0  0  0
   -2.9098   -0.4428   -1.9263 H   0  0  0  0  0  0  0  0  0  0  0  0
   -3.0339    1.2563   -1.4736 H   0  0  0  0  0  0  0  0  0  0  0  0
   -1.3085   -3.8175   -3.1144 H   0  0  0  0  0  0  0  0  0  0  0  0
   -0.0135   -5.9343   -3.3419 H   0  0  0  0  0  0  0  0  0  0  0  0
    2.9002   -4.4814   -0.5560 H   0  0  0  0  0  0  0  0  0  0  0  0
    0.6916    1.0054    1.0213 H   0  0  0  0  0  0  0  0  0  0  0  0
    1.7796   -0.2167    1.7123 H   0  0  0  0  0  0  0  0  0  0  0  0
    4.7103    2.3035   -0.8979 H   0  0  0  0  0  0  0  0  0  0  0  0
    6.2424    3.8366    0.2840 H   0  0  0  0  0  0  0  0  0  0  0  0
    5.9151    4.3145    2.6975 H   0  0  0  0  0  0  0  0  0  0  0  0
    4.0432    3.2527    3.9290 H   0  0  0  0  0  0  0  0  0  0  0  0
    2.5023    1.7270    2.7779 H   0  0  0  0  0  0  0  0  0  0  0  0
  1  2  2  0
  2  3  1  0
  3  4  1  0
  4  5  2  0
  5  6  1  0
  6  7  1  0
  2  8  1  0
  8  9  1  0
  9 10  1  0
 10 11  1  0
 11 12  1  0
 12 13  1  0
 11 14  1  0
 14 15  1  0
 15 16  2  0
 16 17  1  0
 17 18  2  0
 18 19  1  0
 18 20  1  0
 20 21  2  0
 21 22  1  0
 22 23  2  0
 22 24  1  0
 24 25  1  0
 25 26  1  0
 26 27  1  0
 27 28  2  0
 28 29  1  0
 29 30  2  0
 30 31  1  0
 31 32  2  0
 26 33  2  0
 33 34  1  0
  7  3  2  0
 13  8  1  0
 21 15  1  0
 34 24  1  0
 24 11  1  0
 32 27  1  0
  4 35  1  0
  5 36  1  0
  7 37  1  0
  9 38  1  0
  9 39  1  0
 10 40  1  0
 10 41  1  0
 12 42  1  0
 12 43  1  0
 13 44  1  0
 13 45  1  0
 16 46  1  0
 17 47  1  0
 20 48  1  0
 25 49  1  0
 25 50  1  0
 28 51  1  0
 29 52  1  0
 30 53  1  0
 31 54  1  0
 32 55  1  0
M  END
$$$$
