
     RDKit          3D

 40 42  0  0  0  0  0  0  0  0999 V2000
   -4.0041   -1.8991   -1.5777 C   0  0  0  0  0  0  0  0  0  0  0  0
   -4.7917   -0.8809   -0.7969 C   0  0  0  0  0  0  0  0  0  0  0  0
   -6.1948   -0.9068   -0.9001 C   0  0  0  0  0  0  0  0  0  0  0  0
   -6.9800    0.0083   -0.2036 C   0  0  0  0  0  0  0  0  0  0  0  0
   -6.3724    0.9617    0.6030 C   0  0  0  0  0  0  0  0  0  0  0  0
   -4.9801    1.0007    0.7162 C   0  0  0  0  0  0  0  0  0  0  0  0
   -4.1738    0.0863    0.0280 C   0  0  0  0  0  0  0  0  0  0  0  0
   -2.7608    0.1049    0.1171 N   0  0  0  0  0  0  0  0  0  0  0  0
   -1.9714    0.9068    0.9216 C   0  0  0  0  0  0  0  0  0  0  0  0
   -2.3474    1.7053    1.7710 O   0  0  0  0  0  0  0  0  0  0  0  0
   -0.5027    0.7201    0.7411 C   0  0  0  0  0  0  0  0  0  0  0  0
    0.0623    0.4438   -0.5080 C   0  0  0  0  0  0  0  0  0  0  0  0
    1.4477    0.2736   -0.6335 C   0  0  0  0  0  0  0  0  0  0  0  0
    2.2841    0.3871    0.4795 C   0  0  0  0  0  0  0  0  0  0  0  0
    3.6860    0.2321    0.4395 N   0  0  0  0  0  0  0  0  0  0  0  0
    4.4758   -0.1153   -0.6503 C   0  0  0  0  0  0  0  0  0  0  0  0
    4.0311   -0.3736   -1.7651 O   0  0  0  0  0  0  0  0  0  0  0  0
    5.9042   -0.1622   -0.3566 C   0  0  0  0  0  0  0  0  0  0  0  0
    6.6670    0.1396    0.7618 C   0  0  0  0  0  0  0  0  0  0  0  0
    8.0204   -0.1126    0.4227 C   0  0  0  0  0  0  0  0  0  0  0  0
    8.0115   -0.5507   -0.8778 C   0  0  0  0  0  0  0  0  0  0  0  0
    6.7445   -0.5836   -1.3571 O   0  0  0  0  0  0  0  0  0  0  0  0
    1.7134    0.6881    1.7235 C   0  0  0  0  0  0  0  0  0  0  0  0
    0.3312    0.8570    1.8545 C   0  0  0  0  0  0  0  0  0  0  0  0
   -4.6580   -2.5613   -2.1553 H   0  0  0  0  0  0  0  0  0  0  0  0
   -3.3358   -1.4002   -2.2870 H   0  0  0  0  0  0  0  0  0  0  0  0
   -3.4187   -2.5283   -0.8994 H   0  0  0  0  0  0  0  0  0  0  0  0
   -6.6874   -1.6458   -1.5287 H   0  0  0  0  0  0  0  0  0  0  0  0
   -8.0627   -0.0218   -0.2915 H   0  0  0  0  0  0  0  0  0  0  0  0
   -6.9768    1.6822    1.1482 H   0  0  0  0  0  0  0  0  0  0  0  0
   -4.5540    1.7698    1.3525 H   0  0  0  0  0  0  0  0  0  0  0  0
   -2.2790   -0.5978   -0.4242 H   0  0  0  0  0  0  0  0  0  0  0  0
   -0.5500    0.3876   -1.4043 H   0  0  0  0  0  0  0  0  0  0  0  0
    1.8394    0.0683   -1.6254 H   0  0  0  0  0  0  0  0  0  0  0  0
    4.1625    0.3694    1.3183 H   0  0  0  0  0  0  0  0  0  0  0  0
    6.3093    0.5049    1.7133 H   0  0  0  0  0  0  0  0  0  0  0  0
    8.8941    0.0124    1.0472 H   0  0  0  0  0  0  0  0  0  0  0  0
    8.7808   -0.8615   -1.5715 H   0  0  0  0  0  0  0  0  0  0  0  0
    2.3308    0.7972    2.6117 H   0  0  0  0  0  0  0  0  0  0  0  0
   -0.0943    1.0944    2.8280 H   0  0  0  0  0  0  0  0  0  0  0  0
  1  2  1  0
  2  3  2  0
  3  4  1  0
  4  5  2  0
  5  6  1  0
  6  7  2  0
  7  8  1  0
  8  9  1  0
  9 10  2  0
  9 11  1  0
 11 12  2  0
 12 13  1  0
 13 14  2  0
 14 15  1  0
 15 16  1  0
 16 17  2  0
 16 18  1  0
 18 19  2  0
 19 20  1  0
 20 21  2  0
 21 22  1  0
 14 23  1  0
 23 24  2  0
  7  2  1  0
 24 11  1  0
 22 18  1  0
  1 25  1  0
  1 26  1  0
  1 27  1  0
  3 28  1  0
  4 29  1  0
  5 30  1  0
  6 31  1  0
  8 32  1  0
 12 33  1  0
 13 34  1  0
 15 35  1  0
 19 36  1  0
 20 37  1  0
 21 38  1  0
 23 39  1  0
 24 40  1  0
M  END
$$$$
