
     RDKit          3D

 48 51  0  0  0  0  0  0  0  0999 V2000
   -0.1007   -0.9071    1.7191 C   0  0  0  0  0  0  0  0  0  0  0  0
   -0.5794    0.5359    1.6399 C   0  0  0  0  0  0  0  0  0  0  0  0
   -1.0361    0.9119    0.3189 N   0  0  0  0  0  0  0  0  0  0  0  0
   -2.3450    1.0998   -0.0566 C   0  0  0  0  0  0  0  0  0  0  0  0
   -3.6666    1.2842    1.0442 S   0  0  0  0  0  0  0  0  0  0  0  0
   -5.0939    1.0429   -0.0497 C   0  0  0  0  0  0  0  0  0  0  0  0
   -5.4509   -0.4134   -0.2292 C   0  0  0  0  0  0  0  0  0  0  0  0
   -4.9535   -1.1393   -1.3218 C   0  0  0  0  0  0  0  0  0  0  0  0
   -5.2862   -2.4867   -1.4878 C   0  0  0  0  0  0  0  0  0  0  0  0
   -6.1161   -3.1047   -0.5613 C   0  0  0  0  0  0  0  0  0  0  0  0
   -6.4322   -4.3963   -0.7171 F   0  0  0  0  0  0  0  0  0  0  0  0
   -6.6180   -2.4044    0.5301 C   0  0  0  0  0  0  0  0  0  0  0  0
   -6.2827   -1.0619    0.7000 C   0  0  0  0  0  0  0  0  0  0  0  0
   -2.4364    1.1099   -1.3637 N   0  0  0  0  0  0  0  0  0  0  0  0
   -1.1810    0.9285   -1.8671 N   0  0  0  0  0  0  0  0  0  0  0  0
   -0.3217    0.9012   -0.8628 C   0  0  0  0  0  0  0  0  0  0  0  0
    1.2058    0.8138   -1.1693 C   0  0  0  0  0  0  0  0  0  0  0  0
    1.7056    0.5082   -2.4470 C   0  0  0  0  0  0  0  0  0  0  0  0
    3.0331    0.4810   -2.4795 N   0  0  0  0  0  0  0  0  0  0  0  0
    3.4160    0.6909   -1.1904 N   0  0  0  0  0  0  0  0  0  0  0  0
    4.7853    0.4631   -0.8439 C   0  0  0  0  0  0  0  0  0  0  0  0
    5.2011    0.2475    0.4764 C   0  0  0  0  0  0  0  0  0  0  0  0
    6.5535    0.0294    0.7624 C   0  0  0  0  0  0  0  0  0  0  0  0
    7.4971    0.0075   -0.2621 C   0  0  0  0  0  0  0  0  0  0  0  0
    7.0899    0.1905   -1.5817 C   0  0  0  0  0  0  0  0  0  0  0  0
    5.7416    0.4065   -1.8733 C   0  0  0  0  0  0  0  0  0  0  0  0
    2.3342    1.0966   -0.4224 C   0  0  0  0  0  0  0  0  0  0  0  0
    2.5072    1.8539    0.8207 C   0  0  0  0  0  0  0  0  0  0  0  0
    1.4953    2.7420    1.0050 F   0  0  0  0  0  0  0  0  0  0  0  0
    3.6433    2.5872    0.8601 F   0  0  0  0  0  0  0  0  0  0  0  0
    2.5103    1.0441    1.9102 F   0  0  0  0  0  0  0  0  0  0  0  0
    0.8126   -1.0625    1.1381 H   0  0  0  0  0  0  0  0  0  0  0  0
    0.1132   -1.1847    2.7551 H   0  0  0  0  0  0  0  0  0  0  0  0
   -0.8629   -1.5919    1.3335 H   0  0  0  0  0  0  0  0  0  0  0  0
   -1.3952    0.6655    2.3564 H   0  0  0  0  0  0  0  0  0  0  0  0
    0.1911    1.2385    1.9523 H   0  0  0  0  0  0  0  0  0  0  0  0
   -4.9467    1.5302   -1.0198 H   0  0  0  0  0  0  0  0  0  0  0  0
   -5.9457    1.5609    0.4086 H   0  0  0  0  0  0  0  0  0  0  0  0
   -4.3004   -0.6621   -2.0507 H   0  0  0  0  0  0  0  0  0  0  0  0
   -4.9022   -3.0518   -2.3316 H   0  0  0  0  0  0  0  0  0  0  0  0
   -7.2649   -2.9080    1.2397 H   0  0  0  0  0  0  0  0  0  0  0  0
   -6.6732   -0.5247    1.5595 H   0  0  0  0  0  0  0  0  0  0  0  0
    1.1515    0.3030   -3.3545 H   0  0  0  0  0  0  0  0  0  0  0  0
    4.5112    0.2042    1.3102 H   0  0  0  0  0  0  0  0  0  0  0  0
    6.8708   -0.1304    1.7885 H   0  0  0  0  0  0  0  0  0  0  0  0
    8.5478   -0.1610   -0.0338 H   0  0  0  0  0  0  0  0  0  0  0  0
    7.8202    0.1638   -2.3867 H   0  0  0  0  0  0  0  0  0  0  0  0
    5.4539    0.5482   -2.9167 H   0  0  0  0  0  0  0  0  0  0  0  0
  1  2  1  0
  2  3  1  0
  3  4  1  0
  4  5  1  0
  5  6  1  0
  6  7  1  0
  7  8  2  0
  8  9  1  0
  9 10  2  0
 10 11  1  0
 10 12  1  0
 12 13  2  0
  4 14  2  0
 14 15  1  0
 15 16  2  0
 16 17  1  0
 17 18  1  0
 18 19  2  0
 19 20  1  0
 20 21  1  0
 21 22  2  0
 22 23  1  0
 23 24  2  0
 24 25  1  0
 25 26  2  0
 20 27  1  0
 27 28  1  0
 28 29  1  0
 28 30  1  0
 28 31  1  0
 16  3  1  0
 27 17  2  0
 13  7  1  0
 26 21  1  0
  1 32  1  0
  1 33  1  0
  1 34  1  0
  2 35  1  0
  2 36  1  0
  6 37  1  0
  6 38  1  0
  8 39  1  0
  9 40  1  0
 12 41  1  0
 13 42  1  0
 18 43  1  0
 22 44  1  0
 23 45  1  0
 24 46  1  0
 25 47  1  0
 26 48  1  0
M  END
$$$$
