
     RDKit          3D

 48 49  0  0  0  0  0  0  0  0999 V2000
   -6.9237    1.0672   -1.7509 C   0  0  0  0  0  0  0  0  0  0  0  0
   -6.6254    0.3409   -0.4473 C   0  0  0  0  0  0  0  0  0  0  0  0
   -5.2121   -0.0144   -0.3162 N   0  0  0  0  0  0  0  0  0  0  0  0
   -4.7707   -1.2658   -0.9433 C   0  0  0  0  0  0  0  0  0  0  0  0
   -5.1302   -2.4900   -0.1156 C   0  0  0  0  0  0  0  0  0  0  0  0
   -4.3488    0.9705    0.1725 C   0  0  0  0  0  0  0  0  0  0  0  0
   -4.7077    2.1103    0.4599 O   0  0  0  0  0  0  0  0  0  0  0  0
   -2.9183    0.6512    0.3528 C   0  0  0  0  0  0  0  0  0  0  0  0
   -1.9688    1.3674   -0.3768 C   0  0  0  0  0  0  0  0  0  0  0  0
   -0.6106    1.0872   -0.2047 C   0  0  0  0  0  0  0  0  0  0  0  0
   -0.1927    0.1041    0.7039 C   0  0  0  0  0  0  0  0  0  0  0  0
    1.1915   -0.1168    0.8126 N   0  0  0  0  0  0  0  0  0  0  0  0
    1.8544   -1.0339    1.6079 C   0  0  0  0  0  0  0  0  0  0  0  0
    1.3432   -1.8458    2.3742 O   0  0  0  0  0  0  0  0  0  0  0  0
    3.3782   -0.9633    1.4584 C   0  0  0  0  0  0  0  0  0  0  0  0
    3.7469    0.0005    0.4758 O   0  0  0  0  0  0  0  0  0  0  0  0
    5.0782    0.1949    0.2244 C   0  0  0  0  0  0  0  0  0  0  0  0
    6.1159   -0.5040    0.8497 C   0  0  0  0  0  0  0  0  0  0  0  0
    7.4496   -0.2328    0.5209 C   0  0  0  0  0  0  0  0  0  0  0  0
    7.7473    0.7428   -0.4397 C   0  0  0  0  0  0  0  0  0  0  0  0
    9.1468    1.0224   -0.7843 N   0  0  0  0  0  4  0  0  0  0  0  0
   10.0240    0.3889   -0.1818 O   0  0  0  0  0  0  0  0  0  0  0  0
    9.3648    1.8723   -1.6587 O   0  0  0  0  0  1  0  0  0  0  0  0
    6.7227    1.4509   -1.0736 C   0  0  0  0  0  0  0  0  0  0  0  0
    5.3961    1.1722   -0.7373 C   0  0  0  0  0  0  0  0  0  0  0  0
    4.1500    2.0658   -1.5399 Cl  0  0  0  0  0  0  0  0  0  0  0  0
   -1.1528   -0.5870    1.4482 C   0  0  0  0  0  0  0  0  0  0  0  0
   -2.5141   -0.3098    1.2808 C   0  0  0  0  0  0  0  0  0  0  0  0
   -6.6786    0.4452   -2.6179 H   0  0  0  0  0  0  0  0  0  0  0  0
   -6.3449    1.9930   -1.8317 H   0  0  0  0  0  0  0  0  0  0  0  0
   -7.9865    1.3236   -1.8060 H   0  0  0  0  0  0  0  0  0  0  0  0
   -6.9093    0.9850    0.3935 H   0  0  0  0  0  0  0  0  0  0  0  0
   -7.2321   -0.5670   -0.3720 H   0  0  0  0  0  0  0  0  0  0  0  0
   -3.6919   -1.2508   -1.1181 H   0  0  0  0  0  0  0  0  0  0  0  0
   -5.2386   -1.3357   -1.9316 H   0  0  0  0  0  0  0  0  0  0  0  0
   -4.7475   -3.3962   -0.5963 H   0  0  0  0  0  0  0  0  0  0  0  0
   -6.2141   -2.5991   -0.0118 H   0  0  0  0  0  0  0  0  0  0  0  0
   -4.7061   -2.4314    0.8907 H   0  0  0  0  0  0  0  0  0  0  0  0
   -2.2849    2.1420   -1.0716 H   0  0  0  0  0  0  0  0  0  0  0  0
    0.1140    1.6529   -0.7860 H   0  0  0  0  0  0  0  0  0  0  0  0
    1.7962    0.4579    0.2303 H   0  0  0  0  0  0  0  0  0  0  0  0
    3.7864   -0.6840    2.4362 H   0  0  0  0  0  0  0  0  0  0  0  0
    3.7193   -1.9600    1.1553 H   0  0  0  0  0  0  0  0  0  0  0  0
    5.9263   -1.2674    1.5991 H   0  0  0  0  0  0  0  0  0  0  0  0
    8.2405   -0.7904    1.0220 H   0  0  0  0  0  0  0  0  0  0  0  0
    6.9421    2.2119   -1.8198 H   0  0  0  0  0  0  0  0  0  0  0  0
   -0.8752   -1.3404    2.1787 H   0  0  0  0  0  0  0  0  0  0  0  0
   -3.2489   -0.8348    1.8854 H   0  0  0  0  0  0  0  0  0  0  0  0
  1  2  1  0
  2  3  1  0
  3  4  1  0
  4  5  1  0
  3  6  1  0
  6  7  2  0
  6  8  1  0
  8  9  2  0
  9 10  1  0
 10 11  2  0
 11 12  1  0
 12 13  1  0
 13 14  2  0
 13 15  1  0
 15 16  1  0
 16 17  1  0
 17 18  2  0
 18 19  1  0
 19 20  2  0
 20 21  1  0
 21 22  2  0
 21 23  1  0
 20 24  1  0
 24 25  2  0
 25 26  1  0
 11 27  1  0
 27 28  2  0
 28  8  1  0
 25 17  1  0
  1 29  1  0
  1 30  1  0
  1 31  1  0
  2 32  1  0
  2 33  1  0
  4 34  1  0
  4 35  1  0
  5 36  1  0
  5 37  1  0
  5 38  1  0
  9 39  1  0
 10 40  1  0
 12 41  1  0
 15 42  1  0
 15 43  1  0
 18 44  1  0
 19 45  1  0
 24 46  1  0
 27 47  1  0
 28 48  1  0
M  CHG  2  21   1  23  -1
M  END
$$$$
