
     RDKit          3D

 40 42  0  0  0  0  0  0  0  0999 V2000
    5.3528   -1.0335    0.1580 N   0  0  0  0  0  0  0  0  0  0  0  0
    4.0815   -0.7573   -0.4981 C   0  0  0  0  0  0  0  0  0  0  0  0
    3.0347   -0.3552    0.5387 C   0  0  0  0  0  0  0  0  0  0  0  0
    1.6851   -0.0661   -0.1207 C   0  0  0  0  0  0  0  0  0  0  0  0
    0.6297    0.3140    0.9285 C   0  0  0  0  0  0  0  0  0  0  0  0
   -0.6775    0.6168    0.3013 N   0  0  0  0  0  0  0  0  0  0  0  0
   -0.9382    1.9806   -0.0277 C   0  0  0  0  0  0  0  0  0  0  0  0
    0.0894    2.9499   -0.0991 C   0  0  0  0  0  0  0  0  0  0  0  0
   -0.1545    4.2880   -0.4332 C   0  0  0  0  0  0  0  0  0  0  0  0
   -1.4431    4.7072   -0.7136 C   0  0  0  0  0  0  0  0  0  0  0  0
   -2.4798    3.7836   -0.6607 C   0  0  0  0  0  0  0  0  0  0  0  0
   -2.2386    2.4353   -0.3271 C   0  0  0  0  0  0  0  0  0  0  0  0
   -3.6786    1.3966   -0.2789 S   0  0  0  0  0  0  0  0  0  0  0  0
   -2.9717   -0.2226   -0.1001 C   0  0  0  0  0  0  0  0  0  0  0  0
   -3.8804   -1.2917   -0.2256 C   0  0  0  0  0  0  0  0  0  0  0  0
   -3.4640   -2.6115   -0.0885 C   0  0  0  0  0  0  0  0  0  0  0  0
   -2.1241   -2.8855    0.1711 C   0  0  0  0  0  0  0  0  0  0  0  0
   -1.6385   -4.3043    0.3366 C   0  0  0  0  0  0  0  0  0  0  0  0
   -1.5050   -4.6549    1.6451 F   0  0  0  0  0  0  0  0  0  0  0  0
   -2.4706   -5.2297   -0.2170 F   0  0  0  0  0  0  0  0  0  0  0  0
   -0.4187   -4.5142   -0.2328 F   0  0  0  0  0  0  0  0  0  0  0  0
   -1.2234   -1.8091    0.3069 C   0  0  0  0  0  0  0  0  0  0  0  0
   -1.6104   -0.4540    0.1800 C   0  0  0  0  0  0  0  0  0  0  0  0
    5.7038   -0.1877    0.6055 H   0  0  0  0  0  0  0  0  0  0  0  0
    6.0465   -1.2915   -0.5434 H   0  0  0  0  0  0  0  0  0  0  0  0
    4.2168    0.0424   -1.2345 H   0  0  0  0  0  0  0  0  0  0  0  0
    3.7540   -1.6541   -1.0348 H   0  0  0  0  0  0  0  0  0  0  0  0
    2.9159   -1.1595    1.2759 H   0  0  0  0  0  0  0  0  0  0  0  0
    3.3722    0.5357    1.0834 H   0  0  0  0  0  0  0  0  0  0  0  0
    1.8046    0.7375   -0.8560 H   0  0  0  0  0  0  0  0  0  0  0  0
    1.3617   -0.9449   -0.6897 H   0  0  0  0  0  0  0  0  0  0  0  0
    0.5333   -0.4825    1.6778 H   0  0  0  0  0  0  0  0  0  0  0  0
    0.9817    1.1580    1.5357 H   0  0  0  0  0  0  0  0  0  0  0  0
    1.1269    2.6945    0.0880 H   0  0  0  0  0  0  0  0  0  0  0  0
    0.6702    4.9951   -0.4761 H   0  0  0  0  0  0  0  0  0  0  0  0
   -1.6435    5.7427   -0.9735 H   0  0  0  0  0  0  0  0  0  0  0  0
   -3.4908    4.1209   -0.8815 H   0  0  0  0  0  0  0  0  0  0  0  0
   -4.9316   -1.0948   -0.4314 H   0  0  0  0  0  0  0  0  0  0  0  0
   -4.1892   -3.4171   -0.1891 H   0  0  0  0  0  0  0  0  0  0  0  0
   -0.1880   -2.0774    0.5006 H   0  0  0  0  0  0  0  0  0  0  0  0
  1  2  1  0
  2  3  1  0
  3  4  1  0
  4  5  1  0
  5  6  1  0
  6  7  1  0
  7  8  2  0
  8  9  1  0
  9 10  2  0
 10 11  1  0
 11 12  2  0
 12 13  1  0
 13 14  1  0
 14 15  2  0
 15 16  1  0
 16 17  2  0
 17 18  1  0
 18 19  1  0
 18 20  1  0
 18 21  1  0
 17 22  1  0
 22 23  2  0
 23  6  1  0
 12  7  1  0
 23 14  1  0
  1 24  1  0
  1 25  1  0
  2 26  1  0
  2 27  1  0
  3 28  1  0
  3 29  1  0
  4 30  1  0
  4 31  1  0
  5 32  1  0
  5 33  1  0
  8 34  1  0
  9 35  1  0
 10 36  1  0
 11 37  1  0
 15 38  1  0
 16 39  1  0
 22 40  1  0
M  END
$$$$
