
     RDKit          3D

 33 34  0  0  0  0  0  0  0  0999 V2000
   -2.8415    1.7682   -1.6662 C   0  0  0  0  0  0  0  0  0  0  0  0
   -2.7044    0.5588   -0.7503 C   0  0  0  0  0  0  0  0  0  0  0  0
   -1.4481    0.6069    0.0143 N   0  0  0  0  0  0  0  0  0  0  0  0
   -1.5246    1.3365    1.2904 C   0  0  0  0  0  0  0  0  0  0  0  0
   -2.0343    0.4444    2.4155 C   0  0  0  0  0  0  0  0  0  0  0  0
   -0.2625   -0.0154   -0.4333 C   0  0  0  0  0  0  0  0  0  0  0  0
   -0.1935   -0.4283   -1.7874 C   0  0  0  0  0  0  0  0  0  0  0  0
    0.9248   -1.0438   -2.3303 C   0  0  0  0  0  0  0  0  0  0  0  0
    2.0194   -1.2663   -1.5088 C   0  0  0  0  0  0  0  0  0  0  0  0
    3.1597   -1.9225   -2.1203 N   0  0  0  0  0  4  0  0  0  0  0  0
    3.7415   -1.3091   -3.0248 O   0  0  0  0  0  0  0  0  0  0  0  0
    3.4534   -3.0529   -1.7096 O   0  0  0  0  0  1  0  0  0  0  0  0
    2.0442   -0.8823   -0.1517 C   0  0  0  0  0  0  0  0  0  0  0  0
    3.1688   -1.0879    0.6904 C   0  0  0  0  0  0  0  0  0  0  0  0
    3.1488   -0.7054    2.0201 C   0  0  0  0  0  0  0  0  0  0  0  0
    2.0005   -0.1204    2.4814 C   0  0  0  0  0  0  0  0  0  0  0  0
    0.9172    0.0993    1.7079 N   0  0  0  0  0  0  0  0  0  0  0  0
    0.8926   -0.2526    0.3975 C   0  0  0  0  0  0  0  0  0  0  0  0
   -2.8522    2.6997   -1.0909 H   0  0  0  0  0  0  0  0  0  0  0  0
   -3.7786    1.7098   -2.2287 H   0  0  0  0  0  0  0  0  0  0  0  0
   -2.0186    1.8353   -2.3837 H   0  0  0  0  0  0  0  0  0  0  0  0
   -3.5570    0.5572   -0.0596 H   0  0  0  0  0  0  0  0  0  0  0  0
   -2.8060   -0.3760   -1.3131 H   0  0  0  0  0  0  0  0  0  0  0  0
   -2.2341    2.1678    1.1839 H   0  0  0  0  0  0  0  0  0  0  0  0
   -0.5856    1.8363    1.5457 H   0  0  0  0  0  0  0  0  0  0  0  0
   -1.4385   -0.4648    2.5320 H   0  0  0  0  0  0  0  0  0  0  0  0
   -2.0189    0.9899    3.3643 H   0  0  0  0  0  0  0  0  0  0  0  0
   -3.0668    0.1309    2.2289 H   0  0  0  0  0  0  0  0  0  0  0  0
   -1.0207   -0.2576   -2.4695 H   0  0  0  0  0  0  0  0  0  0  0  0
    0.9302   -1.3365   -3.3776 H   0  0  0  0  0  0  0  0  0  0  0  0
    4.0790   -1.5570    0.3207 H   0  0  0  0  0  0  0  0  0  0  0  0
    4.0009   -0.8647    2.6701 H   0  0  0  0  0  0  0  0  0  0  0  0
    1.9050    0.2026    3.5137 H   0  0  0  0  0  0  0  0  0  0  0  0
  1  2  1  0
  2  3  1  0
  3  4  1  0
  4  5  1  0
  3  6  1  0
  6  7  2  0
  7  8  1  0
  8  9  2  0
  9 10  1  0
 10 11  2  0
 10 12  1  0
  9 13  1  0
 13 14  2  0
 14 15  1  0
 15 16  2  0
 16 17  1  0
 17 18  2  0
 18  6  1  0
 18 13  1  0
  1 19  1  0
  1 20  1  0
  1 21  1  0
  2 22  1  0
  2 23  1  0
  4 24  1  0
  4 25  1  0
  5 26  1  0
  5 27  1  0
  5 28  1  0
  7 29  1  0
  8 30  1  0
 14 31  1  0
 15 32  1  0
 16 33  1  0
M  CHG  2  10   1  12  -1
M  END
$$$$
