
     RDKit          3D

 55 58  0  0  0  0  0  0  0  0999 V2000
    7.8705    2.9309   -0.6289 C   0  0  0  0  0  0  0  0  0  0  0  0
    7.5704    1.5711   -0.3477 O   0  0  0  0  0  0  0  0  0  0  0  0
    6.2502    1.1958   -0.3475 C   0  0  0  0  0  0  0  0  0  0  0  0
    5.1838    2.0588   -0.6186 C   0  0  0  0  0  0  0  0  0  0  0  0
    3.8704    1.5847   -0.5922 C   0  0  0  0  0  0  0  0  0  0  0  0
    3.6101    0.2469   -0.2816 C   0  0  0  0  0  0  0  0  0  0  0  0
    2.1929   -0.2118   -0.2576 C   0  0  0  0  0  0  0  0  0  0  0  0
    1.8227   -1.1998    0.8058 C   0  0  0  0  0  0  0  0  0  0  0  0
    0.5396   -1.6119    0.8201 C   0  0  0  0  0  0  0  0  0  0  0  0
   -0.0077   -2.5720    1.8050 C   0  0  0  0  0  0  0  0  0  0  0  0
    0.9517   -2.9765    2.6863 F   0  0  0  0  0  0  0  0  0  0  0  0
   -0.4807   -3.7054    1.2305 F   0  0  0  0  0  0  0  0  0  0  0  0
   -1.0032   -2.0433    2.5596 F   0  0  0  0  0  0  0  0  0  0  0  0
   -0.3531   -1.1133   -0.1215 N   0  0  0  0  0  0  0  0  0  0  0  0
   -1.6668   -1.4062   -0.2717 N   0  0  0  0  0  0  0  0  0  0  0  0
   -2.0923   -0.6587   -1.3061 C   0  0  0  0  0  0  0  0  0  0  0  0
   -3.4631   -0.7122   -1.8560 C   0  0  0  0  0  0  0  0  0  0  0  0
   -3.6451   -0.4569   -3.0484 O   0  0  0  0  0  0  0  0  0  0  0  0
   -4.5304   -1.0738   -1.0225 N   0  0  0  0  0  0  0  0  0  0  0  0
   -5.8120   -1.3204   -1.6622 C   0  0  0  0  0  0  0  0  0  0  0  0
   -4.5527   -0.8448    0.4252 C   0  0  0  0  0  0  0  0  0  0  0  0
   -5.3922    0.3547    0.8131 C   0  0  0  0  0  0  0  0  0  0  0  0
   -6.6127    0.1844    1.4817 C   0  0  0  0  0  0  0  0  0  0  0  0
   -7.3889    1.2907    1.8313 C   0  0  0  0  0  0  0  0  0  0  0  0
   -6.9537    2.5767    1.5170 C   0  0  0  0  0  0  0  0  0  0  0  0
   -5.7423    2.7590    0.8533 C   0  0  0  0  0  0  0  0  0  0  0  0
   -4.9644    1.6545    0.5028 C   0  0  0  0  0  0  0  0  0  0  0  0
   -1.0275    0.1032   -1.8438 C   0  0  0  0  0  0  0  0  0  0  0  0
    0.0701   -0.1809   -1.0702 C   0  0  0  0  0  0  0  0  0  0  0  0
    1.3545    0.2753   -1.1273 N   0  0  0  0  0  0  0  0  0  0  0  0
    4.6727   -0.6298   -0.0297 C   0  0  0  0  0  0  0  0  0  0  0  0
    5.9925   -0.1618   -0.0615 C   0  0  0  0  0  0  0  0  0  0  0  0
    7.0950   -0.9437    0.1819 O   0  0  0  0  0  0  0  0  0  0  0  0
    6.9078   -2.3485    0.2716 C   0  0  0  0  0  0  0  0  0  0  0  0
    7.4298    3.5956    0.1218 H   0  0  0  0  0  0  0  0  0  0  0  0
    7.5500    3.2062   -1.6394 H   0  0  0  0  0  0  0  0  0  0  0  0
    8.9574    3.0508   -0.5814 H   0  0  0  0  0  0  0  0  0  0  0  0
    5.3396    3.1053   -0.8589 H   0  0  0  0  0  0  0  0  0  0  0  0
    3.0515    2.2677   -0.8117 H   0  0  0  0  0  0  0  0  0  0  0  0
    2.5531   -1.5271    1.5347 H   0  0  0  0  0  0  0  0  0  0  0  0
   -6.3429   -0.3724   -1.7896 H   0  0  0  0  0  0  0  0  0  0  0  0
   -6.4049   -2.0038   -1.0469 H   0  0  0  0  0  0  0  0  0  0  0  0
   -5.6694   -1.7762   -2.6468 H   0  0  0  0  0  0  0  0  0  0  0  0
   -3.5629   -0.6803    0.8486 H   0  0  0  0  0  0  0  0  0  0  0  0
   -4.9440   -1.7572    0.8911 H   0  0  0  0  0  0  0  0  0  0  0  0
   -6.9688   -0.8123    1.7322 H   0  0  0  0  0  0  0  0  0  0  0  0
   -8.3347    1.1492    2.3476 H   0  0  0  0  0  0  0  0  0  0  0  0
   -7.5596    3.4368    1.7883 H   0  0  0  0  0  0  0  0  0  0  0  0
   -5.4039    3.7619    0.6058 H   0  0  0  0  0  0  0  0  0  0  0  0
   -4.0233    1.8129   -0.0183 H   0  0  0  0  0  0  0  0  0  0  0  0
   -1.0619    0.7705   -2.6933 H   0  0  0  0  0  0  0  0  0  0  0  0
    4.4649   -1.6743    0.1684 H   0  0  0  0  0  0  0  0  0  0  0  0
    7.8943   -2.8114    0.3717 H   0  0  0  0  0  0  0  0  0  0  0  0
    6.4432   -2.7463   -0.6365 H   0  0  0  0  0  0  0  0  0  0  0  0
    6.3264   -2.6106    1.1614 H   0  0  0  0  0  0  0  0  0  0  0  0
  1  2  1  0
  2  3  1  0
  3  4  2  0
  4  5  1  0
  5  6  2  0
  6  7  1  0
  7  8  1  0
  8  9  2  0
  9 10  1  0
 10 11  1  0
 10 12  1  0
 10 13  1  0
  9 14  1  0
 14 15  1  0
 15 16  2  0
 16 17  1  0
 17 18  2  0
 17 19  1  0
 19 20  1  0
 19 21  1  0
 21 22  1  0
 22 23  2  0
 23 24  1  0
 24 25  2  0
 25 26  1  0
 26 27  2  0
 16 28  1  0
 28 29  2  0
 29 30  1  0
  6 31  1  0
 31 32  2  0
 32 33  1  0
 33 34  1  0
 32  3  1  0
 30  7  2  0
 29 14  1  0
 27 22  1  0
  1 35  1  0
  1 36  1  0
  1 37  1  0
  4 38  1  0
  5 39  1  0
  8 40  1  0
 20 41  1  0
 20 42  1  0
 20 43  1  0
 21 44  1  0
 21 45  1  0
 23 46  1  0
 24 47  1  0
 25 48  1  0
 26 49  1  0
 27 50  1  0
 28 51  1  0
 31 52  1  0
 34 53  1  0
 34 54  1  0
 34 55  1  0
M  END
$$$$
