
     RDKit          3D

 51 55  0  0  0  0  0  0  0  0999 V2000
    5.8630   -0.6823   -0.6653 F   0  0  0  0  0  0  0  0  0  0  0  0
    5.4158   -0.6818    0.5987 C   0  0  0  0  0  0  0  0  0  0  0  0
    6.0941   -1.4374    1.5504 C   0  0  0  0  0  0  0  0  0  0  0  0
    5.6373   -1.4599    2.8667 C   0  0  0  0  0  0  0  0  0  0  0  0
    4.5036   -0.7277    3.2204 C   0  0  0  0  0  0  0  0  0  0  0  0
    3.8264    0.0288    2.2602 C   0  0  0  0  0  0  0  0  0  0  0  0
    4.2823    0.0635    0.9353 C   0  0  0  0  0  0  0  0  0  0  0  0
    3.5479    0.8627   -0.1122 C   0  0  0  0  0  0  0  0  0  0  0  0
    2.5750   -0.0172   -0.9165 C   0  0  0  0  0  0  0  0  0  0  0  0
    1.8302    0.7385   -1.9409 N   0  0  0  0  0  0  0  0  0  0  0  0
    1.0969   -0.1654   -2.8539 C   0  0  0  0  0  0  0  0  0  0  0  0
   -0.3197   -0.5767   -2.3930 C   0  0  0  0  0  0  0  0  0  0  0  0
   -1.1660    0.5803   -2.0204 N   0  0  0  0  0  0  0  0  0  0  0  0
   -2.1263    0.3807   -1.0256 C   0  0  0  0  0  0  0  0  0  0  0  0
   -2.1145    1.1556    0.0312 N   0  0  0  0  0  0  0  0  0  0  0  0
   -3.0351    0.9614    1.0786 C   0  0  0  0  0  0  0  0  0  0  0  0
   -2.9679    1.8096    2.1856 C   0  0  0  0  0  0  0  0  0  0  0  0
   -3.8491    1.6534    3.2589 C   0  0  0  0  0  0  0  0  0  0  0  0
   -4.8103    0.6421    3.2340 C   0  0  0  0  0  0  0  0  0  0  0  0
   -4.8960   -0.2167    2.1377 C   0  0  0  0  0  0  0  0  0  0  0  0
   -4.0066   -0.0485    1.0721 C   0  0  0  0  0  0  0  0  0  0  0  0
   -4.0298   -0.8591   -0.0741 N   0  0  0  0  0  0  0  0  0  0  0  0
   -4.8655   -1.9046   -0.3879 C   0  0  0  0  0  0  0  0  0  0  0  0
   -4.5470   -2.3453   -1.6536 C   0  0  0  0  0  0  0  0  0  0  0  0
   -3.4723   -1.5499   -2.1152 C   0  0  0  0  0  0  0  0  0  0  0  0
   -3.1419   -0.6593   -1.1089 C   0  0  0  0  0  0  0  0  0  0  0  0
   -0.4420    1.8681   -2.0514 C   0  0  0  0  0  0  0  0  0  0  0  0
    0.9121    1.7335   -1.3272 C   0  0  0  0  0  0  0  0  0  0  0  0
    6.9720   -2.0043    1.2581 H   0  0  0  0  0  0  0  0  0  0  0  0
    6.1614   -2.0478    3.6155 H   0  0  0  0  0  0  0  0  0  0  0  0
    4.1447   -0.7462    4.2469 H   0  0  0  0  0  0  0  0  0  0  0  0
    2.9415    0.5905    2.5530 H   0  0  0  0  0  0  0  0  0  0  0  0
    3.0182    1.6869    0.3806 H   0  0  0  0  0  0  0  0  0  0  0  0
    4.2753    1.3345   -0.7858 H   0  0  0  0  0  0  0  0  0  0  0  0
    1.8826   -0.5372   -0.2408 H   0  0  0  0  0  0  0  0  0  0  0  0
    3.1672   -0.7977   -1.4124 H   0  0  0  0  0  0  0  0  0  0  0  0
    1.0068    0.3530   -3.8181 H   0  0  0  0  0  0  0  0  0  0  0  0
    1.6864   -1.0638   -3.0754 H   0  0  0  0  0  0  0  0  0  0  0  0
   -0.7989   -1.1252   -3.2097 H   0  0  0  0  0  0  0  0  0  0  0  0
   -0.2247   -1.2589   -1.5389 H   0  0  0  0  0  0  0  0  0  0  0  0
   -2.2203    2.5979    2.2083 H   0  0  0  0  0  0  0  0  0  0  0  0
   -3.7843    2.3226    4.1130 H   0  0  0  0  0  0  0  0  0  0  0  0
   -5.4946    0.5250    4.0708 H   0  0  0  0  0  0  0  0  0  0  0  0
   -5.6536   -0.9933    2.1395 H   0  0  0  0  0  0  0  0  0  0  0  0
   -5.6323   -2.2460    0.2922 H   0  0  0  0  0  0  0  0  0  0  0  0
   -5.0439   -3.1438   -2.1898 H   0  0  0  0  0  0  0  0  0  0  0  0
   -2.9985   -1.6181   -3.0845 H   0  0  0  0  0  0  0  0  0  0  0  0
   -1.0336    2.6752   -1.6032 H   0  0  0  0  0  0  0  0  0  0  0  0
   -0.2870    2.1653   -3.0963 H   0  0  0  0  0  0  0  0  0  0  0  0
    1.4156    2.7069   -1.3278 H   0  0  0  0  0  0  0  0  0  0  0  0
    0.7056    1.4776   -0.2796 H   0  0  0  0  0  0  0  0  0  0  0  0
  1  2  1  0
  2  3  2  0
  3  4  1  0
  4  5  2  0
  5  6  1  0
  6  7  2  0
  7  8  1  0
  8  9  1  0
  9 10  1  0
 10 11  1  0
 11 12  1  0
 12 13  1  0
 13 14  1  0
 14 15  2  0
 15 16  1  0
 16 17  2  0
 17 18  1  0
 18 19  2  0
 19 20  1  0
 20 21  2  0
 21 22  1  0
 22 23  1  0
 23 24  2  0
 24 25  1  0
 25 26  2  0
 13 27  1  0
 27 28  1  0
  7  2  1  0
 28 10  1  0
 26 14  1  0
 21 16  1  0
 26 22  1  0
  3 29  1  0
  4 30  1  0
  5 31  1  0
  6 32  1  0
  8 33  1  0
  8 34  1  0
  9 35  1  0
  9 36  1  0
 11 37  1  0
 11 38  1  0
 12 39  1  0
 12 40  1  0
 17 41  1  0
 18 42  1  0
 19 43  1  0
 20 44  1  0
 23 45  1  0
 24 46  1  0
 25 47  1  0
 27 48  1  0
 27 49  1  0
 28 50  1  0
 28 51  1  0
M  END
$$$$
