
     RDKit          3D

 52 51  0  0  0  0  0  0  0  0999 V2000
   -3.1157    0.5915   -3.4049 C   0  0  0  0  0  0  0  0  0  0  0  0
   -3.3698   -0.2587   -2.5948 C   0  0  0  0  0  0  0  0  0  0  0  0
   -3.6798   -1.3076   -1.6193 C   0  0  0  0  0  0  0  0  0  0  0  0
   -3.8468   -0.7464   -0.1844 N   0  0  0  0  0  4  0  0  0  0  0  0
   -4.9856    0.2691   -0.1653 C   0  0  0  0  0  0  0  0  0  0  0  0
   -4.2197   -1.9276    0.7084 C   0  0  0  0  0  0  0  0  0  0  0  0
   -2.5130   -0.1092    0.2623 C   0  0  0  0  0  0  0  0  0  0  0  0
   -2.5291    0.4006    1.7066 C   0  0  0  0  0  0  0  0  0  0  0  0
   -1.1773    0.9885    2.1343 C   0  0  0  0  0  0  0  0  0  0  0  0
   -0.8414    2.3100    1.4347 C   0  0  0  0  0  0  0  0  0  0  0  0
    0.4878    2.9109    1.9076 C   0  0  0  0  0  0  0  0  0  0  0  0
    1.6831    2.6143    0.9947 C   0  0  0  0  0  0  0  0  0  0  0  0
    2.0319    1.1310    0.8780 C   0  0  0  0  0  0  0  0  0  0  0  0
    3.3235    0.9246    0.0829 C   0  0  0  0  0  0  0  0  0  0  0  0
    3.6644   -0.5618   -0.0473 C   0  0  0  0  0  0  0  0  0  0  0  0
    4.9555   -0.7664   -0.8428 C   0  0  0  0  0  0  0  0  0  0  0  0
    5.3972   -2.2296   -0.9152 C   0  0  0  0  0  0  0  0  0  0  0  0
    4.4395   -3.1151   -1.6974 C   0  0  0  0  0  0  0  0  0  0  0  0
   -2.8888    1.3377   -4.1345 H   0  0  0  0  0  0  0  0  0  0  0  0
   -4.6177   -1.8108   -1.8812 H   0  0  0  0  0  0  0  0  0  0  0  0
   -2.8812   -2.0571   -1.5793 H   0  0  0  0  0  0  0  0  0  0  0  0
   -4.6692    1.1728   -0.6929 H   0  0  0  0  0  0  0  0  0  0  0  0
   -5.8580   -0.1793   -0.6504 H   0  0  0  0  0  0  0  0  0  0  0  0
   -5.2273    0.5074    0.8740 H   0  0  0  0  0  0  0  0  0  0  0  0
   -5.0938   -2.4261    0.2778 H   0  0  0  0  0  0  0  0  0  0  0  0
   -3.3686   -2.6137    0.7490 H   0  0  0  0  0  0  0  0  0  0  0  0
   -4.4706   -1.5590    1.7062 H   0  0  0  0  0  0  0  0  0  0  0  0
   -2.3078    0.7150   -0.4263 H   0  0  0  0  0  0  0  0  0  0  0  0
   -1.7383   -0.8749    0.1362 H   0  0  0  0  0  0  0  0  0  0  0  0
   -2.7527   -0.4223    2.3933 H   0  0  0  0  0  0  0  0  0  0  0  0
   -3.3070    1.1587    1.8459 H   0  0  0  0  0  0  0  0  0  0  0  0
   -1.2121    1.1649    3.2169 H   0  0  0  0  0  0  0  0  0  0  0  0
   -0.3913    0.2458    1.9665 H   0  0  0  0  0  0  0  0  0  0  0  0
   -1.6416    3.0246    1.6663 H   0  0  0  0  0  0  0  0  0  0  0  0
   -0.8330    2.1940    0.3463 H   0  0  0  0  0  0  0  0  0  0  0  0
    0.7136    2.5996    2.9344 H   0  0  0  0  0  0  0  0  0  0  0  0
    0.3719    4.0022    1.9370 H   0  0  0  0  0  0  0  0  0  0  0  0
    1.4868    3.0227   -0.0045 H   0  0  0  0  0  0  0  0  0  0  0  0
    2.5512    3.1582    1.3880 H   0  0  0  0  0  0  0  0  0  0  0  0
    1.2181    0.5972    0.3748 H   0  0  0  0  0  0  0  0  0  0  0  0
    2.1447    0.6978    1.8789 H   0  0  0  0  0  0  0  0  0  0  0  0
    3.2149    1.3654   -0.9155 H   0  0  0  0  0  0  0  0  0  0  0  0
    4.1487    1.4486    0.5804 H   0  0  0  0  0  0  0  0  0  0  0  0
    2.8333   -1.0778   -0.5408 H   0  0  0  0  0  0  0  0  0  0  0  0
    3.7740   -1.0017    0.9513 H   0  0  0  0  0  0  0  0  0  0  0  0
    4.8324   -0.3688   -1.8576 H   0  0  0  0  0  0  0  0  0  0  0  0
    5.7611   -0.1888   -0.3729 H   0  0  0  0  0  0  0  0  0  0  0  0
    5.5227   -2.6323    0.0966 H   0  0  0  0  0  0  0  0  0  0  0  0
    6.3814   -2.2715   -1.3971 H   0  0  0  0  0  0  0  0  0  0  0  0
    4.8555   -4.1231   -1.7950 H   0  0  0  0  0  0  0  0  0  0  0  0
    3.4725   -3.2041   -1.1937 H   0  0  0  0  0  0  0  0  0  0  0  0
    4.2714   -2.7195   -2.7041 H   0  0  0  0  0  0  0  0  0  0  0  0
  1  2  3  0
  2  3  1  0
  3  4  1  0
  4  5  1  0
  4  6  1  0
  4  7  1  0
  7  8  1  0
  8  9  1  0
  9 10  1  0
 10 11  1  0
 11 12  1  0
 12 13  1  0
 13 14  1  0
 14 15  1  0
 15 16  1  0
 16 17  1  0
 17 18  1  0
  1 19  1  0
  3 20  1  0
  3 21  1  0
  5 22  1  0
  5 23  1  0
  5 24  1  0
  6 25  1  0
  6 26  1  0
  6 27  1  0
  7 28  1  0
  7 29  1  0
  8 30  1  0
  8 31  1  0
  9 32  1  0
  9 33  1  0
 10 34  1  0
 10 35  1  0
 11 36  1  0
 11 37  1  0
 12 38  1  0
 12 39  1  0
 13 40  1  0
 13 41  1  0
 14 42  1  0
 14 43  1  0
 15 44  1  0
 15 45  1  0
 16 46  1  0
 16 47  1  0
 17 48  1  0
 17 49  1  0
 18 50  1  0
 18 51  1  0
 18 52  1  0
M  CHG  1   4   1
M  END
$$$$
