
     RDKit          3D

 57 60  0  0  0  0  0  0  0  0999 V2000
   -0.3904    2.1236    5.1878 C   0  0  0  0  0  0  0  0  0  0  0  0
   -1.0137    2.0485    3.9124 O   0  0  0  0  0  0  0  0  0  0  0  0
   -0.2180    2.0395    2.8040 C   0  0  0  0  0  0  0  0  0  0  0  0
    1.1419    2.3742    2.8222 C   0  0  0  0  0  0  0  0  0  0  0  0
    1.8932    2.3989    1.6396 C   0  0  0  0  0  0  0  0  0  0  0  0
    1.2913    2.0933    0.4156 C   0  0  0  0  0  0  0  0  0  0  0  0
    2.0450    2.1128   -0.8695 C   0  0  0  0  0  0  0  0  0  0  0  0
    1.4475    2.2879   -1.9254 O   0  0  0  0  0  0  0  0  0  0  0  0
    3.4021    1.8847   -0.7886 N   0  0  0  0  0  0  0  0  0  0  0  0
    4.2086    1.7339   -1.9797 C   0  0  0  0  0  0  0  0  0  0  0  0
    4.3948    0.2758   -2.3158 C   0  0  0  0  0  0  0  0  0  0  0  0
    3.4098   -0.4067   -3.0682 C   0  0  0  0  0  0  0  0  0  0  0  0
    3.5467   -1.7646   -3.3721 C   0  0  0  0  0  0  0  0  0  0  0  0
    4.6686   -2.4142   -2.9068 C   0  0  0  0  0  0  0  0  0  0  0  0
    5.6270   -1.7632   -2.1666 C   0  0  0  0  0  0  0  0  0  0  0  0
    5.5207   -0.4244   -1.8520 C   0  0  0  0  0  0  0  0  0  0  0  0
    6.6472   -2.5847   -1.8000 O   0  0  0  0  0  0  0  0  0  0  0  0
    6.2256   -3.8254   -2.4051 C   0  0  0  0  0  0  0  0  0  0  0  0
    4.9662   -3.7266   -3.1013 O   0  0  0  0  0  0  0  0  0  0  0  0
   -0.0702    1.7811    0.3825 C   0  0  0  0  0  0  0  0  0  0  0  0
   -0.8141    1.7350    1.5730 C   0  0  0  0  0  0  0  0  0  0  0  0
   -2.5365    1.2864    1.4780 S   0  0  0  0  0  6  0  0  0  0  0  0
   -2.8918    0.4913    2.6346 O   0  0  0  0  0  0  0  0  0  0  0  0
   -3.2488    2.4982    1.1303 O   0  0  0  0  0  0  0  0  0  0  0  0
   -2.5940    0.2293    0.1373 N   0  0  0  0  0  0  0  0  0  0  0  0
   -2.0029   -1.1075    0.3472 C   0  0  0  0  0  0  0  0  0  0  0  0
   -3.8693    0.2183   -0.6210 C   0  0  0  0  0  0  0  0  0  0  0  0
   -4.9871   -0.6178   -0.0430 C   0  0  0  0  0  0  0  0  0  0  0  0
   -5.7992   -0.1148    0.9827 C   0  0  0  0  0  0  0  0  0  0  0  0
   -6.8263   -0.8917    1.5211 C   0  0  0  0  0  0  0  0  0  0  0  0
   -7.0556   -2.1783    1.0389 C   0  0  0  0  0  0  0  0  0  0  0  0
   -6.2578   -2.6904    0.0181 C   0  0  0  0  0  0  0  0  0  0  0  0
   -5.2287   -1.9156   -0.5201 C   0  0  0  0  0  0  0  0  0  0  0  0
    0.0544    3.1108    5.3474 H   0  0  0  0  0  0  0  0  0  0  0  0
    0.3526    1.3292    5.3156 H   0  0  0  0  0  0  0  0  0  0  0  0
   -1.1649    1.9808    5.9472 H   0  0  0  0  0  0  0  0  0  0  0  0
    1.6463    2.6484    3.7443 H   0  0  0  0  0  0  0  0  0  0  0  0
    2.9363    2.6986    1.6938 H   0  0  0  0  0  0  0  0  0  0  0  0
    3.7867    1.5083    0.0655 H   0  0  0  0  0  0  0  0  0  0  0  0
    5.1778    2.2030   -1.7773 H   0  0  0  0  0  0  0  0  0  0  0  0
    3.7605    2.2679   -2.8250 H   0  0  0  0  0  0  0  0  0  0  0  0
    2.5265    0.1307   -3.4147 H   0  0  0  0  0  0  0  0  0  0  0  0
    2.7950   -2.2886   -3.9514 H   0  0  0  0  0  0  0  0  0  0  0  0
    6.2927    0.0609   -1.2646 H   0  0  0  0  0  0  0  0  0  0  0  0
    6.1329   -4.5841   -1.6196 H   0  0  0  0  0  0  0  0  0  0  0  0
    6.9953   -4.1481   -3.1159 H   0  0  0  0  0  0  0  0  0  0  0  0
   -0.5487    1.5764   -0.5738 H   0  0  0  0  0  0  0  0  0  0  0  0
   -1.9500   -1.6451   -0.6052 H   0  0  0  0  0  0  0  0  0  0  0  0
   -0.9791   -1.0260    0.7225 H   0  0  0  0  0  0  0  0  0  0  0  0
   -2.5902   -1.7015    1.0530 H   0  0  0  0  0  0  0  0  0  0  0  0
   -4.2269    1.2420   -0.7846 H   0  0  0  0  0  0  0  0  0  0  0  0
   -3.6427   -0.1391   -1.6353 H   0  0  0  0  0  0  0  0  0  0  0  0
   -5.6349    0.8872    1.3755 H   0  0  0  0  0  0  0  0  0  0  0  0
   -7.4437   -0.4910    2.3210 H   0  0  0  0  0  0  0  0  0  0  0  0
   -7.8549   -2.7813    1.4610 H   0  0  0  0  0  0  0  0  0  0  0  0
   -6.4368   -3.6942   -0.3579 H   0  0  0  0  0  0  0  0  0  0  0  0
   -4.6157   -2.3321   -1.3161 H   0  0  0  0  0  0  0  0  0  0  0  0
  1  2  1  0
  2  3  1  0
  3  4  2  0
  4  5  1  0
  5  6  2  0
  6  7  1  0
  7  8  2  0
  7  9  1  0
  9 10  1  0
 10 11  1  0
 11 12  2  0
 12 13  1  0
 13 14  2  0
 14 15  1  0
 15 16  2  0
 15 17  1  0
 17 18  1  0
 18 19  1  0
  6 20  1  0
 20 21  2  0
 21 22  1  0
 22 23  2  0
 22 24  2  0
 22 25  1  0
 25 26  1  0
 25 27  1  0
 27 28  1  0
 28 29  2  0
 29 30  1  0
 30 31  2  0
 31 32  1  0
 32 33  2  0
 21  3  1  0
 33 28  1  0
 16 11  1  0
 19 14  1  0
  1 34  1  0
  1 35  1  0
  1 36  1  0
  4 37  1  0
  5 38  1  0
  9 39  1  0
 10 40  1  0
 10 41  1  0
 12 42  1  0
 13 43  1  0
 16 44  1  0
 18 45  1  0
 18 46  1  0
 20 47  1  0
 26 48  1  0
 26 49  1  0
 26 50  1  0
 27 51  1  0
 27 52  1  0
 29 53  1  0
 30 54  1  0
 31 55  1  0
 32 56  1  0
 33 57  1  0
M  END
$$$$
