
     RDKit          3D

 54 58  0  0  0  0  0  0  0  0999 V2000
    2.2820   -0.5697   -2.2493 O   0  0  0  0  0  0  0  0  0  0  0  0
    2.2409   -1.0412   -1.1152 C   0  0  0  0  0  0  0  0  0  0  0  0
    1.3012   -2.1778   -0.7629 C   0  0  0  0  0  0  0  0  0  0  0  0
    0.1931   -1.7873    0.6208 S   0  0  0  0  0  0  0  0  0  0  0  0
   -0.4130   -0.2326    0.0675 C   0  0  0  0  0  0  0  0  0  0  0  0
    0.2674    0.7867    0.4928 N   0  0  0  0  0  0  0  0  0  0  0  0
   -0.2013    2.0298    0.0584 C   0  0  0  0  0  0  0  0  0  0  0  0
   -1.3066    2.1516   -0.7254 C   0  0  0  0  0  0  0  0  0  0  0  0
   -1.6509    3.7616   -1.1058 S   0  0  0  0  0  0  0  0  0  0  0  0
   -0.2904    4.3311   -0.1983 C   0  0  0  0  0  0  0  0  0  0  0  0
    0.1164    5.6690   -0.0283 C   0  0  0  0  0  0  0  0  0  0  0  0
    1.2453    5.9382    0.7496 C   0  0  0  0  0  0  0  0  0  0  0  0
    1.9551    4.9060    1.3484 C   0  0  0  0  0  0  0  0  0  0  0  0
    1.5485    3.5797    1.1787 C   0  0  0  0  0  0  0  0  0  0  0  0
    0.4122    3.2724    0.3920 C   0  0  0  0  0  0  0  0  0  0  0  0
   -2.0807    1.0269   -1.1573 C   0  0  0  0  0  0  0  0  0  0  0  0
   -3.1228    1.1142   -1.8048 O   0  0  0  0  0  0  0  0  0  0  0  0
   -1.5473   -0.2028   -0.7411 N   0  0  0  0  0  0  0  0  0  0  0  0
   -2.3285   -1.3908   -1.1095 C   0  0  0  0  0  0  0  0  0  0  0  0
   -3.4249   -1.6890   -0.0795 C   0  0  0  0  0  0  0  0  0  0  0  0
   -4.1838   -2.9428   -0.4307 C   0  0  0  0  0  0  0  0  0  0  0  0
   -3.7964   -4.1808    0.0994 C   0  0  0  0  0  0  0  0  0  0  0  0
   -4.4865   -5.3432   -0.2472 C   0  0  0  0  0  0  0  0  0  0  0  0
   -5.5650   -5.2790   -1.1279 C   0  0  0  0  0  0  0  0  0  0  0  0
   -5.9548   -4.0527   -1.6635 C   0  0  0  0  0  0  0  0  0  0  0  0
   -5.2667   -2.8889   -1.3186 C   0  0  0  0  0  0  0  0  0  0  0  0
    3.0652   -0.6285   -0.0942 N   0  0  0  0  0  0  0  0  0  0  0  0
    3.8875    0.5449   -0.2800 C   0  0  0  0  0  0  0  0  0  0  0  0
    4.7472    0.7168    0.9145 C   0  0  0  0  0  0  0  0  0  0  0  0
    6.1130    0.7159    1.1093 C   0  0  0  0  0  0  0  0  0  0  0  0
    6.3201    0.9384    2.4920 C   0  0  0  0  0  0  0  0  0  0  0  0
    5.0708    1.0554    3.0533 C   0  0  0  0  0  0  0  0  0  0  0  0
    4.1086    0.9233    2.1046 O   0  0  0  0  0  0  0  0  0  0  0  0
    0.7022   -2.4228   -1.6452 H   0  0  0  0  0  0  0  0  0  0  0  0
    1.8971   -3.0596   -0.5086 H   0  0  0  0  0  0  0  0  0  0  0  0
   -0.4378    6.4797   -0.4930 H   0  0  0  0  0  0  0  0  0  0  0  0
    1.5683    6.9676    0.8878 H   0  0  0  0  0  0  0  0  0  0  0  0
    2.8311    5.1255    1.9538 H   0  0  0  0  0  0  0  0  0  0  0  0
    2.1063    2.7762    1.6542 H   0  0  0  0  0  0  0  0  0  0  0  0
   -2.7819   -1.2290   -2.0959 H   0  0  0  0  0  0  0  0  0  0  0  0
   -1.6727   -2.2571   -1.2336 H   0  0  0  0  0  0  0  0  0  0  0  0
   -2.9937   -1.7904    0.9242 H   0  0  0  0  0  0  0  0  0  0  0  0
   -4.1247   -0.8464   -0.0104 H   0  0  0  0  0  0  0  0  0  0  0  0
   -2.9568   -4.2487    0.7880 H   0  0  0  0  0  0  0  0  0  0  0  0
   -4.1837   -6.2999    0.1709 H   0  0  0  0  0  0  0  0  0  0  0  0
   -6.1026   -6.1845   -1.3965 H   0  0  0  0  0  0  0  0  0  0  0  0
   -6.7959   -4.0019   -2.3503 H   0  0  0  0  0  0  0  0  0  0  0  0
   -5.5817   -1.9387   -1.7465 H   0  0  0  0  0  0  0  0  0  0  0  0
    2.7076   -0.7608    0.8469 H   0  0  0  0  0  0  0  0  0  0  0  0
    4.4880    0.4190   -1.1871 H   0  0  0  0  0  0  0  0  0  0  0  0
    3.2351    1.4120   -0.4207 H   0  0  0  0  0  0  0  0  0  0  0  0
    6.8640    0.5730    0.3442 H   0  0  0  0  0  0  0  0  0  0  0  0
    7.2625    1.0050    3.0164 H   0  0  0  0  0  0  0  0  0  0  0  0
    4.7142    1.2267    4.0594 H   0  0  0  0  0  0  0  0  0  0  0  0
  1  2  2  0
  2  3  1  0
  3  4  1  0
  4  5  1  0
  5  6  2  0
  6  7  1  0
  7  8  2  0
  8  9  1  0
  9 10  1  0
 10 11  2  0
 11 12  1  0
 12 13  2  0
 13 14  1  0
 14 15  2  0
  8 16  1  0
 16 17  2  0
 16 18  1  0
 18 19  1  0
 19 20  1  0
 20 21  1  0
 21 22  2  0
 22 23  1  0
 23 24  2  0
 24 25  1  0
 25 26  2  0
  2 27  1  0
 27 28  1  0
 28 29  1  0
 29 30  2  0
 30 31  1  0
 31 32  2  0
 32 33  1  0
 18  5  1  0
 26 21  1  0
 33 29  1  0
 15  7  1  0
 15 10  1  0
  3 34  1  0
  3 35  1  0
 11 36  1  0
 12 37  1  0
 13 38  1  0
 14 39  1  0
 19 40  1  0
 19 41  1  0
 20 42  1  0
 20 43  1  0
 22 44  1  0
 23 45  1  0
 24 46  1  0
 25 47  1  0
 26 48  1  0
 27 49  1  0
 28 50  1  0
 28 51  1  0
 30 52  1  0
 31 53  1  0
 32 54  1  0
M  END
$$$$
