
     RDKit          3D

 37 38  0  0  0  0  0  0  0  0999 V2000
   -5.4287   -0.2210   -2.6119 C   0  0  0  0  0  0  0  0  0  0  0  0
   -5.0117   -0.5166   -1.2416 N   0  0  0  0  0  0  0  0  0  0  0  0
   -6.0648   -0.4296   -0.2306 C   0  0  0  0  0  0  0  0  0  0  0  0
   -3.6829   -0.2943   -0.8680 C   0  0  0  0  0  0  0  0  0  0  0  0
   -2.6602   -0.1110   -1.8144 C   0  0  0  0  0  0  0  0  0  0  0  0
   -1.3196    0.0885   -1.4468 C   0  0  0  0  0  0  0  0  0  0  0  0
   -0.9435    0.0933   -0.1045 C   0  0  0  0  0  0  0  0  0  0  0  0
    0.4418    0.3210    0.3288 C   0  0  0  0  0  0  0  0  0  0  0  0
    1.5046   -0.2253   -0.2844 C   0  0  0  0  0  0  0  0  0  0  0  0
    2.8934   -0.0148    0.1395 C   0  0  0  0  0  0  0  0  0  0  0  0
    3.8906    0.0822   -0.8296 C   0  0  0  0  0  0  0  0  0  0  0  0
    5.2153    0.2547   -0.4438 C   0  0  0  0  0  0  0  0  0  0  0  0
    5.5493    0.3117    0.8645 N   0  0  0  0  0  4  0  0  0  0  0  0
    6.9575    0.5051    1.2498 C   0  0  0  0  0  0  0  0  0  0  0  0
    4.6018    0.2108    1.8229 C   0  0  0  0  0  0  0  0  0  0  0  0
    3.2647    0.0396    1.4823 C   0  0  0  0  0  0  0  0  0  0  0  0
   -1.9380   -0.0805    0.8562 C   0  0  0  0  0  0  0  0  0  0  0  0
   -3.2750   -0.2807    0.4767 C   0  0  0  0  0  0  0  0  0  0  0  0
   -5.2670    0.8355   -2.8526 H   0  0  0  0  0  0  0  0  0  0  0  0
   -4.8944   -0.8492   -3.3326 H   0  0  0  0  0  0  0  0  0  0  0  0
   -6.4933   -0.4341   -2.7600 H   0  0  0  0  0  0  0  0  0  0  0  0
   -6.0987    0.5701    0.2164 H   0  0  0  0  0  0  0  0  0  0  0  0
   -7.0509   -0.6318   -0.6636 H   0  0  0  0  0  0  0  0  0  0  0  0
   -5.9232   -1.1800    0.5546 H   0  0  0  0  0  0  0  0  0  0  0  0
   -2.8790   -0.1180   -2.8781 H   0  0  0  0  0  0  0  0  0  0  0  0
   -0.5872    0.2453   -2.2339 H   0  0  0  0  0  0  0  0  0  0  0  0
    0.5494    0.9630    1.1992 H   0  0  0  0  0  0  0  0  0  0  0  0
    1.3635   -0.8659   -1.1539 H   0  0  0  0  0  0  0  0  0  0  0  0
    3.6429    0.0354   -1.8888 H   0  0  0  0  0  0  0  0  0  0  0  0
    6.0140    0.3478   -1.1745 H   0  0  0  0  0  0  0  0  0  0  0  0
    7.1374    0.0124    2.2088 H   0  0  0  0  0  0  0  0  0  0  0  0
    7.1308    1.5813    1.3259 H   0  0  0  0  0  0  0  0  0  0  0  0
    7.6025    0.0593    0.4882 H   0  0  0  0  0  0  0  0  0  0  0  0
    4.9230    0.2645    2.8594 H   0  0  0  0  0  0  0  0  0  0  0  0
    2.5229   -0.0607    2.2722 H   0  0  0  0  0  0  0  0  0  0  0  0
   -1.6948   -0.0787    1.9159 H   0  0  0  0  0  0  0  0  0  0  0  0
   -3.9927   -0.4294    1.2780 H   0  0  0  0  0  0  0  0  0  0  0  0
  1  2  1  0
  2  3  1  0
  2  4  1  0
  4  5  2  0
  5  6  1  0
  6  7  2  0
  7  8  1  0
  8  9  2  3
  9 10  1  0
 10 11  2  0
 11 12  1  0
 12 13  2  0
 13 14  1  0
 13 15  1  0
 15 16  2  0
  7 17  1  0
 17 18  2  0
 18  4  1  0
 16 10  1  0
  1 19  1  0
  1 20  1  0
  1 21  1  0
  3 22  1  0
  3 23  1  0
  3 24  1  0
  5 25  1  0
  6 26  1  0
  8 27  1  0
  9 28  1  0
 11 29  1  0
 12 30  1  0
 14 31  1  0
 14 32  1  0
 14 33  1  0
 15 34  1  0
 16 35  1  0
 17 36  1  0
 18 37  1  0
M  CHG  1  13   1
M  END
$$$$
