
     RDKit          3D

 48 52  0  0  0  0  0  0  0  0999 V2000
   -4.6408   -0.8214   -0.1756 C   0  0  0  0  0  0  0  0  0  0  0  0
   -3.2103   -1.0266   -0.2138 N   0  0  0  0  0  0  0  0  0  0  0  0
   -2.3415   -0.3029   -0.9834 C   0  0  0  0  0  0  0  0  0  0  0  0
   -1.0512   -0.7672   -0.7704 C   0  0  0  0  0  0  0  0  0  0  0  0
    0.2496   -0.3239   -1.4055 C   0  0  0  0  0  0  0  0  0  0  0  0
    0.0086    0.8562   -2.3437 C   0  0  0  0  0  0  0  0  0  0  0  0
   -0.2864    2.1452   -1.8831 C   0  0  0  0  0  0  0  0  0  0  0  0
   -0.4936    3.1735   -2.7999 C   0  0  0  0  0  0  0  0  0  0  0  0
   -0.4056    2.9030   -4.1577 C   0  0  0  0  0  0  0  0  0  0  0  0
   -0.1126    1.6086   -4.5450 C   0  0  0  0  0  0  0  0  0  0  0  0
    0.0935    0.5913   -3.6804 N   0  0  0  0  0  0  0  0  0  0  0  0
    1.3757    0.0779   -0.4747 C   0  0  0  0  0  0  0  0  0  0  0  0
    2.7223   -0.0625   -0.7807 C   0  0  0  0  0  0  0  0  0  0  0  0
    3.4665    0.3972    0.2672 N   0  0  0  0  0  0  0  0  0  0  0  0
    4.9116    0.4188    0.3021 C   0  0  0  0  0  0  0  0  0  0  0  0
    2.6452    0.8353    1.2808 C   0  0  0  0  0  0  0  0  0  0  0  0
    2.9553    1.3810    2.5381 C   0  0  0  0  0  0  0  0  0  0  0  0
    1.9019    1.7393    3.3817 C   0  0  0  0  0  0  0  0  0  0  0  0
    0.5826    1.5603    2.9855 C   0  0  0  0  0  0  0  0  0  0  0  0
    0.2851    1.0188    1.7302 C   0  0  0  0  0  0  0  0  0  0  0  0
    1.3265    0.6444    0.8505 C   0  0  0  0  0  0  0  0  0  0  0  0
   -1.1815   -1.8605    0.1631 C   0  0  0  0  0  0  0  0  0  0  0  0
   -0.2584   -2.7512    0.7548 C   0  0  0  0  0  0  0  0  0  0  0  0
   -0.7051   -3.7233    1.6559 C   0  0  0  0  0  0  0  0  0  0  0  0
   -2.0549   -3.8247    1.9733 C   0  0  0  0  0  0  0  0  0  0  0  0
   -2.9925   -2.9612    1.4009 C   0  0  0  0  0  0  0  0  0  0  0  0
   -2.5322   -1.9881    0.4986 C   0  0  0  0  0  0  0  0  0  0  0  0
   -5.1311   -1.7379   -0.5136 H   0  0  0  0  0  0  0  0  0  0  0  0
   -4.9287   -0.5836    0.8517 H   0  0  0  0  0  0  0  0  0  0  0  0
   -4.9111    0.0072   -0.8352 H   0  0  0  0  0  0  0  0  0  0  0  0
   -2.7082    0.4796   -1.6359 H   0  0  0  0  0  0  0  0  0  0  0  0
    0.6035   -1.1701   -2.0132 H   0  0  0  0  0  0  0  0  0  0  0  0
   -0.3579    2.3541   -0.8209 H   0  0  0  0  0  0  0  0  0  0  0  0
   -0.7195    4.1769   -2.4513 H   0  0  0  0  0  0  0  0  0  0  0  0
   -0.5599    3.6811   -4.8960 H   0  0  0  0  0  0  0  0  0  0  0  0
   -0.0322    1.3437   -5.5952 H   0  0  0  0  0  0  0  0  0  0  0  0
    3.1925   -0.4474   -1.6772 H   0  0  0  0  0  0  0  0  0  0  0  0
    5.2394    1.4542    0.4253 H   0  0  0  0  0  0  0  0  0  0  0  0
    5.2467   -0.1967    1.1408 H   0  0  0  0  0  0  0  0  0  0  0  0
    5.3078    0.0152   -0.6333 H   0  0  0  0  0  0  0  0  0  0  0  0
    3.9833    1.5212    2.8558 H   0  0  0  0  0  0  0  0  0  0  0  0
    2.1180    2.1595    4.3608 H   0  0  0  0  0  0  0  0  0  0  0  0
   -0.2280    1.8371    3.6545 H   0  0  0  0  0  0  0  0  0  0  0  0
   -0.7546    0.8842    1.4474 H   0  0  0  0  0  0  0  0  0  0  0  0
    0.8006   -2.6797    0.5230 H   0  0  0  0  0  0  0  0  0  0  0  0
    0.0124   -4.4007    2.1116 H   0  0  0  0  0  0  0  0  0  0  0  0
   -2.3862   -4.5856    2.6757 H   0  0  0  0  0  0  0  0  0  0  0  0
   -4.0444   -3.0494    1.6514 H   0  0  0  0  0  0  0  0  0  0  0  0
  1  2  1  0
  2  3  1  0
  3  4  2  0
  4  5  1  0
  5  6  1  0
  6  7  2  0
  7  8  1  0
  8  9  2  0
  9 10  1  0
 10 11  2  0
  5 12  1  0
 12 13  2  0
 13 14  1  0
 14 15  1  0
 14 16  1  0
 16 17  2  0
 17 18  1  0
 18 19  2  0
 19 20  1  0
 20 21  2  0
  4 22  1  0
 22 23  2  0
 23 24  1  0
 24 25  2  0
 25 26  1  0
 26 27  2  0
 27  2  1  0
 11  6  1  0
 21 12  1  0
 27 22  1  0
 21 16  1  0
  1 28  1  0
  1 29  1  0
  1 30  1  0
  3 31  1  0
  5 32  1  0
  7 33  1  0
  8 34  1  0
  9 35  1  0
 10 36  1  0
 13 37  1  0
 15 38  1  0
 15 39  1  0
 15 40  1  0
 17 41  1  0
 18 42  1  0
 19 43  1  0
 20 44  1  0
 23 45  1  0
 24 46  1  0
 25 47  1  0
 26 48  1  0
M  END
$$$$
