
     RDKit          3D

 54 57  0  0  0  0  0  0  0  0999 V2000
   -4.5859    3.0585   -4.1401 C   0  0  0  0  0  0  0  0  0  0  0  0
   -3.8458    2.2508   -3.1160 C   0  0  0  0  0  0  0  0  0  0  0  0
   -4.5239    1.3949   -2.2472 C   0  0  0  0  0  0  0  0  0  0  0  0
   -3.8411    0.6272   -1.2819 C   0  0  0  0  0  0  0  0  0  0  0  0
   -4.6995   -0.1490   -0.3189 C   0  0  0  0  0  0  0  0  0  0  0  0
   -2.4325    0.6694   -1.2398 C   0  0  0  0  0  0  0  0  0  0  0  0
   -1.6530   -0.1011   -0.3446 N   0  0  0  0  0  0  0  0  0  0  0  0
   -1.8375   -1.4340   -0.0205 C   0  0  0  0  0  0  0  0  0  0  0  0
   -2.7471   -2.1605   -0.4120 O   0  0  0  0  0  0  0  0  0  0  0  0
   -0.7917   -1.9825    0.9613 C   0  0  0  0  0  0  0  0  0  0  0  0
    0.5163   -1.3091    0.9019 N   0  0  0  0  0  0  0  0  0  0  0  0
    0.8220   -0.4082    1.9191 C   0  0  0  0  0  0  0  0  0  0  0  0
   -0.0153   -0.1100    2.7716 O   0  0  0  0  0  0  0  0  0  0  0  0
    2.0843    0.1632    1.8913 N   0  0  0  0  0  0  0  0  0  0  0  0
    2.4561    1.0427    2.9920 C   0  0  0  0  0  0  0  0  0  0  0  0
    3.2177    0.2630    4.0083 C   0  0  0  0  0  0  0  0  0  0  0  0
    4.5562   -0.0372    4.1626 C   0  0  0  0  0  0  0  0  0  0  0  0
    4.6568   -0.8260    5.3333 C   0  0  0  0  0  0  0  0  0  0  0  0
    3.3769   -0.9567    5.8180 C   0  0  0  0  0  0  0  0  0  0  0  0
    2.4967   -0.2996    5.0204 O   0  0  0  0  0  0  0  0  0  0  0  0
    3.0217   -0.0253    0.8872 C   0  0  0  0  0  0  0  0  0  0  0  0
    4.1072    0.5498    0.8435 O   0  0  0  0  0  0  0  0  0  0  0  0
    2.6620   -0.9612   -0.1884 C   0  0  0  0  0  0  0  0  0  0  0  0
    3.5742   -1.1978   -1.2287 C   0  0  0  0  0  0  0  0  0  0  0  0
    3.2464   -2.0746   -2.2579 C   0  0  0  0  0  0  0  0  0  0  0  0
    2.0109   -2.7118   -2.2461 C   0  0  0  0  0  0  0  0  0  0  0  0
    1.1042   -2.4745   -1.2066 C   0  0  0  0  0  0  0  0  0  0  0  0
    1.4200   -1.5937   -0.1594 C   0  0  0  0  0  0  0  0  0  0  0  0
   -1.7402    1.5645   -2.0933 C   0  0  0  0  0  0  0  0  0  0  0  0
   -0.2385    1.6975   -2.0782 C   0  0  0  0  0  0  0  0  0  0  0  0
   -2.4566    2.3358   -3.0251 C   0  0  0  0  0  0  0  0  0  0  0  0
   -4.3826    2.6698   -5.1431 H   0  0  0  0  0  0  0  0  0  0  0  0
   -4.2779    4.1083   -4.0921 H   0  0  0  0  0  0  0  0  0  0  0  0
   -5.6674    3.0249   -3.9726 H   0  0  0  0  0  0  0  0  0  0  0  0
   -5.6108    1.3377   -2.2980 H   0  0  0  0  0  0  0  0  0  0  0  0
   -4.9663   -1.1224   -0.7400 H   0  0  0  0  0  0  0  0  0  0  0  0
   -5.6301    0.3935   -0.1136 H   0  0  0  0  0  0  0  0  0  0  0  0
   -4.2122   -0.2746    0.6522 H   0  0  0  0  0  0  0  0  0  0  0  0
   -0.7113    0.2258   -0.1823 H   0  0  0  0  0  0  0  0  0  0  0  0
   -1.2260   -1.8974    1.9638 H   0  0  0  0  0  0  0  0  0  0  0  0
   -0.6489   -3.0541    0.7826 H   0  0  0  0  0  0  0  0  0  0  0  0
    3.0759    1.8660    2.6181 H   0  0  0  0  0  0  0  0  0  0  0  0
    1.5704    1.4956    3.4506 H   0  0  0  0  0  0  0  0  0  0  0  0
    5.3551    0.2733    3.5020 H   0  0  0  0  0  0  0  0  0  0  0  0
    5.5504   -1.2489    5.7700 H   0  0  0  0  0  0  0  0  0  0  0  0
    2.9461   -1.4585    6.6734 H   0  0  0  0  0  0  0  0  0  0  0  0
    4.5418   -0.6989   -1.2376 H   0  0  0  0  0  0  0  0  0  0  0  0
    3.9514   -2.2598   -3.0649 H   0  0  0  0  0  0  0  0  0  0  0  0
    1.7458   -3.3972   -3.0489 H   0  0  0  0  0  0  0  0  0  0  0  0
    0.1532   -2.9982   -1.2603 H   0  0  0  0  0  0  0  0  0  0  0  0
    0.2306    0.7334   -2.2989 H   0  0  0  0  0  0  0  0  0  0  0  0
    0.1134    2.4106   -2.8314 H   0  0  0  0  0  0  0  0  0  0  0  0
    0.1024    2.0603   -1.1031 H   0  0  0  0  0  0  0  0  0  0  0  0
   -1.9239    3.0059   -3.6981 H   0  0  0  0  0  0  0  0  0  0  0  0
  1  2  1  0
  2  3  2  0
  3  4  1  0
  4  5  1  0
  4  6  2  0
  6  7  1  0
  7  8  1  0
  8  9  2  0
  8 10  1  0
 10 11  1  0
 11 12  1  0
 12 13  2  0
 12 14  1  0
 14 15  1  0
 15 16  1  0
 16 17  2  0
 17 18  1  0
 18 19  2  0
 19 20  1  0
 14 21  1  0
 21 22  2  0
 21 23  1  0
 23 24  2  0
 24 25  1  0
 25 26  2  0
 26 27  1  0
 27 28  2  0
  6 29  1  0
 29 30  1  0
 29 31  2  0
 31  2  1  0
 28 11  1  0
 20 16  1  0
 28 23  1  0
  1 32  1  0
  1 33  1  0
  1 34  1  0
  3 35  1  0
  5 36  1  0
  5 37  1  0
  5 38  1  0
  7 39  1  0
 10 40  1  0
 10 41  1  0
 15 42  1  0
 15 43  1  0
 17 44  1  0
 18 45  1  0
 19 46  1  0
 24 47  1  0
 25 48  1  0
 26 49  1  0
 27 50  1  0
 30 51  1  0
 30 52  1  0
 30 53  1  0
 31 54  1  0
M  END
$$$$
