
     RDKit          3D

 65 69  0  0  0  0  0  0  0  0999 V2000
    5.2620   -1.9800   -1.3817 O   0  0  0  0  0  0  0  0  0  0  0  0
    5.8882   -1.4518   -0.4551 C   0  0  0  0  0  0  0  0  0  0  0  0
    7.2659   -2.0076    0.0139 C   0  0  0  0  0  0  0  0  0  0  0  0
    7.8325   -3.2442   -0.7469 C   0  0  0  0  0  0  0  0  0  0  0  0
    9.2335   -2.6313   -0.5759 C   0  0  0  0  0  0  0  0  0  0  0  0
    8.5441   -1.2607   -0.4644 C   0  0  0  0  0  0  0  0  0  0  0  0
    5.4181   -0.3401    0.2388 N   0  0  0  0  0  0  0  0  0  0  0  0
    6.1010    0.3135    1.3671 C   0  0  0  0  0  0  0  0  0  0  0  0
    5.2078    1.4615    1.8520 C   0  0  0  0  0  0  0  0  0  0  0  0
    4.0989    1.4394    0.8501 C   0  0  0  0  0  0  0  0  0  0  0  0
    3.0315    2.3218    0.7650 C   0  0  0  0  0  0  0  0  0  0  0  0
    2.0959    2.1220   -0.2557 C   0  0  0  0  0  0  0  0  0  0  0  0
    0.7583    3.2781   -0.4364 S   0  0  0  0  0  6  0  0  0  0  0  0
    0.2107    3.1416   -1.7680 O   0  0  0  0  0  0  0  0  0  0  0  0
    1.2083    4.5532    0.0773 O   0  0  0  0  0  0  0  0  0  0  0  0
   -0.3695    2.7080    0.6542 N   0  0  0  0  0  0  0  0  0  0  0  0
   -0.9997    1.3974    0.4653 C   0  0  0  0  0  0  0  0  0  0  0  0
   -2.4686    1.4778    0.9312 C   0  0  0  0  0  0  0  0  0  0  0  0
   -3.1961    0.2031    0.8089 N   0  0  0  0  0  0  0  0  0  0  0  0
   -3.5869   -0.0910   -0.5935 C   0  0  0  0  0  0  0  0  0  0  0  0
   -5.0470    0.2605   -0.9811 C   0  0  0  0  0  0  0  0  0  0  0  0
   -6.0076   -0.4032   -0.0821 N   0  0  0  0  0  0  0  0  0  0  0  0
   -7.3037   -0.6787   -0.4932 C   0  0  0  0  0  0  0  0  0  0  0  0
   -8.0615   -1.6899    0.1242 C   0  0  0  0  0  0  0  0  0  0  0  0
   -9.3713   -1.9912   -0.2777 C   0  0  0  0  0  0  0  0  0  0  0  0
   -9.9665   -1.2845   -1.3167 C   0  0  0  0  0  0  0  0  0  0  0  0
   -9.2506   -0.2755   -1.9484 C   0  0  0  0  0  0  0  0  0  0  0  0
   -7.9474    0.0168   -1.5401 C   0  0  0  0  0  0  0  0  0  0  0  0
   -7.3278    1.0263   -2.1725 F   0  0  0  0  0  0  0  0  0  0  0  0
   -5.5132   -0.7585    1.2568 C   0  0  0  0  0  0  0  0  0  0  0  0
   -4.3928    0.2179    1.6875 C   0  0  0  0  0  0  0  0  0  0  0  0
    2.2385    1.0679   -1.1726 C   0  0  0  0  0  0  0  0  0  0  0  0
    3.3193    0.1848   -1.0648 C   0  0  0  0  0  0  0  0  0  0  0  0
    4.2445    0.3822   -0.0511 C   0  0  0  0  0  0  0  0  0  0  0  0
    7.2787   -2.1972    1.0962 H   0  0  0  0  0  0  0  0  0  0  0  0
    7.5165   -3.3238   -1.7932 H   0  0  0  0  0  0  0  0  0  0  0  0
    7.6809   -4.2105   -0.2590 H   0  0  0  0  0  0  0  0  0  0  0  0
    9.7437   -2.9475    0.3415 H   0  0  0  0  0  0  0  0  0  0  0  0
    9.9131   -2.7527   -1.4223 H   0  0  0  0  0  0  0  0  0  0  0  0
    8.4256   -0.7434   -1.4232 H   0  0  0  0  0  0  0  0  0  0  0  0
    8.9956   -0.5725    0.2554 H   0  0  0  0  0  0  0  0  0  0  0  0
    6.2802   -0.4176    2.1630 H   0  0  0  0  0  0  0  0  0  0  0  0
    7.0694    0.6912    1.0228 H   0  0  0  0  0  0  0  0  0  0  0  0
    5.7468    2.4140    1.8400 H   0  0  0  0  0  0  0  0  0  0  0  0
    4.8261    1.2659    2.8586 H   0  0  0  0  0  0  0  0  0  0  0  0
    2.9369    3.1506    1.4607 H   0  0  0  0  0  0  0  0  0  0  0  0
   -0.3142    3.1126    1.5869 H   0  0  0  0  0  0  0  0  0  0  0  0
   -0.9506    1.0944   -0.5847 H   0  0  0  0  0  0  0  0  0  0  0  0
   -0.4579    0.6547    1.0623 H   0  0  0  0  0  0  0  0  0  0  0  0
   -2.9947    2.2795    0.3947 H   0  0  0  0  0  0  0  0  0  0  0  0
   -2.4466    1.7782    1.9890 H   0  0  0  0  0  0  0  0  0  0  0  0
   -2.9048    0.3774   -1.3127 H   0  0  0  0  0  0  0  0  0  0  0  0
   -3.4567   -1.1731   -0.7322 H   0  0  0  0  0  0  0  0  0  0  0  0
   -5.1969   -0.0679   -2.0165 H   0  0  0  0  0  0  0  0  0  0  0  0
   -5.1882    1.3473   -0.9377 H   0  0  0  0  0  0  0  0  0  0  0  0
   -7.6315   -2.2862    0.9236 H   0  0  0  0  0  0  0  0  0  0  0  0
   -9.9161   -2.7886    0.2215 H   0  0  0  0  0  0  0  0  0  0  0  0
  -10.9808   -1.5165   -1.6313 H   0  0  0  0  0  0  0  0  0  0  0  0
   -9.6948    0.2983   -2.7555 H   0  0  0  0  0  0  0  0  0  0  0  0
   -6.3162   -0.6829    2.0012 H   0  0  0  0  0  0  0  0  0  0  0  0
   -5.1421   -1.7915    1.2551 H   0  0  0  0  0  0  0  0  0  0  0  0
   -4.8335    1.2240    1.7052 H   0  0  0  0  0  0  0  0  0  0  0  0
   -4.0794   -0.0178    2.7107 H   0  0  0  0  0  0  0  0  0  0  0  0
    1.5219    0.9361   -1.9808 H   0  0  0  0  0  0  0  0  0  0  0  0
    3.4209   -0.6197   -1.7852 H   0  0  0  0  0  0  0  0  0  0  0  0
  1  2  2  0
  2  3  1  0
  3  4  1  0
  4  5  1  0
  5  6  1  0
  2  7  1  0
  7  8  1  0
  8  9  1  0
  9 10  1  0
 10 11  2  0
 11 12  1  0
 12 13  1  0
 13 14  2  0
 13 15  2  0
 13 16  1  0
 16 17  1  0
 17 18  1  0
 18 19  1  0
 19 20  1  0
 20 21  1  0
 21 22  1  0
 22 23  1  0
 23 24  2  0
 24 25  1  0
 25 26  2  0
 26 27  1  0
 27 28  2  0
 28 29  1  0
 22 30  1  0
 30 31  1  0
 12 32  2  0
 32 33  1  0
 33 34  2  0
  6  3  1  0
 34  7  1  0
 34 10  1  0
 31 19  1  0
 28 23  1  0
  3 35  1  0
  4 36  1  0
  4 37  1  0
  5 38  1  0
  5 39  1  0
  6 40  1  0
  6 41  1  0
  8 42  1  0
  8 43  1  0
  9 44  1  0
  9 45  1  0
 11 46  1  0
 16 47  1  0
 17 48  1  0
 17 49  1  0
 18 50  1  0
 18 51  1  0
 20 52  1  0
 20 53  1  0
 21 54  1  0
 21 55  1  0
 24 56  1  0
 25 57  1  0
 26 58  1  0
 27 59  1  0
 30 60  1  0
 30 61  1  0
 31 62  1  0
 31 63  1  0
 32 64  1  0
 33 65  1  0
M  END
$$$$
