
     RDKit          3D

 58 60  0  0  0  0  0  0  0  0999 V2000
    9.1941   -4.2095   -2.1849 C   0  0  0  0  0  0  0  0  0  0  0  0
    8.0500   -3.2734   -1.9313 C   0  0  0  0  0  0  0  0  0  0  0  0
    7.2274   -3.4449   -0.8127 C   0  0  0  0  0  0  0  0  0  0  0  0
    6.1841   -2.5528   -0.5571 C   0  0  0  0  0  0  0  0  0  0  0  0
    5.9538   -1.4653   -1.4090 C   0  0  0  0  0  0  0  0  0  0  0  0
    4.8130   -0.5176   -1.1378 C   0  0  0  0  0  0  0  0  0  0  0  0
    3.4907   -1.0545   -1.6903 C   0  0  0  0  0  0  0  0  0  0  0  0
    2.3848   -0.1423   -1.4592 N   0  0  0  0  0  0  0  0  0  0  0  0
    1.7707   -0.0480   -0.2290 C   0  0  0  0  0  0  0  0  0  0  0  0
    2.0928   -0.7291    0.7394 O   0  0  0  0  0  0  0  0  0  0  0  0
    0.6331    0.9517   -0.2031 C   0  0  0  0  0  0  0  0  0  0  0  0
    0.1183    1.2052    1.2093 C   0  0  0  0  0  0  0  0  0  0  0  0
   -0.5442   -0.0014    1.7353 N   0  0  0  0  0  0  0  0  0  0  0  0
   -1.5368    0.1665    3.0808 S   0  0  0  0  0  6  0  0  0  0  0  0
   -1.1757    1.3744    3.7865 O   0  0  0  0  0  0  0  0  0  0  0  0
   -1.5704   -1.1231    3.7340 O   0  0  0  0  0  0  0  0  0  0  0  0
   -3.1209    0.4132    2.3168 C   0  0  0  0  0  0  0  0  0  0  0  0
   -3.9458   -0.6812    2.0581 C   0  0  0  0  0  0  0  0  0  0  0  0
   -5.2069   -0.4796    1.4857 C   0  0  0  0  0  0  0  0  0  0  0  0
   -5.6596    0.8126    1.1689 C   0  0  0  0  0  0  0  0  0  0  0  0
   -4.8184    1.8916    1.4421 C   0  0  0  0  0  0  0  0  0  0  0  0
   -3.5549    1.7043    2.0236 C   0  0  0  0  0  0  0  0  0  0  0  0
   -5.2635    3.2524    1.1072 C   0  0  0  0  0  0  0  0  0  0  0  0
   -4.4785    4.1874    1.2466 O   0  0  0  0  0  0  0  0  0  0  0  0
   -6.5570    3.3857    0.6297 N   0  0  0  0  0  0  0  0  0  0  0  0
   -7.0284    4.7233    0.3212 C   0  0  0  0  0  0  0  0  0  0  0  0
   -7.3927    2.3283    0.2908 C   0  0  0  0  0  0  0  0  0  0  0  0
   -8.4853    2.5215   -0.2484 O   0  0  0  0  0  0  0  0  0  0  0  0
   -6.9307    1.0469    0.5801 N   0  0  0  0  0  0  0  0  0  0  0  0
   -7.7955   -0.0822    0.2600 C   0  0  0  0  0  0  0  0  0  0  0  0
    6.7826   -1.2880   -2.5230 C   0  0  0  0  0  0  0  0  0  0  0  0
    7.8267   -2.1810   -2.7772 C   0  0  0  0  0  0  0  0  0  0  0  0
    9.3820   -4.3135   -3.2587 H   0  0  0  0  0  0  0  0  0  0  0  0
    8.9759   -5.2094   -1.7955 H   0  0  0  0  0  0  0  0  0  0  0  0
   10.1004   -3.8323   -1.7014 H   0  0  0  0  0  0  0  0  0  0  0  0
    7.3931   -4.2760   -0.1309 H   0  0  0  0  0  0  0  0  0  0  0  0
    5.5530   -2.7093    0.3161 H   0  0  0  0  0  0  0  0  0  0  0  0
    4.7382   -0.3415   -0.0573 H   0  0  0  0  0  0  0  0  0  0  0  0
    5.0312    0.4633   -1.5788 H   0  0  0  0  0  0  0  0  0  0  0  0
    3.5573   -1.2083   -2.7734 H   0  0  0  0  0  0  0  0  0  0  0  0
    3.2440   -2.0195   -1.2318 H   0  0  0  0  0  0  0  0  0  0  0  0
    2.1099    0.4814   -2.2071 H   0  0  0  0  0  0  0  0  0  0  0  0
    0.9952    1.8963   -0.6263 H   0  0  0  0  0  0  0  0  0  0  0  0
   -0.1720    0.5710   -0.8430 H   0  0  0  0  0  0  0  0  0  0  0  0
   -0.5942    2.0356    1.1723 H   0  0  0  0  0  0  0  0  0  0  0  0
    0.9450    1.4797    1.8740 H   0  0  0  0  0  0  0  0  0  0  0  0
    0.0747   -0.8161    1.8329 H   0  0  0  0  0  0  0  0  0  0  0  0
   -3.6191   -1.6911    2.3001 H   0  0  0  0  0  0  0  0  0  0  0  0
   -5.8176   -1.3599    1.3028 H   0  0  0  0  0  0  0  0  0  0  0  0
   -2.9218    2.5621    2.2452 H   0  0  0  0  0  0  0  0  0  0  0  0
   -6.4677    5.4868    0.8676 H   0  0  0  0  0  0  0  0  0  0  0  0
   -8.0887    4.8200    0.5754 H   0  0  0  0  0  0  0  0  0  0  0  0
   -6.9081    4.8921   -0.7539 H   0  0  0  0  0  0  0  0  0  0  0  0
   -8.0421   -0.6221    1.1799 H   0  0  0  0  0  0  0  0  0  0  0  0
   -7.2833   -0.7436   -0.4461 H   0  0  0  0  0  0  0  0  0  0  0  0
   -8.7355    0.2320   -0.2020 H   0  0  0  0  0  0  0  0  0  0  0  0
    6.6269   -0.4506   -3.1991 H   0  0  0  0  0  0  0  0  0  0  0  0
    8.4665   -2.0185   -3.6418 H   0  0  0  0  0  0  0  0  0  0  0  0
  1  2  1  0
  2  3  2  0
  3  4  1  0
  4  5  2  0
  5  6  1  0
  6  7  1  0
  7  8  1  0
  8  9  1  0
  9 10  2  0
  9 11  1  0
 11 12  1  0
 12 13  1  0
 13 14  1  0
 14 15  2  0
 14 16  2  0
 14 17  1  0
 17 18  2  0
 18 19  1  0
 19 20  2  0
 20 21  1  0
 21 22  2  0
 21 23  1  0
 23 24  2  0
 23 25  1  0
 25 26  1  0
 25 27  1  0
 27 28  2  0
 27 29  1  0
 29 30  1  0
  5 31  1  0
 31 32  2  0
 32  2  1  0
 22 17  1  0
 29 20  1  0
  1 33  1  0
  1 34  1  0
  1 35  1  0
  3 36  1  0
  4 37  1  0
  6 38  1  0
  6 39  1  0
  7 40  1  0
  7 41  1  0
  8 42  1  0
 11 43  1  0
 11 44  1  0
 12 45  1  0
 12 46  1  0
 13 47  1  0
 18 48  1  0
 19 49  1  0
 22 50  1  0
 26 51  1  0
 26 52  1  0
 26 53  1  0
 30 54  1  0
 30 55  1  0
 30 56  1  0
 31 57  1  0
 32 58  1  0
M  END
$$$$
