
     RDKit          3D

 21 21  0  0  0  0  0  0  0  0999 V2000
    3.0976   -0.2573   -0.2686 C   0  0  0  0  0  0  0  0  0  0  0  0
    1.6196    0.0129   -0.1913 C   0  0  0  0  0  0  0  0  0  0  0  0
    1.1571    1.3097   -0.4350 C   0  0  0  0  0  0  0  0  0  0  0  0
   -0.2028    1.5664   -0.3893 C   0  0  0  0  0  0  0  0  0  0  0  0
   -0.6458    2.8383   -0.6380 O   0  0  0  0  0  0  0  0  0  0  0  0
   -1.1510    0.5663   -0.1243 C   0  0  0  0  0  0  0  0  0  0  0  0
   -2.4996    0.9897    0.0123 N   0  0  0  0  0  0  0  0  0  0  0  0
   -0.7062   -0.7243    0.2091 C   0  0  0  0  0  0  0  0  0  0  0  0
   -1.6768   -1.8130    0.5897 C   0  0  0  0  0  0  0  0  0  0  0  0
    0.6842   -0.9971    0.1277 C   0  0  0  0  0  0  0  0  0  0  0  0
    1.2654   -2.6106    0.4265 Cl  0  0  0  0  0  0  0  0  0  0  0  0
    3.6577    0.6467   -0.5316 H   0  0  0  0  0  0  0  0  0  0  0  0
    3.3101   -1.0065   -1.0380 H   0  0  0  0  0  0  0  0  0  0  0  0
    3.4740   -0.6040    0.6992 H   0  0  0  0  0  0  0  0  0  0  0  0
    1.8427    2.1198   -0.6676 H   0  0  0  0  0  0  0  0  0  0  0  0
   -1.6209    2.7395   -0.6426 H   0  0  0  0  0  0  0  0  0  0  0  0
   -3.1506    0.2388   -0.2090 H   0  0  0  0  0  0  0  0  0  0  0  0
   -2.6608    1.2769    0.9796 H   0  0  0  0  0  0  0  0  0  0  0  0
   -2.6382   -1.4175    0.9292 H   0  0  0  0  0  0  0  0  0  0  0  0
   -1.8576   -2.4695   -0.2671 H   0  0  0  0  0  0  0  0  0  0  0  0
   -1.2981   -2.4051    1.4292 H   0  0  0  0  0  0  0  0  0  0  0  0
  1  2  1  0
  2  3  2  0
  3  4  1  0
  4  5  1  0
  4  6  2  0
  6  7  1  0
  6  8  1  0
  8  9  1  0
  8 10  2  0
 10 11  1  0
 10  2  1  0
  1 12  1  0
  1 13  1  0
  1 14  1  0
  3 15  1  0
  5 16  1  0
  7 17  1  0
  7 18  1  0
  9 19  1  0
  9 20  1  0
  9 21  1  0
M  END
$$$$
