
     RDKit          3D

 31 31  0  0  0  0  0  0  0  0999 V2000
    3.2247   -1.3733    2.2425 C   0  0  0  0  0  0  0  0  0  0  0  0
    3.6278   -0.0240    2.0522 O   0  0  0  0  0  0  0  0  0  0  0  0
    2.9986    0.5567    0.9090 C   0  0  0  0  0  0  0  0  0  0  0  0
    1.5846    0.6495    1.0830 O   0  0  0  0  0  0  0  0  0  0  0  0
    0.9548    1.0914   -0.0555 C   0  0  0  0  0  0  0  0  0  0  0  0
   -0.2697    0.6894   -0.4340 C   0  0  0  0  0  0  0  0  0  0  0  0
   -0.9305    1.1230   -1.5681 N   0  0  0  0  0  0  0  0  0  0  0  0
   -0.4733    1.9796   -2.5527 C   0  0  0  0  0  0  0  0  0  0  0  0
   -1.5063    2.2381   -3.6205 C   0  0  0  0  0  0  0  0  0  0  0  0
    0.6459    2.4762   -2.6237 O   0  0  0  0  0  0  0  0  0  0  0  0
   -1.0100   -0.2962    0.3837 C   0  0  0  0  0  0  0  0  0  0  0  0
   -1.2680   -1.5776   -0.1247 C   0  0  0  0  0  0  0  0  0  0  0  0
   -1.9851   -2.5070    0.6316 C   0  0  0  0  0  0  0  0  0  0  0  0
   -2.4506   -2.1633    1.9000 C   0  0  0  0  0  0  0  0  0  0  0  0
   -2.1984   -0.8926    2.4150 C   0  0  0  0  0  0  0  0  0  0  0  0
   -1.4820    0.0382    1.6599 C   0  0  0  0  0  0  0  0  0  0  0  0
    3.7763   -1.7778    3.0956 H   0  0  0  0  0  0  0  0  0  0  0  0
    3.4608   -1.9756    1.3598 H   0  0  0  0  0  0  0  0  0  0  0  0
    2.1552   -1.4332    2.4656 H   0  0  0  0  0  0  0  0  0  0  0  0
    3.4170    1.5631    0.7932 H   0  0  0  0  0  0  0  0  0  0  0  0
    3.2490   -0.0344    0.0182 H   0  0  0  0  0  0  0  0  0  0  0  0
    1.5393    1.8215   -0.6000 H   0  0  0  0  0  0  0  0  0  0  0  0
   -1.8688    0.7550   -1.6819 H   0  0  0  0  0  0  0  0  0  0  0  0
   -1.3248    3.2190   -4.0693 H   0  0  0  0  0  0  0  0  0  0  0  0
   -1.4317    1.4651   -4.3896 H   0  0  0  0  0  0  0  0  0  0  0  0
   -2.5160    2.2407   -3.2000 H   0  0  0  0  0  0  0  0  0  0  0  0
   -0.8997   -1.8616   -1.1079 H   0  0  0  0  0  0  0  0  0  0  0  0
   -2.1754   -3.5006    0.2340 H   0  0  0  0  0  0  0  0  0  0  0  0
   -3.0051   -2.8880    2.4909 H   0  0  0  0  0  0  0  0  0  0  0  0
   -2.5543   -0.6259    3.4068 H   0  0  0  0  0  0  0  0  0  0  0  0
   -1.2842    1.0246    2.0744 H   0  0  0  0  0  0  0  0  0  0  0  0
  1  2  1  0
  2  3  1  0
  3  4  1  0
  4  5  1  0
  5  6  2  3
  6  7  1  0
  7  8  1  0
  8  9  1  0
  8 10  2  0
  6 11  1  0
 11 12  2  0
 12 13  1  0
 13 14  2  0
 14 15  1  0
 15 16  2  0
 16 11  1  0
  1 17  1  0
  1 18  1  0
  1 19  1  0
  3 20  1  0
  3 21  1  0
  5 22  1  0
  7 23  1  0
  9 24  1  0
  9 25  1  0
  9 26  1  0
 12 27  1  0
 13 28  1  0
 14 29  1  0
 15 30  1  0
 16 31  1  0
M  END
$$$$
