
     RDKit          3D

 65 68  0  0  0  0  0  0  0  0999 V2000
    9.6446   -0.8760    2.6749 C   0  0  0  0  0  0  0  0  0  0  0  0
    8.4819   -0.8567    1.7715 C   0  0  0  0  0  0  0  0  0  0  0  0
    7.1518   -0.5554    1.9250 C   0  0  0  0  0  0  0  0  0  0  0  0
    6.5941   -0.7421    0.6413 C   0  0  0  0  0  0  0  0  0  0  0  0
    5.2939   -0.5835    0.2171 N   0  0  0  0  0  0  0  0  0  0  0  0
    4.2415   -0.1840    1.0086 C   0  0  0  0  0  0  0  0  0  0  0  0
    4.3033    0.0900    2.2024 O   0  0  0  0  0  0  0  0  0  0  0  0
    2.9437   -0.1249    0.2288 C   0  0  0  0  0  0  0  0  0  0  0  0
    1.7869    0.3720    1.0916 C   0  0  0  0  0  0  0  0  0  0  0  0
    0.4744    0.3585    0.3284 C   0  0  0  0  0  0  0  0  0  0  0  0
    0.4525    0.0289   -0.8595 O   0  0  0  0  0  0  0  0  0  0  0  0
   -0.6724    0.7308    1.0147 N   0  0  0  0  0  0  0  0  0  0  0  0
   -0.6901    1.1829    2.4080 C   0  0  0  0  0  0  0  0  0  0  0  0
   -1.3577    0.1621    3.2822 C   0  0  0  0  0  0  0  0  0  0  0  0
   -1.0659   -1.1810    3.4279 C   0  0  0  0  0  0  0  0  0  0  0  0
   -1.9275   -1.8290    4.3589 C   0  0  0  0  0  0  0  0  0  0  0  0
   -2.8412   -0.9579    4.9060 C   0  0  0  0  0  0  0  0  0  0  0  0
   -2.6660    0.6266    4.2905 S   0  0  0  0  0  0  0  0  0  0  0  0
   -1.9693    0.7351    0.3010 C   0  0  0  0  0  0  0  0  0  0  0  0
   -1.9271    1.6112   -0.9845 C   0  0  0  0  0  0  0  0  0  0  0  0
   -1.4522    2.7498   -0.9613 O   0  0  0  0  0  0  0  0  0  0  0  0
   -2.4898    1.0722   -2.1279 N   0  0  0  0  0  0  0  0  0  0  0  0
   -2.3860    1.7594   -3.4075 C   0  0  0  0  0  0  0  0  0  0  0  0
   -2.8589    0.8589   -4.5510 C   0  0  0  0  0  0  0  0  0  0  0  0
   -4.3511    1.1371   -4.6395 C   0  0  0  0  0  0  0  0  0  0  0  0
   -4.4276    2.6429   -4.4591 C   0  0  0  0  0  0  0  0  0  0  0  0
   -3.3129    2.9870   -3.4697 C   0  0  0  0  0  0  0  0  0  0  0  0
   -2.6663   -0.6227    0.1988 C   0  0  0  0  0  0  0  0  0  0  0  0
   -2.0293   -1.7884   -0.2525 C   0  0  0  0  0  0  0  0  0  0  0  0
   -2.7228   -2.9987   -0.3435 C   0  0  0  0  0  0  0  0  0  0  0  0
   -4.0666   -3.0652    0.0112 C   0  0  0  0  0  0  0  0  0  0  0  0
   -4.7205   -1.9217    0.4565 C   0  0  0  0  0  0  0  0  0  0  0  0
   -4.0285   -0.7123    0.5471 C   0  0  0  0  0  0  0  0  0  0  0  0
    7.5286   -1.1310   -0.2331 N   0  0  0  0  0  0  0  0  0  0  0  0
    8.7126   -1.1999    0.4773 O   0  0  0  0  0  0  0  0  0  0  0  0
   10.2837   -0.0068    2.4915 H   0  0  0  0  0  0  0  0  0  0  0  0
   10.2408   -1.7814    2.5207 H   0  0  0  0  0  0  0  0  0  0  0  0
    9.3281   -0.8550    3.7229 H   0  0  0  0  0  0  0  0  0  0  0  0
    6.6607   -0.2463    2.8357 H   0  0  0  0  0  0  0  0  0  0  0  0
    5.1549   -0.7827   -0.7647 H   0  0  0  0  0  0  0  0  0  0  0  0
    2.7288   -1.1318   -0.1499 H   0  0  0  0  0  0  0  0  0  0  0  0
    3.0818    0.5390   -0.6334 H   0  0  0  0  0  0  0  0  0  0  0  0
    1.6894   -0.2680    1.9753 H   0  0  0  0  0  0  0  0  0  0  0  0
    1.9969    1.3982    1.4138 H   0  0  0  0  0  0  0  0  0  0  0  0
   -1.2017    2.1527    2.4368 H   0  0  0  0  0  0  0  0  0  0  0  0
    0.3174    1.3618    2.7906 H   0  0  0  0  0  0  0  0  0  0  0  0
   -0.2774   -1.6830    2.8801 H   0  0  0  0  0  0  0  0  0  0  0  0
   -1.8782   -2.8802    4.6138 H   0  0  0  0  0  0  0  0  0  0  0  0
   -3.6068   -1.1755    5.6373 H   0  0  0  0  0  0  0  0  0  0  0  0
   -2.6333    1.3424    0.9360 H   0  0  0  0  0  0  0  0  0  0  0  0
   -2.5560    0.0617   -2.1530 H   0  0  0  0  0  0  0  0  0  0  0  0
   -1.3368    2.0460   -3.5426 H   0  0  0  0  0  0  0  0  0  0  0  0
   -2.3726    1.1633   -5.4870 H   0  0  0  0  0  0  0  0  0  0  0  0
   -2.6484   -0.2038   -4.3903 H   0  0  0  0  0  0  0  0  0  0  0  0
   -4.8851    0.6277   -3.8288 H   0  0  0  0  0  0  0  0  0  0  0  0
   -4.7798    0.8113   -5.5910 H   0  0  0  0  0  0  0  0  0  0  0  0
   -5.4111    2.9675   -4.1041 H   0  0  0  0  0  0  0  0  0  0  0  0
   -4.2373    3.1449   -5.4159 H   0  0  0  0  0  0  0  0  0  0  0  0
   -3.7381    3.2397   -2.4917 H   0  0  0  0  0  0  0  0  0  0  0  0
   -2.7659    3.8689   -3.8232 H   0  0  0  0  0  0  0  0  0  0  0  0
   -0.9848   -1.7836   -0.5470 H   0  0  0  0  0  0  0  0  0  0  0  0
   -2.2092   -3.8912   -0.6924 H   0  0  0  0  0  0  0  0  0  0  0  0
   -4.6031   -4.0075   -0.0586 H   0  0  0  0  0  0  0  0  0  0  0  0
   -5.7698   -1.9694    0.7363 H   0  0  0  0  0  0  0  0  0  0  0  0
   -4.5671    0.1657    0.9003 H   0  0  0  0  0  0  0  0  0  0  0  0
  1  2  1  0
  2  3  2  0
  3  4  1  0
  4  5  1  0
  5  6  1  0
  6  7  2  0
  6  8  1  0
  8  9  1  0
  9 10  1  0
 10 11  2  0
 10 12  1  0
 12 13  1  0
 13 14  1  0
 14 15  2  0
 15 16  1  0
 16 17  2  0
 17 18  1  0
 12 19  1  0
 19 20  1  0
 20 21  2  0
 20 22  1  0
 22 23  1  0
 23 24  1  0
 24 25  1  0
 25 26  1  0
 26 27  1  0
 19 28  1  0
 28 29  2  0
 29 30  1  0
 30 31  2  0
 31 32  1  0
 32 33  2  0
  4 34  2  0
 34 35  1  0
 35  2  1  0
 18 14  1  0
 27 23  1  0
 33 28  1  0
  1 36  1  0
  1 37  1  0
  1 38  1  0
  3 39  1  0
  5 40  1  0
  8 41  1  0
  8 42  1  0
  9 43  1  0
  9 44  1  0
 13 45  1  0
 13 46  1  0
 15 47  1  0
 16 48  1  0
 17 49  1  0
 19 50  1  0
 22 51  1  0
 23 52  1  0
 24 53  1  0
 24 54  1  0
 25 55  1  0
 25 56  1  0
 26 57  1  0
 26 58  1  0
 27 59  1  0
 27 60  1  0
 29 61  1  0
 30 62  1  0
 31 63  1  0
 32 64  1  0
 33 65  1  0
M  END
$$$$
