
     RDKit          3D

 40 42  0  0  0  0  0  0  0  0999 V2000
   -6.1782    1.3132    0.2753 C   0  0  0  0  0  0  0  0  0  0  0  0
   -6.6770   -0.2620   -0.3928 S   0  0  0  0  0  6  0  0  0  0  0  0
   -6.5089   -0.2284   -1.8278 O   0  0  0  0  0  0  0  0  0  0  0  0
   -7.9503   -0.6010    0.2071 O   0  0  0  0  0  0  0  0  0  0  0  0
   -5.5610   -1.3142    0.2964 N   0  0  0  0  0  0  0  0  0  0  0  0
   -4.1673   -1.1633    0.0563 C   0  0  0  0  0  0  0  0  0  0  0  0
   -3.6399   -1.1484   -1.2342 C   0  0  0  0  0  0  0  0  0  0  0  0
   -2.2622   -1.0099   -1.4284 C   0  0  0  0  0  0  0  0  0  0  0  0
   -1.4040   -0.8829   -0.3302 C   0  0  0  0  0  0  0  0  0  0  0  0
    0.0595   -0.7470   -0.5799 C   0  0  0  0  0  0  0  0  0  0  0  0
    0.5381   -1.3381   -1.5390 O   0  0  0  0  0  0  0  0  0  0  0  0
    0.7245    0.0842    0.3035 N   0  0  0  0  0  0  0  0  0  0  0  0
    2.1078    0.3645    0.3369 C   0  0  0  0  0  0  0  0  0  0  0  0
    2.5420    1.3142    1.2738 C   0  0  0  0  0  0  0  0  0  0  0  0
    3.8942    1.6533    1.3748 C   0  0  0  0  0  0  0  0  0  0  0  0
    4.8236    1.0443    0.5388 C   0  0  0  0  0  0  0  0  0  0  0  0
    4.4053    0.0745   -0.3757 C   0  0  0  0  0  0  0  0  0  0  0  0
    3.0515   -0.2541   -0.4866 C   0  0  0  0  0  0  0  0  0  0  0  0
    5.2712   -0.5935   -1.2054 O   0  0  0  0  0  0  0  0  0  0  0  0
    6.6290   -0.4398   -0.7790 C   0  0  0  0  0  0  0  0  0  0  0  0
    6.9216    1.0117   -0.4383 C   0  0  0  0  0  0  0  0  0  0  0  0
    6.1291    1.4393    0.6760 O   0  0  0  0  0  0  0  0  0  0  0  0
   -1.9306   -0.9294    0.9668 C   0  0  0  0  0  0  0  0  0  0  0  0
   -3.3099   -1.0702    1.1562 C   0  0  0  0  0  0  0  0  0  0  0  0
   -6.9117    2.0575   -0.0432 H   0  0  0  0  0  0  0  0  0  0  0  0
   -5.1945    1.5782   -0.1153 H   0  0  0  0  0  0  0  0  0  0  0  0
   -6.1677    1.2493    1.3650 H   0  0  0  0  0  0  0  0  0  0  0  0
   -5.8568   -1.6521    1.2117 H   0  0  0  0  0  0  0  0  0  0  0  0
   -4.2819   -1.2699   -2.1038 H   0  0  0  0  0  0  0  0  0  0  0  0
   -1.8600   -1.0107   -2.4404 H   0  0  0  0  0  0  0  0  0  0  0  0
    0.1585    0.6080    0.9571 H   0  0  0  0  0  0  0  0  0  0  0  0
    1.8358    1.8104    1.9341 H   0  0  0  0  0  0  0  0  0  0  0  0
    4.2193    2.3981    2.0957 H   0  0  0  0  0  0  0  0  0  0  0  0
    2.7692   -1.0068   -1.2154 H   0  0  0  0  0  0  0  0  0  0  0  0
    7.2739   -0.7739   -1.5978 H   0  0  0  0  0  0  0  0  0  0  0  0
    6.8011   -1.0974    0.0821 H   0  0  0  0  0  0  0  0  0  0  0  0
    7.9738    1.1311   -0.1617 H   0  0  0  0  0  0  0  0  0  0  0  0
    6.7141    1.6739   -1.2881 H   0  0  0  0  0  0  0  0  0  0  0  0
   -1.2801   -0.8962    1.8370 H   0  0  0  0  0  0  0  0  0  0  0  0
   -3.7010   -1.1164    2.1694 H   0  0  0  0  0  0  0  0  0  0  0  0
  1  2  1  0
  2  3  2  0
  2  4  2  0
  2  5  1  0
  5  6  1  0
  6  7  2  0
  7  8  1  0
  8  9  2  0
  9 10  1  0
 10 11  2  0
 10 12  1  0
 12 13  1  0
 13 14  2  0
 14 15  1  0
 15 16  2  0
 16 17  1  0
 17 18  2  0
 17 19  1  0
 19 20  1  0
 20 21  1  0
 21 22  1  0
  9 23  1  0
 23 24  2  0
 24  6  1  0
 18 13  1  0
 22 16  1  0
  1 25  1  0
  1 26  1  0
  1 27  1  0
  5 28  1  0
  7 29  1  0
  8 30  1  0
 12 31  1  0
 14 32  1  0
 15 33  1  0
 18 34  1  0
 20 35  1  0
 20 36  1  0
 21 37  1  0
 21 38  1  0
 23 39  1  0
 24 40  1  0
M  END
$$$$
