
     RDKit          3D

 51 53  0  0  0  0  0  0  0  0999 V2000
    9.6175    0.5677    1.7967 C   0  0  0  0  0  0  0  0  0  0  0  0
    8.2194    0.5213    1.5422 O   0  0  0  0  0  0  0  0  0  0  0  0
    7.8234    0.0011    0.3395 C   0  0  0  0  0  0  0  0  0  0  0  0
    8.6681   -0.4913   -0.6543 C   0  0  0  0  0  0  0  0  0  0  0  0
    8.1307   -0.9868   -1.8427 C   0  0  0  0  0  0  0  0  0  0  0  0
    6.7486   -0.9966   -2.0373 C   0  0  0  0  0  0  0  0  0  0  0  0
    5.8897   -0.5119   -1.0462 C   0  0  0  0  0  0  0  0  0  0  0  0
    4.5109   -0.5600   -1.3123 N   0  0  0  0  0  0  0  0  0  0  0  0
    3.4742   -0.1556   -0.4987 C   0  0  0  0  0  0  0  0  0  0  0  0
    3.5071    0.3370    0.6212 O   0  0  0  0  0  0  0  0  0  0  0  0
    2.1015   -0.3916   -1.1526 C   0  0  0  0  0  0  0  0  0  0  0  0
    2.0499   -0.8662   -2.2798 O   0  0  0  0  0  0  0  0  0  0  0  0
    1.0641   -0.0177   -0.3210 N   0  0  0  0  0  0  0  0  0  0  0  0
   -0.2339   -0.1626   -0.7112 N   0  0  0  0  0  0  0  0  0  0  0  0
   -1.1179    0.1959    0.1631 C   0  0  0  0  0  0  0  0  0  0  0  0
   -2.5254    0.0703   -0.1652 C   0  0  0  0  0  0  0  0  0  0  0  0
   -3.0813   -0.3913   -1.3813 C   0  0  0  0  0  0  0  0  0  0  0  0
   -4.4570   -0.3694   -1.2748 C   0  0  0  0  0  0  0  0  0  0  0  0
   -5.4378   -0.8635   -2.2847 C   0  0  0  0  0  0  0  0  0  0  0  0
   -4.7809    0.1053   -0.0078 N   0  0  0  0  0  0  0  0  0  0  0  0
   -6.0982    0.2453    0.5194 C   0  0  0  0  0  0  0  0  0  0  0  0
   -6.3897   -0.2189    1.8078 C   0  0  0  0  0  0  0  0  0  0  0  0
   -7.6833   -0.0896    2.3200 C   0  0  0  0  0  0  0  0  0  0  0  0
   -8.6897    0.5046    1.5527 C   0  0  0  0  0  0  0  0  0  0  0  0
  -10.2636    0.6319    2.2532 Cl  0  0  0  0  0  0  0  0  0  0  0  0
   -8.3996    0.9693    0.2651 C   0  0  0  0  0  0  0  0  0  0  0  0
   -9.5901    1.7239   -0.7354 Cl  0  0  0  0  0  0  0  0  0  0  0  0
   -7.1057    0.8385   -0.2523 C   0  0  0  0  0  0  0  0  0  0  0  0
   -3.5922    0.4060    0.6625 C   0  0  0  0  0  0  0  0  0  0  0  0
   -3.5448    1.0559    2.0090 C   0  0  0  0  0  0  0  0  0  0  0  0
    6.4367   -0.0128    0.1376 C   0  0  0  0  0  0  0  0  0  0  0  0
   10.1360    1.1867    1.0565 H   0  0  0  0  0  0  0  0  0  0  0  0
   10.0430   -0.4410    1.8366 H   0  0  0  0  0  0  0  0  0  0  0  0
    9.7632    1.0287    2.7782 H   0  0  0  0  0  0  0  0  0  0  0  0
    9.7466   -0.5022   -0.5369 H   0  0  0  0  0  0  0  0  0  0  0  0
    8.7898   -1.3693   -2.6181 H   0  0  0  0  0  0  0  0  0  0  0  0
    6.3555   -1.3903   -2.9712 H   0  0  0  0  0  0  0  0  0  0  0  0
    4.2119   -0.9448   -2.2075 H   0  0  0  0  0  0  0  0  0  0  0  0
    1.3044    0.3579    0.5956 H   0  0  0  0  0  0  0  0  0  0  0  0
   -0.8438    0.5874    1.1570 H   0  0  0  0  0  0  0  0  0  0  0  0
   -2.5222   -0.7326   -2.2460 H   0  0  0  0  0  0  0  0  0  0  0  0
   -6.2585   -1.4175   -1.8189 H   0  0  0  0  0  0  0  0  0  0  0  0
   -4.9498   -1.5489   -2.9867 H   0  0  0  0  0  0  0  0  0  0  0  0
   -5.8449   -0.0326   -2.8677 H   0  0  0  0  0  0  0  0  0  0  0  0
   -5.6368   -0.7208    2.4109 H   0  0  0  0  0  0  0  0  0  0  0  0
   -7.9023   -0.4636    3.3176 H   0  0  0  0  0  0  0  0  0  0  0  0
   -6.8875    1.2381   -1.2395 H   0  0  0  0  0  0  0  0  0  0  0  0
   -2.6457    1.6720    2.1133 H   0  0  0  0  0  0  0  0  0  0  0  0
   -3.5225    0.2993    2.7987 H   0  0  0  0  0  0  0  0  0  0  0  0
   -4.3945    1.7254    2.1735 H   0  0  0  0  0  0  0  0  0  0  0  0
    5.8076    0.3799    0.9306 H   0  0  0  0  0  0  0  0  0  0  0  0
  1  2  1  0
  2  3  1  0
  3  4  2  0
  4  5  1  0
  5  6  2  0
  6  7  1  0
  7  8  1  0
  8  9  1  0
  9 10  2  0
  9 11  1  0
 11 12  2  0
 11 13  1  0
 13 14  1  0
 14 15  2  3
 15 16  1  0
 16 17  1  0
 17 18  2  0
 18 19  1  0
 18 20  1  0
 20 21  1  0
 21 22  2  0
 22 23  1  0
 23 24  2  0
 24 25  1  0
 24 26  1  0
 26 27  1  0
 26 28  2  0
 20 29  1  0
 29 30  1  0
  7 31  2  0
 31  3  1  0
 29 16  2  0
 28 21  1  0
  1 32  1  0
  1 33  1  0
  1 34  1  0
  4 35  1  0
  5 36  1  0
  6 37  1  0
  8 38  1  0
 13 39  1  0
 15 40  1  0
 17 41  1  0
 19 42  1  0
 19 43  1  0
 19 44  1  0
 22 45  1  0
 23 46  1  0
 28 47  1  0
 30 48  1  0
 30 49  1  0
 30 50  1  0
 31 51  1  0
M  END
$$$$
