
     RDKit          3D

 49 51  0  0  0  0  0  0  0  0999 V2000
    3.2803   -0.7687    1.0679 O   0  0  0  0  0  0  0  0  0  0  0  0
    2.5214   -0.5597    0.1319 C   0  0  0  0  0  0  0  0  0  0  0  0
    2.8788   -0.2827   -1.1656 N   0  0  0  0  0  0  0  0  0  0  0  0
    4.2398   -0.3783   -1.6257 C   0  0  0  0  0  0  0  0  0  0  0  0
    4.4946   -1.7153   -2.2705 C   0  0  0  0  0  0  0  0  0  0  0  0
    4.3382   -1.8850   -3.6535 C   0  0  0  0  0  0  0  0  0  0  0  0
    4.5528   -3.1329   -4.2414 C   0  0  0  0  0  0  0  0  0  0  0  0
    4.9179   -4.2230   -3.4535 C   0  0  0  0  0  0  0  0  0  0  0  0
    5.0662   -4.0684   -2.0765 C   0  0  0  0  0  0  0  0  0  0  0  0
    4.8526   -2.8219   -1.4867 C   0  0  0  0  0  0  0  0  0  0  0  0
    0.9916   -0.6009    0.3529 C   0  0  0  0  0  0  0  0  0  0  0  0
    0.2242   -0.3380   -0.5633 O   0  0  0  0  0  0  0  0  0  0  0  0
    0.6246   -0.9279    1.6368 N   0  0  0  0  0  0  0  0  0  0  0  0
   -0.7647   -0.9306    2.0634 C   0  0  0  0  0  0  0  0  0  0  0  0
   -1.4061    0.4733    2.0683 C   0  0  0  0  0  0  0  0  0  0  0  0
   -0.7074    1.3088    3.0252 O   0  0  0  0  0  0  0  0  0  0  0  0
   -1.6039    1.5484    4.1157 C   0  0  0  0  0  0  0  0  0  0  0  0
   -2.9782    1.5025    3.4894 C   0  0  0  0  0  0  0  0  0  0  0  0
   -2.8073    0.4325    2.5105 N   0  0  0  0  0  0  0  0  0  0  0  0
   -4.0097    0.1402    1.3818 S   0  0  0  0  0  6  0  0  0  0  0  0
   -3.6350   -1.0301    0.6195 O   0  0  0  0  0  0  0  0  0  0  0  0
   -5.2785    0.1964    2.0776 O   0  0  0  0  0  0  0  0  0  0  0  0
   -3.9473    1.5394    0.2810 C   0  0  0  0  0  0  0  0  0  0  0  0
   -3.1589    1.4775   -0.8739 C   0  0  0  0  0  0  0  0  0  0  0  0
   -3.1358    2.5624   -1.7524 C   0  0  0  0  0  0  0  0  0  0  0  0
   -3.9141    3.6887   -1.4828 C   0  0  0  0  0  0  0  0  0  0  0  0
   -3.8817    5.1557   -2.6747 Br  0  0  0  0  0  0  0  0  0  0  0  0
   -4.7232    3.7397   -0.3467 C   0  0  0  0  0  0  0  0  0  0  0  0
   -4.7483    2.6580    0.5361 C   0  0  0  0  0  0  0  0  0  0  0  0
    2.1243   -0.2579   -1.8447 H   0  0  0  0  0  0  0  0  0  0  0  0
    4.4007    0.4302   -2.3473 H   0  0  0  0  0  0  0  0  0  0  0  0
    4.9370   -0.2169   -0.7956 H   0  0  0  0  0  0  0  0  0  0  0  0
    4.0480   -1.0465   -4.2823 H   0  0  0  0  0  0  0  0  0  0  0  0
    4.4323   -3.2560   -5.3147 H   0  0  0  0  0  0  0  0  0  0  0  0
    5.0829   -5.1945   -3.9118 H   0  0  0  0  0  0  0  0  0  0  0  0
    5.3446   -4.9193   -1.4602 H   0  0  0  0  0  0  0  0  0  0  0  0
    4.9622   -2.7157   -0.4085 H   0  0  0  0  0  0  0  0  0  0  0  0
    1.3717   -0.9927    2.3238 H   0  0  0  0  0  0  0  0  0  0  0  0
   -1.3075   -1.6066    1.3970 H   0  0  0  0  0  0  0  0  0  0  0  0
   -0.7774   -1.3604    3.0711 H   0  0  0  0  0  0  0  0  0  0  0  0
   -1.2935    0.9700    1.1034 H   0  0  0  0  0  0  0  0  0  0  0  0
   -1.3790    2.5099    4.5845 H   0  0  0  0  0  0  0  0  0  0  0  0
   -1.4673    0.7495    4.8532 H   0  0  0  0  0  0  0  0  0  0  0  0
   -3.7527    1.2804    4.2268 H   0  0  0  0  0  0  0  0  0  0  0  0
   -3.1936    2.4530    2.9929 H   0  0  0  0  0  0  0  0  0  0  0  0
   -2.5610    0.5947   -1.0979 H   0  0  0  0  0  0  0  0  0  0  0  0
   -2.5154    2.5156   -2.6442 H   0  0  0  0  0  0  0  0  0  0  0  0
   -5.3426    4.6108   -0.1470 H   0  0  0  0  0  0  0  0  0  0  0  0
   -5.3965    2.6919    1.4093 H   0  0  0  0  0  0  0  0  0  0  0  0
  1  2  2  0
  2  3  1  0
  3  4  1  0
  4  5  1  0
  5  6  2  0
  6  7  1  0
  7  8  2  0
  8  9  1  0
  9 10  2  0
  2 11  1  0
 11 12  2  0
 11 13  1  0
 13 14  1  0
 14 15  1  0
 15 16  1  0
 16 17  1  0
 17 18  1  0
 18 19  1  0
 19 20  1  0
 20 21  2  0
 20 22  2  0
 20 23  1  0
 23 24  2  0
 24 25  1  0
 25 26  2  0
 26 27  1  0
 26 28  1  0
 28 29  2  0
 10  5  1  0
 19 15  1  0
 29 23  1  0
  3 30  1  0
  4 31  1  0
  4 32  1  0
  6 33  1  0
  7 34  1  0
  8 35  1  0
  9 36  1  0
 10 37  1  0
 13 38  1  0
 14 39  1  0
 14 40  1  0
 15 41  1  0
 17 42  1  0
 17 43  1  0
 18 44  1  0
 18 45  1  0
 24 46  1  0
 25 47  1  0
 28 48  1  0
 29 49  1  0
M  END
$$$$
