
     RDKit          3D

 58 62  0  0  0  0  0  0  0  0999 V2000
    7.3039    0.7228    1.9207 C   0  0  0  0  0  0  0  0  0  0  0  0
    6.3050   -0.2866    1.9404 O   0  0  0  0  0  0  0  0  0  0  0  0
    4.9922    0.1131    1.9276 C   0  0  0  0  0  0  0  0  0  0  0  0
    4.5723    1.4464    1.9146 C   0  0  0  0  0  0  0  0  0  0  0  0
    3.2090    1.7589    1.9003 C   0  0  0  0  0  0  0  0  0  0  0  0
    2.2423    0.7468    1.9016 C   0  0  0  0  0  0  0  0  0  0  0  0
    0.8128    1.0421    1.8778 C   0  0  0  0  0  0  0  0  0  0  0  0
   -0.2080    0.2080    1.9183 N   0  0  0  0  0  0  0  0  0  0  0  0
   -1.3221    1.0148    1.8084 C   0  0  0  0  0  0  0  0  0  0  0  0
   -2.6860    0.4214    1.7762 C   0  0  0  0  0  0  0  0  0  0  0  0
   -3.2614    0.5183    0.4439 N   0  0  0  0  0  0  0  0  0  0  0  0
   -2.9423   -0.2397   -0.6560 C   0  0  0  0  0  0  0  0  0  0  0  0
   -1.8212   -1.5576   -0.6168 S   0  0  0  0  0  0  0  0  0  0  0  0
   -0.7070   -1.0747   -1.9674 C   0  0  0  0  0  0  0  0  0  0  0  0
   -0.7577   -2.0465   -3.1190 C   0  0  0  0  0  0  0  0  0  0  0  0
   -1.8013   -1.9864   -4.0572 C   0  0  0  0  0  0  0  0  0  0  0  0
   -1.8552   -2.8875   -5.1238 C   0  0  0  0  0  0  0  0  0  0  0  0
   -0.8664   -3.8596   -5.2622 C   0  0  0  0  0  0  0  0  0  0  0  0
    0.1640   -3.9245   -4.3318 C   0  0  0  0  0  0  0  0  0  0  0  0
    1.1127   -4.8622   -4.4630 F   0  0  0  0  0  0  0  0  0  0  0  0
    0.2271   -3.0337   -3.2650 C   0  0  0  0  0  0  0  0  0  0  0  0
   -3.5860    0.1537   -1.7301 N   0  0  0  0  0  0  0  0  0  0  0  0
   -4.3950    1.1780   -1.3104 C   0  0  0  0  0  0  0  0  0  0  0  0
   -5.3013    1.9440   -2.0426 C   0  0  0  0  0  0  0  0  0  0  0  0
   -5.9820    2.9152   -1.3283 C   0  0  0  0  0  0  0  0  0  0  0  0
   -5.8251    3.1543   -0.0050 N   0  0  0  0  0  0  0  0  0  0  0  0
   -4.9509    2.4062    0.7057 C   0  0  0  0  0  0  0  0  0  0  0  0
   -4.2273    1.4211    0.0494 C   0  0  0  0  0  0  0  0  0  0  0  0
   -0.9190    2.3336    1.7346 C   0  0  0  0  0  0  0  0  0  0  0  0
   -1.6034    3.6320    1.6051 C   0  0  0  0  0  0  0  0  0  0  0  0
    0.4471    2.3586    1.7767 O   0  0  0  0  0  0  0  0  0  0  0  0
    2.6684   -0.5912    1.9173 C   0  0  0  0  0  0  0  0  0  0  0  0
    4.0304   -0.9169    1.9281 C   0  0  0  0  0  0  0  0  0  0  0  0
    4.5202   -2.2004    1.9395 O   0  0  0  0  0  0  0  0  0  0  0  0
    3.5820   -3.2661    1.9076 C   0  0  0  0  0  0  0  0  0  0  0  0
    7.2413    1.3230    1.0079 H   0  0  0  0  0  0  0  0  0  0  0  0
    7.2463    1.3524    2.8138 H   0  0  0  0  0  0  0  0  0  0  0  0
    8.2797    0.2288    1.9261 H   0  0  0  0  0  0  0  0  0  0  0  0
    5.2802    2.2692    1.9150 H   0  0  0  0  0  0  0  0  0  0  0  0
    2.9127    2.8059    1.8881 H   0  0  0  0  0  0  0  0  0  0  0  0
   -3.3436    0.9379    2.4827 H   0  0  0  0  0  0  0  0  0  0  0  0
   -2.6754   -0.6351    2.0649 H   0  0  0  0  0  0  0  0  0  0  0  0
   -0.9146   -0.0598   -2.3286 H   0  0  0  0  0  0  0  0  0  0  0  0
    0.3097   -1.0398   -1.5565 H   0  0  0  0  0  0  0  0  0  0  0  0
   -2.5859   -1.2376   -3.9521 H   0  0  0  0  0  0  0  0  0  0  0  0
   -2.6702   -2.8323   -5.8397 H   0  0  0  0  0  0  0  0  0  0  0  0
   -0.8942   -4.5675   -6.0835 H   0  0  0  0  0  0  0  0  0  0  0  0
    1.0457   -3.1213   -2.5566 H   0  0  0  0  0  0  0  0  0  0  0  0
   -5.4603    1.7843   -3.1000 H   0  0  0  0  0  0  0  0  0  0  0  0
   -6.7069    3.5557   -1.8247 H   0  0  0  0  0  0  0  0  0  0  0  0
   -4.8644    2.6304    1.7610 H   0  0  0  0  0  0  0  0  0  0  0  0
   -2.4488    3.6931    2.2969 H   0  0  0  0  0  0  0  0  0  0  0  0
   -0.9255    4.4620    1.8296 H   0  0  0  0  0  0  0  0  0  0  0  0
   -1.9768    3.7656    0.5854 H   0  0  0  0  0  0  0  0  0  0  0  0
    1.9081   -1.3677    1.9190 H   0  0  0  0  0  0  0  0  0  0  0  0
    4.1438   -4.2064    1.9054 H   0  0  0  0  0  0  0  0  0  0  0  0
    2.9805   -3.2365    0.9923 H   0  0  0  0  0  0  0  0  0  0  0  0
    2.9480   -3.2598    2.8004 H   0  0  0  0  0  0  0  0  0  0  0  0
  1  2  1  0
  2  3  1  0
  3  4  2  0
  4  5  1  0
  5  6  2  0
  6  7  1  0
  7  8  2  0
  8  9  1  0
  9 10  1  0
 10 11  1  0
 11 12  1  0
 12 13  1  0
 13 14  1  0
 14 15  1  0
 15 16  2  0
 16 17  1  0
 17 18  2  0
 18 19  1  0
 19 20  1  0
 19 21  2  0
 12 22  2  0
 22 23  1  0
 23 24  2  0
 24 25  1  0
 25 26  2  0
 26 27  1  0
 27 28  2  0
  9 29  2  0
 29 30  1  0
 29 31  1  0
  6 32  1  0
 32 33  2  0
 33 34  1  0
 34 35  1  0
 33  3  1  0
 31  7  1  0
 28 11  1  0
 21 15  1  0
 28 23  1  0
  1 36  1  0
  1 37  1  0
  1 38  1  0
  4 39  1  0
  5 40  1  0
 10 41  1  0
 10 42  1  0
 14 43  1  0
 14 44  1  0
 16 45  1  0
 17 46  1  0
 18 47  1  0
 21 48  1  0
 24 49  1  0
 25 50  1  0
 27 51  1  0
 30 52  1  0
 30 53  1  0
 30 54  1  0
 32 55  1  0
 35 56  1  0
 35 57  1  0
 35 58  1  0
M  END
$$$$
