
     RDKit          3D

 58 60  0  0  0  0  0  0  0  0999 V2000
    6.5801    5.6467    1.5302 C   0  0  0  0  0  0  0  0  0  0  0  0
    6.2950    4.2365    1.2189 C   0  0  0  0  0  0  0  0  0  0  0  0
    5.1746    3.5470    0.8263 C   0  0  0  0  0  0  0  0  0  0  0  0
    5.6055    2.2076    0.7061 C   0  0  0  0  0  0  0  0  0  0  0  0
    4.8915    1.0852    0.3491 N   0  0  0  0  0  0  0  0  0  0  0  0
    3.5520    1.0621    0.0349 C   0  0  0  0  0  0  0  0  0  0  0  0
    2.8036    2.0347    0.0050 O   0  0  0  0  0  0  0  0  0  0  0  0
    3.0741   -0.3368   -0.2979 C   0  0  0  0  0  0  0  0  0  0  0  0
    1.5661   -0.3701   -0.5270 C   0  0  0  0  0  0  0  0  0  0  0  0
    1.0757   -1.7709   -0.8443 C   0  0  0  0  0  0  0  0  0  0  0  0
    1.8772   -2.6874   -1.0319 O   0  0  0  0  0  0  0  0  0  0  0  0
   -0.2974   -1.9519   -0.9377 N   0  0  0  0  0  0  0  0  0  0  0  0
   -1.2822   -0.8880   -0.7133 C   0  0  0  0  0  0  0  0  0  0  0  0
   -1.7258   -0.7827    0.7531 C   0  0  0  0  0  0  0  0  0  0  0  0
   -1.5207   -1.6578    1.5889 O   0  0  0  0  0  0  0  0  0  0  0  0
   -2.4041    0.3882    1.0388 N   0  0  0  0  0  0  0  0  0  0  0  0
   -2.9893    0.6162    2.3427 C   0  0  0  0  0  0  0  0  0  0  0  0
   -4.3647   -0.0308    2.4923 C   0  0  0  0  0  0  0  0  0  0  0  0
   -5.0603    0.7668    3.5946 C   0  0  0  0  0  0  0  0  0  0  0  0
   -4.2475    2.0482    3.7796 C   0  0  0  0  0  0  0  0  0  0  0  0
   -3.2780    2.0891    2.6073 C   0  0  0  0  0  0  0  0  0  0  0  0
   -0.8137   -3.3108   -1.1038 C   0  0  0  0  0  0  0  0  0  0  0  0
   -1.4224   -3.5201   -2.4733 C   0  0  0  0  0  0  0  0  0  0  0  0
   -0.6146   -3.4676   -3.6218 C   0  0  0  0  0  0  0  0  0  0  0  0
   -1.1723   -3.6511   -4.8876 C   0  0  0  0  0  0  0  0  0  0  0  0
   -2.5352   -3.8916   -5.0057 C   0  0  0  0  0  0  0  0  0  0  0  0
   -3.0719   -4.0651   -6.2206 F   0  0  0  0  0  0  0  0  0  0  0  0
   -3.3518   -3.9553   -3.8822 C   0  0  0  0  0  0  0  0  0  0  0  0
   -2.7966   -3.7712   -2.6150 C   0  0  0  0  0  0  0  0  0  0  0  0
    6.9050    2.0955    1.0034 N   0  0  0  0  0  0  0  0  0  0  0  0
    7.3352    3.3692    1.3261 O   0  0  0  0  0  0  0  0  0  0  0  0
    7.4308    6.0070    0.9431 H   0  0  0  0  0  0  0  0  0  0  0  0
    5.7173    6.2823    1.3025 H   0  0  0  0  0  0  0  0  0  0  0  0
    6.8185    5.7630    2.5921 H   0  0  0  0  0  0  0  0  0  0  0  0
    4.1905    3.9567    0.6530 H   0  0  0  0  0  0  0  0  0  0  0  0
    5.4383    0.2335    0.3434 H   0  0  0  0  0  0  0  0  0  0  0  0
    3.3434   -1.0068    0.5279 H   0  0  0  0  0  0  0  0  0  0  0  0
    3.6036   -0.6752   -1.1969 H   0  0  0  0  0  0  0  0  0  0  0  0
    1.3109    0.2850   -1.3680 H   0  0  0  0  0  0  0  0  0  0  0  0
    1.0581   -0.0062    0.3730 H   0  0  0  0  0  0  0  0  0  0  0  0
   -0.8709    0.0760   -1.0257 H   0  0  0  0  0  0  0  0  0  0  0  0
   -2.1680   -1.0794   -1.3276 H   0  0  0  0  0  0  0  0  0  0  0  0
   -2.6960    0.9834    0.2736 H   0  0  0  0  0  0  0  0  0  0  0  0
   -2.3122    0.2244    3.1132 H   0  0  0  0  0  0  0  0  0  0  0  0
   -4.9382    0.0531    1.5599 H   0  0  0  0  0  0  0  0  0  0  0  0
   -4.2969   -1.0962    2.7353 H   0  0  0  0  0  0  0  0  0  0  0  0
   -6.0953    0.9899    3.3128 H   0  0  0  0  0  0  0  0  0  0  0  0
   -5.0918    0.1996    4.5315 H   0  0  0  0  0  0  0  0  0  0  0  0
   -3.6906    1.9972    4.7230 H   0  0  0  0  0  0  0  0  0  0  0  0
   -4.8829    2.9383    3.8185 H   0  0  0  0  0  0  0  0  0  0  0  0
   -2.3707    2.6572    2.8378 H   0  0  0  0  0  0  0  0  0  0  0  0
   -3.7560    2.5617    1.7391 H   0  0  0  0  0  0  0  0  0  0  0  0
   -1.5537   -3.4973   -0.3170 H   0  0  0  0  0  0  0  0  0  0  0  0
   -0.0245   -4.0574   -0.9589 H   0  0  0  0  0  0  0  0  0  0  0  0
    0.4553   -3.2864   -3.5281 H   0  0  0  0  0  0  0  0  0  0  0  0
   -0.5531   -3.6105   -5.7780 H   0  0  0  0  0  0  0  0  0  0  0  0
   -4.4125   -4.1498   -4.0008 H   0  0  0  0  0  0  0  0  0  0  0  0
   -3.4408   -3.8269   -1.7399 H   0  0  0  0  0  0  0  0  0  0  0  0
  1  2  1  0
  2  3  2  0
  3  4  1  0
  4  5  1  0
  5  6  1  0
  6  7  2  0
  6  8  1  0
  8  9  1  0
  9 10  1  0
 10 11  2  0
 10 12  1  0
 12 13  1  0
 13 14  1  0
 14 15  2  0
 14 16  1  0
 16 17  1  0
 17 18  1  0
 18 19  1  0
 19 20  1  0
 20 21  1  0
 12 22  1  0
 22 23  1  0
 23 24  2  0
 24 25  1  0
 25 26  2  0
 26 27  1  0
 26 28  1  0
 28 29  2  0
  4 30  2  0
 30 31  1  0
 31  2  1  0
 21 17  1  0
 29 23  1  0
  1 32  1  0
  1 33  1  0
  1 34  1  0
  3 35  1  0
  5 36  1  0
  8 37  1  0
  8 38  1  0
  9 39  1  0
  9 40  1  0
 13 41  1  0
 13 42  1  0
 16 43  1  0
 17 44  1  0
 18 45  1  0
 18 46  1  0
 19 47  1  0
 19 48  1  0
 20 49  1  0
 20 50  1  0
 21 51  1  0
 21 52  1  0
 22 53  1  0
 22 54  1  0
 24 55  1  0
 25 56  1  0
 28 57  1  0
 29 58  1  0
M  END
$$$$
