
     RDKit          3D

 37 39  0  0  0  0  0  0  0  0999 V2000
    3.6748   -0.3597   -1.5425 N   0  0  0  0  0  0  0  0  0  0  0  0
    4.0042   -0.2356   -0.1294 C   0  0  0  0  0  0  0  0  0  0  0  0
    3.0943    0.7629    0.5857 C   0  0  0  0  0  0  0  0  0  0  0  0
    1.6623    0.2719    0.8304 C   0  0  0  0  0  0  0  0  0  0  0  0
    0.8236    0.1007   -0.4465 C   0  0  0  0  0  0  0  0  0  0  0  0
   -0.6235   -0.0134   -0.1270 N   0  0  0  0  0  0  0  0  0  0  0  0
   -1.1531   -1.3268    0.0389 C   0  0  0  0  0  0  0  0  0  0  0  0
   -0.3249   -2.4560    0.2348 C   0  0  0  0  0  0  0  0  0  0  0  0
   -0.8361   -3.7478    0.4134 C   0  0  0  0  0  0  0  0  0  0  0  0
   -2.2038   -3.9579    0.4054 C   0  0  0  0  0  0  0  0  0  0  0  0
   -3.0520   -2.8730    0.2198 C   0  0  0  0  0  0  0  0  0  0  0  0
   -2.5417   -1.5710    0.0416 C   0  0  0  0  0  0  0  0  0  0  0  0
   -3.7633   -0.3061   -0.2135 S   0  0  0  0  0  0  0  0  0  0  0  0
   -2.7948    1.1798   -0.1257 C   0  0  0  0  0  0  0  0  0  0  0  0
   -3.5354    2.3793   -0.0997 C   0  0  0  0  0  0  0  0  0  0  0  0
   -2.8992    3.6142   -0.0483 C   0  0  0  0  0  0  0  0  0  0  0  0
   -1.5163    3.6511   -0.0210 C   0  0  0  0  0  0  0  0  0  0  0  0
   -0.7045    5.1677    0.0541 Cl  0  0  0  0  0  0  0  0  0  0  0  0
   -0.7728    2.4668   -0.0491 C   0  0  0  0  0  0  0  0  0  0  0  0
   -1.3841    1.1933   -0.1101 C   0  0  0  0  0  0  0  0  0  0  0  0
    3.8521    0.5277   -2.0144 H   0  0  0  0  0  0  0  0  0  0  0  0
    4.3082   -1.0317   -1.9774 H   0  0  0  0  0  0  0  0  0  0  0  0
    5.0444    0.0970   -0.0407 H   0  0  0  0  0  0  0  0  0  0  0  0
    3.9340   -1.2181    0.3497 H   0  0  0  0  0  0  0  0  0  0  0  0
    3.5415    0.9778    1.5648 H   0  0  0  0  0  0  0  0  0  0  0  0
    3.0742    1.7173    0.0446 H   0  0  0  0  0  0  0  0  0  0  0  0
    1.6951   -0.6671    1.3941 H   0  0  0  0  0  0  0  0  0  0  0  0
    1.1770    0.9926    1.4999 H   0  0  0  0  0  0  0  0  0  0  0  0
    1.0004    0.9328   -1.1398 H   0  0  0  0  0  0  0  0  0  0  0  0
    1.1589   -0.7672   -1.0242 H   0  0  0  0  0  0  0  0  0  0  0  0
    0.7561   -2.3696    0.2678 H   0  0  0  0  0  0  0  0  0  0  0  0
   -0.1562   -4.5830    0.5608 H   0  0  0  0  0  0  0  0  0  0  0  0
   -2.6105   -4.9556    0.5421 H   0  0  0  0  0  0  0  0  0  0  0  0
   -4.1264   -3.0462    0.2118 H   0  0  0  0  0  0  0  0  0  0  0  0
   -4.6236    2.3524   -0.1205 H   0  0  0  0  0  0  0  0  0  0  0  0
   -3.4845    4.5286   -0.0274 H   0  0  0  0  0  0  0  0  0  0  0  0
    0.3057    2.5718   -0.0026 H   0  0  0  0  0  0  0  0  0  0  0  0
  1  2  1  0
  2  3  1  0
  3  4  1  0
  4  5  1  0
  5  6  1  0
  6  7  1  0
  7  8  2  0
  8  9  1  0
  9 10  2  0
 10 11  1  0
 11 12  2  0
 12 13  1  0
 13 14  1  0
 14 15  2  0
 15 16  1  0
 16 17  2  0
 17 18  1  0
 17 19  1  0
 19 20  2  0
 20  6  1  0
 12  7  1  0
 20 14  1  0
  1 21  1  0
  1 22  1  0
  2 23  1  0
  2 24  1  0
  3 25  1  0
  3 26  1  0
  4 27  1  0
  4 28  1  0
  5 29  1  0
  5 30  1  0
  8 31  1  0
  9 32  1  0
 10 33  1  0
 11 34  1  0
 15 35  1  0
 16 36  1  0
 19 37  1  0
M  END
$$$$
