
     RDKit          3D

 47 50  0  0  0  0  0  0  0  0999 V2000
   -2.1216   -3.0151    1.4998 C   0  0  0  0  0  0  0  0  0  0  0  0
   -1.3122   -1.7757    1.2437 C   0  0  0  0  0  0  0  0  0  0  0  0
   -0.0122   -1.8647    1.2949 N   0  0  0  0  0  0  0  0  0  0  0  0
    0.7930   -0.7471    1.0440 N   0  0  0  0  0  0  0  0  0  0  0  0
    2.2275   -0.9748    1.0249 C   0  0  0  0  0  0  0  0  0  0  0  0
    2.7285   -1.2253   -0.3994 C   0  0  0  0  0  0  0  0  0  0  0  0
    1.9988   -1.3808   -1.3752 O   0  0  0  0  0  0  0  0  0  0  0  0
    4.1060   -1.2838   -0.4916 N   0  0  0  0  0  0  0  0  0  0  0  0
    4.7407   -1.6079   -1.7472 C   0  0  0  0  0  0  0  0  0  0  0  0
    6.2052   -1.3475   -1.6130 C   0  0  0  0  0  0  0  0  0  0  0  0
    6.8847   -0.1640   -1.8291 C   0  0  0  0  0  0  0  0  0  0  0  0
    8.2844   -0.2916   -1.5964 C   0  0  0  0  0  0  0  0  0  0  0  0
    8.6276   -1.5671   -1.2085 C   0  0  0  0  0  0  0  0  0  0  0  0
    7.2682   -2.6006   -1.1245 S   0  0  0  0  0  0  0  0  0  0  0  0
    0.3241    0.5442    0.7326 C   0  0  0  0  0  0  0  0  0  0  0  0
    1.0679    1.5017    0.5266 O   0  0  0  0  0  0  0  0  0  0  0  0
   -1.1300    0.6206    0.7052 C   0  0  0  0  0  0  0  0  0  0  0  0
   -1.8631    1.7162    0.4959 N   0  0  0  0  0  0  0  0  0  0  0  0
   -3.1517    1.2789    0.4712 N   0  0  0  0  0  0  0  0  0  0  0  0
   -4.1718    2.1824    0.0374 C   0  0  0  0  0  0  0  0  0  0  0  0
   -5.4321    1.7441   -0.3866 C   0  0  0  0  0  0  0  0  0  0  0  0
   -6.3964    2.6667   -0.8082 C   0  0  0  0  0  0  0  0  0  0  0  0
   -6.1080    4.0295   -0.8239 C   0  0  0  0  0  0  0  0  0  0  0  0
   -4.8495    4.4749   -0.4311 C   0  0  0  0  0  0  0  0  0  0  0  0
   -3.8833    3.5578   -0.0103 C   0  0  0  0  0  0  0  0  0  0  0  0
   -3.2352   -0.0512    0.9028 C   0  0  0  0  0  0  0  0  0  0  0  0
   -4.4968   -0.7434    1.2720 C   0  0  0  0  0  0  0  0  0  0  0  0
   -1.9265   -0.5024    0.9544 C   0  0  0  0  0  0  0  0  0  0  0  0
   -1.4785   -3.9000    1.4762 H   0  0  0  0  0  0  0  0  0  0  0  0
   -2.5850   -2.9502    2.4879 H   0  0  0  0  0  0  0  0  0  0  0  0
   -2.8948   -3.1280    0.7355 H   0  0  0  0  0  0  0  0  0  0  0  0
    2.4621   -1.8477    1.6439 H   0  0  0  0  0  0  0  0  0  0  0  0
    2.7444   -0.1006    1.4357 H   0  0  0  0  0  0  0  0  0  0  0  0
    4.6615   -1.3467    0.3515 H   0  0  0  0  0  0  0  0  0  0  0  0
    4.3052   -0.9904   -2.5408 H   0  0  0  0  0  0  0  0  0  0  0  0
    4.5251   -2.6558   -1.9831 H   0  0  0  0  0  0  0  0  0  0  0  0
    6.3970    0.7532   -2.1395 H   0  0  0  0  0  0  0  0  0  0  0  0
    9.0025    0.5116   -1.7086 H   0  0  0  0  0  0  0  0  0  0  0  0
    9.6128   -1.9440   -0.9700 H   0  0  0  0  0  0  0  0  0  0  0  0
   -5.6899    0.6941   -0.4525 H   0  0  0  0  0  0  0  0  0  0  0  0
   -7.3713    2.3181   -1.1405 H   0  0  0  0  0  0  0  0  0  0  0  0
   -6.8580    4.7426   -1.1563 H   0  0  0  0  0  0  0  0  0  0  0  0
   -4.6131    5.5357   -0.4549 H   0  0  0  0  0  0  0  0  0  0  0  0
   -2.9061    3.9353    0.2895 H   0  0  0  0  0  0  0  0  0  0  0  0
   -4.9148   -1.2737    0.4112 H   0  0  0  0  0  0  0  0  0  0  0  0
   -5.2423   -0.0512    1.6744 H   0  0  0  0  0  0  0  0  0  0  0  0
   -4.3228   -1.4764    2.0644 H   0  0  0  0  0  0  0  0  0  0  0  0
  1  2  1  0
  2  3  2  0
  3  4  1  0
  4  5  1  0
  5  6  1  0
  6  7  2  0
  6  8  1  0
  8  9  1  0
  9 10  1  0
 10 11  2  0
 11 12  1  0
 12 13  2  0
 13 14  1  0
  4 15  1  0
 15 16  2  0
 15 17  1  0
 17 18  2  0
 18 19  1  0
 19 20  1  0
 20 21  2  0
 21 22  1  0
 22 23  2  0
 23 24  1  0
 24 25  2  0
 19 26  1  0
 26 27  1  0
 26 28  2  0
 28  2  1  0
 14 10  1  0
 28 17  1  0
 25 20  1  0
  1 29  1  0
  1 30  1  0
  1 31  1  0
  5 32  1  0
  5 33  1  0
  8 34  1  0
  9 35  1  0
  9 36  1  0
 11 37  1  0
 12 38  1  0
 13 39  1  0
 21 40  1  0
 22 41  1  0
 23 42  1  0
 24 43  1  0
 25 44  1  0
 27 45  1  0
 27 46  1  0
 27 47  1  0
M  END
$$$$
