
     RDKit          3D

 59 62  0  0  0  0  0  0  0  0999 V2000
    9.1879   -0.3629    3.4016 C   0  0  0  0  0  0  0  0  0  0  0  0
    7.8202   -0.2170    2.8039 C   0  0  0  0  0  0  0  0  0  0  0  0
    7.3173    1.0438    2.4686 C   0  0  0  0  0  0  0  0  0  0  0  0
    6.0533    1.1784    1.8799 C   0  0  0  0  0  0  0  0  0  0  0  0
    5.2701    0.0494    1.6187 C   0  0  0  0  0  0  0  0  0  0  0  0
    3.9810    0.1343    1.0063 N   0  0  0  0  0  0  0  0  0  0  0  0
    3.4592   -0.9838    0.4335 N   0  0  0  0  0  0  0  0  0  0  0  0
    2.3925   -0.5608   -0.2475 C   0  0  0  0  0  0  0  0  0  0  0  0
    1.5369   -1.3706   -1.1048 C   0  0  0  0  0  0  0  0  0  0  0  0
    1.7171   -2.5683   -1.3126 O   0  0  0  0  0  0  0  0  0  0  0  0
    0.4798   -0.6277   -1.6740 N   0  0  0  0  0  0  0  0  0  0  0  0
   -0.4604   -1.3016   -2.5623 C   0  0  0  0  0  0  0  0  0  0  0  0
   -1.6099   -1.9781   -1.8162 C   0  0  0  0  0  0  0  0  0  0  0  0
   -2.5275   -0.9770   -1.1157 C   0  0  0  0  0  0  0  0  0  0  0  0
   -3.7736   -1.6345   -0.5570 C   0  0  0  0  0  0  0  0  0  0  0  0
   -4.0089   -2.8329   -0.6444 O   0  0  0  0  0  0  0  0  0  0  0  0
   -4.6139   -0.7374    0.0649 N   0  0  0  0  0  0  0  0  0  0  0  0
   -5.9285   -1.1323    0.5178 C   0  0  0  0  0  0  0  0  0  0  0  0
   -6.9000   -0.8414   -0.5633 C   0  0  0  0  0  0  0  0  0  0  0  0
   -7.4379   -1.6016   -1.5801 C   0  0  0  0  0  0  0  0  0  0  0  0
   -8.3048   -0.7478   -2.3023 C   0  0  0  0  0  0  0  0  0  0  0  0
   -8.2401    0.4822   -1.6854 C   0  0  0  0  0  0  0  0  0  0  0  0
   -8.8862    1.7837   -1.9416 C   0  0  0  0  0  0  0  0  0  0  0  0
   -7.3835    0.4327   -0.6269 O   0  0  0  0  0  0  0  0  0  0  0  0
    0.2311    0.7304   -1.4396 N   0  0  0  0  0  0  0  0  0  0  0  0
    1.0105    1.4321   -0.6647 C   0  0  0  0  0  0  0  0  0  0  0  0
    0.6923    2.8862   -0.4630 C   0  0  0  0  0  0  0  0  0  0  0  0
    2.1385    0.7970   -0.0295 C   0  0  0  0  0  0  0  0  0  0  0  0
    3.1059    1.2195    0.8674 C   0  0  0  0  0  0  0  0  0  0  0  0
    3.2234    2.4999    1.6112 C   0  0  0  0  0  0  0  0  0  0  0  0
    5.7948   -1.2183    1.9194 C   0  0  0  0  0  0  0  0  0  0  0  0
    7.0556   -1.3484    2.5095 C   0  0  0  0  0  0  0  0  0  0  0  0
    9.4864    0.5483    3.9313 H   0  0  0  0  0  0  0  0  0  0  0  0
    9.9207   -0.5670    2.6144 H   0  0  0  0  0  0  0  0  0  0  0  0
    9.2073   -1.1822    4.1282 H   0  0  0  0  0  0  0  0  0  0  0  0
    7.9157    1.9347    2.6502 H   0  0  0  0  0  0  0  0  0  0  0  0
    5.7458    2.1771    1.5956 H   0  0  0  0  0  0  0  0  0  0  0  0
    0.0863   -2.0599   -3.1354 H   0  0  0  0  0  0  0  0  0  0  0  0
   -0.8439   -0.5713   -3.2852 H   0  0  0  0  0  0  0  0  0  0  0  0
   -1.2185   -2.6930   -1.0818 H   0  0  0  0  0  0  0  0  0  0  0  0
   -2.1922   -2.5603   -2.5413 H   0  0  0  0  0  0  0  0  0  0  0  0
   -2.0002   -0.4952   -0.2850 H   0  0  0  0  0  0  0  0  0  0  0  0
   -2.8436   -0.2015   -1.8230 H   0  0  0  0  0  0  0  0  0  0  0  0
   -4.4753    0.2486   -0.1052 H   0  0  0  0  0  0  0  0  0  0  0  0
   -5.9426   -2.1929    0.7853 H   0  0  0  0  0  0  0  0  0  0  0  0
   -6.1594   -0.5458    1.4119 H   0  0  0  0  0  0  0  0  0  0  0  0
   -7.2189   -2.6433   -1.7749 H   0  0  0  0  0  0  0  0  0  0  0  0
   -8.9005   -0.9969   -3.1695 H   0  0  0  0  0  0  0  0  0  0  0  0
   -9.4632    2.1044   -1.0685 H   0  0  0  0  0  0  0  0  0  0  0  0
   -8.1328    2.5467   -2.1581 H   0  0  0  0  0  0  0  0  0  0  0  0
   -9.5667    1.7232   -2.7973 H   0  0  0  0  0  0  0  0  0  0  0  0
    0.3009    3.0372    0.5468 H   0  0  0  0  0  0  0  0  0  0  0  0
    1.5892    3.4938   -0.6062 H   0  0  0  0  0  0  0  0  0  0  0  0
   -0.0664    3.2123   -1.1808 H   0  0  0  0  0  0  0  0  0  0  0  0
    3.7965    3.2327    1.0359 H   0  0  0  0  0  0  0  0  0  0  0  0
    3.6838    2.3627    2.5935 H   0  0  0  0  0  0  0  0  0  0  0  0
    2.2367    2.9275    1.8100 H   0  0  0  0  0  0  0  0  0  0  0  0
    5.2282   -2.1237    1.7060 H   0  0  0  0  0  0  0  0  0  0  0  0
    7.4348   -2.3434    2.7323 H   0  0  0  0  0  0  0  0  0  0  0  0
  1  2  1  0
  2  3  2  0
  3  4  1  0
  4  5  2  0
  5  6  1  0
  6  7  1  0
  7  8  2  0
  8  9  1  0
  9 10  2  0
  9 11  1  0
 11 12  1  0
 12 13  1  0
 13 14  1  0
 14 15  1  0
 15 16  2  0
 15 17  1  0
 17 18  1  0
 18 19  1  0
 19 20  2  0
 20 21  1  0
 21 22  2  0
 22 23  1  0
 22 24  1  0
 11 25  1  0
 25 26  2  0
 26 27  1  0
 26 28  1  0
 28 29  2  0
 29 30  1  0
  5 31  1  0
 31 32  2  0
 32  2  1  0
 29  6  1  0
 28  8  1  0
 24 19  1  0
  1 33  1  0
  1 34  1  0
  1 35  1  0
  3 36  1  0
  4 37  1  0
 12 38  1  0
 12 39  1  0
 13 40  1  0
 13 41  1  0
 14 42  1  0
 14 43  1  0
 17 44  1  0
 18 45  1  0
 18 46  1  0
 20 47  1  0
 21 48  1  0
 23 49  1  0
 23 50  1  0
 23 51  1  0
 27 52  1  0
 27 53  1  0
 27 54  1  0
 30 55  1  0
 30 56  1  0
 30 57  1  0
 31 58  1  0
 32 59  1  0
M  END
$$$$
