
     RDKit          3D

 29 29  0  0  0  0  0  0  0  0999 V2000
   -2.7142   -4.4262   -0.4492 C   0  0  0  0  0  0  0  0  0  0  0  0
   -2.8783   -3.2370   -0.4050 C   0  0  0  0  0  0  0  0  0  0  0  0
   -3.0779   -1.7828   -0.3511 C   0  0  0  0  0  0  0  0  0  0  0  0
   -2.0997   -1.1290   -1.2081 N   0  0  0  0  0  0  0  0  0  0  0  0
   -2.2486    0.3229   -1.2725 C   0  0  0  0  0  0  0  0  0  0  0  0
   -2.0016    1.0900    0.0339 C   0  0  0  0  0  0  0  0  0  0  0  0
   -0.6088    0.8911    0.6295 C   0  0  0  0  0  0  0  0  0  0  0  0
    0.3645    1.3079   -0.3243 O   0  0  0  0  0  0  0  0  0  0  0  0
    1.6877    1.1512   -0.0090 C   0  0  0  0  0  0  0  0  0  0  0  0
    2.1603    0.6985    1.2274 C   0  0  0  0  0  0  0  0  0  0  0  0
    3.5352    0.5739    1.4555 C   0  0  0  0  0  0  0  0  0  0  0  0
    4.4425    0.9027    0.4509 C   0  0  0  0  0  0  0  0  0  0  0  0
    6.1305    0.7463    0.7418 Cl  0  0  0  0  0  0  0  0  0  0  0  0
    3.9920    1.3575   -0.7833 C   0  0  0  0  0  0  0  0  0  0  0  0
    2.6192    1.4816   -1.0097 C   0  0  0  0  0  0  0  0  0  0  0  0
    2.1057    2.0521   -2.5606 Cl  0  0  0  0  0  0  0  0  0  0  0  0
   -2.5677   -5.4804   -0.4996 H   0  0  0  0  0  0  0  0  0  0  0  0
   -4.0946   -1.5447   -0.6833 H   0  0  0  0  0  0  0  0  0  0  0  0
   -2.9754   -1.4522    0.6879 H   0  0  0  0  0  0  0  0  0  0  0  0
   -1.1563   -1.3839   -0.9235 H   0  0  0  0  0  0  0  0  0  0  0  0
   -1.5578    0.6932   -2.0394 H   0  0  0  0  0  0  0  0  0  0  0  0
   -3.2524    0.5664   -1.6424 H   0  0  0  0  0  0  0  0  0  0  0  0
   -2.1357    2.1571   -0.1852 H   0  0  0  0  0  0  0  0  0  0  0  0
   -2.7582    0.8265    0.7813 H   0  0  0  0  0  0  0  0  0  0  0  0
   -0.4633   -0.1623    0.8951 H   0  0  0  0  0  0  0  0  0  0  0  0
   -0.5268    1.5069    1.5332 H   0  0  0  0  0  0  0  0  0  0  0  0
    1.4881    0.4374    2.0385 H   0  0  0  0  0  0  0  0  0  0  0  0
    3.8903    0.2207    2.4210 H   0  0  0  0  0  0  0  0  0  0  0  0
    4.7014    1.6143   -1.5651 H   0  0  0  0  0  0  0  0  0  0  0  0
  1  2  3  0
  2  3  1  0
  3  4  1  0
  4  5  1  0
  5  6  1  0
  6  7  1  0
  7  8  1  0
  8  9  1  0
  9 10  2  0
 10 11  1  0
 11 12  2  0
 12 13  1  0
 12 14  1  0
 14 15  2  0
 15 16  1  0
 15  9  1  0
  1 17  1  0
  3 18  1  0
  3 19  1  0
  4 20  1  0
  5 21  1  0
  5 22  1  0
  6 23  1  0
  6 24  1  0
  7 25  1  0
  7 26  1  0
 10 27  1  0
 11 28  1  0
 14 29  1  0
M  END
$$$$
