
     RDKit          3D

 46 48  0  0  0  0  0  0  0  0999 V2000
   -1.6344   -1.6728    1.4723 C   0  0  0  0  0  0  0  0  0  0  0  0
   -2.0242   -0.3829    2.1774 C   0  0  0  0  0  0  0  0  0  0  0  0
   -2.8059    0.5177    1.3192 N   0  0  0  0  0  4  0  0  0  0  0  0
   -2.3020    1.6075    0.7519 C   0  0  0  0  0  0  0  0  0  0  0  0
   -0.9757    2.1058    0.8044 C   0  0  0  0  0  0  0  0  0  0  0  0
    0.0558    1.4089    0.3032 C   0  0  0  0  0  0  0  0  0  0  0  0
    1.4010    1.9346    0.2408 C   0  0  0  0  0  0  0  0  0  0  0  0
    2.4826    1.4540   -0.3954 C   0  0  0  0  0  0  0  0  0  0  0  0
    2.6525    0.3693   -1.2678 N   0  0  0  0  0  0  0  0  0  0  0  0
    1.5938   -0.1483   -2.0411 C   0  0  0  0  0  0  0  0  0  0  0  0
    1.7105   -1.5994   -2.4696 C   0  0  0  0  0  0  0  0  0  0  0  0
    0.5634    0.4660   -2.3321 O   0  0  0  0  0  0  0  0  0  0  0  0
    4.0080   -0.0579   -1.5398 C   0  0  0  0  0  0  0  0  0  0  0  0
    4.9352   -0.1740   -0.4906 C   0  0  0  0  0  0  0  0  0  0  0  0
    6.2507   -0.5746   -0.7392 C   0  0  0  0  0  0  0  0  0  0  0  0
    6.6612   -0.8512   -2.0403 C   0  0  0  0  0  0  0  0  0  0  0  0
    5.7604   -0.7216   -3.0941 C   0  0  0  0  0  0  0  0  0  0  0  0
    4.4435   -0.3237   -2.8470 C   0  0  0  0  0  0  0  0  0  0  0  0
   -3.5176    2.4783   -0.0935 S   0  0  0  0  0  0  0  0  0  0  0  0
   -4.7251    1.3251    0.3073 C   0  0  0  0  0  0  0  0  0  0  0  0
   -6.0834    1.3205   -0.0468 C   0  0  0  0  0  0  0  0  0  0  0  0
   -6.8829    0.2753    0.4210 C   0  0  0  0  0  0  0  0  0  0  0  0
   -6.3479   -0.7306    1.2184 C   0  0  0  0  0  0  0  0  0  0  0  0
   -4.9917   -0.7210    1.5674 C   0  0  0  0  0  0  0  0  0  0  0  0
   -4.1671    0.3223    1.0957 C   0  0  0  0  0  0  0  0  0  0  0  0
   -1.0239   -2.2953    2.1335 H   0  0  0  0  0  0  0  0  0  0  0  0
   -2.5149   -2.2529    1.1821 H   0  0  0  0  0  0  0  0  0  0  0  0
   -1.0622   -1.4767    0.5624 H   0  0  0  0  0  0  0  0  0  0  0  0
   -1.1259    0.1237    2.5455 H   0  0  0  0  0  0  0  0  0  0  0  0
   -2.6136   -0.6101    3.0740 H   0  0  0  0  0  0  0  0  0  0  0  0
   -0.8303    3.1264    1.1545 H   0  0  0  0  0  0  0  0  0  0  0  0
   -0.1025    0.4222   -0.1157 H   0  0  0  0  0  0  0  0  0  0  0  0
    1.5687    2.8425    0.8244 H   0  0  0  0  0  0  0  0  0  0  0  0
    3.4097    2.0004   -0.2086 H   0  0  0  0  0  0  0  0  0  0  0  0
    2.4256   -2.1581   -1.8612 H   0  0  0  0  0  0  0  0  0  0  0  0
    0.7351   -2.0774   -2.3294 H   0  0  0  0  0  0  0  0  0  0  0  0
    1.9783   -1.6587   -3.5269 H   0  0  0  0  0  0  0  0  0  0  0  0
    4.6405    0.0158    0.5384 H   0  0  0  0  0  0  0  0  0  0  0  0
    6.9559   -0.6720    0.0830 H   0  0  0  0  0  0  0  0  0  0  0  0
    7.6863   -1.1586   -2.2351 H   0  0  0  0  0  0  0  0  0  0  0  0
    6.0875   -0.9169   -4.1131 H   0  0  0  0  0  0  0  0  0  0  0  0
    3.7857   -0.1815   -3.7007 H   0  0  0  0  0  0  0  0  0  0  0  0
   -6.5092    2.1075   -0.6656 H   0  0  0  0  0  0  0  0  0  0  0  0
   -7.9409    0.2513    0.1584 H   0  0  0  0  0  0  0  0  0  0  0  0
   -6.9945   -1.5334    1.5728 H   0  0  0  0  0  0  0  0  0  0  0  0
   -4.6160   -1.5257    2.1926 H   0  0  0  0  0  0  0  0  0  0  0  0
  1  2  1  0
  2  3  1  0
  3  4  2  0
  4  5  1  0
  5  6  2  3
  6  7  1  0
  7  8  2  3
  8  9  1  0
  9 10  1  0
 10 11  1  0
 10 12  2  0
  9 13  1  0
 13 14  2  0
 14 15  1  0
 15 16  2  0
 16 17  1  0
 17 18  2  0
  4 19  1  0
 19 20  1  0
 20 21  2  0
 21 22  1  0
 22 23  2  0
 23 24  1  0
 24 25  2  0
 25  3  1  0
 18 13  1  0
 25 20  1  0
  1 26  1  0
  1 27  1  0
  1 28  1  0
  2 29  1  0
  2 30  1  0
  5 31  1  0
  6 32  1  0
  7 33  1  0
  8 34  1  0
 11 35  1  0
 11 36  1  0
 11 37  1  0
 14 38  1  0
 15 39  1  0
 16 40  1  0
 17 41  1  0
 18 42  1  0
 21 43  1  0
 22 44  1  0
 23 45  1  0
 24 46  1  0
M  CHG  1   3   1
M  END
$$$$
