
     RDKit          3D

 53 56  0  0  0  0  0  0  0  0999 V2000
   -8.4181   -1.0367    1.0432 C   0  0  0  0  0  0  0  0  0  0  0  0
   -8.4983   -0.3533   -0.2024 O   0  0  0  0  0  0  0  0  0  0  0  0
   -7.4165    0.3992   -0.5671 C   0  0  0  0  0  0  0  0  0  0  0  0
   -7.5563    1.0688   -1.7840 C   0  0  0  0  0  0  0  0  0  0  0  0
   -6.5285    1.8728   -2.2760 C   0  0  0  0  0  0  0  0  0  0  0  0
   -5.3442    2.0137   -1.5517 C   0  0  0  0  0  0  0  0  0  0  0  0
   -5.1883    1.3468   -0.3302 C   0  0  0  0  0  0  0  0  0  0  0  0
   -3.9401    1.4539    0.4888 C   0  0  0  0  0  0  0  0  0  0  0  0
   -3.8643    0.8194    1.5399 O   0  0  0  0  0  0  0  0  0  0  0  0
   -2.8035    2.3382   -0.0292 C   0  0  0  0  0  0  0  0  0  0  0  0
   -1.6884    2.4682    0.8418 O   0  0  0  0  0  0  0  0  0  0  0  0
   -0.6928    1.5384    0.7498 C   0  0  0  0  0  0  0  0  0  0  0  0
   -0.8073    0.2657    0.1961 C   0  0  0  0  0  0  0  0  0  0  0  0
    0.2968   -0.6021    0.1753 C   0  0  0  0  0  0  0  0  0  0  0  0
    1.5352   -0.2208    0.7114 C   0  0  0  0  0  0  0  0  0  0  0  0
    2.7367   -1.0814    0.7117 C   0  0  0  0  0  0  0  0  0  0  0  0
    2.5897   -2.4489    0.0937 C   0  0  0  0  0  0  0  0  0  0  0  0
    3.8876   -0.6044    1.2408 C   0  0  0  0  0  0  0  0  0  0  0  0
    5.2051   -1.3535    1.2993 C   0  0  0  0  0  0  0  0  0  0  0  0
    6.1243   -1.0429    0.1350 C   0  0  0  0  0  0  0  0  0  0  0  0
    6.0886   -1.8117   -1.0374 C   0  0  0  0  0  0  0  0  0  0  0  0
    6.9275   -1.5099   -2.1125 C   0  0  0  0  0  0  0  0  0  0  0  0
    7.8106   -0.4360   -2.0299 C   0  0  0  0  0  0  0  0  0  0  0  0
    7.8568    0.3361   -0.8719 C   0  0  0  0  0  0  0  0  0  0  0  0
    7.0194    0.0349    0.2038 C   0  0  0  0  0  0  0  0  0  0  0  0
    3.9425    0.7399    1.8885 C   0  0  0  0  0  0  0  0  0  0  0  0
    4.9479    1.1483    2.4616 O   0  0  0  0  0  0  0  0  0  0  0  0
    2.8038    1.5229    1.8369 O   0  0  0  0  0  0  0  0  0  0  0  0
    1.6149    1.0503    1.2670 C   0  0  0  0  0  0  0  0  0  0  0  0
    0.5262    1.9250    1.2993 C   0  0  0  0  0  0  0  0  0  0  0  0
   -6.2318    0.5397    0.1566 C   0  0  0  0  0  0  0  0  0  0  0  0
   -9.3588   -1.5765    1.1890 H   0  0  0  0  0  0  0  0  0  0  0  0
   -8.3063   -0.3320    1.8738 H   0  0  0  0  0  0  0  0  0  0  0  0
   -7.6087   -1.7741    1.0367 H   0  0  0  0  0  0  0  0  0  0  0  0
   -8.4779    0.9629   -2.3524 H   0  0  0  0  0  0  0  0  0  0  0  0
   -6.6553    2.3890   -3.2249 H   0  0  0  0  0  0  0  0  0  0  0  0
   -4.5684    2.6491   -1.9678 H   0  0  0  0  0  0  0  0  0  0  0  0
   -3.2089    3.3511   -0.1347 H   0  0  0  0  0  0  0  0  0  0  0  0
   -2.4854    2.0054   -1.0245 H   0  0  0  0  0  0  0  0  0  0  0  0
   -1.7466   -0.1002   -0.2050 H   0  0  0  0  0  0  0  0  0  0  0  0
    0.1504   -1.5847   -0.2656 H   0  0  0  0  0  0  0  0  0  0  0  0
    2.3339   -2.3653   -0.9684 H   0  0  0  0  0  0  0  0  0  0  0  0
    1.8056   -3.0194    0.6041 H   0  0  0  0  0  0  0  0  0  0  0  0
    3.4904   -3.0610    0.1506 H   0  0  0  0  0  0  0  0  0  0  0  0
    5.7316   -1.1426    2.2399 H   0  0  0  0  0  0  0  0  0  0  0  0
    5.0477   -2.4367    1.3520 H   0  0  0  0  0  0  0  0  0  0  0  0
    5.4123   -2.6572   -1.1251 H   0  0  0  0  0  0  0  0  0  0  0  0
    6.8921   -2.1141   -3.0152 H   0  0  0  0  0  0  0  0  0  0  0  0
    8.4630   -0.2007   -2.8664 H   0  0  0  0  0  0  0  0  0  0  0  0
    8.5441    1.1753   -0.8030 H   0  0  0  0  0  0  0  0  0  0  0  0
    7.0719    0.6513    1.0999 H   0  0  0  0  0  0  0  0  0  0  0  0
    0.6326    2.9070    1.7522 H   0  0  0  0  0  0  0  0  0  0  0  0
   -6.0946    0.0302    1.1064 H   0  0  0  0  0  0  0  0  0  0  0  0
  1  2  1  0
  2  3  1  0
  3  4  2  0
  4  5  1  0
  5  6  2  0
  6  7  1  0
  7  8  1  0
  8  9  2  0
  8 10  1  0
 10 11  1  0
 11 12  1  0
 12 13  2  0
 13 14  1  0
 14 15  2  0
 15 16  1  0
 16 17  1  0
 16 18  2  0
 18 19  1  0
 19 20  1  0
 20 21  2  0
 21 22  1  0
 22 23  2  0
 23 24  1  0
 24 25  2  0
 18 26  1  0
 26 27  2  0
 26 28  1  0
 28 29  1  0
 29 30  2  0
  7 31  2  0
 31  3  1  0
 30 12  1  0
 29 15  1  0
 25 20  1  0
  1 32  1  0
  1 33  1  0
  1 34  1  0
  4 35  1  0
  5 36  1  0
  6 37  1  0
 10 38  1  0
 10 39  1  0
 13 40  1  0
 14 41  1  0
 17 42  1  0
 17 43  1  0
 17 44  1  0
 19 45  1  0
 19 46  1  0
 21 47  1  0
 22 48  1  0
 23 49  1  0
 24 50  1  0
 25 51  1  0
 30 52  1  0
 31 53  1  0
M  END
$$$$
