
     RDKit          3D

 44 46  0  0  0  0  0  0  0  0999 V2000
   -5.1227    1.8538    1.0746 C   0  0  0  0  0  0  0  0  0  0  0  0
   -4.4249    0.6755    0.4590 C   0  0  0  0  0  0  0  0  0  0  0  0
   -4.4578   -0.5790    1.0819 C   0  0  0  0  0  0  0  0  0  0  0  0
   -3.8266   -1.6781    0.4952 C   0  0  0  0  0  0  0  0  0  0  0  0
   -3.1595   -1.5193   -0.7221 C   0  0  0  0  0  0  0  0  0  0  0  0
   -2.3587   -2.9183   -1.4729 S   0  0  0  0  0  6  0  0  0  0  0  0
   -2.2045   -2.6504   -2.8865 O   0  0  0  0  0  0  0  0  0  0  0  0
   -3.0376   -4.1120   -1.0085 O   0  0  0  0  0  0  0  0  0  0  0  0
   -0.8382   -2.9334   -0.7333 N   0  0  0  0  0  0  0  0  0  0  0  0
   -0.0513   -1.7475   -0.7241 C   0  0  0  0  0  0  0  0  0  0  0  0
    0.3939   -1.1703   -1.9117 C   0  0  0  0  0  0  0  0  0  0  0  0
    1.1286    0.0240   -1.8904 C   0  0  0  0  0  0  0  0  0  0  0  0
    1.5544    0.6571   -3.1843 C   0  0  0  0  0  0  0  0  0  0  0  0
    1.4016    0.6317   -0.6558 C   0  0  0  0  0  0  0  0  0  0  0  0
    2.0952    1.8135   -0.6854 O   0  0  0  0  0  0  0  0  0  0  0  0
    0.9674    0.0523    0.5486 C   0  0  0  0  0  0  0  0  0  0  0  0
    1.2184    0.7906    2.1580 S   0  0  0  0  0  0  0  0  0  0  0  0
    2.9513    0.7402    2.2887 C   0  0  0  0  0  0  0  0  0  0  0  0
    3.5943   -0.0676    3.1334 N   0  0  0  0  0  0  0  0  0  0  0  0
    4.8745    0.2327    2.8654 N   0  0  0  0  0  0  0  0  0  0  0  0
    4.9685    1.1974    1.9002 C   0  0  0  0  0  0  0  0  0  0  0  0
    6.2585    1.7298    1.4123 C   0  0  0  0  0  0  0  0  0  0  0  0
    3.7559    1.5344    1.5140 N   0  0  0  0  0  0  0  0  0  0  0  0
    0.2366   -1.1428    0.4998 C   0  0  0  0  0  0  0  0  0  0  0  0
   -3.1470   -0.2822   -1.3709 C   0  0  0  0  0  0  0  0  0  0  0  0
   -3.7770    0.8123   -0.7764 C   0  0  0  0  0  0  0  0  0  0  0  0
   -4.5173    2.7604    0.9637 H   0  0  0  0  0  0  0  0  0  0  0  0
   -6.0907    2.0101    0.5905 H   0  0  0  0  0  0  0  0  0  0  0  0
   -5.2876    1.7031    2.1461 H   0  0  0  0  0  0  0  0  0  0  0  0
   -4.9799   -0.7074    2.0281 H   0  0  0  0  0  0  0  0  0  0  0  0
   -3.8662   -2.6474    0.9874 H   0  0  0  0  0  0  0  0  0  0  0  0
   -0.8358   -3.5140    0.1030 H   0  0  0  0  0  0  0  0  0  0  0  0
    0.1706   -1.6473   -2.8653 H   0  0  0  0  0  0  0  0  0  0  0  0
    0.8378    1.4332   -3.4705 H   0  0  0  0  0  0  0  0  0  0  0  0
    2.5525    1.0980   -3.0992 H   0  0  0  0  0  0  0  0  0  0  0  0
    1.6041   -0.0843   -3.9878 H   0  0  0  0  0  0  0  0  0  0  0  0
    2.5569    1.9231    0.1717 H   0  0  0  0  0  0  0  0  0  0  0  0
    5.6148   -0.2438    3.3680 H   0  0  0  0  0  0  0  0  0  0  0  0
    6.6809    1.0702    0.6474 H   0  0  0  0  0  0  0  0  0  0  0  0
    6.1202    2.7213    0.9704 H   0  0  0  0  0  0  0  0  0  0  0  0
    6.9811    1.8235    2.2290 H   0  0  0  0  0  0  0  0  0  0  0  0
   -0.1262   -1.5895    1.4223 H   0  0  0  0  0  0  0  0  0  0  0  0
   -2.6477   -0.1589   -2.3303 H   0  0  0  0  0  0  0  0  0  0  0  0
   -3.7605    1.7754   -1.2832 H   0  0  0  0  0  0  0  0  0  0  0  0
  1  2  1  0
  2  3  2  0
  3  4  1  0
  4  5  2  0
  5  6  1  0
  6  7  2  0
  6  8  2  0
  6  9  1  0
  9 10  1  0
 10 11  2  0
 11 12  1  0
 12 13  1  0
 12 14  2  0
 14 15  1  0
 14 16  1  0
 16 17  1  0
 17 18  1  0
 18 19  2  0
 19 20  1  0
 20 21  1  0
 21 22  1  0
 21 23  2  0
 16 24  2  0
  5 25  1  0
 25 26  2  0
 26  2  1  0
 24 10  1  0
 23 18  1  0
  1 27  1  0
  1 28  1  0
  1 29  1  0
  3 30  1  0
  4 31  1  0
  9 32  1  0
 11 33  1  0
 13 34  1  0
 13 35  1  0
 13 36  1  0
 15 37  1  0
 20 38  1  0
 22 39  1  0
 22 40  1  0
 22 41  1  0
 24 42  1  0
 25 43  1  0
 26 44  1  0
M  END
$$$$
