
     RDKit          3D

 57 60  0  0  0  0  0  0  0  0999 V2000
    2.2805    0.6655    2.2511 C   0  0  0  0  0  0  0  0  0  0  0  0
    2.4016    0.6598    0.7630 C   0  0  0  0  0  0  0  0  0  0  0  0
    1.5122    1.1995   -0.1456 C   0  0  0  0  0  0  0  0  0  0  0  0
    2.0694    1.0670   -1.4319 C   0  0  0  0  0  0  0  0  0  0  0  0
    1.5173    1.4936   -2.6777 C   0  0  0  0  0  0  0  0  0  0  0  0
    0.2431    1.3811   -3.0898 C   0  0  0  0  0  0  0  0  0  0  0  0
   -0.8381    0.7318   -2.3399 C   0  0  0  0  0  0  0  0  0  0  0  0
   -0.8173   -0.6588   -2.2224 C   0  0  0  0  0  0  0  0  0  0  0  0
   -1.8278   -1.3122   -1.5414 C   0  0  0  0  0  0  0  0  0  0  0  0
   -2.8664   -0.5751   -0.9822 C   0  0  0  0  0  0  0  0  0  0  0  0
   -3.9064   -1.2301   -0.2910 C   0  0  0  0  0  0  0  0  0  0  0  0
   -4.9830   -0.5472    0.2983 C   0  0  0  0  0  0  0  0  0  0  0  0
   -6.0143   -1.2129    0.9546 N   0  0  0  0  0  0  0  0  0  0  0  0
   -5.8598   -2.6204    1.3295 C   0  0  0  0  0  0  0  0  0  0  0  0
   -7.0003   -0.4606    1.7338 C   0  0  0  0  0  0  0  0  0  0  0  0
   -4.9730    0.8450    0.1441 C   0  0  0  0  0  0  0  0  0  0  0  0
   -3.9488    1.5225   -0.5381 C   0  0  0  0  0  0  0  0  0  0  0  0
   -2.8733    0.8321   -1.1138 C   0  0  0  0  0  0  0  0  0  0  0  0
   -1.8523    1.4574   -1.7882 N   0  0  0  0  0  4  0  0  0  0  0  0
   -1.8491    2.9364   -1.8822 C   0  0  0  0  0  0  0  0  0  0  0  0
    3.2980    0.4419   -1.2976 C   0  0  0  0  0  0  0  0  0  0  0  0
    4.2347   -0.0109   -2.3747 C   0  0  0  0  0  0  0  0  0  0  0  0
    3.5149    0.1977    0.0625 N   0  0  0  0  0  0  0  0  0  0  0  0
    4.6726   -0.4052    0.6353 C   0  0  0  0  0  0  0  0  0  0  0  0
    4.5387   -1.4008    1.6108 C   0  0  0  0  0  0  0  0  0  0  0  0
    5.6761   -1.9879    2.1696 C   0  0  0  0  0  0  0  0  0  0  0  0
    6.9456   -1.5822    1.7615 C   0  0  0  0  0  0  0  0  0  0  0  0
    7.0827   -0.5895    0.7927 C   0  0  0  0  0  0  0  0  0  0  0  0
    5.9499   -0.0004    0.2274 C   0  0  0  0  0  0  0  0  0  0  0  0
    1.5487    1.4162    2.5700 H   0  0  0  0  0  0  0  0  0  0  0  0
    3.2283    0.9179    2.7359 H   0  0  0  0  0  0  0  0  0  0  0  0
    1.9313   -0.3049    2.6154 H   0  0  0  0  0  0  0  0  0  0  0  0
    0.5801    1.6726    0.1300 H   0  0  0  0  0  0  0  0  0  0  0  0
    2.2255    1.9394   -3.3781 H   0  0  0  0  0  0  0  0  0  0  0  0
   -0.0286    1.7493   -4.0769 H   0  0  0  0  0  0  0  0  0  0  0  0
   -0.0041   -1.2390   -2.6572 H   0  0  0  0  0  0  0  0  0  0  0  0
   -1.7951   -2.3978   -1.4535 H   0  0  0  0  0  0  0  0  0  0  0  0
   -3.8633   -2.3157   -0.2252 H   0  0  0  0  0  0  0  0  0  0  0  0
   -5.7326   -3.2518    0.4437 H   0  0  0  0  0  0  0  0  0  0  0  0
   -5.0054   -2.7535    2.0023 H   0  0  0  0  0  0  0  0  0  0  0  0
   -6.7482   -3.0003    1.8461 H   0  0  0  0  0  0  0  0  0  0  0  0
   -6.5187    0.0738    2.5599 H   0  0  0  0  0  0  0  0  0  0  0  0
   -7.5428    0.2508    1.1018 H   0  0  0  0  0  0  0  0  0  0  0  0
   -7.7609   -1.1209    2.1651 H   0  0  0  0  0  0  0  0  0  0  0  0
   -5.7774    1.4525    0.5538 H   0  0  0  0  0  0  0  0  0  0  0  0
   -4.0459    2.6025   -0.5965 H   0  0  0  0  0  0  0  0  0  0  0  0
   -1.8610    3.3394   -0.8654 H   0  0  0  0  0  0  0  0  0  0  0  0
   -2.7360    3.2377   -2.4467 H   0  0  0  0  0  0  0  0  0  0  0  0
   -0.9660    3.3239   -2.3881 H   0  0  0  0  0  0  0  0  0  0  0  0
    3.6976   -0.1763   -3.3148 H   0  0  0  0  0  0  0  0  0  0  0  0
    5.0007    0.7478   -2.5609 H   0  0  0  0  0  0  0  0  0  0  0  0
    4.7172   -0.9606   -2.1252 H   0  0  0  0  0  0  0  0  0  0  0  0
    3.5635   -1.7649    1.9198 H   0  0  0  0  0  0  0  0  0  0  0  0
    5.5733   -2.7685    2.9198 H   0  0  0  0  0  0  0  0  0  0  0  0
    7.8297   -2.0394    2.1998 H   0  0  0  0  0  0  0  0  0  0  0  0
    8.0747   -0.2675    0.4845 H   0  0  0  0  0  0  0  0  0  0  0  0
    6.0875    0.7997   -0.4944 H   0  0  0  0  0  0  0  0  0  0  0  0
  1  2  1  0
  2  3  2  0
  3  4  1  0
  4  5  1  0
  5  6  2  3
  6  7  1  0
  7  8  2  0
  8  9  1  0
  9 10  2  0
 10 11  1  0
 11 12  2  0
 12 13  1  0
 13 14  1  0
 13 15  1  0
 12 16  1  0
 16 17  2  0
 17 18  1  0
 18 19  2  0
 19 20  1  0
  4 21  2  0
 21 22  1  0
 21 23  1  0
 23 24  1  0
 24 25  2  0
 25 26  1  0
 26 27  2  0
 27 28  1  0
 28 29  2  0
 23  2  1  0
 29 24  1  0
 19  7  1  0
 18 10  1  0
  1 30  1  0
  1 31  1  0
  1 32  1  0
  3 33  1  0
  5 34  1  0
  6 35  1  0
  8 36  1  0
  9 37  1  0
 11 38  1  0
 14 39  1  0
 14 40  1  0
 14 41  1  0
 15 42  1  0
 15 43  1  0
 15 44  1  0
 16 45  1  0
 17 46  1  0
 20 47  1  0
 20 48  1  0
 20 49  1  0
 22 50  1  0
 22 51  1  0
 22 52  1  0
 25 53  1  0
 26 54  1  0
 27 55  1  0
 28 56  1  0
 29 57  1  0
M  CHG  1  19   1
M  END
$$$$
