
     RDKit          3D

 33 33  0  0  0  0  0  0  0  0999 V2000
   -2.6852   -2.4164    0.0250 C   0  0  0  0  0  0  0  0  0  0  0  0
   -2.8857   -0.8999   -0.0525 C   0  0  0  0  0  0  0  0  0  0  0  0
   -4.2882   -0.5452    0.4444 C   0  0  0  0  0  0  0  0  0  0  0  0
   -1.8423   -0.2500    0.7574 N   0  0  0  0  0  0  0  0  0  0  0  0
   -1.6939    1.1740    0.4383 C   0  0  0  0  0  0  0  0  0  0  0  0
   -0.6858    1.8619    1.3670 C   0  0  0  0  0  0  0  0  0  0  0  0
    0.7317    1.2965    1.3022 C   0  0  0  0  0  0  0  0  0  0  0  0
    1.1828    1.3300   -0.0508 O   0  0  0  0  0  0  0  0  0  0  0  0
    2.3622    0.7012   -0.3458 C   0  0  0  0  0  0  0  0  0  0  0  0
    3.2956    0.2889    0.6110 C   0  0  0  0  0  0  0  0  0  0  0  0
    4.4831   -0.3372    0.2169 C   0  0  0  0  0  0  0  0  0  0  0  0
    4.7443   -0.5490   -1.1347 C   0  0  0  0  0  0  0  0  0  0  0  0
    6.2069   -1.3195   -1.6103 Cl  0  0  0  0  0  0  0  0  0  0  0  0
    3.8317   -0.1397   -2.1012 C   0  0  0  0  0  0  0  0  0  0  0  0
    2.6461    0.4855   -1.7051 C   0  0  0  0  0  0  0  0  0  0  0  0
    1.4295    1.0170   -3.0666 Br  0  0  0  0  0  0  0  0  0  0  0  0
   -3.4378   -2.9373   -0.5769 H   0  0  0  0  0  0  0  0  0  0  0  0
   -1.7002   -2.7040   -0.3598 H   0  0  0  0  0  0  0  0  0  0  0  0
   -2.7667   -2.7814    1.0553 H   0  0  0  0  0  0  0  0  0  0  0  0
   -2.7851   -0.6058   -1.1048 H   0  0  0  0  0  0  0  0  0  0  0  0
   -5.0474   -1.1026   -0.1156 H   0  0  0  0  0  0  0  0  0  0  0  0
   -4.5092    0.5185    0.3146 H   0  0  0  0  0  0  0  0  0  0  0  0
   -4.4102   -0.7903    1.5055 H   0  0  0  0  0  0  0  0  0  0  0  0
   -0.9534   -0.7098    0.5549 H   0  0  0  0  0  0  0  0  0  0  0  0
   -2.6497    1.6951    0.5569 H   0  0  0  0  0  0  0  0  0  0  0  0
   -1.3841    1.2964   -0.6062 H   0  0  0  0  0  0  0  0  0  0  0  0
   -0.6504    2.9216    1.0840 H   0  0  0  0  0  0  0  0  0  0  0  0
   -1.0433    1.8195    2.4030 H   0  0  0  0  0  0  0  0  0  0  0  0
    0.7422    0.2708    1.6895 H   0  0  0  0  0  0  0  0  0  0  0  0
    1.3843    1.9215    1.9233 H   0  0  0  0  0  0  0  0  0  0  0  0
    3.1352    0.4487    1.6726 H   0  0  0  0  0  0  0  0  0  0  0  0
    5.2004   -0.6526    0.9708 H   0  0  0  0  0  0  0  0  0  0  0  0
    4.0426   -0.3063   -3.1539 H   0  0  0  0  0  0  0  0  0  0  0  0
  1  2  1  0
  2  3  1  0
  2  4  1  0
  4  5  1  0
  5  6  1  0
  6  7  1  0
  7  8  1  0
  8  9  1  0
  9 10  2  0
 10 11  1  0
 11 12  2  0
 12 13  1  0
 12 14  1  0
 14 15  2  0
 15 16  1  0
 15  9  1  0
  1 17  1  0
  1 18  1  0
  1 19  1  0
  2 20  1  0
  3 21  1  0
  3 22  1  0
  3 23  1  0
  4 24  1  0
  5 25  1  0
  5 26  1  0
  6 27  1  0
  6 28  1  0
  7 29  1  0
  7 30  1  0
 10 31  1  0
 11 32  1  0
 14 33  1  0
M  END
$$$$
