
     RDKit          3D

 44 46  0  0  0  0  0  0  0  0999 V2000
   -2.8573   -4.3951    1.2286 C   0  0  0  0  0  0  0  0  0  0  0  0
   -2.4492   -2.9535    1.1503 C   0  0  0  0  0  0  0  0  0  0  0  0
   -3.3607   -1.9800    0.7418 C   0  0  0  0  0  0  0  0  0  0  0  0
   -2.9903   -0.6270    0.6282 C   0  0  0  0  0  0  0  0  0  0  0  0
   -4.0630    0.3368    0.1908 C   0  0  0  0  0  0  0  0  0  0  0  0
   -1.6606   -0.2465    0.9476 C   0  0  0  0  0  0  0  0  0  0  0  0
   -1.1971    1.4927    0.8501 S   0  0  0  0  0  6  0  0  0  0  0  0
    0.1100    1.7198    1.4291 O   0  0  0  0  0  0  0  0  0  0  0  0
   -2.3145    2.2862    1.3202 O   0  0  0  0  0  0  0  0  0  0  0  0
   -1.1040    1.7588   -0.8258 N   0  0  0  0  0  0  0  0  0  0  0  0
    0.0246    1.2284   -1.5090 C   0  0  0  0  0  0  0  0  0  0  0  0
   -0.0734   -0.0225   -2.1169 C   0  0  0  0  0  0  0  0  0  0  0  0
    1.0484   -0.5886   -2.7213 C   0  0  0  0  0  0  0  0  0  0  0  0
    2.2643    0.0894   -2.6897 C   0  0  0  0  0  0  0  0  0  0  0  0
    3.3352   -0.5338   -3.2700 O   0  0  0  0  0  0  0  0  0  0  0  0
    2.3774    1.3418   -2.0724 C   0  0  0  0  0  0  0  0  0  0  0  0
    3.9560    2.1805   -1.9833 S   0  0  0  0  0  0  0  0  0  0  0  0
    4.0700    2.4579   -0.2626 C   0  0  0  0  0  0  0  0  0  0  0  0
    4.1711    3.7108    0.2777 N   0  0  0  0  0  0  0  0  0  0  0  0
    4.1000    3.4798    1.5677 C   0  0  0  0  0  0  0  0  0  0  0  0
    3.9675    2.1449    1.7837 N   0  0  0  0  0  0  0  0  0  0  0  0
    3.9848    1.4633    0.6275 N   0  0  0  0  0  0  0  0  0  0  0  0
    1.2357    1.9191   -1.5011 C   0  0  0  0  0  0  0  0  0  0  0  0
   -0.7184   -1.2306    1.3381 C   0  0  0  0  0  0  0  0  0  0  0  0
    0.7233   -0.9485    1.6690 C   0  0  0  0  0  0  0  0  0  0  0  0
   -1.1356   -2.5729    1.4287 C   0  0  0  0  0  0  0  0  0  0  0  0
   -2.2862   -4.9217    2.0005 H   0  0  0  0  0  0  0  0  0  0  0  0
   -3.9167   -4.4880    1.4899 H   0  0  0  0  0  0  0  0  0  0  0  0
   -2.6861   -4.8851    0.2652 H   0  0  0  0  0  0  0  0  0  0  0  0
   -4.3818   -2.2803    0.5081 H   0  0  0  0  0  0  0  0  0  0  0  0
   -4.4363    0.9057    1.0472 H   0  0  0  0  0  0  0  0  0  0  0  0
   -3.7021    1.0132   -0.5881 H   0  0  0  0  0  0  0  0  0  0  0  0
   -4.9178   -0.1932   -0.2451 H   0  0  0  0  0  0  0  0  0  0  0  0
   -1.3723    2.7185   -1.0422 H   0  0  0  0  0  0  0  0  0  0  0  0
   -1.0154   -0.5643   -2.1210 H   0  0  0  0  0  0  0  0  0  0  0  0
    0.9818   -1.5630   -3.1972 H   0  0  0  0  0  0  0  0  0  0  0  0
    4.1157    0.0245   -3.0953 H   0  0  0  0  0  0  0  0  0  0  0  0
    4.1264    4.2119    2.3620 H   0  0  0  0  0  0  0  0  0  0  0  0
    3.8594    1.6436    2.6584 H   0  0  0  0  0  0  0  0  0  0  0  0
    1.3009    2.8847   -1.0052 H   0  0  0  0  0  0  0  0  0  0  0  0
    1.2237   -0.4387    0.8416 H   0  0  0  0  0  0  0  0  0  0  0  0
    1.2850   -1.8746    1.8375 H   0  0  0  0  0  0  0  0  0  0  0  0
    0.7979   -0.3645    2.5909 H   0  0  0  0  0  0  0  0  0  0  0  0
   -0.4202   -3.3398    1.7251 H   0  0  0  0  0  0  0  0  0  0  0  0
  1  2  1  0
  2  3  2  0
  3  4  1  0
  4  5  1  0
  4  6  2  0
  6  7  1  0
  7  8  2  0
  7  9  2  0
  7 10  1  0
 10 11  1  0
 11 12  2  0
 12 13  1  0
 13 14  2  0
 14 15  1  0
 14 16  1  0
 16 17  1  0
 17 18  1  0
 18 19  1  0
 19 20  2  0
 20 21  1  0
 21 22  1  0
 16 23  2  0
  6 24  1  0
 24 25  1  0
 24 26  2  0
 26  2  1  0
 23 11  1  0
 22 18  2  0
  1 27  1  0
  1 28  1  0
  1 29  1  0
  3 30  1  0
  5 31  1  0
  5 32  1  0
  5 33  1  0
 10 34  1  0
 12 35  1  0
 13 36  1  0
 15 37  1  0
 20 38  1  0
 21 39  1  0
 23 40  1  0
 25 41  1  0
 25 42  1  0
 25 43  1  0
 26 44  1  0
M  END
$$$$
