
     RDKit          3D

 40 42  0  0  0  0  0  0  0  0999 V2000
    3.4569   -0.9927    1.6146 N   0  0  0  0  0  0  0  0  0  0  0  0
    3.7529   -1.2183    0.2067 C   0  0  0  0  0  0  0  0  0  0  0  0
    3.2571   -0.0717   -0.6746 C   0  0  0  0  0  0  0  0  0  0  0  0
    1.7369   -0.0201   -0.8689 C   0  0  0  0  0  0  0  0  0  0  0  0
    0.9504    0.3803    0.3898 C   0  0  0  0  0  0  0  0  0  0  0  0
   -0.4704    0.6692    0.0648 N   0  0  0  0  0  0  0  0  0  0  0  0
   -0.8046    2.0223   -0.2393 C   0  0  0  0  0  0  0  0  0  0  0  0
    0.1775    2.9890   -0.5580 C   0  0  0  0  0  0  0  0  0  0  0  0
   -0.1407    4.3172   -0.8683 C   0  0  0  0  0  0  0  0  0  0  0  0
   -1.4621    4.7282   -0.8752 C   0  0  0  0  0  0  0  0  0  0  0  0
   -2.4574    3.8061   -0.5755 C   0  0  0  0  0  0  0  0  0  0  0  0
   -2.1418    2.4676   -0.2652 C   0  0  0  0  0  0  0  0  0  0  0  0
   -3.5319    1.4285    0.1137 S   0  0  0  0  0  0  0  0  0  0  0  0
   -2.7909   -0.1840    0.1877 C   0  0  0  0  0  0  0  0  0  0  0  0
   -3.6974   -1.2575    0.2918 C   0  0  0  0  0  0  0  0  0  0  0  0
   -3.2512   -2.5718    0.3802 C   0  0  0  0  0  0  0  0  0  0  0  0
   -1.8846   -2.8363    0.3599 C   0  0  0  0  0  0  0  0  0  0  0  0
   -1.3663   -4.2485    0.4697 C   0  0  0  0  0  0  0  0  0  0  0  0
   -0.2395   -4.4608   -0.2670 F   0  0  0  0  0  0  0  0  0  0  0  0
   -1.0445   -4.5848    1.7490 F   0  0  0  0  0  0  0  0  0  0  0  0
   -2.2628   -5.1853    0.0511 F   0  0  0  0  0  0  0  0  0  0  0  0
   -0.9845   -1.7554    0.2672 C   0  0  0  0  0  0  0  0  0  0  0  0
   -1.3997   -0.4055    0.1793 C   0  0  0  0  0  0  0  0  0  0  0  0
    3.9825   -0.1846    1.9496 H   0  0  0  0  0  0  0  0  0  0  0  0
    3.7980   -1.7855    2.1600 H   0  0  0  0  0  0  0  0  0  0  0  0
    3.2997   -2.1622   -0.1148 H   0  0  0  0  0  0  0  0  0  0  0  0
    4.8374   -1.3208    0.0892 H   0  0  0  0  0  0  0  0  0  0  0  0
    3.6189    0.8907   -0.2917 H   0  0  0  0  0  0  0  0  0  0  0  0
    3.7123   -0.1957   -1.6657 H   0  0  0  0  0  0  0  0  0  0  0  0
    1.3888   -0.9870   -1.2489 H   0  0  0  0  0  0  0  0  0  0  0  0
    1.5316    0.6952   -1.6745 H   0  0  0  0  0  0  0  0  0  0  0  0
    1.4219    1.2413    0.8804 H   0  0  0  0  0  0  0  0  0  0  0  0
    1.0121   -0.3939    1.1610 H   0  0  0  0  0  0  0  0  0  0  0  0
    1.2321    2.7366   -0.5943 H   0  0  0  0  0  0  0  0  0  0  0  0
    0.6512    5.0222   -1.1081 H   0  0  0  0  0  0  0  0  0  0  0  0
   -1.7201    5.7559   -1.1142 H   0  0  0  0  0  0  0  0  0  0  0  0
   -3.4944    4.1365   -0.5835 H   0  0  0  0  0  0  0  0  0  0  0  0
   -4.7697   -1.0680    0.3076 H   0  0  0  0  0  0  0  0  0  0  0  0
   -3.9747   -3.3809    0.4621 H   0  0  0  0  0  0  0  0  0  0  0  0
    0.0711   -2.0152    0.2523 H   0  0  0  0  0  0  0  0  0  0  0  0
  1  2  1  0
  2  3  1  0
  3  4  1  0
  4  5  1  0
  5  6  1  0
  6  7  1  0
  7  8  2  0
  8  9  1  0
  9 10  2  0
 10 11  1  0
 11 12  2  0
 12 13  1  0
 13 14  1  0
 14 15  2  0
 15 16  1  0
 16 17  2  0
 17 18  1  0
 18 19  1  0
 18 20  1  0
 18 21  1  0
 17 22  1  0
 22 23  2  0
 23  6  1  0
 12  7  1  0
 23 14  1  0
  1 24  1  0
  1 25  1  0
  2 26  1  0
  2 27  1  0
  3 28  1  0
  3 29  1  0
  4 30  1  0
  4 31  1  0
  5 32  1  0
  5 33  1  0
  8 34  1  0
  9 35  1  0
 10 36  1  0
 11 37  1  0
 15 38  1  0
 16 39  1  0
 22 40  1  0
M  END
$$$$
