
     RDKit          3D

 36 39  0  0  0  0  0  0  0  0999 V2000
   -5.4420    2.4198    1.2174 C   0  0  0  0  0  0  0  0  0  0  0  0
   -4.8915    1.1316    0.6815 C   0  0  0  0  0  0  0  0  0  0  0  0
   -5.0029    0.0492    1.2412 O   0  0  0  0  0  0  0  0  0  0  0  0
   -4.2630    1.3875   -0.5336 O   0  0  0  0  0  0  0  0  0  0  0  0
   -3.6757    0.2873   -1.1734 C   0  0  0  0  0  0  0  0  0  0  0  0
   -4.0748    0.0247   -2.4818 C   0  0  0  0  0  0  0  0  0  0  0  0
   -3.4855   -1.0292   -3.1758 C   0  0  0  0  0  0  0  0  0  0  0  0
   -2.4927   -1.8003   -2.5643 C   0  0  0  0  0  0  0  0  0  0  0  0
   -2.0716   -1.5141   -1.2584 C   0  0  0  0  0  0  0  0  0  0  0  0
   -1.0484   -2.3596   -0.6372 C   0  0  0  0  0  0  0  0  0  0  0  0
    0.1680   -1.9701   -0.2271 C   0  0  0  0  0  0  0  0  0  0  0  0
    1.2982   -3.1173    0.4989 S   0  0  0  0  0  0  0  0  0  0  0  0
    2.4564   -1.8662    0.6636 C   0  0  0  0  0  0  0  0  0  0  0  0
    3.6687   -1.7828    1.1277 N   0  0  0  0  0  0  0  0  0  0  0  0
    3.9520   -0.4413    0.9218 C   0  0  0  0  0  0  0  0  0  0  0  0
    5.3260    0.1903    1.3213 C   0  0  0  0  0  0  0  0  0  0  0  0
    5.6871    1.5138    1.1531 C   0  0  0  0  0  0  0  0  0  0  0  0
    7.0063    1.6435    1.6511 C   0  0  0  0  0  0  0  0  0  0  0  0
    7.3705    0.3939    2.0922 C   0  0  0  0  0  0  0  0  0  0  0  0
    6.3619   -0.4930    1.8966 O   0  0  0  0  0  0  0  0  0  0  0  0
    2.9587    0.2758    0.3543 N   0  0  0  0  0  0  0  0  0  0  0  0
    2.0215   -0.6777    0.2049 N   0  0  0  0  0  0  0  0  0  0  0  0
    0.7517   -0.5902   -0.3267 C   0  0  0  0  0  0  0  0  0  0  0  0
    0.2839    0.4433   -0.7648 O   0  0  0  0  0  0  0  0  0  0  0  0
   -2.6711   -0.4621   -0.5592 C   0  0  0  0  0  0  0  0  0  0  0  0
   -5.9105    2.2369    2.1884 H   0  0  0  0  0  0  0  0  0  0  0  0
   -4.6332    3.1415    1.3526 H   0  0  0  0  0  0  0  0  0  0  0  0
   -6.1983    2.8114    0.5329 H   0  0  0  0  0  0  0  0  0  0  0  0
   -4.8385    0.6331   -2.9568 H   0  0  0  0  0  0  0  0  0  0  0  0
   -3.7956   -1.2501   -4.1939 H   0  0  0  0  0  0  0  0  0  0  0  0
   -2.0467   -2.6215   -3.1211 H   0  0  0  0  0  0  0  0  0  0  0  0
   -1.3493   -3.4012   -0.5326 H   0  0  0  0  0  0  0  0  0  0  0  0
    5.0647    2.2859    0.7215 H   0  0  0  0  0  0  0  0  0  0  0  0
    7.6151    2.5359    1.6848 H   0  0  0  0  0  0  0  0  0  0  0  0
    8.2647   -0.0104    2.5461 H   0  0  0  0  0  0  0  0  0  0  0  0
   -2.3642   -0.2241    0.4549 H   0  0  0  0  0  0  0  0  0  0  0  0
  1  2  1  0
  2  3  2  0
  2  4  1  0
  4  5  1  0
  5  6  2  0
  6  7  1  0
  7  8  2  0
  8  9  1  0
  9 10  1  0
 10 11  2  3
 11 12  1  0
 12 13  1  0
 13 14  2  0
 14 15  1  0
 15 16  1  0
 16 17  2  0
 17 18  1  0
 18 19  2  0
 19 20  1  0
 15 21  2  0
 21 22  1  0
 22 23  1  0
 23 24  2  0
  9 25  2  0
 25  5  1  0
 23 11  1  0
 22 13  1  0
 20 16  1  0
  1 26  1  0
  1 27  1  0
  1 28  1  0
  6 29  1  0
  7 30  1  0
  8 31  1  0
 10 32  1  0
 17 33  1  0
 18 34  1  0
 19 35  1  0
 25 36  1  0
M  END
$$$$
