
     RDKit          3D

 46 49  0  0  0  0  0  0  0  0999 V2000
   -3.5519   -4.0456    0.6222 C   0  0  0  0  0  0  0  0  0  0  0  0
   -4.4327   -3.2674   -0.1785 O   0  0  0  0  0  0  0  0  0  0  0  0
   -4.0045   -2.0130   -0.5191 C   0  0  0  0  0  0  0  0  0  0  0  0
   -4.7885   -1.3701   -1.4797 C   0  0  0  0  0  0  0  0  0  0  0  0
   -4.4571   -0.0920   -1.9279 C   0  0  0  0  0  0  0  0  0  0  0  0
   -3.3397    0.5582   -1.4069 C   0  0  0  0  0  0  0  0  0  0  0  0
   -2.5580   -0.0637   -0.4251 C   0  0  0  0  0  0  0  0  0  0  0  0
   -1.3903    0.6188    0.1244 C   0  0  0  0  0  0  0  0  0  0  0  0
   -0.0369    0.3872   -0.0888 C   0  0  0  0  0  0  0  0  0  0  0  0
    0.6035   -0.6404   -0.9068 C   0  0  0  0  0  0  0  0  0  0  0  0
   -0.0213   -1.5268   -1.4799 O   0  0  0  0  0  0  0  0  0  0  0  0
    1.9830   -0.4941   -0.9395 N   0  0  0  0  0  0  0  0  0  0  0  0
    2.7625   -1.3402   -1.6692 N   0  0  0  0  0  0  0  0  0  0  0  0
    4.0533   -1.1751   -1.6932 C   0  0  0  0  0  0  0  0  0  0  0  0
    4.8529   -2.2119   -2.4549 C   0  0  0  0  0  0  0  0  0  0  0  0
    4.8205   -0.1313   -1.0278 C   0  0  0  0  0  0  0  0  0  0  0  0
    5.9989   -0.2689   -0.3120 C   0  0  0  0  0  0  0  0  0  0  0  0
    6.4931    0.9796    0.1736 C   0  0  0  0  0  0  0  0  0  0  0  0
    5.6820    2.0132   -0.2133 C   0  0  0  0  0  0  0  0  0  0  0  0
    5.8996    3.6772    0.1462 Cl  0  0  0  0  0  0  0  0  0  0  0  0
    4.3591    1.5196   -1.1414 S   0  0  0  0  0  0  0  0  0  0  0  0
    0.6979    1.3171    0.6015 N   0  0  0  0  0  0  0  0  0  0  0  0
   -0.1359    2.1114    1.2452 N   0  0  0  0  0  0  0  0  0  0  0  0
   -1.4191    1.7020    1.0093 N   0  0  0  0  0  0  0  0  0  0  0  0
   -2.5187    2.3334    1.6456 C   0  0  0  0  0  0  0  0  0  0  0  0
   -3.7614    1.8723    1.5050 N   0  0  0  0  0  0  0  0  0  0  0  0
   -4.5343    2.7276    2.2869 O   0  0  0  0  0  0  0  0  0  0  0  0
   -3.7486    3.6969    2.9017 N   0  0  0  0  0  0  0  0  0  0  0  0
   -2.5023    3.4534    2.4988 C   0  0  0  0  0  0  0  0  0  0  0  0
   -1.4313    4.1830    2.8658 N   0  0  0  0  0  0  0  0  0  0  0  0
   -2.8923   -1.3549    0.0109 C   0  0  0  0  0  0  0  0  0  0  0  0
   -3.4609   -3.6228    1.6280 H   0  0  0  0  0  0  0  0  0  0  0  0
   -3.9853   -5.0456    0.7203 H   0  0  0  0  0  0  0  0  0  0  0  0
   -2.5708   -4.1531    0.1473 H   0  0  0  0  0  0  0  0  0  0  0  0
   -5.6586   -1.8767   -1.8901 H   0  0  0  0  0  0  0  0  0  0  0  0
   -5.0685    0.3929   -2.6840 H   0  0  0  0  0  0  0  0  0  0  0  0
   -3.0907    1.5518   -1.7712 H   0  0  0  0  0  0  0  0  0  0  0  0
    2.4055    0.2853   -0.4413 H   0  0  0  0  0  0  0  0  0  0  0  0
    5.6638   -1.7343   -3.0124 H   0  0  0  0  0  0  0  0  0  0  0  0
    5.2755   -2.9336   -1.7496 H   0  0  0  0  0  0  0  0  0  0  0  0
    4.2095   -2.7461   -3.1603 H   0  0  0  0  0  0  0  0  0  0  0  0
    6.4829   -1.2220   -0.1301 H   0  0  0  0  0  0  0  0  0  0  0  0
    7.3914    1.1034    0.7659 H   0  0  0  0  0  0  0  0  0  0  0  0
   -1.5227    4.8309    3.6415 H   0  0  0  0  0  0  0  0  0  0  0  0
   -0.4835    3.8454    2.7073 H   0  0  0  0  0  0  0  0  0  0  0  0
   -2.2689   -1.8306    0.7604 H   0  0  0  0  0  0  0  0  0  0  0  0
  1  2  1  0
  2  3  1  0
  3  4  2  0
  4  5  1  0
  5  6  2  0
  6  7  1  0
  7  8  1  0
  8  9  2  0
  9 10  1  0
 10 11  2  0
 10 12  1  0
 12 13  1  0
 13 14  2  3
 14 15  1  0
 14 16  1  0
 16 17  2  0
 17 18  1  0
 18 19  2  0
 19 20  1  0
 19 21  1  0
  9 22  1  0
 22 23  2  0
 23 24  1  0
 24 25  1  0
 25 26  2  0
 26 27  1  0
 27 28  1  0
 28 29  2  0
 29 30  1  0
  7 31  2  0
 31  3  1  0
 24  8  1  0
 29 25  1  0
 21 16  1  0
  1 32  1  0
  1 33  1  0
  1 34  1  0
  4 35  1  0
  5 36  1  0
  6 37  1  0
 12 38  1  0
 15 39  1  0
 15 40  1  0
 15 41  1  0
 17 42  1  0
 18 43  1  0
 30 44  1  0
 30 45  1  0
 31 46  1  0
M  END
$$$$
