
     RDKit          3D

 60 62  0  0  0  0  0  0  0  0999 V2000
   -3.0029    3.4403   -3.2405 C   0  0  0  0  0  0  0  0  0  0  0  0
   -2.6417    2.9991   -1.8526 C   0  0  0  0  0  0  0  0  0  0  0  0
   -1.3128    2.7351   -1.5187 C   0  0  0  0  0  0  0  0  0  0  0  0
   -0.9850    2.3120   -0.2331 C   0  0  0  0  0  0  0  0  0  0  0  0
   -1.9875    2.1158    0.7314 C   0  0  0  0  0  0  0  0  0  0  0  0
   -1.4584    1.5634    2.3493 S   0  0  0  0  0  6  0  0  0  0  0  0
   -0.0370    1.8103    2.4740 O   0  0  0  0  0  0  0  0  0  0  0  0
   -2.3741    2.0828    3.3438 O   0  0  0  0  0  0  0  0  0  0  0  0
   -1.7189   -0.1042    2.3012 N   0  0  0  0  0  0  0  0  0  0  0  0
   -1.2238   -0.8798    1.2051 C   0  0  0  0  0  0  0  0  0  0  0  0
    0.1574   -0.9260    1.0038 C   0  0  0  0  0  0  0  0  0  0  0  0
    0.7075   -1.6175   -0.0795 C   0  0  0  0  0  0  0  0  0  0  0  0
    2.2166   -1.6452   -0.2999 C   0  0  0  0  0  0  0  0  0  0  0  0
    2.8743   -0.2814   -0.2227 C   0  0  0  0  0  0  0  0  0  0  0  0
    2.3398    0.7706   -0.5546 O   0  0  0  0  0  0  0  0  0  0  0  0
    4.1736   -0.3913    0.1778 O   0  0  0  0  0  0  0  0  0  0  0  0
    4.9006    0.8437    0.3272 C   0  0  0  0  0  0  0  0  0  0  0  0
    5.4652    1.2729   -1.0217 C   0  0  0  0  0  0  0  0  0  0  0  0
    6.0224    0.5806    1.3255 C   0  0  0  0  0  0  0  0  0  0  0  0
    2.8736   -2.6617    0.6105 C   0  0  0  0  0  0  0  0  0  0  0  0
    2.7254   -2.6372    1.8387 O   0  0  0  0  0  0  0  0  0  0  0  0
    3.7163   -3.6946   -0.1068 C   0  0  0  0  0  0  0  0  0  0  0  0
    4.5406   -3.1330   -1.0361 F   0  0  0  0  0  0  0  0  0  0  0  0
    4.5157   -4.4163    0.7244 F   0  0  0  0  0  0  0  0  0  0  0  0
    2.9495   -4.5967   -0.7802 F   0  0  0  0  0  0  0  0  0  0  0  0
   -0.1603   -2.3203   -0.9275 C   0  0  0  0  0  0  0  0  0  0  0  0
    0.4546   -3.0342   -1.9253 O   0  0  0  0  0  0  0  0  0  0  0  0
   -1.5714   -2.3069   -0.7547 C   0  0  0  0  0  0  0  0  0  0  0  0
   -2.4756   -2.9883   -1.6113 C   0  0  0  0  0  0  0  0  0  0  0  0
   -3.8571   -2.9484   -1.4152 C   0  0  0  0  0  0  0  0  0  0  0  0
   -4.3782   -2.2261   -0.3577 C   0  0  0  0  0  0  0  0  0  0  0  0
   -3.5170   -1.5463    0.5026 C   0  0  0  0  0  0  0  0  0  0  0  0
   -2.1100   -1.5668    0.3336 C   0  0  0  0  0  0  0  0  0  0  0  0
   -3.3361    2.3642    0.4146 C   0  0  0  0  0  0  0  0  0  0  0  0
   -4.4676    2.2227    1.3939 C   0  0  0  0  0  0  0  0  0  0  0  0
   -3.6406    2.8044   -0.8875 C   0  0  0  0  0  0  0  0  0  0  0  0
   -3.8798    4.0968   -3.2253 H   0  0  0  0  0  0  0  0  0  0  0  0
   -3.2218    2.5698   -3.8675 H   0  0  0  0  0  0  0  0  0  0  0  0
   -2.1840    4.0071   -3.6957 H   0  0  0  0  0  0  0  0  0  0  0  0
   -0.5190    2.8616   -2.2521 H   0  0  0  0  0  0  0  0  0  0  0  0
    0.0621    2.1268    0.0043 H   0  0  0  0  0  0  0  0  0  0  0  0
   -2.5770   -0.3871    2.7656 H   0  0  0  0  0  0  0  0  0  0  0  0
    0.8157   -0.4190    1.7090 H   0  0  0  0  0  0  0  0  0  0  0  0
    2.4177   -1.9504   -1.3360 H   0  0  0  0  0  0  0  0  0  0  0  0
    4.2464    1.6238    0.7360 H   0  0  0  0  0  0  0  0  0  0  0  0
    6.0952    0.4862   -1.4515 H   0  0  0  0  0  0  0  0  0  0  0  0
    6.0592    2.1862   -0.9286 H   0  0  0  0  0  0  0  0  0  0  0  0
    4.6620    1.4583   -1.7425 H   0  0  0  0  0  0  0  0  0  0  0  0
    6.6897   -0.2122    0.9683 H   0  0  0  0  0  0  0  0  0  0  0  0
    5.6101    0.2358    2.2803 H   0  0  0  0  0  0  0  0  0  0  0  0
    6.6135    1.4837    1.5069 H   0  0  0  0  0  0  0  0  0  0  0  0
   -0.2023   -3.5015   -2.4625 H   0  0  0  0  0  0  0  0  0  0  0  0
   -2.1308   -3.5659   -2.4633 H   0  0  0  0  0  0  0  0  0  0  0  0
   -4.5198   -3.4811   -2.0929 H   0  0  0  0  0  0  0  0  0  0  0  0
   -5.4529   -2.1854   -0.1985 H   0  0  0  0  0  0  0  0  0  0  0  0
   -3.9743   -0.9926    1.3160 H   0  0  0  0  0  0  0  0  0  0  0  0
   -4.4127    1.2711    1.9289 H   0  0  0  0  0  0  0  0  0  0  0  0
   -5.4373    2.2327    0.8837 H   0  0  0  0  0  0  0  0  0  0  0  0
   -4.4603    3.0534    2.1060 H   0  0  0  0  0  0  0  0  0  0  0  0
   -4.6766    3.0062   -1.1569 H   0  0  0  0  0  0  0  0  0  0  0  0
  1  2  1  0
  2  3  2  0
  3  4  1  0
  4  5  2  0
  5  6  1  0
  6  7  2  0
  6  8  2  0
  6  9  1  0
  9 10  1  0
 10 11  2  0
 11 12  1  0
 12 13  1  0
 13 14  1  0
 14 15  2  0
 14 16  1  0
 16 17  1  0
 17 18  1  0
 17 19  1  0
 13 20  1  0
 20 21  2  0
 20 22  1  0
 22 23  1  0
 22 24  1  0
 22 25  1  0
 12 26  2  0
 26 27  1  0
 26 28  1  0
 28 29  2  0
 29 30  1  0
 30 31  2  0
 31 32  1  0
 32 33  2  0
  5 34  1  0
 34 35  1  0
 34 36  2  0
 36  2  1  0
 33 10  1  0
 33 28  1  0
  1 37  1  0
  1 38  1  0
  1 39  1  0
  3 40  1  0
  4 41  1  0
  9 42  1  0
 11 43  1  0
 13 44  1  0
 17 45  1  0
 18 46  1  0
 18 47  1  0
 18 48  1  0
 19 49  1  0
 19 50  1  0
 19 51  1  0
 27 52  1  0
 29 53  1  0
 30 54  1  0
 31 55  1  0
 32 56  1  0
 35 57  1  0
 35 58  1  0
 35 59  1  0
 36 60  1  0
M  END
$$$$
