
     RDKit          3D

 59 63  0  0  0  0  0  0  0  0999 V2000
   -5.0878   -3.2749    0.8109 C   0  0  0  0  0  0  0  0  0  0  0  0
   -5.4453   -1.7931    0.8657 C   0  0  0  0  0  0  0  0  0  0  0  0
   -4.2313   -0.8570    0.9673 C   0  0  0  0  0  0  0  0  0  0  0  0
   -3.4991   -1.1388    2.1903 N   0  0  0  0  0  0  0  0  0  0  0  0
   -2.2922   -0.4538    2.2992 C   0  0  0  0  0  0  0  0  0  0  0  0
   -1.9656   -0.1267    3.5585 N   0  0  0  0  0  0  0  0  0  0  0  0
   -0.7636    0.4195    3.7218 C   0  0  0  0  0  0  0  0  0  0  0  0
    0.1479    0.5986    2.7633 N   0  0  0  0  0  0  0  0  0  0  0  0
   -0.1820    0.2231    1.5071 C   0  0  0  0  0  0  0  0  0  0  0  0
    0.8823    0.1665    0.5837 N   0  0  0  0  0  0  0  0  0  0  0  0
    1.3632   -1.2453    0.4371 C   0  0  0  0  0  0  0  0  0  0  0  0
    2.9008   -1.3859    0.5337 C   0  0  0  0  0  0  0  0  0  0  0  0
    3.5735   -0.4024   -0.3352 N   0  0  0  0  0  0  0  0  0  0  0  0
    4.9591   -0.5648   -0.4410 C   0  0  0  0  0  0  0  0  0  0  0  0
    5.6852    0.1857   -1.3676 C   0  0  0  0  0  0  0  0  0  0  0  0
    7.0642    0.0093   -1.4842 C   0  0  0  0  0  0  0  0  0  0  0  0
    7.6967   -0.9226   -0.6764 C   0  0  0  0  0  0  0  0  0  0  0  0
    6.9169   -1.6375    0.2112 C   0  0  0  0  0  0  0  0  0  0  0  0
    5.5792   -1.4813    0.3360 N   0  0  0  0  0  0  0  0  0  0  0  0
    3.0960    0.9908   -0.1983 C   0  0  0  0  0  0  0  0  0  0  0  0
    1.9757    1.1256    0.8603 C   0  0  0  0  0  0  0  0  0  0  0  0
   -1.4767   -0.2220    1.1841 C   0  0  0  0  0  0  0  0  0  0  0  0
   -2.0187   -0.4588   -0.1362 N   0  0  0  0  0  0  0  0  0  0  0  0
   -1.3688    0.0026   -1.3599 C   0  0  0  0  0  0  0  0  0  0  0  0
   -1.8300    1.3920   -1.7714 C   0  0  0  0  0  0  0  0  0  0  0  0
   -1.2963    2.5391   -1.1661 C   0  0  0  0  0  0  0  0  0  0  0  0
   -1.7344    3.8123   -1.5388 C   0  0  0  0  0  0  0  0  0  0  0  0
   -2.7125    3.9473   -2.5211 C   0  0  0  0  0  0  0  0  0  0  0  0
   -3.3062    5.6695   -3.0229 Br  0  0  0  0  0  0  0  0  0  0  0  0
   -3.2567    2.8211   -3.1326 C   0  0  0  0  0  0  0  0  0  0  0  0
   -2.8182    1.5492   -2.7565 C   0  0  0  0  0  0  0  0  0  0  0  0
   -3.3414   -0.9080   -0.2906 C   0  0  0  0  0  0  0  0  0  0  0  0
   -3.8140   -1.2143   -1.3900 O   0  0  0  0  0  0  0  0  0  0  0  0
   -4.4713   -3.5080   -0.0630 H   0  0  0  0  0  0  0  0  0  0  0  0
   -6.0006   -3.8765    0.7438 H   0  0  0  0  0  0  0  0  0  0  0  0
   -4.5472   -3.5911    1.7091 H   0  0  0  0  0  0  0  0  0  0  0  0
   -6.0994   -1.6284    1.7316 H   0  0  0  0  0  0  0  0  0  0  0  0
   -6.0349   -1.5407   -0.0245 H   0  0  0  0  0  0  0  0  0  0  0  0
   -4.6140    0.1723    1.0177 H   0  0  0  0  0  0  0  0  0  0  0  0
   -4.0093   -1.0342    3.0629 H   0  0  0  0  0  0  0  0  0  0  0  0
   -0.4877    0.7203    4.7273 H   0  0  0  0  0  0  0  0  0  0  0  0
    0.9135   -1.9186    1.1807 H   0  0  0  0  0  0  0  0  0  0  0  0
    1.0474   -1.6052   -0.5497 H   0  0  0  0  0  0  0  0  0  0  0  0
    3.1613   -2.4090    0.2325 H   0  0  0  0  0  0  0  0  0  0  0  0
    3.2149   -1.2522    1.5786 H   0  0  0  0  0  0  0  0  0  0  0  0
    5.1795    0.8893   -2.0217 H   0  0  0  0  0  0  0  0  0  0  0  0
    7.6282    0.5845   -2.2114 H   0  0  0  0  0  0  0  0  0  0  0  0
    8.7649   -1.0934   -0.7403 H   0  0  0  0  0  0  0  0  0  0  0  0
    7.3552   -2.3867    0.8648 H   0  0  0  0  0  0  0  0  0  0  0  0
    2.7122    1.3153   -1.1731 H   0  0  0  0  0  0  0  0  0  0  0  0
    3.9049    1.6752    0.0877 H   0  0  0  0  0  0  0  0  0  0  0  0
    1.5891    2.1514    0.8331 H   0  0  0  0  0  0  0  0  0  0  0  0
    2.4133    0.9596    1.8537 H   0  0  0  0  0  0  0  0  0  0  0  0
   -0.2844   -0.0173   -1.3280 H   0  0  0  0  0  0  0  0  0  0  0  0
   -1.6126   -0.7017   -2.1670 H   0  0  0  0  0  0  0  0  0  0  0  0
   -0.5332    2.4498   -0.3985 H   0  0  0  0  0  0  0  0  0  0  0  0
   -1.3086    4.6881   -1.0563 H   0  0  0  0  0  0  0  0  0  0  0  0
   -4.0220    2.9176   -3.8976 H   0  0  0  0  0  0  0  0  0  0  0  0
   -3.2590    0.6747   -3.2340 H   0  0  0  0  0  0  0  0  0  0  0  0
  1  2  1  0
  2  3  1  0
  3  4  1  0
  4  5  1  0
  5  6  2  0
  6  7  1  0
  7  8  2  0
  8  9  1  0
  9 10  1  0
 10 11  1  0
 11 12  1  0
 12 13  1  0
 13 14  1  0
 14 15  2  0
 15 16  1  0
 16 17  2  0
 17 18  1  0
 18 19  2  0
 13 20  1  0
 20 21  1  0
  9 22  2  0
 22 23  1  0
 23 24  1  0
 24 25  1  0
 25 26  2  0
 26 27  1  0
 27 28  2  0
 28 29  1  0
 28 30  1  0
 30 31  2  0
 23 32  1  0
 32 33  2  0
 32  3  1  0
 22  5  1  0
 31 25  1  0
 21 10  1  0
 19 14  1  0
  1 34  1  0
  1 35  1  0
  1 36  1  0
  2 37  1  0
  2 38  1  0
  3 39  1  0
  4 40  1  0
  7 41  1  0
 11 42  1  0
 11 43  1  0
 12 44  1  0
 12 45  1  0
 15 46  1  0
 16 47  1  0
 17 48  1  0
 18 49  1  0
 20 50  1  0
 20 51  1  0
 21 52  1  0
 21 53  1  0
 24 54  1  0
 24 55  1  0
 26 56  1  0
 27 57  1  0
 30 58  1  0
 31 59  1  0
M  END
$$$$
