
     RDKit          3D

 35 35  0  0  0  0  0  0  0  0999 V2000
   -4.7980    0.1797   -1.4096 C   0  0  0  0  0  0  0  0  0  0  0  0
   -3.5291   -0.3109   -0.6885 C   0  0  0  0  0  0  0  0  0  0  0  0
   -3.7521   -0.0910    0.8188 C   0  0  0  0  0  0  0  0  0  0  0  0
   -2.2959    0.3636   -1.1848 N   0  0  0  0  0  0  0  0  0  0  0  0
   -2.1357    0.1974   -2.6355 C   0  0  0  0  0  0  0  0  0  0  0  0
   -1.0871   -0.1094   -0.4697 C   0  0  0  0  0  0  0  0  0  0  0  0
    0.2378    0.5670   -0.8655 C   0  0  0  0  0  0  0  0  0  0  0  0
    1.2543    0.1416    0.0597 O   0  0  0  0  0  0  0  0  0  0  0  0
    2.4815    0.6599   -0.1953 C   0  0  0  0  0  0  0  0  0  0  0  0
    2.7882    1.3929   -1.1178 O   0  0  0  0  0  0  0  0  0  0  0  0
    3.4122    0.1783    0.8432 C   0  0  0  0  0  0  0  0  0  0  0  0
    3.5339   -1.2076    1.0357 C   0  0  0  0  0  0  0  0  0  0  0  0
    4.4236   -1.7084    1.9866 C   0  0  0  0  0  0  0  0  0  0  0  0
    5.1946   -0.8306    2.7462 C   0  0  0  0  0  0  0  0  0  0  0  0
    5.0757    0.5484    2.5591 C   0  0  0  0  0  0  0  0  0  0  0  0
    4.1853    1.0587    1.6072 C   0  0  0  0  0  0  0  0  0  0  0  0
    4.0541    2.9466    1.4615 Br  0  0  0  0  0  0  0  0  0  0  0  0
   -4.8762    1.2721   -1.3785 H   0  0  0  0  0  0  0  0  0  0  0  0
   -5.6990   -0.2326   -0.9411 H   0  0  0  0  0  0  0  0  0  0  0  0
   -4.8234   -0.1422   -2.4552 H   0  0  0  0  0  0  0  0  0  0  0  0
   -3.4461   -1.3926   -0.8606 H   0  0  0  0  0  0  0  0  0  0  0  0
   -3.7127    0.9734    1.0756 H   0  0  0  0  0  0  0  0  0  0  0  0
   -4.7313   -0.4728    1.1299 H   0  0  0  0  0  0  0  0  0  0  0  0
   -3.0120   -0.6234    1.4237 H   0  0  0  0  0  0  0  0  0  0  0  0
   -1.2567    0.7332   -3.0068 H   0  0  0  0  0  0  0  0  0  0  0  0
   -2.9699    0.6401   -3.1877 H   0  0  0  0  0  0  0  0  0  0  0  0
   -2.0458   -0.8572   -2.9185 H   0  0  0  0  0  0  0  0  0  0  0  0
   -0.9755   -1.1968   -0.5770 H   0  0  0  0  0  0  0  0  0  0  0  0
   -1.1977    0.0768    0.6042 H   0  0  0  0  0  0  0  0  0  0  0  0
    0.1351    1.6571   -0.8097 H   0  0  0  0  0  0  0  0  0  0  0  0
    0.5389    0.2699   -1.8757 H   0  0  0  0  0  0  0  0  0  0  0  0
    2.9414   -1.8990    0.4404 H   0  0  0  0  0  0  0  0  0  0  0  0
    4.5176   -2.7821    2.1329 H   0  0  0  0  0  0  0  0  0  0  0  0
    5.8893   -1.2191    3.4877 H   0  0  0  0  0  0  0  0  0  0  0  0
    5.6810    1.2190    3.1653 H   0  0  0  0  0  0  0  0  0  0  0  0
  1  2  1  0
  2  3  1  0
  2  4  1  0
  4  5  1  0
  4  6  1  0
  6  7  1  0
  7  8  1  0
  8  9  1  0
  9 10  2  0
  9 11  1  0
 11 12  2  0
 12 13  1  0
 13 14  2  0
 14 15  1  0
 15 16  2  0
 16 17  1  0
 16 11  1  0
  1 18  1  0
  1 19  1  0
  1 20  1  0
  2 21  1  0
  3 22  1  0
  3 23  1  0
  3 24  1  0
  5 25  1  0
  5 26  1  0
  5 27  1  0
  6 28  1  0
  6 29  1  0
  7 30  1  0
  7 31  1  0
 12 32  1  0
 13 33  1  0
 14 34  1  0
 15 35  1  0
M  END
$$$$
