
     RDKit          3D

 58 63  0  0  0  0  0  0  0  0999 V2000
    7.6744   -2.0018   -0.0075 C   0  0  0  0  0  0  0  0  0  0  0  0
    6.3260   -1.6343    0.5098 C   0  0  0  0  0  0  0  0  0  0  0  0
    5.2250   -2.4441    0.6922 C   0  0  0  0  0  0  0  0  0  0  0  0
    4.1117   -1.7275    1.2204 C   0  0  0  0  0  0  0  0  0  0  0  0
    4.3896   -0.3861    1.4070 C   0  0  0  0  0  0  0  0  0  0  0  0
    3.5382    0.6727    1.9297 C   0  0  0  0  0  0  0  0  0  0  0  0
    3.9246    1.4530    2.8007 O   0  0  0  0  0  0  0  0  0  0  0  0
    2.2297    0.7664    1.4254 N   0  0  0  0  0  0  0  0  0  0  0  0
    1.3275    1.7187    2.0658 C   0  0  0  0  0  0  0  0  0  0  0  0
   -0.1277    1.3975    1.7488 C   0  0  0  0  0  0  0  0  0  0  0  0
   -0.4059    1.5180    0.2268 C   0  0  0  0  0  0  0  0  0  0  0  0
    0.8391    1.0921   -0.6011 C   0  0  0  0  0  0  0  0  0  0  0  0
    1.7998    0.1806    0.1582 C   0  0  0  0  0  0  0  0  0  0  0  0
   -0.5690    2.9552    0.0432 O   0  0  0  0  0  0  0  0  0  0  0  0
   -1.2315    3.3906   -1.0642 C   0  0  0  0  0  0  0  0  0  0  0  0
   -1.1381    4.7557   -1.3365 C   0  0  0  0  0  0  0  0  0  0  0  0
   -1.7664    5.2914   -2.4635 C   0  0  0  0  0  0  0  0  0  0  0  0
   -2.4908    4.4584   -3.3157 C   0  0  0  0  0  0  0  0  0  0  0  0
   -3.2567    5.1193   -4.7064 Cl  0  0  0  0  0  0  0  0  0  0  0  0
   -2.5992    3.0970   -3.0463 C   0  0  0  0  0  0  0  0  0  0  0  0
   -1.9739    2.5747   -1.9093 C   0  0  0  0  0  0  0  0  0  0  0  0
   -2.0848    1.1472   -1.5873 C   0  0  0  0  0  0  0  0  0  0  0  0
   -2.4501    0.3558   -2.4529 O   0  0  0  0  0  0  0  0  0  0  0  0
   -1.6994    0.7486   -0.1659 C   0  0  0  0  0  0  0  0  0  0  0  0
   -1.6285   -0.7661   -0.0289 C   0  0  0  0  0  0  0  0  0  0  0  0
   -3.0100   -1.0139    0.4767 C   0  0  0  0  0  0  0  0  0  0  0  0
   -3.6008   -2.3723    0.5238 C   0  0  0  0  0  0  0  0  0  0  0  0
   -2.8672   -3.5053    0.1539 C   0  0  0  0  0  0  0  0  0  0  0  0
   -3.4563   -4.7713    0.2157 C   0  0  0  0  0  0  0  0  0  0  0  0
   -4.7748   -4.9108    0.6469 C   0  0  0  0  0  0  0  0  0  0  0  0
   -5.5091   -3.7862    1.0181 C   0  0  0  0  0  0  0  0  0  0  0  0
   -4.9244   -2.5198    0.9576 C   0  0  0  0  0  0  0  0  0  0  0  0
   -3.6275    0.0423    0.9022 N   0  0  0  0  0  0  0  0  0  0  0  0
   -2.7756    1.1487    0.6980 O   0  0  0  0  0  0  0  0  0  0  0  0
    6.0078   -0.0213    0.9841 S   0  0  0  0  0  0  0  0  0  0  0  0
    8.4454   -1.8090    0.7458 H   0  0  0  0  0  0  0  0  0  0  0  0
    7.9142   -1.4282   -0.9088 H   0  0  0  0  0  0  0  0  0  0  0  0
    7.7174   -3.0650   -0.2662 H   0  0  0  0  0  0  0  0  0  0  0  0
    5.2208   -3.5051    0.4711 H   0  0  0  0  0  0  0  0  0  0  0  0
    3.1583   -2.1791    1.4647 H   0  0  0  0  0  0  0  0  0  0  0  0
    1.4855    1.6905    3.1501 H   0  0  0  0  0  0  0  0  0  0  0  0
    1.5979    2.7239    1.7211 H   0  0  0  0  0  0  0  0  0  0  0  0
   -0.3434    0.3908    2.1212 H   0  0  0  0  0  0  0  0  0  0  0  0
   -0.7691    2.0897    2.3088 H   0  0  0  0  0  0  0  0  0  0  0  0
    0.5435    0.5945   -1.5318 H   0  0  0  0  0  0  0  0  0  0  0  0
    1.3975    1.9866   -0.9106 H   0  0  0  0  0  0  0  0  0  0  0  0
    2.6649   -0.0218   -0.4806 H   0  0  0  0  0  0  0  0  0  0  0  0
    1.3222   -0.7771    0.3868 H   0  0  0  0  0  0  0  0  0  0  0  0
   -0.5699    5.4051   -0.6741 H   0  0  0  0  0  0  0  0  0  0  0  0
   -1.6857    6.3558   -2.6704 H   0  0  0  0  0  0  0  0  0  0  0  0
   -3.1721    2.4486   -3.7052 H   0  0  0  0  0  0  0  0  0  0  0  0
   -1.4156   -1.2902   -0.9631 H   0  0  0  0  0  0  0  0  0  0  0  0
   -0.9316   -1.1095    0.7385 H   0  0  0  0  0  0  0  0  0  0  0  0
   -1.8388   -3.4333   -0.1849 H   0  0  0  0  0  0  0  0  0  0  0  0
   -2.8870   -5.6513   -0.0743 H   0  0  0  0  0  0  0  0  0  0  0  0
   -5.2316   -5.8965    0.6928 H   0  0  0  0  0  0  0  0  0  0  0  0
   -6.5378   -3.8923    1.3537 H   0  0  0  0  0  0  0  0  0  0  0  0
   -5.5104   -1.6502    1.2491 H   0  0  0  0  0  0  0  0  0  0  0  0
  1  2  1  0
  2  3  2  0
  3  4  1  0
  4  5  2  0
  5  6  1  0
  6  7  2  0
  6  8  1  0
  8  9  1  0
  9 10  1  0
 10 11  1  0
 11 12  1  0
 12 13  1  0
 11 14  1  0
 14 15  1  0
 15 16  2  0
 16 17  1  0
 17 18  2  0
 18 19  1  0
 18 20  1  0
 20 21  2  0
 21 22  1  0
 22 23  2  0
 22 24  1  0
 24 25  1  0
 25 26  1  0
 26 27  1  0
 27 28  2  0
 28 29  1  0
 29 30  2  0
 30 31  1  0
 31 32  2  0
 26 33  2  0
 33 34  1  0
  5 35  1  0
 35  2  1  0
 13  8  1  0
 21 15  1  0
 34 24  1  0
 24 11  1  0
 32 27  1  0
  1 36  1  0
  1 37  1  0
  1 38  1  0
  3 39  1  0
  4 40  1  0
  9 41  1  0
  9 42  1  0
 10 43  1  0
 10 44  1  0
 12 45  1  0
 12 46  1  0
 13 47  1  0
 13 48  1  0
 16 49  1  0
 17 50  1  0
 20 51  1  0
 25 52  1  0
 25 53  1  0
 28 54  1  0
 29 55  1  0
 30 56  1  0
 31 57  1  0
 32 58  1  0
M  END
$$$$
