
     RDKit          3D

 46 49  0  0  0  0  0  0  0  0999 V2000
    2.8303    1.2139   -2.3770 O   0  0  0  0  0  0  0  0  0  0  0  0
    2.7165    1.6359   -1.2282 C   0  0  0  0  0  0  0  0  0  0  0  0
    2.5434    3.1247   -0.9580 C   0  0  0  0  0  0  0  0  0  0  0  0
    0.7798    3.5735   -1.0056 S   0  0  0  0  0  0  0  0  0  0  0  0
    0.2174    2.7805    0.4225 C   0  0  0  0  0  0  0  0  0  0  0  0
    0.9603    2.4886    1.4658 N   0  0  0  0  0  0  0  0  0  0  0  0
    0.1871    1.7733    2.3394 N   0  0  0  0  0  0  0  0  0  0  0  0
   -1.0199    1.6459    1.8175 C   0  0  0  0  0  0  0  0  0  0  0  0
   -2.1666    0.9221    2.4512 C   0  0  0  0  0  0  0  0  0  0  0  0
   -2.3170   -0.4878    1.9551 C   0  0  0  0  0  0  0  0  0  0  0  0
   -1.3458   -1.4601    1.8069 C   0  0  0  0  0  0  0  0  0  0  0  0
   -1.8707   -2.6862    1.3126 C   0  0  0  0  0  0  0  0  0  0  0  0
   -3.2314   -2.6208    1.1160 C   0  0  0  0  0  0  0  0  0  0  0  0
   -3.8638   -1.0839    1.5193 S   0  0  0  0  0  0  0  0  0  0  0  0
   -1.0424    2.2794    0.5909 N   0  0  0  0  0  0  0  0  0  0  0  0
   -2.1632    2.3832   -0.3241 C   0  0  0  0  0  0  0  0  0  0  0  0
   -2.2744    1.1927   -1.2043 C   0  0  0  0  0  0  0  0  0  0  0  0
   -1.3767    0.2912   -1.7444 C   0  0  0  0  0  0  0  0  0  0  0  0
   -2.1423   -0.6361   -2.4927 C   0  0  0  0  0  0  0  0  0  0  0  0
   -3.4515   -0.2359   -2.3790 C   0  0  0  0  0  0  0  0  0  0  0  0
   -3.5409    0.8771   -1.6075 O   0  0  0  0  0  0  0  0  0  0  0  0
    2.6990    0.8681   -0.0748 N   0  0  0  0  0  0  0  0  0  0  0  0
    2.8253   -0.5300    0.0322 C   0  0  0  0  0  0  0  0  0  0  0  0
    2.5982   -1.0898    1.2970 C   0  0  0  0  0  0  0  0  0  0  0  0
    2.6977   -2.4691    1.4959 C   0  0  0  0  0  0  0  0  0  0  0  0
    3.0353   -3.2943    0.4272 C   0  0  0  0  0  0  0  0  0  0  0  0
    3.1758   -5.1600    0.6898 Br  0  0  0  0  0  0  0  0  0  0  0  0
    3.2719   -2.7499   -0.8330 C   0  0  0  0  0  0  0  0  0  0  0  0
    3.1683   -1.3683   -1.0287 C   0  0  0  0  0  0  0  0  0  0  0  0
    2.9991    3.4070   -0.0039 H   0  0  0  0  0  0  0  0  0  0  0  0
    3.0699    3.6782   -1.7412 H   0  0  0  0  0  0  0  0  0  0  0  0
   -1.9944    0.8835    3.5365 H   0  0  0  0  0  0  0  0  0  0  0  0
   -3.0900    1.4961    2.3156 H   0  0  0  0  0  0  0  0  0  0  0  0
   -0.3019   -1.2942    2.0378 H   0  0  0  0  0  0  0  0  0  0  0  0
   -1.2804   -3.5731    1.1167 H   0  0  0  0  0  0  0  0  0  0  0  0
   -3.8870   -3.4024    0.7534 H   0  0  0  0  0  0  0  0  0  0  0  0
   -2.0529    3.2919   -0.9222 H   0  0  0  0  0  0  0  0  0  0  0  0
   -3.0687    2.5176    0.2772 H   0  0  0  0  0  0  0  0  0  0  0  0
   -0.3021    0.2845   -1.6112 H   0  0  0  0  0  0  0  0  0  0  0  0
   -1.7789   -1.4921   -3.0454 H   0  0  0  0  0  0  0  0  0  0  0  0
   -4.3892   -0.6165   -2.7593 H   0  0  0  0  0  0  0  0  0  0  0  0
    2.4096    1.3476    0.7808 H   0  0  0  0  0  0  0  0  0  0  0  0
    2.3294   -0.4597    2.1423 H   0  0  0  0  0  0  0  0  0  0  0  0
    2.5135   -2.8837    2.4841 H   0  0  0  0  0  0  0  0  0  0  0  0
    3.5532   -3.3837   -1.6693 H   0  0  0  0  0  0  0  0  0  0  0  0
    3.3710   -0.9789   -2.0225 H   0  0  0  0  0  0  0  0  0  0  0  0
  1  2  2  0
  2  3  1  0
  3  4  1  0
  4  5  1  0
  5  6  2  0
  6  7  1  0
  7  8  2  0
  8  9  1  0
  9 10  1  0
 10 11  2  0
 11 12  1  0
 12 13  2  0
 13 14  1  0
  8 15  1  0
 15 16  1  0
 16 17  1  0
 17 18  2  0
 18 19  1  0
 19 20  2  0
 20 21  1  0
  2 22  1  0
 22 23  1  0
 23 24  2  0
 24 25  1  0
 25 26  2  0
 26 27  1  0
 26 28  1  0
 28 29  2  0
 15  5  1  0
 21 17  1  0
 29 23  1  0
 14 10  1  0
  3 30  1  0
  3 31  1  0
  9 32  1  0
  9 33  1  0
 11 34  1  0
 12 35  1  0
 13 36  1  0
 16 37  1  0
 16 38  1  0
 18 39  1  0
 19 40  1  0
 20 41  1  0
 22 42  1  0
 24 43  1  0
 25 44  1  0
 28 45  1  0
 29 46  1  0
M  END
$$$$
