
     RDKit          3D

 36 39  0  0  0  0  0  0  0  0999 V2000
   -6.1323   -0.6063    1.8901 C   0  0  0  0  0  0  0  0  0  0  0  0
   -4.8920   -0.5830    1.0468 C   0  0  0  0  0  0  0  0  0  0  0  0
   -3.8020   -1.0013    1.4122 O   0  0  0  0  0  0  0  0  0  0  0  0
   -5.2023   -0.0186   -0.1874 O   0  0  0  0  0  0  0  0  0  0  0  0
   -4.1562    0.0961   -1.1151 C   0  0  0  0  0  0  0  0  0  0  0  0
   -4.3804   -0.4229   -2.3889 C   0  0  0  0  0  0  0  0  0  0  0  0
   -3.3929   -0.2948   -3.3645 C   0  0  0  0  0  0  0  0  0  0  0  0
   -2.1947    0.3587   -3.0648 C   0  0  0  0  0  0  0  0  0  0  0  0
   -1.9821    0.8937   -1.7881 C   0  0  0  0  0  0  0  0  0  0  0  0
   -0.7205    1.5667   -1.4746 C   0  0  0  0  0  0  0  0  0  0  0  0
    0.3405    0.9740   -0.9093 C   0  0  0  0  0  0  0  0  0  0  0  0
    0.4816   -0.7091   -0.4329 S   0  0  0  0  0  0  0  0  0  0  0  0
    2.0774   -0.4102    0.1186 C   0  0  0  0  0  0  0  0  0  0  0  0
    3.0203   -1.1246    0.6618 N   0  0  0  0  0  0  0  0  0  0  0  0
    4.0246   -0.1782    0.8192 C   0  0  0  0  0  0  0  0  0  0  0  0
    5.4085   -0.5380    1.4518 C   0  0  0  0  0  0  0  0  0  0  0  0
    5.7768   -1.7890    1.9089 C   0  0  0  0  0  0  0  0  0  0  0  0
    7.0997   -1.6712    2.4001 C   0  0  0  0  0  0  0  0  0  0  0  0
    7.4587   -0.3577    2.2121 C   0  0  0  0  0  0  0  0  0  0  0  0
    6.4430    0.3367    1.6385 O   0  0  0  0  0  0  0  0  0  0  0  0
    3.7189    1.0627    0.3872 N   0  0  0  0  0  0  0  0  0  0  0  0
    2.4650    0.8695   -0.0519 N   0  0  0  0  0  0  0  0  0  0  0  0
    1.5799    1.7585   -0.6230 C   0  0  0  0  0  0  0  0  0  0  0  0
    1.8192    2.9345   -0.8272 O   0  0  0  0  0  0  0  0  0  0  0  0
   -2.9750    0.7729   -0.8109 C   0  0  0  0  0  0  0  0  0  0  0  0
   -6.4938    0.4131    2.0467 H   0  0  0  0  0  0  0  0  0  0  0  0
   -5.8999   -1.0470    2.8640 H   0  0  0  0  0  0  0  0  0  0  0  0
   -6.8983   -1.2165    1.4055 H   0  0  0  0  0  0  0  0  0  0  0  0
   -5.3145   -0.9259   -2.6211 H   0  0  0  0  0  0  0  0  0  0  0  0
   -3.5550   -0.7033   -4.3591 H   0  0  0  0  0  0  0  0  0  0  0  0
   -1.4317    0.4463   -3.8356 H   0  0  0  0  0  0  0  0  0  0  0  0
   -0.6882    2.6241   -1.7349 H   0  0  0  0  0  0  0  0  0  0  0  0
    5.1561   -2.6742    1.8878 H   0  0  0  0  0  0  0  0  0  0  0  0
    7.7146   -2.4456    2.8367 H   0  0  0  0  0  0  0  0  0  0  0  0
    8.3529    0.2131    2.4208 H   0  0  0  0  0  0  0  0  0  0  0  0
   -2.8257    1.1911    0.1806 H   0  0  0  0  0  0  0  0  0  0  0  0
  1  2  1  0
  2  3  2  0
  2  4  1  0
  4  5  1  0
  5  6  2  0
  6  7  1  0
  7  8  2  0
  8  9  1  0
  9 10  1  0
 10 11  2  3
 11 12  1  0
 12 13  1  0
 13 14  2  0
 14 15  1  0
 15 16  1  0
 16 17  2  0
 17 18  1  0
 18 19  2  0
 19 20  1  0
 15 21  2  0
 21 22  1  0
 22 23  1  0
 23 24  2  0
  9 25  2  0
 25  5  1  0
 23 11  1  0
 22 13  1  0
 20 16  1  0
  1 26  1  0
  1 27  1  0
  1 28  1  0
  6 29  1  0
  7 30  1  0
  8 31  1  0
 10 32  1  0
 17 33  1  0
 18 34  1  0
 19 35  1  0
 25 36  1  0
M  END
$$$$
