
     RDKit          3D

 54 57  0  0  0  0  0  0  0  0999 V2000
    0.2981    2.1111    3.5268 O   0  0  0  0  0  0  0  0  0  0  0  0
    0.2228    2.4779    2.3521 C   0  0  0  0  0  0  0  0  0  0  0  0
   -0.9603    3.3222    1.8673 C   0  0  0  0  0  0  0  0  0  0  0  0
   -2.0828    2.5165    1.5137 O   0  0  0  0  0  0  0  0  0  0  0  0
   -1.9676    1.8577    0.3364 C   0  0  0  0  0  0  0  0  0  0  0  0
   -1.0342    1.9557   -0.4400 O   0  0  0  0  0  0  0  0  0  0  0  0
   -3.1326    0.9568    0.1223 C   0  0  0  0  0  0  0  0  0  0  0  0
   -3.1587    0.1592   -1.0321 C   0  0  0  0  0  0  0  0  0  0  0  0
   -4.2197   -0.7240   -1.2576 C   0  0  0  0  0  0  0  0  0  0  0  0
   -5.2570   -0.8134   -0.3310 C   0  0  0  0  0  0  0  0  0  0  0  0
   -5.2518    0.0051    0.8029 C   0  0  0  0  0  0  0  0  0  0  0  0
   -4.1880    0.8751    1.0408 C   0  0  0  0  0  0  0  0  0  0  0  0
   -6.2564    0.0041    1.7368 O   0  0  0  0  0  0  0  0  0  0  0  0
   -7.4265   -0.6591    1.2480 C   0  0  0  0  0  0  0  0  0  0  0  0
   -7.0569   -1.9670    0.5645 C   0  0  0  0  0  0  0  0  0  0  0  0
   -6.2516   -1.7190   -0.5972 O   0  0  0  0  0  0  0  0  0  0  0  0
    1.1187    2.1894    1.3366 N   0  0  0  0  0  0  0  0  0  0  0  0
    2.3154    1.4542    1.4240 C   0  0  0  0  0  0  0  0  0  0  0  0
    2.7946    0.8733    2.6007 C   0  0  0  0  0  0  0  0  0  0  0  0
    3.9946    0.1520    2.6003 C   0  0  0  0  0  0  0  0  0  0  0  0
    4.7282    0.0031    1.4215 C   0  0  0  0  0  0  0  0  0  0  0  0
    4.2418    0.5675    0.2436 C   0  0  0  0  0  0  0  0  0  0  0  0
    5.1837    0.4200   -1.2614 S   0  0  0  0  0  6  0  0  0  0  0  0
    6.5127   -0.0357   -0.9004 O   0  0  0  0  0  0  0  0  0  0  0  0
    4.9888    1.6432   -2.0102 O   0  0  0  0  0  0  0  0  0  0  0  0
    4.4173   -0.8385   -2.0931 N   0  0  0  0  0  0  0  0  0  0  0  0
    3.1373   -0.5370   -2.7879 C   0  0  0  0  0  0  0  0  0  0  0  0
    2.5270   -1.8264   -3.3441 C   0  0  0  0  0  0  0  0  0  0  0  0
    2.1965   -2.7703   -2.3168 O   0  0  0  0  0  0  0  0  0  0  0  0
    3.0733   -2.7183   -1.1822 C   0  0  0  0  0  0  0  0  0  0  0  0
    4.4799   -2.2089   -1.5139 C   0  0  0  0  0  0  0  0  0  0  0  0
    3.0546    1.3097    0.2453 C   0  0  0  0  0  0  0  0  0  0  0  0
   -0.6687    3.9761    1.0361 H   0  0  0  0  0  0  0  0  0  0  0  0
   -1.2621    3.9837    2.6888 H   0  0  0  0  0  0  0  0  0  0  0  0
   -2.3508    0.2155   -1.7567 H   0  0  0  0  0  0  0  0  0  0  0  0
   -4.2277   -1.3485   -2.1489 H   0  0  0  0  0  0  0  0  0  0  0  0
   -4.2013    1.4841    1.9402 H   0  0  0  0  0  0  0  0  0  0  0  0
   -7.9488    0.0203    0.5608 H   0  0  0  0  0  0  0  0  0  0  0  0
   -8.0820   -0.8492    2.1067 H   0  0  0  0  0  0  0  0  0  0  0  0
   -6.5029   -2.6303    1.2415 H   0  0  0  0  0  0  0  0  0  0  0  0
   -7.9602   -2.4913    0.2367 H   0  0  0  0  0  0  0  0  0  0  0  0
    0.8133    2.4426    0.4017 H   0  0  0  0  0  0  0  0  0  0  0  0
    2.2521    0.9587    3.5424 H   0  0  0  0  0  0  0  0  0  0  0  0
    4.3574   -0.2854    3.5279 H   0  0  0  0  0  0  0  0  0  0  0  0
    5.6703   -0.5421    1.4366 H   0  0  0  0  0  0  0  0  0  0  0  0
    3.3273    0.1601   -3.6091 H   0  0  0  0  0  0  0  0  0  0  0  0
    2.4279   -0.0884   -2.0904 H   0  0  0  0  0  0  0  0  0  0  0  0
    1.6018   -1.6054   -3.8929 H   0  0  0  0  0  0  0  0  0  0  0  0
    3.2167   -2.3150   -4.0464 H   0  0  0  0  0  0  0  0  0  0  0  0
    3.1258   -3.7280   -0.7630 H   0  0  0  0  0  0  0  0  0  0  0  0
    2.6023   -2.0764   -0.4286 H   0  0  0  0  0  0  0  0  0  0  0  0
    5.1038   -2.2421   -0.6177 H   0  0  0  0  0  0  0  0  0  0  0  0
    4.9484   -2.8578   -2.2612 H   0  0  0  0  0  0  0  0  0  0  0  0
    2.7163    1.7825   -0.6739 H   0  0  0  0  0  0  0  0  0  0  0  0
  1  2  2  0
  2  3  1  0
  3  4  1  0
  4  5  1  0
  5  6  2  0
  5  7  1  0
  7  8  2  0
  8  9  1  0
  9 10  2  0
 10 11  1  0
 11 12  2  0
 11 13  1  0
 13 14  1  0
 14 15  1  0
 15 16  1  0
  2 17  1  0
 17 18  1  0
 18 19  2  0
 19 20  1  0
 20 21  2  0
 21 22  1  0
 22 23  1  0
 23 24  2  0
 23 25  2  0
 23 26  1  0
 26 27  1  0
 27 28  1  0
 28 29  1  0
 29 30  1  0
 30 31  1  0
 22 32  2  0
 12  7  1  0
 32 18  1  0
 16 10  1  0
 31 26  1  0
  3 33  1  0
  3 34  1  0
  8 35  1  0
  9 36  1  0
 12 37  1  0
 14 38  1  0
 14 39  1  0
 15 40  1  0
 15 41  1  0
 17 42  1  0
 19 43  1  0
 20 44  1  0
 21 45  1  0
 27 46  1  0
 27 47  1  0
 28 48  1  0
 28 49  1  0
 30 50  1  0
 30 51  1  0
 31 52  1  0
 31 53  1  0
 32 54  1  0
M  END
$$$$
