
     RDKit          3D

 59 63  0  0  0  0  0  0  0  0999 V2000
   -4.7656   -4.3151   -0.6601 C   0  0  0  0  0  0  0  0  0  0  0  0
   -4.8089   -2.8764   -1.1588 C   0  0  0  0  0  0  0  0  0  0  0  0
   -3.4297   -2.1974   -1.1451 C   0  0  0  0  0  0  0  0  0  0  0  0
   -3.4697   -1.0390   -2.0398 N   0  0  0  0  0  0  0  0  0  0  0  0
   -2.2371   -0.3755   -2.0822 C   0  0  0  0  0  0  0  0  0  0  0  0
   -1.9360    0.1786   -3.2626 N   0  0  0  0  0  0  0  0  0  0  0  0
   -0.8045    0.8794   -3.2933 C   0  0  0  0  0  0  0  0  0  0  0  0
    0.0641    1.0205   -2.2851 N   0  0  0  0  0  0  0  0  0  0  0  0
   -0.2246    0.4154   -1.1143 C   0  0  0  0  0  0  0  0  0  0  0  0
    0.7795    0.4145   -0.1281 N   0  0  0  0  0  0  0  0  0  0  0  0
    1.7002    1.5796   -0.1555 C   0  0  0  0  0  0  0  0  0  0  0  0
    2.8486    1.4654   -1.1893 C   0  0  0  0  0  0  0  0  0  0  0  0
    3.5592    0.1687   -1.1078 N   0  0  0  0  0  0  0  0  0  0  0  0
    4.5541    0.1028   -0.1226 C   0  0  0  0  0  0  0  0  0  0  0  0
    5.6569    0.9528   -0.2029 C   0  0  0  0  0  0  0  0  0  0  0  0
    6.6757    0.8723    0.7462 C   0  0  0  0  0  0  0  0  0  0  0  0
    6.5782   -0.0651    1.7615 C   0  0  0  0  0  0  0  0  0  0  0  0
    5.4642   -0.8793    1.7763 C   0  0  0  0  0  0  0  0  0  0  0  0
    4.4683   -0.8171    0.8626 N   0  0  0  0  0  0  0  0  0  0  0  0
    2.6298   -0.9814   -1.1365 C   0  0  0  0  0  0  0  0  0  0  0  0
    1.5143   -0.8789   -0.0717 C   0  0  0  0  0  0  0  0  0  0  0  0
   -1.4356   -0.2708   -0.9360 C   0  0  0  0  0  0  0  0  0  0  0  0
   -1.9298   -0.8344    0.2991 N   0  0  0  0  0  0  0  0  0  0  0  0
   -1.5055   -0.3079    1.5968 C   0  0  0  0  0  0  0  0  0  0  0  0
   -1.7607    1.1749    1.8031 C   0  0  0  0  0  0  0  0  0  0  0  0
   -2.9156    1.8063    1.3182 C   0  0  0  0  0  0  0  0  0  0  0  0
   -3.1216    3.1730    1.5209 C   0  0  0  0  0  0  0  0  0  0  0  0
   -2.1800    3.9139    2.2312 C   0  0  0  0  0  0  0  0  0  0  0  0
   -2.4480    5.7653    2.4995 Br  0  0  0  0  0  0  0  0  0  0  0  0
   -1.0429    3.2994    2.7524 C   0  0  0  0  0  0  0  0  0  0  0  0
   -0.8393    1.9342    2.5436 C   0  0  0  0  0  0  0  0  0  0  0  0
   -3.0077   -1.7316    0.2726 C   0  0  0  0  0  0  0  0  0  0  0  0
   -3.5335   -2.1780    1.2926 O   0  0  0  0  0  0  0  0  0  0  0  0
   -4.0760   -4.9176   -1.2597 H   0  0  0  0  0  0  0  0  0  0  0  0
   -5.7602   -4.7671   -0.7353 H   0  0  0  0  0  0  0  0  0  0  0  0
   -4.4506   -4.3740    0.3859 H   0  0  0  0  0  0  0  0  0  0  0  0
   -5.5237   -2.3048   -0.5547 H   0  0  0  0  0  0  0  0  0  0  0  0
   -5.2056   -2.8920   -2.1816 H   0  0  0  0  0  0  0  0  0  0  0  0
   -2.6739   -2.9110   -1.5024 H   0  0  0  0  0  0  0  0  0  0  0  0
   -3.7738   -1.1995   -2.9952 H   0  0  0  0  0  0  0  0  0  0  0  0
   -0.5549    1.3686   -4.2285 H   0  0  0  0  0  0  0  0  0  0  0  0
    1.1422    2.5116   -0.3117 H   0  0  0  0  0  0  0  0  0  0  0  0
    2.1443    1.6616    0.8454 H   0  0  0  0  0  0  0  0  0  0  0  0
    3.5278    2.3161   -1.0624 H   0  0  0  0  0  0  0  0  0  0  0  0
    2.4582    1.5623   -2.2071 H   0  0  0  0  0  0  0  0  0  0  0  0
    5.7449    1.6581   -1.0227 H   0  0  0  0  0  0  0  0  0  0  0  0
    7.5390    1.5275    0.6805 H   0  0  0  0  0  0  0  0  0  0  0  0
    7.3514   -0.1631    2.5142 H   0  0  0  0  0  0  0  0  0  0  0  0
    5.3378   -1.6382    2.5442 H   0  0  0  0  0  0  0  0  0  0  0  0
    3.1687   -1.9315   -1.0359 H   0  0  0  0  0  0  0  0  0  0  0  0
    2.1697   -1.0103   -2.1323 H   0  0  0  0  0  0  0  0  0  0  0  0
    1.9408   -0.9668    0.9333 H   0  0  0  0  0  0  0  0  0  0  0  0
    0.8316   -1.7314   -0.1792 H   0  0  0  0  0  0  0  0  0  0  0  0
   -0.4539   -0.5606    1.7506 H   0  0  0  0  0  0  0  0  0  0  0  0
   -2.0348   -0.8261    2.4057 H   0  0  0  0  0  0  0  0  0  0  0  0
   -3.6671    1.2395    0.7682 H   0  0  0  0  0  0  0  0  0  0  0  0
   -4.0176    3.6461    1.1214 H   0  0  0  0  0  0  0  0  0  0  0  0
   -0.3130    3.8712    3.3207 H   0  0  0  0  0  0  0  0  0  0  0  0
    0.0522    1.4626    2.9536 H   0  0  0  0  0  0  0  0  0  0  0  0
  1  2  1  0
  2  3  1  0
  3  4  1  0
  4  5  1  0
  5  6  2  0
  6  7  1  0
  7  8  2  0
  8  9  1  0
  9 10  1  0
 10 11  1  0
 11 12  1  0
 12 13  1  0
 13 14  1  0
 14 15  2  0
 15 16  1  0
 16 17  2  0
 17 18  1  0
 18 19  2  0
 13 20  1  0
 20 21  1  0
  9 22  2  0
 22 23  1  0
 23 24  1  0
 24 25  1  0
 25 26  2  0
 26 27  1  0
 27 28  2  0
 28 29  1  0
 28 30  1  0
 30 31  2  0
 23 32  1  0
 32 33  2  0
 32  3  1  0
 22  5  1  0
 31 25  1  0
 21 10  1  0
 19 14  1  0
  1 34  1  0
  1 35  1  0
  1 36  1  0
  2 37  1  0
  2 38  1  0
  3 39  1  0
  4 40  1  0
  7 41  1  0
 11 42  1  0
 11 43  1  0
 12 44  1  0
 12 45  1  0
 15 46  1  0
 16 47  1  0
 17 48  1  0
 18 49  1  0
 20 50  1  0
 20 51  1  0
 21 52  1  0
 21 53  1  0
 24 54  1  0
 24 55  1  0
 26 56  1  0
 27 57  1  0
 30 58  1  0
 31 59  1  0
M  END
$$$$
