
     RDKit          3D

 54 57  0  0  0  0  0  0  0  0999 V2000
    5.0438    1.9827    3.9813 C   0  0  0  0  0  0  0  0  0  0  0  0
    4.2789    1.5559    2.7390 C   0  0  0  0  0  0  0  0  0  0  0  0
    4.1267    0.0452    2.6421 C   0  0  0  0  0  0  0  0  0  0  0  0
    4.6794   -0.7119    3.4392 O   0  0  0  0  0  0  0  0  0  0  0  0
    3.3372   -0.4311    1.6057 N   0  0  0  0  0  0  0  0  0  0  0  0
    3.1018   -1.8753    1.4904 C   0  0  0  0  0  0  0  0  0  0  0  0
    1.6747   -2.2010    1.0171 C   0  0  0  0  0  0  0  0  0  0  0  0
    1.2907   -1.4815   -0.2271 N   0  0  0  0  0  0  0  0  0  0  0  0
    1.0187   -2.3290   -1.3355 C   0  0  0  0  0  0  0  0  0  0  0  0
    1.9347   -3.2868   -1.7932 C   0  0  0  0  0  0  0  0  0  0  0  0
    1.6355   -4.0723   -2.9076 C   0  0  0  0  0  0  0  0  0  0  0  0
    0.4215   -3.9027   -3.5719 C   0  0  0  0  0  0  0  0  0  0  0  0
    0.0676   -4.8799   -4.9449 Cl  0  0  0  0  0  0  0  0  0  0  0  0
   -0.5047   -2.9556   -3.1378 C   0  0  0  0  0  0  0  0  0  0  0  0
   -0.2111   -2.1687   -2.0243 C   0  0  0  0  0  0  0  0  0  0  0  0
   -1.0838   -1.1984   -1.4885 N   0  0  0  0  0  0  0  0  0  0  0  0
   -2.2931   -0.7672   -1.9847 C   0  0  0  0  0  0  0  0  0  0  0  0
   -2.8111   -1.1074   -3.0412 O   0  0  0  0  0  0  0  0  0  0  0  0
   -2.9880    0.2463   -1.1414 C   0  0  0  0  0  0  0  0  0  0  0  0
   -2.9118    0.2175    0.2595 C   0  0  0  0  0  0  0  0  0  0  0  0
   -3.5808    1.1835    1.0154 C   0  0  0  0  0  0  0  0  0  0  0  0
   -4.3318    2.1684    0.3765 C   0  0  0  0  0  0  0  0  0  0  0  0
   -4.3996    2.2058   -1.0204 C   0  0  0  0  0  0  0  0  0  0  0  0
   -3.7475    1.2355   -1.7787 C   0  0  0  0  0  0  0  0  0  0  0  0
   -5.0964    3.1631   -1.7122 O   0  0  0  0  0  0  0  0  0  0  0  0
   -5.4413    4.2715   -0.8735 C   0  0  0  0  0  0  0  0  0  0  0  0
   -5.9847    3.7870    0.4605 C   0  0  0  0  0  0  0  0  0  0  0  0
   -4.9777    3.0691    1.1840 O   0  0  0  0  0  0  0  0  0  0  0  0
    2.2009   -0.3772   -0.6241 C   0  0  0  0  0  0  0  0  0  0  0  0
    2.6709    0.4161    0.6078 C   0  0  0  0  0  0  0  0  0  0  0  0
    5.1259    3.0732    4.0218 H   0  0  0  0  0  0  0  0  0  0  0  0
    4.5372    1.6432    4.8907 H   0  0  0  0  0  0  0  0  0  0  0  0
    6.0557    1.5641    3.9839 H   0  0  0  0  0  0  0  0  0  0  0  0
    4.8179    1.9110    1.8547 H   0  0  0  0  0  0  0  0  0  0  0  0
    3.2850    2.0148    2.7598 H   0  0  0  0  0  0  0  0  0  0  0  0
    3.8363   -2.2574    0.7717 H   0  0  0  0  0  0  0  0  0  0  0  0
    3.2909   -2.3735    2.4471 H   0  0  0  0  0  0  0  0  0  0  0  0
    1.5494   -3.2872    0.9283 H   0  0  0  0  0  0  0  0  0  0  0  0
    0.9708   -1.8757    1.7937 H   0  0  0  0  0  0  0  0  0  0  0  0
    2.8914   -3.4223   -1.2977 H   0  0  0  0  0  0  0  0  0  0  0  0
    2.3529   -4.8109   -3.2556 H   0  0  0  0  0  0  0  0  0  0  0  0
   -1.4437   -2.8526   -3.6711 H   0  0  0  0  0  0  0  0  0  0  0  0
   -0.6940   -0.7569   -0.6605 H   0  0  0  0  0  0  0  0  0  0  0  0
   -2.3659   -0.5674    0.7767 H   0  0  0  0  0  0  0  0  0  0  0  0
   -3.5357    1.1559    2.1011 H   0  0  0  0  0  0  0  0  0  0  0  0
   -3.8208    1.2572   -2.8636 H   0  0  0  0  0  0  0  0  0  0  0  0
   -4.5503    4.8975   -0.7400 H   0  0  0  0  0  0  0  0  0  0  0  0
   -6.1982    4.8623   -1.3989 H   0  0  0  0  0  0  0  0  0  0  0  0
   -6.8536    3.1305    0.3266 H   0  0  0  0  0  0  0  0  0  0  0  0
   -6.2917    4.6382    1.0762 H   0  0  0  0  0  0  0  0  0  0  0  0
    1.6774    0.3022   -1.3077 H   0  0  0  0  0  0  0  0  0  0  0  0
    3.0835   -0.7672   -1.1489 H   0  0  0  0  0  0  0  0  0  0  0  0
    1.8109    0.8785    1.1066 H   0  0  0  0  0  0  0  0  0  0  0  0
    3.3492    1.2147    0.2937 H   0  0  0  0  0  0  0  0  0  0  0  0
  1  2  1  0
  2  3  1  0
  3  4  2  0
  3  5  1  0
  5  6  1  0
  6  7  1  0
  7  8  1  0
  8  9  1  0
  9 10  2  0
 10 11  1  0
 11 12  2  0
 12 13  1  0
 12 14  1  0
 14 15  2  0
 15 16  1  0
 16 17  1  0
 17 18  2  0
 17 19  1  0
 19 20  2  0
 20 21  1  0
 21 22  2  0
 22 23  1  0
 23 24  2  0
 23 25  1  0
 25 26  1  0
 26 27  1  0
 27 28  1  0
  8 29  1  0
 29 30  1  0
 30  5  1  0
 15  9  1  0
 24 19  1  0
 28 22  1  0
  1 31  1  0
  1 32  1  0
  1 33  1  0
  2 34  1  0
  2 35  1  0
  6 36  1  0
  6 37  1  0
  7 38  1  0
  7 39  1  0
 10 40  1  0
 11 41  1  0
 14 42  1  0
 16 43  1  0
 20 44  1  0
 21 45  1  0
 24 46  1  0
 26 47  1  0
 26 48  1  0
 27 49  1  0
 27 50  1  0
 29 51  1  0
 29 52  1  0
 30 53  1  0
 30 54  1  0
M  END
$$$$
