
     RDKit          3D

 59 62  0  0  0  0  0  0  0  0999 V2000
   -7.7165    0.8022   -3.9452 C   0  0  0  0  0  0  0  0  0  0  0  0
   -7.1574   -0.3593   -3.3439 O   0  0  0  0  0  0  0  0  0  0  0  0
   -5.9808   -0.1996   -2.6639 C   0  0  0  0  0  0  0  0  0  0  0  0
   -5.4124   -1.3862   -2.1917 C   0  0  0  0  0  0  0  0  0  0  0  0
   -4.2089   -1.3666   -1.4824 C   0  0  0  0  0  0  0  0  0  0  0  0
   -3.5622   -0.1543   -1.2271 C   0  0  0  0  0  0  0  0  0  0  0  0
   -2.3082   -0.1437   -0.4904 C   0  0  0  0  0  0  0  0  0  0  0  0
   -1.0551   -0.5882   -0.8784 C   0  0  0  0  0  0  0  0  0  0  0  0
   -0.1389   -0.4556    0.1302 N   0  0  0  0  0  0  0  0  0  0  0  0
   -0.8184    0.0398    1.1414 C   0  0  0  0  0  0  0  0  0  0  0  0
   -0.1207    0.3850    2.6872 S   0  0  0  0  0  0  0  0  0  0  0  0
    1.1445   -0.9113    2.7917 C   0  0  0  0  0  0  0  0  0  0  0  0
    2.4820   -0.4433    2.2430 C   0  0  0  0  0  0  0  0  0  0  0  0
    3.4371   -0.2977    2.9979 O   0  0  0  0  0  0  0  0  0  0  0  0
    2.4776   -0.2726    0.8770 N   0  0  0  0  0  0  0  0  0  0  0  0
    3.5844    0.0661    0.1573 C   0  0  0  0  0  0  0  0  0  0  0  0
    4.8241    0.2102    0.5498 N   0  0  0  0  0  0  0  0  0  0  0  0
    5.6362    0.5293   -0.5281 C   0  0  0  0  0  0  0  0  0  0  0  0
    7.1316    0.7104   -0.3037 C   0  0  0  0  0  0  0  0  0  0  0  0
    7.9060   -0.4151   -1.0178 C   0  0  0  0  0  0  0  0  0  0  0  0
    7.4903    0.6571    1.1965 C   0  0  0  0  0  0  0  0  0  0  0  0
    7.5978    2.0738   -0.8531 C   0  0  0  0  0  0  0  0  0  0  0  0
    4.9521    0.6391   -1.7298 C   0  0  0  0  0  0  0  0  0  0  0  0
    3.2841    0.3098   -1.5030 S   0  0  0  0  0  0  0  0  0  0  0  0
   -2.1388    0.2554    0.8270 N   0  0  0  0  0  0  0  0  0  0  0  0
   -3.1753    0.7801    1.7039 C   0  0  0  0  0  0  0  0  0  0  0  0
   -3.9378   -0.3216    2.3451 C   0  0  0  0  0  0  0  0  0  0  0  0
   -5.1577   -0.9141    2.0816 C   0  0  0  0  0  0  0  0  0  0  0  0
   -5.3352   -1.9143    3.0682 C   0  0  0  0  0  0  0  0  0  0  0  0
   -4.2227   -1.8626    3.8748 C   0  0  0  0  0  0  0  0  0  0  0  0
   -3.3721   -0.8965    3.4474 O   0  0  0  0  0  0  0  0  0  0  0  0
   -4.1273    1.0343   -1.7029 C   0  0  0  0  0  0  0  0  0  0  0  0
   -5.3341    1.0126   -2.4139 C   0  0  0  0  0  0  0  0  0  0  0  0
   -7.0217    1.2520   -4.6625 H   0  0  0  0  0  0  0  0  0  0  0  0
   -8.6128    0.4948   -4.4969 H   0  0  0  0  0  0  0  0  0  0  0  0
   -8.0243    1.5259   -3.1851 H   0  0  0  0  0  0  0  0  0  0  0  0
   -5.9084   -2.3349   -2.3848 H   0  0  0  0  0  0  0  0  0  0  0  0
   -3.7858   -2.3025   -1.1254 H   0  0  0  0  0  0  0  0  0  0  0  0
   -0.7738   -1.0015   -1.8405 H   0  0  0  0  0  0  0  0  0  0  0  0
    0.8331   -1.8271    2.2828 H   0  0  0  0  0  0  0  0  0  0  0  0
    1.2807   -1.1619    3.8472 H   0  0  0  0  0  0  0  0  0  0  0  0
    1.5987   -0.3524    0.3666 H   0  0  0  0  0  0  0  0  0  0  0  0
    8.9876   -0.3137   -0.8627 H   0  0  0  0  0  0  0  0  0  0  0  0
    7.6076   -1.4030   -0.6442 H   0  0  0  0  0  0  0  0  0  0  0  0
    7.7235   -0.4044   -2.0987 H   0  0  0  0  0  0  0  0  0  0  0  0
    8.5677    0.7945    1.3558 H   0  0  0  0  0  0  0  0  0  0  0  0
    6.9702    1.4430    1.7572 H   0  0  0  0  0  0  0  0  0  0  0  0
    7.2133   -0.3073    1.6397 H   0  0  0  0  0  0  0  0  0  0  0  0
    7.0484    2.9035   -0.3869 H   0  0  0  0  0  0  0  0  0  0  0  0
    8.6666    2.2321   -0.6615 H   0  0  0  0  0  0  0  0  0  0  0  0
    7.4412    2.1477   -1.9377 H   0  0  0  0  0  0  0  0  0  0  0  0
    5.3440    0.8774   -2.7049 H   0  0  0  0  0  0  0  0  0  0  0  0
   -2.7133    1.4347    2.4534 H   0  0  0  0  0  0  0  0  0  0  0  0
   -3.8385    1.4178    1.1060 H   0  0  0  0  0  0  0  0  0  0  0  0
   -5.8324   -0.6606    1.2729 H   0  0  0  0  0  0  0  0  0  0  0  0
   -6.1686   -2.5887    3.1805 H   0  0  0  0  0  0  0  0  0  0  0  0
   -3.9002   -2.4135    4.7479 H   0  0  0  0  0  0  0  0  0  0  0  0
   -3.6287    1.9876   -1.5320 H   0  0  0  0  0  0  0  0  0  0  0  0
   -5.7413    1.9578   -2.7606 H   0  0  0  0  0  0  0  0  0  0  0  0
  1  2  1  0
  2  3  1  0
  3  4  2  0
  4  5  1  0
  5  6  2  0
  6  7  1  0
  7  8  2  0
  8  9  1  0
  9 10  2  0
 10 11  1  0
 11 12  1  0
 12 13  1  0
 13 14  2  0
 13 15  1  0
 15 16  1  0
 16 17  2  0
 17 18  1  0
 18 19  1  0
 19 20  1  0
 19 21  1  0
 19 22  1  0
 18 23  2  0
 23 24  1  0
 10 25  1  0
 25 26  1  0
 26 27  1  0
 27 28  2  0
 28 29  1  0
 29 30  2  0
 30 31  1  0
  6 32  1  0
 32 33  2  0
 33  3  1  0
 25  7  1  0
 31 27  1  0
 24 16  1  0
  1 34  1  0
  1 35  1  0
  1 36  1  0
  4 37  1  0
  5 38  1  0
  8 39  1  0
 12 40  1  0
 12 41  1  0
 15 42  1  0
 20 43  1  0
 20 44  1  0
 20 45  1  0
 21 46  1  0
 21 47  1  0
 21 48  1  0
 22 49  1  0
 22 50  1  0
 22 51  1  0
 23 52  1  0
 26 53  1  0
 26 54  1  0
 28 55  1  0
 29 56  1  0
 30 57  1  0
 32 58  1  0
 33 59  1  0
M  END
$$$$
