
     RDKit          3D

 33 33  0  0  0  0  0  0  0  0999 V2000
   -1.9070    1.4712   -2.3046 C   0  0  0  0  0  0  0  0  0  0  0  0
   -2.3985    0.6363   -1.1500 C   0  0  0  0  0  0  0  0  0  0  0  0
   -3.4493    0.0082   -1.2275 O   0  0  0  0  0  0  0  0  0  0  0  0
   -1.5365    0.6828   -0.0724 N   0  0  0  0  0  0  0  0  0  0  0  0
   -1.6737    0.0464    1.1801 C   0  0  0  0  0  0  0  0  0  0  0  0
   -2.7765   -0.7312    1.5371 C   0  0  0  0  0  0  0  0  0  0  0  0
   -2.8554   -1.3128    2.8085 C   0  0  0  0  0  0  0  0  0  0  0  0
   -1.8376   -1.1176    3.7403 C   0  0  0  0  0  0  0  0  0  0  0  0
   -0.7302   -0.3465    3.4008 C   0  0  0  0  0  0  0  0  0  0  0  0
   -0.6445    0.2114    2.1234 C   0  0  0  0  0  0  0  0  0  0  0  0
    0.4518    0.9833    1.8294 O   0  0  0  0  0  0  0  0  0  0  0  0
    1.5206    0.1841    1.3204 C   0  0  0  0  0  0  0  0  0  0  0  0
    1.8349    0.5694   -0.1245 C   0  0  0  0  0  0  0  0  0  0  0  0
    1.1589    1.3638   -0.7748 O   0  0  0  0  0  0  0  0  0  0  0  0
    2.9466   -0.0577   -0.6504 N   0  0  0  0  0  0  0  0  0  0  0  0
    3.2852    0.1026   -2.0670 C   0  0  0  0  0  0  0  0  0  0  0  0
    2.5041   -0.8004   -3.0248 C   0  0  0  0  0  0  0  0  0  0  0  0
    1.1795   -0.5587   -3.0029 F   0  0  0  0  0  0  0  0  0  0  0  0
    2.9353   -0.6389   -4.2950 F   0  0  0  0  0  0  0  0  0  0  0  0
    2.6916   -2.1015   -2.6940 F   0  0  0  0  0  0  0  0  0  0  0  0
   -1.8073    2.5134   -1.9920 H   0  0  0  0  0  0  0  0  0  0  0  0
   -0.9446    1.0910   -2.6563 H   0  0  0  0  0  0  0  0  0  0  0  0
   -2.6244    1.4203   -3.1284 H   0  0  0  0  0  0  0  0  0  0  0  0
   -0.6868    1.2359   -0.1929 H   0  0  0  0  0  0  0  0  0  0  0  0
   -3.6023   -0.8962    0.8514 H   0  0  0  0  0  0  0  0  0  0  0  0
   -3.7251   -1.9104    3.0704 H   0  0  0  0  0  0  0  0  0  0  0  0
   -1.9159   -1.5553    4.7316 H   0  0  0  0  0  0  0  0  0  0  0  0
    0.0548   -0.1708    4.1296 H   0  0  0  0  0  0  0  0  0  0  0  0
    1.3171   -0.8942    1.3590 H   0  0  0  0  0  0  0  0  0  0  0  0
    2.4053    0.3859    1.9321 H   0  0  0  0  0  0  0  0  0  0  0  0
    3.3439   -0.8468   -0.1528 H   0  0  0  0  0  0  0  0  0  0  0  0
    3.1326    1.1487   -2.3497 H   0  0  0  0  0  0  0  0  0  0  0  0
    4.3532   -0.1155   -2.1540 H   0  0  0  0  0  0  0  0  0  0  0  0
  1  2  1  0
  2  3  2  0
  2  4  1  0
  4  5  1  0
  5  6  2  0
  6  7  1  0
  7  8  2  0
  8  9  1  0
  9 10  2  0
 10 11  1  0
 11 12  1  0
 12 13  1  0
 13 14  2  0
 13 15  1  0
 15 16  1  0
 16 17  1  0
 17 18  1  0
 17 19  1  0
 17 20  1  0
 10  5  1  0
  1 21  1  0
  1 22  1  0
  1 23  1  0
  4 24  1  0
  6 25  1  0
  7 26  1  0
  8 27  1  0
  9 28  1  0
 12 29  1  0
 12 30  1  0
 15 31  1  0
 16 32  1  0
 16 33  1  0
M  END
$$$$
