
     RDKit          3D

 46 48  0  0  0  0  0  0  0  0999 V2000
    9.2960   -0.7979    0.8496 C   0  0  0  0  0  0  0  0  0  0  0  0
    7.9108   -1.2092    1.3095 C   0  0  0  0  0  0  0  0  0  0  0  0
    6.9520   -0.5981    0.4377 O   0  0  0  0  0  0  0  0  0  0  0  0
    5.6603   -0.8670    0.7580 C   0  0  0  0  0  0  0  0  0  0  0  0
    5.2916   -1.5601    1.6922 O   0  0  0  0  0  0  0  0  0  0  0  0
    4.7361   -0.1875   -0.1928 C   0  0  0  0  0  0  0  0  0  0  0  0
    5.2050    0.5008   -1.3195 C   0  0  0  0  0  0  0  0  0  0  0  0
    4.3032    1.1137   -2.1869 C   0  0  0  0  0  0  0  0  0  0  0  0
    2.9328    1.0433   -1.9310 C   0  0  0  0  0  0  0  0  0  0  0  0
    2.4464    0.3648   -0.8054 C   0  0  0  0  0  0  0  0  0  0  0  0
    1.0462    0.3454   -0.6284 N   0  0  0  0  0  0  0  0  0  0  0  0
    0.3435   -0.1636    0.4489 C   0  0  0  0  0  0  0  0  0  0  0  0
    0.8156   -0.6252    1.4799 O   0  0  0  0  0  0  0  0  0  0  0  0
   -1.1405   -0.0775    0.3304 C   0  0  0  0  0  0  0  0  0  0  0  0
   -1.8921    0.1322    1.4905 C   0  0  0  0  0  0  0  0  0  0  0  0
   -3.2856    0.2236    1.4190 C   0  0  0  0  0  0  0  0  0  0  0  0
   -3.9481    0.0972    0.1918 C   0  0  0  0  0  0  0  0  0  0  0  0
   -5.3497    0.2081    0.2072 N   0  0  0  0  0  0  0  0  0  0  0  0
   -6.2321    0.1374   -0.8568 C   0  0  0  0  0  0  0  0  0  0  0  0
   -5.9198   -0.0391   -2.0300 O   0  0  0  0  0  0  0  0  0  0  0  0
   -7.6150    0.3026   -0.4434 C   0  0  0  0  0  0  0  0  0  0  0  0
   -8.7905    0.2950   -1.1712 C   0  0  0  0  0  0  0  0  0  0  0  0
   -9.8432    0.5068   -0.2492 C   0  0  0  0  0  0  0  0  0  0  0  0
   -9.2516    0.6313    0.9853 C   0  0  0  0  0  0  0  0  0  0  0  0
   -7.9026    0.5100    0.8832 O   0  0  0  0  0  0  0  0  0  0  0  0
   -3.1948   -0.1344   -0.9613 C   0  0  0  0  0  0  0  0  0  0  0  0
   -1.7982   -0.2266   -0.8951 C   0  0  0  0  0  0  0  0  0  0  0  0
    3.3550   -0.2541    0.0572 C   0  0  0  0  0  0  0  0  0  0  0  0
   10.0665   -1.2424    1.4857 H   0  0  0  0  0  0  0  0  0  0  0  0
    9.4676   -1.1113   -0.1857 H   0  0  0  0  0  0  0  0  0  0  0  0
    9.4026    0.2918    0.8739 H   0  0  0  0  0  0  0  0  0  0  0  0
    7.7472   -0.8698    2.3386 H   0  0  0  0  0  0  0  0  0  0  0  0
    7.8125   -2.2995    1.2592 H   0  0  0  0  0  0  0  0  0  0  0  0
    6.2688    0.5636   -1.5355 H   0  0  0  0  0  0  0  0  0  0  0  0
    4.6674    1.6463   -3.0622 H   0  0  0  0  0  0  0  0  0  0  0  0
    2.2519    1.5317   -2.6239 H   0  0  0  0  0  0  0  0  0  0  0  0
    0.5089    0.8274   -1.3371 H   0  0  0  0  0  0  0  0  0  0  0  0
   -1.3936    0.2285    2.4537 H   0  0  0  0  0  0  0  0  0  0  0  0
   -3.8410    0.3920    2.3388 H   0  0  0  0  0  0  0  0  0  0  0  0
   -5.7917    0.3648    1.1075 H   0  0  0  0  0  0  0  0  0  0  0  0
   -8.8635    0.1520   -2.2414 H   0  0  0  0  0  0  0  0  0  0  0  0
  -10.9026    0.5615   -0.4583 H   0  0  0  0  0  0  0  0  0  0  0  0
   -9.6328    0.7994    1.9834 H   0  0  0  0  0  0  0  0  0  0  0  0
   -3.6638   -0.2609   -1.9326 H   0  0  0  0  0  0  0  0  0  0  0  0
   -1.2498   -0.4453   -1.8072 H   0  0  0  0  0  0  0  0  0  0  0  0
    3.0149   -0.8017    0.9326 H   0  0  0  0  0  0  0  0  0  0  0  0
  1  2  1  0
  2  3  1  0
  3  4  1  0
  4  5  2  0
  4  6  1  0
  6  7  2  0
  7  8  1  0
  8  9  2  0
  9 10  1  0
 10 11  1  0
 11 12  1  0
 12 13  2  0
 12 14  1  0
 14 15  2  0
 15 16  1  0
 16 17  2  0
 17 18  1  0
 18 19  1  0
 19 20  2  0
 19 21  1  0
 21 22  2  0
 22 23  1  0
 23 24  2  0
 24 25  1  0
 17 26  1  0
 26 27  2  0
 10 28  2  0
 28  6  1  0
 27 14  1  0
 25 21  1  0
  1 29  1  0
  1 30  1  0
  1 31  1  0
  2 32  1  0
  2 33  1  0
  7 34  1  0
  8 35  1  0
  9 36  1  0
 11 37  1  0
 15 38  1  0
 16 39  1  0
 18 40  1  0
 22 41  1  0
 23 42  1  0
 24 43  1  0
 26 44  1  0
 27 45  1  0
 28 46  1  0
M  END
$$$$
