
     RDKit          3D

 48 50  0  0  0  0  0  0  0  0999 V2000
    7.3198    1.5924    2.0212 C   0  0  0  0  0  0  0  0  0  0  0  0
    6.4077    0.5138    2.1918 O   0  0  0  0  0  0  0  0  0  0  0  0
    5.7381    0.0848    1.0800 C   0  0  0  0  0  0  0  0  0  0  0  0
    4.8734   -0.9895    1.2983 C   0  0  0  0  0  0  0  0  0  0  0  0
    4.1205   -1.5342    0.2521 C   0  0  0  0  0  0  0  0  0  0  0  0
    4.2296   -1.0105   -1.0376 C   0  0  0  0  0  0  0  0  0  0  0  0
    3.5225   -1.4592   -2.1225 O   0  0  0  0  0  0  0  0  0  0  0  0
    2.9465   -2.7671   -2.0736 C   0  0  0  0  0  0  0  0  0  0  0  0
    1.5515   -2.6508   -1.5951 C   0  0  0  0  0  0  0  0  0  0  0  0
    0.5469   -1.7285   -1.7607 C   0  0  0  0  0  0  0  0  0  0  0  0
   -0.5475   -2.2406   -1.0107 C   0  0  0  0  0  0  0  0  0  0  0  0
   -1.8890   -1.6721   -0.8180 C   0  0  0  0  0  0  0  0  0  0  0  0
   -2.8200   -2.2957   -0.3126 O   0  0  0  0  0  0  0  0  0  0  0  0
   -2.0371   -0.3556   -1.2321 N   0  0  0  0  0  0  0  0  0  0  0  0
   -3.2884    0.3691   -1.0033 C   0  0  0  0  0  0  0  0  0  0  0  0
   -3.3793    1.5364   -1.9872 C   0  0  0  0  0  0  0  0  0  0  0  0
   -3.3908    0.8320    0.4621 C   0  0  0  0  0  0  0  0  0  0  0  0
   -4.7778    1.2925    0.8276 C   0  0  0  0  0  0  0  0  0  0  0  0
   -5.7603    0.3644    1.1661 C   0  0  0  0  0  0  0  0  0  0  0  0
   -7.0360    0.8224    1.4807 C   0  0  0  0  0  0  0  0  0  0  0  0
   -7.2970    2.1862    1.4465 C   0  0  0  0  0  0  0  0  0  0  0  0
   -6.2651    3.0401    1.0958 C   0  0  0  0  0  0  0  0  0  0  0  0
   -5.0172    2.6251    0.7836 N   0  0  0  0  0  0  0  0  0  0  0  0
   -0.2066   -3.4119   -0.4443 N   0  0  0  0  0  0  0  0  0  0  0  0
    1.0990   -3.6605   -0.8099 O   0  0  0  0  0  0  0  0  0  0  0  0
    5.0894    0.0796   -1.2484 C   0  0  0  0  0  0  0  0  0  0  0  0
    5.2575    0.7948   -2.8166 Cl  0  0  0  0  0  0  0  0  0  0  0  0
    5.8435    0.6216   -0.2003 C   0  0  0  0  0  0  0  0  0  0  0  0
    8.1271    1.3199    1.3340 H   0  0  0  0  0  0  0  0  0  0  0  0
    6.8024    2.4972    1.6859 H   0  0  0  0  0  0  0  0  0  0  0  0
    7.7690    1.8081    2.9955 H   0  0  0  0  0  0  0  0  0  0  0  0
    4.7793   -1.4073    2.2992 H   0  0  0  0  0  0  0  0  0  0  0  0
    3.4494   -2.3534    0.4914 H   0  0  0  0  0  0  0  0  0  0  0  0
    3.5504   -3.4689   -1.4878 H   0  0  0  0  0  0  0  0  0  0  0  0
    2.9345   -3.1476   -3.1012 H   0  0  0  0  0  0  0  0  0  0  0  0
    0.6061   -0.8217   -2.3435 H   0  0  0  0  0  0  0  0  0  0  0  0
   -1.2086    0.1887   -1.4277 H   0  0  0  0  0  0  0  0  0  0  0  0
   -4.1068   -0.3275   -1.2261 H   0  0  0  0  0  0  0  0  0  0  0  0
   -4.3475    2.0425   -1.9216 H   0  0  0  0  0  0  0  0  0  0  0  0
   -3.2607    1.1822   -3.0173 H   0  0  0  0  0  0  0  0  0  0  0  0
   -2.5913    2.2750   -1.8020 H   0  0  0  0  0  0  0  0  0  0  0  0
   -2.6742    1.6417    0.6505 H   0  0  0  0  0  0  0  0  0  0  0  0
   -3.1043    0.0239    1.1472 H   0  0  0  0  0  0  0  0  0  0  0  0
   -5.5383   -0.6992    1.1843 H   0  0  0  0  0  0  0  0  0  0  0  0
   -7.8188    0.1190    1.7481 H   0  0  0  0  0  0  0  0  0  0  0  0
   -8.2802    2.5748    1.6862 H   0  0  0  0  0  0  0  0  0  0  0  0
   -6.4198    4.1143    1.0524 H   0  0  0  0  0  0  0  0  0  0  0  0
    6.4986    1.4592   -0.4119 H   0  0  0  0  0  0  0  0  0  0  0  0
  1  2  1  0
  2  3  1  0
  3  4  2  0
  4  5  1  0
  5  6  2  0
  6  7  1  0
  7  8  1  0
  8  9  1  0
  9 10  2  0
 10 11  1  0
 11 12  1  0
 12 13  2  0
 12 14  1  0
 14 15  1  0
 15 16  1  0
 15 17  1  0
 17 18  1  0
 18 19  2  0
 19 20  1  0
 20 21  2  0
 21 22  1  0
 22 23  2  0
 11 24  2  0
 24 25  1  0
  6 26  1  0
 26 27  1  0
 26 28  2  0
 28  3  1  0
 25  9  1  0
 23 18  1  0
  1 29  1  0
  1 30  1  0
  1 31  1  0
  4 32  1  0
  5 33  1  0
  8 34  1  0
  8 35  1  0
 10 36  1  0
 14 37  1  0
 15 38  1  0
 16 39  1  0
 16 40  1  0
 16 41  1  0
 17 42  1  0
 17 43  1  0
 19 44  1  0
 20 45  1  0
 21 46  1  0
 22 47  1  0
 28 48  1  0
M  END
$$$$
