
     RDKit          3D

 46 48  0  0  0  0  0  0  0  0999 V2000
    7.1463   -0.9994    2.6124 C   0  0  0  0  0  0  0  0  0  0  0  0
    6.6669   -1.9079    1.4960 C   0  0  0  0  0  0  0  0  0  0  0  0
    5.6809   -1.2345    0.7009 O   0  0  0  0  0  0  0  0  0  0  0  0
    6.1547   -0.4769   -0.3173 C   0  0  0  0  0  0  0  0  0  0  0  0
    7.3308   -0.3188   -0.6063 O   0  0  0  0  0  0  0  0  0  0  0  0
    5.0377    0.1648   -1.0645 C   0  0  0  0  0  0  0  0  0  0  0  0
    5.3648    0.9810   -2.1550 C   0  0  0  0  0  0  0  0  0  0  0  0
    4.3590    1.6093   -2.8851 C   0  0  0  0  0  0  0  0  0  0  0  0
    3.0225    1.4231   -2.5288 C   0  0  0  0  0  0  0  0  0  0  0  0
    2.6757    0.6066   -1.4435 C   0  0  0  0  0  0  0  0  0  0  0  0
    1.2999    0.4815   -1.1529 N   0  0  0  0  0  0  0  0  0  0  0  0
    0.7134   -0.3244   -0.1936 C   0  0  0  0  0  0  0  0  0  0  0  0
    1.2792   -1.1338    0.5310 O   0  0  0  0  0  0  0  0  0  0  0  0
   -0.7690   -0.2026   -0.0885 C   0  0  0  0  0  0  0  0  0  0  0  0
   -1.5107   -1.3377    0.2512 C   0  0  0  0  0  0  0  0  0  0  0  0
   -2.9032   -1.2624    0.3597 C   0  0  0  0  0  0  0  0  0  0  0  0
   -3.5750   -0.0528    0.1379 C   0  0  0  0  0  0  0  0  0  0  0  0
   -4.9798   -0.0679    0.2678 N   0  0  0  0  0  0  0  0  0  0  0  0
   -5.8686    0.9782    0.0482 C   0  0  0  0  0  0  0  0  0  0  0  0
   -5.5320    2.0944   -0.3365 O   0  0  0  0  0  0  0  0  0  0  0  0
   -7.2634    0.6347    0.3032 C   0  0  0  0  0  0  0  0  0  0  0  0
   -7.9008   -0.4902    0.8049 C   0  0  0  0  0  0  0  0  0  0  0  0
   -9.2910   -0.2114    0.8141 C   0  0  0  0  0  0  0  0  0  0  0  0
   -9.4267    1.0625    0.3216 C   0  0  0  0  0  0  0  0  0  0  0  0
   -8.2139    1.5817    0.0125 O   0  0  0  0  0  0  0  0  0  0  0  0
   -2.8262    1.0829   -0.1794 C   0  0  0  0  0  0  0  0  0  0  0  0
   -1.4306    1.0132   -0.2877 C   0  0  0  0  0  0  0  0  0  0  0  0
    3.6901   -0.0178   -0.7123 C   0  0  0  0  0  0  0  0  0  0  0  0
    6.3012   -0.6560    3.2180 H   0  0  0  0  0  0  0  0  0  0  0  0
    7.8557   -1.5219    3.2602 H   0  0  0  0  0  0  0  0  0  0  0  0
    7.6333   -0.1058    2.2095 H   0  0  0  0  0  0  0  0  0  0  0  0
    6.1841   -2.7930    1.9229 H   0  0  0  0  0  0  0  0  0  0  0  0
    7.5020   -2.2619    0.8807 H   0  0  0  0  0  0  0  0  0  0  0  0
    6.4057    1.1301   -2.4369 H   0  0  0  0  0  0  0  0  0  0  0  0
    4.6162    2.2433   -3.7300 H   0  0  0  0  0  0  0  0  0  0  0  0
    2.2569    1.9253   -3.1153 H   0  0  0  0  0  0  0  0  0  0  0  0
    0.6766    0.9914   -1.7654 H   0  0  0  0  0  0  0  0  0  0  0  0
   -1.0057   -2.2853    0.4313 H   0  0  0  0  0  0  0  0  0  0  0  0
   -3.4480   -2.1663    0.6209 H   0  0  0  0  0  0  0  0  0  0  0  0
   -5.3821   -0.9560    0.5280 H   0  0  0  0  0  0  0  0  0  0  0  0
   -7.4359   -1.4073    1.1362 H   0  0  0  0  0  0  0  0  0  0  0  0
  -10.0940   -0.8568    1.1417 H   0  0  0  0  0  0  0  0  0  0  0  0
  -10.2722    1.7116    0.1391 H   0  0  0  0  0  0  0  0  0  0  0  0
   -3.2931    2.0511   -0.3349 H   0  0  0  0  0  0  0  0  0  0  0  0
   -0.8820    1.9279   -0.4962 H   0  0  0  0  0  0  0  0  0  0  0  0
    3.4503   -0.6459    0.1393 H   0  0  0  0  0  0  0  0  0  0  0  0
  1  2  1  0
  2  3  1  0
  3  4  1  0
  4  5  2  0
  4  6  1  0
  6  7  2  0
  7  8  1  0
  8  9  2  0
  9 10  1  0
 10 11  1  0
 11 12  1  0
 12 13  2  0
 12 14  1  0
 14 15  2  0
 15 16  1  0
 16 17  2  0
 17 18  1  0
 18 19  1  0
 19 20  2  0
 19 21  1  0
 21 22  2  0
 22 23  1  0
 23 24  2  0
 24 25  1  0
 17 26  1  0
 26 27  2  0
 10 28  2  0
 28  6  1  0
 27 14  1  0
 25 21  1  0
  1 29  1  0
  1 30  1  0
  1 31  1  0
  2 32  1  0
  2 33  1  0
  7 34  1  0
  8 35  1  0
  9 36  1  0
 11 37  1  0
 15 38  1  0
 16 39  1  0
 18 40  1  0
 22 41  1  0
 23 42  1  0
 24 43  1  0
 26 44  1  0
 27 45  1  0
 28 46  1  0
M  END
$$$$
