
     RDKit          3D

 49 51  0  0  0  0  0  0  0  0999 V2000
    5.4319   -0.2381   -3.7851 C   0  0  0  0  0  0  0  0  0  0  0  0
    5.1568    0.8833   -2.9581 O   0  0  0  0  0  0  0  0  0  0  0  0
    3.8437    1.1457   -2.6539 C   0  0  0  0  0  0  0  0  0  0  0  0
    2.7678    0.3354   -3.0389 C   0  0  0  0  0  0  0  0  0  0  0  0
    1.4633    0.6767   -2.6785 C   0  0  0  0  0  0  0  0  0  0  0  0
    1.2392    1.8273   -1.9227 C   0  0  0  0  0  0  0  0  0  0  0  0
   -0.4147    2.2723   -1.4561 S   0  0  0  0  0  6  0  0  0  0  0  0
   -1.3403    1.3718   -2.1081 O   0  0  0  0  0  0  0  0  0  0  0  0
   -0.5246    3.7070   -1.6198 O   0  0  0  0  0  0  0  0  0  0  0  0
   -0.4168    1.9852    0.2121 N   0  0  0  0  0  0  0  0  0  0  0  0
   -0.6460    0.6507    0.6543 C   0  0  0  0  0  0  0  0  0  0  0  0
    0.4048   -0.2546    0.7017 C   0  0  0  0  0  0  0  0  0  0  0  0
    0.1522   -1.5725    1.0666 C   0  0  0  0  0  0  0  0  0  0  0  0
   -1.1528   -1.9897    1.3857 C   0  0  0  0  0  0  0  0  0  0  0  0
   -2.2223   -1.0672    1.3867 C   0  0  0  0  0  0  0  0  0  0  0  0
   -1.9446    0.2466    0.9779 C   0  0  0  0  0  0  0  0  0  0  0  0
   -3.5531   -1.4909    1.7641 N   0  0  0  0  0  0  0  0  0  0  0  0
   -4.5495   -0.5676    2.1430 C   0  0  0  0  0  0  0  0  0  0  0  0
   -5.9167   -1.1415    2.4483 C   0  0  0  0  0  0  0  0  0  0  0  0
   -4.3962    0.6491    2.2599 O   0  0  0  0  0  0  0  0  0  0  0  0
   -3.7708   -2.9246    2.0014 C   0  0  0  0  0  0  0  0  0  0  0  0
   -2.7615   -3.8460    1.3419 C   0  0  0  0  0  0  0  0  0  0  0  0
   -1.3668   -3.4310    1.7555 C   0  0  0  0  0  0  0  0  0  0  0  0
    2.2990    2.6552   -1.5394 C   0  0  0  0  0  0  0  0  0  0  0  0
    3.6059    2.3172   -1.9011 C   0  0  0  0  0  0  0  0  0  0  0  0
    4.7154    3.0532   -1.5654 O   0  0  0  0  0  0  0  0  0  0  0  0
    4.5077    4.3038   -0.9235 C   0  0  0  0  0  0  0  0  0  0  0  0
    5.1446   -1.1718   -3.2906 H   0  0  0  0  0  0  0  0  0  0  0  0
    4.9453   -0.1401   -4.7611 H   0  0  0  0  0  0  0  0  0  0  0  0
    6.5124   -0.2715   -3.9547 H   0  0  0  0  0  0  0  0  0  0  0  0
    2.9123   -0.5692   -3.6204 H   0  0  0  0  0  0  0  0  0  0  0  0
    0.6352    0.0404   -2.9841 H   0  0  0  0  0  0  0  0  0  0  0  0
   -0.9424    2.7178    0.6913 H   0  0  0  0  0  0  0  0  0  0  0  0
    1.4189    0.0523    0.4641 H   0  0  0  0  0  0  0  0  0  0  0  0
    0.9784   -2.2800    1.0956 H   0  0  0  0  0  0  0  0  0  0  0  0
   -2.7374    0.9787    0.8680 H   0  0  0  0  0  0  0  0  0  0  0  0
   -6.3239   -1.6407    1.5654 H   0  0  0  0  0  0  0  0  0  0  0  0
   -5.8687   -1.8256    3.2989 H   0  0  0  0  0  0  0  0  0  0  0  0
   -6.5983   -0.3263    2.7126 H   0  0  0  0  0  0  0  0  0  0  0  0
   -4.7633   -3.2053    1.6354 H   0  0  0  0  0  0  0  0  0  0  0  0
   -3.7715   -3.0761    3.0884 H   0  0  0  0  0  0  0  0  0  0  0  0
   -2.8662   -3.7915    0.2504 H   0  0  0  0  0  0  0  0  0  0  0  0
   -2.9513   -4.8843    1.6355 H   0  0  0  0  0  0  0  0  0  0  0  0
   -1.2242   -3.5516    2.8359 H   0  0  0  0  0  0  0  0  0  0  0  0
   -0.6390   -4.0733    1.2461 H   0  0  0  0  0  0  0  0  0  0  0  0
    2.0797    3.5462   -0.9600 H   0  0  0  0  0  0  0  0  0  0  0  0
    4.0675    4.1671    0.0696 H   0  0  0  0  0  0  0  0  0  0  0  0
    3.8960    4.9704   -1.5404 H   0  0  0  0  0  0  0  0  0  0  0  0
    5.4850    4.7778   -0.7909 H   0  0  0  0  0  0  0  0  0  0  0  0
  1  2  1  0
  2  3  1  0
  3  4  2  0
  4  5  1  0
  5  6  2  0
  6  7  1  0
  7  8  2  0
  7  9  2  0
  7 10  1  0
 10 11  1  0
 11 12  2  0
 12 13  1  0
 13 14  2  0
 14 15  1  0
 15 16  2  0
 15 17  1  0
 17 18  1  0
 18 19  1  0
 18 20  2  0
 17 21  1  0
 21 22  1  0
 22 23  1  0
  6 24  1  0
 24 25  2  0
 25 26  1  0
 26 27  1  0
 25  3  1  0
 16 11  1  0
 23 14  1  0
  1 28  1  0
  1 29  1  0
  1 30  1  0
  4 31  1  0
  5 32  1  0
 10 33  1  0
 12 34  1  0
 13 35  1  0
 16 36  1  0
 19 37  1  0
 19 38  1  0
 19 39  1  0
 21 40  1  0
 21 41  1  0
 22 42  1  0
 22 43  1  0
 23 44  1  0
 23 45  1  0
 24 46  1  0
 27 47  1  0
 27 48  1  0
 27 49  1  0
M  END
$$$$
