
     RDKit          3D

 57 61  0  0  0  0  0  0  0  0999 V2000
   -0.1736    3.2615   -1.0592 O   0  0  0  0  0  0  0  0  0  0  0  0
    0.6645    2.1206   -0.7724 C   0  0  0  0  0  0  0  0  0  0  0  0
    0.9671    2.1129    0.7338 C   0  0  0  0  0  0  0  0  0  0  0  0
    1.5954    0.8911    1.2274 N   0  0  0  0  0  0  0  0  0  0  0  0
    2.8961    0.5478    0.9126 C   0  0  0  0  0  0  0  0  0  0  0  0
    3.4911    1.1024   -0.1091 N   0  0  0  0  0  0  0  0  0  0  0  0
    4.8291    0.7833   -0.4188 C   0  0  0  0  0  0  0  0  0  0  0  0
    5.4246    1.4086   -1.5165 C   0  0  0  0  0  0  0  0  0  0  0  0
    6.7536    1.1375   -1.8573 C   0  0  0  0  0  0  0  0  0  0  0  0
    7.5015    0.2351   -1.0990 C   0  0  0  0  0  0  0  0  0  0  0  0
    6.9261   -0.4030    0.0016 C   0  0  0  0  0  0  0  0  0  0  0  0
    5.5955   -0.1234    0.3292 C   0  0  0  0  0  0  0  0  0  0  0  0
    4.9345   -0.7261    1.4137 N   0  0  0  0  0  0  0  0  0  0  0  0
    5.3955   -1.6532    2.3182 C   0  0  0  0  0  0  0  0  0  0  0  0
    4.3658   -1.9640    3.1801 C   0  0  0  0  0  0  0  0  0  0  0  0
    3.2445   -1.1907    2.7942 C   0  0  0  0  0  0  0  0  0  0  0  0
    3.6228   -0.4239    1.7062 C   0  0  0  0  0  0  0  0  0  0  0  0
   -0.0422    0.8635   -1.3306 C   0  0  0  0  0  0  0  0  0  0  0  0
   -1.4823    0.8210   -0.9615 N   0  0  0  0  0  0  0  0  0  0  0  0
   -1.6951   -0.0432    0.2294 C   0  0  0  0  0  0  0  0  0  0  0  0
   -3.1867   -0.1904    0.6191 C   0  0  0  0  0  0  0  0  0  0  0  0
   -3.9768   -0.6930   -0.5285 N   0  0  0  0  0  0  0  0  0  0  0  0
   -5.2883   -1.0655   -0.1852 C   0  0  0  0  0  0  0  0  0  0  0  0
   -6.4356   -0.4525   -0.7124 C   0  0  0  0  0  0  0  0  0  0  0  0
   -7.7219   -0.8648   -0.3413 C   0  0  0  0  0  0  0  0  0  0  0  0
   -7.8891   -1.9098    0.5607 C   0  0  0  0  0  0  0  0  0  0  0  0
   -6.7700   -2.5438    1.0898 C   0  0  0  0  0  0  0  0  0  0  0  0
   -5.4879   -2.1267    0.7150 C   0  0  0  0  0  0  0  0  0  0  0  0
   -3.7841    0.1287   -1.7389 C   0  0  0  0  0  0  0  0  0  0  0  0
   -2.2786    0.2422   -2.0776 C   0  0  0  0  0  0  0  0  0  0  0  0
   -1.0856    2.9039   -1.0268 H   0  0  0  0  0  0  0  0  0  0  0  0
    1.5908    2.2754   -1.3341 H   0  0  0  0  0  0  0  0  0  0  0  0
    1.5926    2.9804    0.9852 H   0  0  0  0  0  0  0  0  0  0  0  0
    0.0358    2.2778    1.2902 H   0  0  0  0  0  0  0  0  0  0  0  0
    1.3439    0.6814    2.1841 H   0  0  0  0  0  0  0  0  0  0  0  0
    4.8458    2.1142   -2.1078 H   0  0  0  0  0  0  0  0  0  0  0  0
    7.2035    1.6322   -2.7148 H   0  0  0  0  0  0  0  0  0  0  0  0
    8.5361    0.0288   -1.3683 H   0  0  0  0  0  0  0  0  0  0  0  0
    7.5270   -1.1004    0.5754 H   0  0  0  0  0  0  0  0  0  0  0  0
    6.4064   -2.0298    2.2814 H   0  0  0  0  0  0  0  0  0  0  0  0
    4.4178   -2.6729    3.9976 H   0  0  0  0  0  0  0  0  0  0  0  0
    2.2679   -1.2006    3.2626 H   0  0  0  0  0  0  0  0  0  0  0  0
    0.0279    0.9587   -2.4242 H   0  0  0  0  0  0  0  0  0  0  0  0
    0.4887   -0.0616   -1.0766 H   0  0  0  0  0  0  0  0  0  0  0  0
   -1.2832   -1.0453    0.0471 H   0  0  0  0  0  0  0  0  0  0  0  0
   -1.1708    0.3719    1.0947 H   0  0  0  0  0  0  0  0  0  0  0  0
   -3.5795    0.7836    0.9438 H   0  0  0  0  0  0  0  0  0  0  0  0
   -3.2384   -0.8710    1.4763 H   0  0  0  0  0  0  0  0  0  0  0  0
   -6.3585    0.3751   -1.4103 H   0  0  0  0  0  0  0  0  0  0  0  0
   -8.5912   -0.3637   -0.7602 H   0  0  0  0  0  0  0  0  0  0  0  0
   -8.8874   -2.2322    0.8465 H   0  0  0  0  0  0  0  0  0  0  0  0
   -6.8898   -3.3666    1.7913 H   0  0  0  0  0  0  0  0  0  0  0  0
   -4.6307   -2.6610    1.1188 H   0  0  0  0  0  0  0  0  0  0  0  0
   -4.1945    1.1375   -1.5904 H   0  0  0  0  0  0  0  0  0  0  0  0
   -4.2938   -0.3308   -2.5950 H   0  0  0  0  0  0  0  0  0  0  0  0
   -2.1828    0.8840   -2.9620 H   0  0  0  0  0  0  0  0  0  0  0  0
   -1.8938   -0.7513   -2.3441 H   0  0  0  0  0  0  0  0  0  0  0  0
  1  2  1  0
  2  3  1  0
  3  4  1  0
  4  5  1  0
  5  6  2  0
  6  7  1  0
  7  8  2  0
  8  9  1  0
  9 10  2  0
 10 11  1  0
 11 12  2  0
 12 13  1  0
 13 14  1  0
 14 15  2  0
 15 16  1  0
 16 17  2  0
  2 18  1  0
 18 19  1  0
 19 20  1  0
 20 21  1  0
 21 22  1  0
 22 23  1  0
 23 24  2  0
 24 25  1  0
 25 26  2  0
 26 27  1  0
 27 28  2  0
 22 29  1  0
 29 30  1  0
 17  5  1  0
 30 19  1  0
 12  7  1  0
 17 13  1  0
 28 23  1  0
  1 31  1  0
  2 32  1  0
  3 33  1  0
  3 34  1  0
  4 35  1  0
  8 36  1  0
  9 37  1  0
 10 38  1  0
 11 39  1  0
 14 40  1  0
 15 41  1  0
 16 42  1  0
 18 43  1  0
 18 44  1  0
 20 45  1  0
 20 46  1  0
 21 47  1  0
 21 48  1  0
 24 49  1  0
 25 50  1  0
 26 51  1  0
 27 52  1  0
 28 53  1  0
 29 54  1  0
 29 55  1  0
 30 56  1  0
 30 57  1  0
M  END
$$$$
