
     RDKit          3D

 58 63  0  0  0  0  0  0  0  0999 V2000
    5.7950    3.5943    1.2169 C   0  0  0  0  0  0  0  0  0  0  0  0
    5.5703    2.3005    0.5125 C   0  0  0  0  0  0  0  0  0  0  0  0
    6.4110    1.2103    0.4315 C   0  0  0  0  0  0  0  0  0  0  0  0
    5.8509    0.1565   -0.3465 C   0  0  0  0  0  0  0  0  0  0  0  0
    4.5803    0.4535   -0.8003 C   0  0  0  0  0  0  0  0  0  0  0  0
    3.7430   -0.3732   -1.6569 C   0  0  0  0  0  0  0  0  0  0  0  0
    4.2050   -0.9049   -2.6676 O   0  0  0  0  0  0  0  0  0  0  0  0
    2.4015   -0.5825   -1.2980 N   0  0  0  0  0  0  0  0  0  0  0  0
    1.5494   -1.2900   -2.2488 C   0  0  0  0  0  0  0  0  0  0  0  0
    0.0766   -1.0010   -1.9871 C   0  0  0  0  0  0  0  0  0  0  0  0
   -0.3518   -1.5059   -0.5833 C   0  0  0  0  0  0  0  0  0  0  0  0
    0.8222   -1.3965    0.4297 C   0  0  0  0  0  0  0  0  0  0  0  0
    1.8687   -0.3556    0.0429 C   0  0  0  0  0  0  0  0  0  0  0  0
   -0.5867   -2.9271   -0.8099 O   0  0  0  0  0  0  0  0  0  0  0  0
   -1.3657   -3.5990    0.0828 C   0  0  0  0  0  0  0  0  0  0  0  0
   -1.3488   -4.9905   -0.0154 C   0  0  0  0  0  0  0  0  0  0  0  0
   -2.0993   -5.7661    0.8718 C   0  0  0  0  0  0  0  0  0  0  0  0
   -2.8690   -5.1458    1.8556 C   0  0  0  0  0  0  0  0  0  0  0  0
   -3.7855   -6.1032    2.9511 Cl  0  0  0  0  0  0  0  0  0  0  0  0
   -2.9016   -3.7577    1.9541 C   0  0  0  0  0  0  0  0  0  0  0  0
   -2.1537   -2.9921    1.0535 C   0  0  0  0  0  0  0  0  0  0  0  0
   -2.1830   -1.5262    1.1183 C   0  0  0  0  0  0  0  0  0  0  0  0
   -2.6051   -0.9701    2.1290 O   0  0  0  0  0  0  0  0  0  0  0  0
   -1.6473   -0.7899   -0.1060 C   0  0  0  0  0  0  0  0  0  0  0  0
   -1.5095    0.6999    0.1769 C   0  0  0  0  0  0  0  0  0  0  0  0
   -2.8357    1.1500   -0.3378 C   0  0  0  0  0  0  0  0  0  0  0  0
   -3.3804    2.4972   -0.0469 C   0  0  0  0  0  0  0  0  0  0  0  0
   -2.6361    3.4547    0.6527 C   0  0  0  0  0  0  0  0  0  0  0  0
   -3.1824    4.7175    0.9067 C   0  0  0  0  0  0  0  0  0  0  0  0
   -4.4678    5.0234    0.4619 C   0  0  0  0  0  0  0  0  0  0  0  0
   -5.1332    6.5775    0.7773 Cl  0  0  0  0  0  0  0  0  0  0  0  0
   -5.2144    4.0781   -0.2370 C   0  0  0  0  0  0  0  0  0  0  0  0
   -4.6709    2.8160   -0.4920 C   0  0  0  0  0  0  0  0  0  0  0  0
   -3.4488    0.2855   -1.0822 N   0  0  0  0  0  0  0  0  0  0  0  0
   -2.6509   -0.8780   -1.1310 O   0  0  0  0  0  0  0  0  0  0  0  0
    4.1221    2.0448   -0.3624 S   0  0  0  0  0  0  0  0  0  0  0  0
    5.7967    4.4280    0.5071 H   0  0  0  0  0  0  0  0  0  0  0  0
    5.0132    3.7711    1.9630 H   0  0  0  0  0  0  0  0  0  0  0  0
    6.7588    3.5943    1.7364 H   0  0  0  0  0  0  0  0  0  0  0  0
    7.3904    1.1731    0.8938 H   0  0  0  0  0  0  0  0  0  0  0  0
    6.3498   -0.7813   -0.5632 H   0  0  0  0  0  0  0  0  0  0  0  0
    1.7664   -2.3614   -2.1633 H   0  0  0  0  0  0  0  0  0  0  0  0
    1.8114   -0.9827   -3.2677 H   0  0  0  0  0  0  0  0  0  0  0  0
   -0.0818    0.0768   -2.0951 H   0  0  0  0  0  0  0  0  0  0  0  0
   -0.5209   -1.4908   -2.7665 H   0  0  0  0  0  0  0  0  0  0  0  0
    1.3276   -2.3688    0.5125 H   0  0  0  0  0  0  0  0  0  0  0  0
    0.4552   -1.1706    1.4374 H   0  0  0  0  0  0  0  0  0  0  0  0
    2.6777   -0.3811    0.7797 H   0  0  0  0  0  0  0  0  0  0  0  0
    1.4309    0.6470    0.0577 H   0  0  0  0  0  0  0  0  0  0  0  0
   -0.7458   -5.4750   -0.7803 H   0  0  0  0  0  0  0  0  0  0  0  0
   -2.0779   -6.8502    0.7907 H   0  0  0  0  0  0  0  0  0  0  0  0
   -3.5097   -3.2734    2.7147 H   0  0  0  0  0  0  0  0  0  0  0  0
   -0.7417    1.1959   -0.4206 H   0  0  0  0  0  0  0  0  0  0  0  0
   -1.3552    0.9432    1.2304 H   0  0  0  0  0  0  0  0  0  0  0  0
   -1.6316    3.2477    1.0089 H   0  0  0  0  0  0  0  0  0  0  0  0
   -2.6012    5.4573    1.4516 H   0  0  0  0  0  0  0  0  0  0  0  0
   -6.2170    4.3127   -0.5856 H   0  0  0  0  0  0  0  0  0  0  0  0
   -5.2635    2.0836   -1.0380 H   0  0  0  0  0  0  0  0  0  0  0  0
  1  2  1  0
  2  3  2  0
  3  4  1  0
  4  5  2  0
  5  6  1  0
  6  7  2  0
  6  8  1  0
  8  9  1  0
  9 10  1  0
 10 11  1  0
 11 12  1  0
 12 13  1  0
 11 14  1  0
 14 15  1  0
 15 16  2  0
 16 17  1  0
 17 18  2  0
 18 19  1  0
 18 20  1  0
 20 21  2  0
 21 22  1  0
 22 23  2  0
 22 24  1  0
 24 25  1  0
 25 26  1  0
 26 27  1  0
 27 28  2  0
 28 29  1  0
 29 30  2  0
 30 31  1  0
 30 32  1  0
 32 33  2  0
 26 34  2  0
 34 35  1  0
  5 36  1  0
 36  2  1  0
 13  8  1  0
 21 15  1  0
 35 24  1  0
 24 11  1  0
 33 27  1  0
  1 37  1  0
  1 38  1  0
  1 39  1  0
  3 40  1  0
  4 41  1  0
  9 42  1  0
  9 43  1  0
 10 44  1  0
 10 45  1  0
 12 46  1  0
 12 47  1  0
 13 48  1  0
 13 49  1  0
 16 50  1  0
 17 51  1  0
 20 52  1  0
 25 53  1  0
 25 54  1  0
 28 55  1  0
 29 56  1  0
 32 57  1  0
 33 58  1  0
M  END
$$$$
