
     RDKit          3D

 52 55  0  0  0  0  0  0  0  0999 V2000
   -5.6116    0.3626   -2.7591 C   0  0  0  0  0  0  0  0  0  0  0  0
   -4.1300    0.4250   -2.4414 C   0  0  0  0  0  0  0  0  0  0  0  0
   -3.9411   -0.0905   -1.1201 O   0  0  0  0  0  0  0  0  0  0  0  0
   -2.6539   -0.0946   -0.6794 C   0  0  0  0  0  0  0  0  0  0  0  0
   -1.7062    0.3126   -1.3449 O   0  0  0  0  0  0  0  0  0  0  0  0
   -2.4978   -0.6290    0.6770 C   0  0  0  0  0  0  0  0  0  0  0  0
   -3.5281   -1.1732    1.5377 C   0  0  0  0  0  0  0  0  0  0  0  0
   -4.9484   -1.3311    1.2686 C   0  0  0  0  0  0  0  0  0  0  0  0
   -5.4161   -2.4815    0.6236 C   0  0  0  0  0  0  0  0  0  0  0  0
   -6.7787   -2.6268    0.3578 C   0  0  0  0  0  0  0  0  0  0  0  0
   -7.6746   -1.6265    0.7364 C   0  0  0  0  0  0  0  0  0  0  0  0
   -7.2112   -0.4796    1.3808 C   0  0  0  0  0  0  0  0  0  0  0  0
   -5.8496   -0.3300    1.6484 C   0  0  0  0  0  0  0  0  0  0  0  0
   -3.0255   -1.5816    2.7564 C   0  0  0  0  0  0  0  0  0  0  0  0
   -1.3494   -1.3240    2.8771 S   0  0  0  0  0  0  0  0  0  0  0  0
   -1.2605   -0.6675    1.3138 C   0  0  0  0  0  0  0  0  0  0  0  0
   -0.0526   -0.2322    0.7890 N   0  0  0  0  0  0  0  0  0  0  0  0
    1.1965   -0.2492    1.3843 C   0  0  0  0  0  0  0  0  0  0  0  0
    1.4784   -0.6615    2.5036 O   0  0  0  0  0  0  0  0  0  0  0  0
    2.2414    0.3060    0.5135 C   0  0  0  0  0  0  0  0  0  0  0  0
    3.6233    0.4302    0.8020 C   0  0  0  0  0  0  0  0  0  0  0  0
    4.1785    1.0062   -0.3167 C   0  0  0  0  0  0  0  0  0  0  0  0
    5.5225    1.4203   -0.7277 C   0  0  0  0  0  0  0  0  0  0  0  0
    5.6629    2.3731   -1.7565 C   0  0  0  0  0  0  0  0  0  0  0  0
    6.9201    2.8084   -2.1768 C   0  0  0  0  0  0  0  0  0  0  0  0
    8.0626    2.2994   -1.5734 C   0  0  0  0  0  0  0  0  0  0  0  0
    7.9512    1.3530   -0.5528 C   0  0  0  0  0  0  0  0  0  0  0  0
    6.6926    0.9024   -0.1256 C   0  0  0  0  0  0  0  0  0  0  0  0
    6.5230   -0.0356    0.8626 O   0  0  0  0  0  0  0  0  0  0  0  0
    7.6819   -0.6747    1.3829 C   0  0  0  0  0  0  0  0  0  0  0  0
    3.1792    1.2154   -1.2250 O   0  0  0  0  0  0  0  0  0  0  0  0
    1.9702    0.7824   -0.7138 N   0  0  0  0  0  0  0  0  0  0  0  0
   -5.9758   -0.6682   -2.6959 H   0  0  0  0  0  0  0  0  0  0  0  0
   -5.8120    0.7478   -3.7625 H   0  0  0  0  0  0  0  0  0  0  0  0
   -6.1864    0.9478   -2.0329 H   0  0  0  0  0  0  0  0  0  0  0  0
   -3.7826    1.4632   -2.4881 H   0  0  0  0  0  0  0  0  0  0  0  0
   -3.5707   -0.1852   -3.1595 H   0  0  0  0  0  0  0  0  0  0  0  0
   -4.7249   -3.2662    0.3252 H   0  0  0  0  0  0  0  0  0  0  0  0
   -7.1414   -3.5204   -0.1440 H   0  0  0  0  0  0  0  0  0  0  0  0
   -8.7355   -1.7417    0.5290 H   0  0  0  0  0  0  0  0  0  0  0  0
   -7.9105    0.2985    1.6758 H   0  0  0  0  0  0  0  0  0  0  0  0
   -5.4972    0.5685    2.1491 H   0  0  0  0  0  0  0  0  0  0  0  0
   -3.5642   -2.0226    3.5851 H   0  0  0  0  0  0  0  0  0  0  0  0
   -0.0830    0.1497   -0.1598 H   0  0  0  0  0  0  0  0  0  0  0  0
    4.1269    0.1363    1.7112 H   0  0  0  0  0  0  0  0  0  0  0  0
    4.7838    2.7960   -2.2405 H   0  0  0  0  0  0  0  0  0  0  0  0
    7.0023    3.5458   -2.9718 H   0  0  0  0  0  0  0  0  0  0  0  0
    9.0443    2.6384   -1.8951 H   0  0  0  0  0  0  0  0  0  0  0  0
    8.8711    0.9865   -0.1087 H   0  0  0  0  0  0  0  0  0  0  0  0
    8.3119    0.0371    1.9258 H   0  0  0  0  0  0  0  0  0  0  0  0
    8.2441   -1.1829    0.5923 H   0  0  0  0  0  0  0  0  0  0  0  0
    7.3508   -1.4362    2.0961 H   0  0  0  0  0  0  0  0  0  0  0  0
  1  2  1  0
  2  3  1  0
  3  4  1  0
  4  5  2  0
  4  6  1  0
  6  7  1  0
  7  8  1  0
  8  9  2  0
  9 10  1  0
 10 11  2  0
 11 12  1  0
 12 13  2  0
  7 14  2  0
 14 15  1  0
 15 16  1  0
 16 17  1  0
 17 18  1  0
 18 19  2  0
 18 20  1  0
 20 21  1  0
 21 22  2  0
 22 23  1  0
 23 24  2  0
 24 25  1  0
 25 26  2  0
 26 27  1  0
 27 28  2  0
 28 29  1  0
 29 30  1  0
 22 31  1  0
 31 32  1  0
 16  6  2  0
 32 20  2  0
 13  8  1  0
 28 23  1  0
  1 33  1  0
  1 34  1  0
  1 35  1  0
  2 36  1  0
  2 37  1  0
  9 38  1  0
 10 39  1  0
 11 40  1  0
 12 41  1  0
 13 42  1  0
 14 43  1  0
 17 44  1  0
 21 45  1  0
 24 46  1  0
 25 47  1  0
 26 48  1  0
 27 49  1  0
 30 50  1  0
 30 51  1  0
 30 52  1  0
M  END
$$$$
