
     RDKit          3D

 68 69  0  0  0  0  0  0  0  0999 V2000
   -3.2305    0.2713   -1.4275 C   0  0  0  0  0  0  0  0  0  0  0  0
   -1.8636   -0.0529   -1.2160 O   0  0  0  0  0  0  0  0  0  0  0  0
   -1.7090   -1.0974   -0.2536 C   0  0  0  0  0  0  0  0  0  0  0  0
   -0.2280   -1.4796   -0.1420 C   0  0  0  0  0  0  0  0  0  0  0  0
    0.6333   -0.4477    0.4806 N   0  0  0  0  0  0  0  0  0  0  0  0
    1.5138    0.3590   -0.2363 C   0  0  0  0  0  0  0  0  0  0  0  0
    2.2489    1.1756    0.3210 O   0  0  0  0  0  0  0  0  0  0  0  0
    1.5510    0.2013   -1.7458 C   0  0  0  0  0  0  0  0  0  0  0  0
    2.5104    1.1927   -2.3977 C   0  0  0  0  0  0  0  0  0  0  0  0
    2.5406    0.9713   -3.8963 C   0  0  0  0  0  0  0  0  0  0  0  0
    1.5044    0.8812   -4.5479 O   0  0  0  0  0  0  0  0  0  0  0  0
    3.8147    0.8892   -4.4047 N   0  0  0  0  0  0  0  0  0  0  0  0
    4.1252    0.6361   -5.7223 C   0  0  0  0  0  0  0  0  0  0  0  0
    3.2676    0.4760   -6.8320 C   0  0  0  0  0  0  0  0  0  0  0  0
    4.1086    0.2270   -7.8872 C   0  0  0  0  0  0  0  0  0  0  0  0
    3.9033   -0.0245   -9.3228 C   0  0  0  0  0  0  0  0  0  0  0  0
    5.3931    0.2459   -7.4458 O   0  0  0  0  0  0  0  0  0  0  0  0
    5.4065    0.4917   -6.0852 N   0  0  0  0  0  0  0  0  0  0  0  0
    0.6138   -0.2718    1.9588 C   0  0  0  0  0  0  0  0  0  0  0  0
    0.2367   -1.5872    2.7150 C   0  0  0  0  0  0  0  0  0  0  0  0
    1.0461   -2.5055    2.8405 O   0  0  0  0  0  0  0  0  0  0  0  0
   -1.0926   -1.7114    3.0915 N   0  0  0  0  0  0  0  0  0  0  0  0
   -1.6568   -2.8548    3.8259 C   0  0  0  0  0  0  0  0  0  0  0  0
   -1.4664   -4.1686    3.0491 C   0  0  0  0  0  0  0  0  0  0  0  0
   -1.0257   -2.9646    5.2222 C   0  0  0  0  0  0  0  0  0  0  0  0
   -3.1680   -2.6074    3.9850 C   0  0  0  0  0  0  0  0  0  0  0  0
   -0.1603    0.9563    2.4632 C   0  0  0  0  0  0  0  0  0  0  0  0
   -0.9022    1.7988    1.6234 C   0  0  0  0  0  0  0  0  0  0  0  0
   -1.6088    2.8953    2.1348 C   0  0  0  0  0  0  0  0  0  0  0  0
   -1.5852    3.1744    3.5002 C   0  0  0  0  0  0  0  0  0  0  0  0
   -2.2440    4.1959    4.1261 O   0  0  0  0  0  0  0  0  0  0  0  0
   -2.8660    5.1620    3.2869 C   0  0  0  0  0  0  0  0  0  0  0  0
   -0.8340    2.3582    4.3450 C   0  0  0  0  0  0  0  0  0  0  0  0
   -0.1163    1.2734    3.8338 C   0  0  0  0  0  0  0  0  0  0  0  0
   -3.6871    0.6281   -0.4993 H   0  0  0  0  0  0  0  0  0  0  0  0
   -3.7740   -0.5980   -1.8077 H   0  0  0  0  0  0  0  0  0  0  0  0
   -3.2836    1.0678   -2.1737 H   0  0  0  0  0  0  0  0  0  0  0  0
   -2.1150   -0.7701    0.7071 H   0  0  0  0  0  0  0  0  0  0  0  0
   -2.2718   -1.9771   -0.5878 H   0  0  0  0  0  0  0  0  0  0  0  0
   -0.1242   -2.4123    0.4215 H   0  0  0  0  0  0  0  0  0  0  0  0
    0.1386   -1.7067   -1.1452 H   0  0  0  0  0  0  0  0  0  0  0  0
    0.5431    0.3479   -2.1459 H   0  0  0  0  0  0  0  0  0  0  0  0
    1.8856   -0.8145   -1.9837 H   0  0  0  0  0  0  0  0  0  0  0  0
    3.5140    1.0835   -1.9691 H   0  0  0  0  0  0  0  0  0  0  0  0
    2.1897    2.2256   -2.2167 H   0  0  0  0  0  0  0  0  0  0  0  0
    4.6240    0.9576   -3.8015 H   0  0  0  0  0  0  0  0  0  0  0  0
    2.1896    0.5345   -6.8646 H   0  0  0  0  0  0  0  0  0  0  0  0
    3.8142    0.9278   -9.8584 H   0  0  0  0  0  0  0  0  0  0  0  0
    4.7385   -0.5869   -9.7525 H   0  0  0  0  0  0  0  0  0  0  0  0
    2.9850   -0.5979   -9.4924 H   0  0  0  0  0  0  0  0  0  0  0  0
    1.6556   -0.0795    2.2577 H   0  0  0  0  0  0  0  0  0  0  0  0
   -1.6335   -0.8541    3.1149 H   0  0  0  0  0  0  0  0  0  0  0  0
   -2.0301   -4.9868    3.5097 H   0  0  0  0  0  0  0  0  0  0  0  0
   -1.8117   -4.0642    2.0145 H   0  0  0  0  0  0  0  0  0  0  0  0
   -0.4183   -4.4810    3.0156 H   0  0  0  0  0  0  0  0  0  0  0  0
   -1.4730   -3.7818    5.7987 H   0  0  0  0  0  0  0  0  0  0  0  0
   -1.1646   -2.0374    5.7906 H   0  0  0  0  0  0  0  0  0  0  0  0
    0.0523   -3.1519    5.1684 H   0  0  0  0  0  0  0  0  0  0  0  0
   -3.6549   -2.4992    3.0088 H   0  0  0  0  0  0  0  0  0  0  0  0
   -3.6560   -3.4299    4.5183 H   0  0  0  0  0  0  0  0  0  0  0  0
   -3.3576   -1.6845    4.5459 H   0  0  0  0  0  0  0  0  0  0  0  0
   -0.9364    1.6282    0.5501 H   0  0  0  0  0  0  0  0  0  0  0  0
   -2.1655    3.5088    1.4339 H   0  0  0  0  0  0  0  0  0  0  0  0
   -2.1383    5.6324    2.6165 H   0  0  0  0  0  0  0  0  0  0  0  0
   -3.6937    4.7184    2.7235 H   0  0  0  0  0  0  0  0  0  0  0  0
   -3.2800    5.9445    3.9294 H   0  0  0  0  0  0  0  0  0  0  0  0
   -0.7993    2.5764    5.4114 H   0  0  0  0  0  0  0  0  0  0  0  0
    0.4774    0.6730    4.5218 H   0  0  0  0  0  0  0  0  0  0  0  0
  1  2  1  0
  2  3  1  0
  3  4  1  0
  4  5  1  0
  5  6  1  0
  6  7  2  0
  6  8  1  0
  8  9  1  0
  9 10  1  0
 10 11  2  0
 10 12  1  0
 12 13  1  0
 13 14  1  0
 14 15  2  0
 15 16  1  0
 15 17  1  0
 17 18  1  0
  5 19  1  0
 19 20  1  0
 20 21  2  0
 20 22  1  0
 22 23  1  0
 23 24  1  0
 23 25  1  0
 23 26  1  0
 19 27  1  0
 27 28  2  0
 28 29  1  0
 29 30  2  0
 30 31  1  0
 31 32  1  0
 30 33  1  0
 33 34  2  0
 18 13  2  0
 34 27  1  0
  1 35  1  0
  1 36  1  0
  1 37  1  0
  3 38  1  0
  3 39  1  0
  4 40  1  0
  4 41  1  0
  8 42  1  0
  8 43  1  0
  9 44  1  0
  9 45  1  0
 12 46  1  0
 14 47  1  0
 16 48  1  0
 16 49  1  0
 16 50  1  0
 19 51  1  0
 22 52  1  0
 24 53  1  0
 24 54  1  0
 24 55  1  0
 25 56  1  0
 25 57  1  0
 25 58  1  0
 26 59  1  0
 26 60  1  0
 26 61  1  0
 28 62  1  0
 29 63  1  0
 32 64  1  0
 32 65  1  0
 32 66  1  0
 33 67  1  0
 34 68  1  0
M  END
$$$$
