
     RDKit          3D

 60 63  0  0  0  0  0  0  0  0999 V2000
   -4.2849    4.4372    4.3449 C   0  0  0  0  0  0  0  0  0  0  0  0
   -3.8624    4.6437    3.0025 O   0  0  0  0  0  0  0  0  0  0  0  0
   -3.2978    3.5785    2.3583 C   0  0  0  0  0  0  0  0  0  0  0  0
   -2.8927    3.8376    1.0470 C   0  0  0  0  0  0  0  0  0  0  0  0
   -2.2946    2.8416    0.2707 C   0  0  0  0  0  0  0  0  0  0  0  0
   -2.1053    1.5647    0.8067 C   0  0  0  0  0  0  0  0  0  0  0  0
   -1.4909    0.5480    0.0324 N   0  0  0  0  0  0  0  0  0  0  0  0
   -1.8787   -0.7819   -0.1000 C   0  0  0  0  0  0  0  0  0  0  0  0
   -3.1696   -1.3754    0.3623 C   0  0  0  0  0  0  0  0  0  0  0  0
   -4.3561   -0.8268   -0.3737 C   0  0  0  0  0  0  0  0  0  0  0  0
   -5.3671   -0.0030    0.0920 C   0  0  0  0  0  0  0  0  0  0  0  0
   -6.2535    0.2481   -0.9788 C   0  0  0  0  0  0  0  0  0  0  0  0
   -5.7714   -0.4298   -2.0736 C   0  0  0  0  0  0  0  0  0  0  0  0
   -4.6262   -1.0872   -1.7019 N   0  0  0  0  0  0  0  0  0  0  0  0
   -3.8397   -1.9077   -2.6004 C   0  0  0  0  0  0  0  0  0  0  0  0
   -0.9941   -1.4279   -0.8395 N   0  0  0  0  0  0  0  0  0  0  0  0
   -0.0444   -0.5392   -1.2510 N   0  0  0  0  0  0  0  0  0  0  0  0
   -0.3491    0.6324   -0.7450 C   0  0  0  0  0  0  0  0  0  0  0  0
    0.7132    1.9967   -0.8751 S   0  0  0  0  0  0  0  0  0  0  0  0
    1.7106    1.7747    0.6222 C   0  0  0  0  0  0  0  0  0  0  0  0
    2.8230    0.7369    0.5414 C   0  0  0  0  0  0  0  0  0  0  0  0
    3.6630    0.6663    1.4446 O   0  0  0  0  0  0  0  0  0  0  0  0
    2.8415   -0.1142   -0.5382 N   0  0  0  0  0  0  0  0  0  0  0  0
    3.7827   -1.2149   -0.6327 C   0  0  0  0  0  0  0  0  0  0  0  0
    5.1899   -0.7526   -1.0157 C   0  0  0  0  0  0  0  0  0  0  0  0
    6.1444   -1.9151   -1.1317 C   0  0  0  0  0  0  0  0  0  0  0  0
    6.7810   -2.4213    0.0097 C   0  0  0  0  0  0  0  0  0  0  0  0
    7.6484   -3.5098   -0.0889 C   0  0  0  0  0  0  0  0  0  0  0  0
    7.8848   -4.1032   -1.3274 C   0  0  0  0  0  0  0  0  0  0  0  0
    7.2533   -3.6099   -2.4680 C   0  0  0  0  0  0  0  0  0  0  0  0
    6.3847   -2.5216   -2.3715 C   0  0  0  0  0  0  0  0  0  0  0  0
   -2.5079    1.2992    2.1206 C   0  0  0  0  0  0  0  0  0  0  0  0
   -3.1013    2.3055    2.8926 C   0  0  0  0  0  0  0  0  0  0  0  0
   -3.4381    4.1797    4.9898 H   0  0  0  0  0  0  0  0  0  0  0  0
   -4.7080    5.3776    4.7108 H   0  0  0  0  0  0  0  0  0  0  0  0
   -5.0696    3.6752    4.3989 H   0  0  0  0  0  0  0  0  0  0  0  0
   -3.0514    4.8267    0.6224 H   0  0  0  0  0  0  0  0  0  0  0  0
   -2.0284    3.0794   -0.7568 H   0  0  0  0  0  0  0  0  0  0  0  0
   -3.2994   -1.2454    1.4403 H   0  0  0  0  0  0  0  0  0  0  0  0
   -3.1333   -2.4627    0.2151 H   0  0  0  0  0  0  0  0  0  0  0  0
   -5.4545    0.3855    1.0989 H   0  0  0  0  0  0  0  0  0  0  0  0
   -7.1467    0.8589   -0.9556 H   0  0  0  0  0  0  0  0  0  0  0  0
   -6.1532   -0.4965   -3.0844 H   0  0  0  0  0  0  0  0  0  0  0  0
   -3.5247   -2.8135   -2.0785 H   0  0  0  0  0  0  0  0  0  0  0  0
   -4.4524   -2.1865   -3.4620 H   0  0  0  0  0  0  0  0  0  0  0  0
   -2.9786   -1.3227   -2.9305 H   0  0  0  0  0  0  0  0  0  0  0  0
    2.1871    2.7386    0.8319 H   0  0  0  0  0  0  0  0  0  0  0  0
    1.0672    1.5248    1.4722 H   0  0  0  0  0  0  0  0  0  0  0  0
    2.0137   -0.1617   -1.1296 H   0  0  0  0  0  0  0  0  0  0  0  0
    3.3897   -1.9052   -1.3875 H   0  0  0  0  0  0  0  0  0  0  0  0
    3.7920   -1.7442    0.3272 H   0  0  0  0  0  0  0  0  0  0  0  0
    5.1569   -0.2033   -1.9650 H   0  0  0  0  0  0  0  0  0  0  0  0
    5.5798   -0.0389   -0.2801 H   0  0  0  0  0  0  0  0  0  0  0  0
    6.6024   -1.9673    0.9829 H   0  0  0  0  0  0  0  0  0  0  0  0
    8.1389   -3.8943    0.8014 H   0  0  0  0  0  0  0  0  0  0  0  0
    8.5609   -4.9503   -1.4036 H   0  0  0  0  0  0  0  0  0  0  0  0
    7.4371   -4.0733   -3.4338 H   0  0  0  0  0  0  0  0  0  0  0  0
    5.8974   -2.1496   -3.2698 H   0  0  0  0  0  0  0  0  0  0  0  0
   -2.3284    0.3351    2.5891 H   0  0  0  0  0  0  0  0  0  0  0  0
   -3.3895    2.0645    3.9109 H   0  0  0  0  0  0  0  0  0  0  0  0
  1  2  1  0
  2  3  1  0
  3  4  2  0
  4  5  1  0
  5  6  2  0
  6  7  1  0
  7  8  1  0
  8  9  1  0
  9 10  1  0
 10 11  2  0
 11 12  1  0
 12 13  2  0
 13 14  1  0
 14 15  1  0
  8 16  2  0
 16 17  1  0
 17 18  2  0
 18 19  1  0
 19 20  1  0
 20 21  1  0
 21 22  2  0
 21 23  1  0
 23 24  1  0
 24 25  1  0
 25 26  1  0
 26 27  2  0
 27 28  1  0
 28 29  2  0
 29 30  1  0
 30 31  2  0
  6 32  1  0
 32 33  2  0
 33  3  1  0
 18  7  1  0
 31 26  1  0
 14 10  1  0
  1 34  1  0
  1 35  1  0
  1 36  1  0
  4 37  1  0
  5 38  1  0
  9 39  1  0
  9 40  1  0
 11 41  1  0
 12 42  1  0
 13 43  1  0
 15 44  1  0
 15 45  1  0
 15 46  1  0
 20 47  1  0
 20 48  1  0
 23 49  1  0
 24 50  1  0
 24 51  1  0
 25 52  1  0
 25 53  1  0
 27 54  1  0
 28 55  1  0
 29 56  1  0
 30 57  1  0
 31 58  1  0
 32 59  1  0
 33 60  1  0
M  END
$$$$
