
     RDKit          3D

 37 38  0  0  0  0  0  0  0  0999 V2000
   -4.7465    2.7653   -0.8397 C   0  0  0  0  0  0  0  0  0  0  0  0
   -4.7052    1.4030   -0.4408 O   0  0  0  0  0  0  0  0  0  0  0  0
   -3.4840    0.8675   -0.1152 C   0  0  0  0  0  0  0  0  0  0  0  0
   -2.2742    1.5686   -0.1703 C   0  0  0  0  0  0  0  0  0  0  0  0
   -1.0749    0.9397    0.1768 C   0  0  0  0  0  0  0  0  0  0  0  0
   -1.0772   -0.4007    0.5741 C   0  0  0  0  0  0  0  0  0  0  0  0
    0.1758   -1.1117    0.9507 C   0  0  0  0  0  0  0  0  0  0  0  0
    0.1398   -2.0656    1.7191 O   0  0  0  0  0  0  0  0  0  0  0  0
    1.3372   -0.6604    0.3611 N   0  0  0  0  0  0  0  0  0  0  0  0
    2.5748   -1.3744    0.5693 C   0  0  0  0  0  0  0  0  0  0  0  0
    3.7381   -0.5863    0.0281 C   0  0  0  0  0  0  0  0  0  0  0  0
    4.3079   -0.9068   -1.2105 C   0  0  0  0  0  0  0  0  0  0  0  0
    5.3719   -0.1546   -1.7150 C   0  0  0  0  0  0  0  0  0  0  0  0
    5.8742    0.9309   -0.9914 C   0  0  0  0  0  0  0  0  0  0  0  0
    7.1873    1.8175   -1.6799 Cl  0  0  0  0  0  0  0  0  0  0  0  0
    5.3071    1.2648    0.2424 C   0  0  0  0  0  0  0  0  0  0  0  0
    5.8654    2.5978    1.1892 Cl  0  0  0  0  0  0  0  0  0  0  0  0
    4.2428    0.5092    0.7465 C   0  0  0  0  0  0  0  0  0  0  0  0
   -2.2869   -1.1031    0.6489 C   0  0  0  0  0  0  0  0  0  0  0  0
   -3.4908   -0.4792    0.3045 C   0  0  0  0  0  0  0  0  0  0  0  0
   -4.7182   -1.0944    0.3367 O   0  0  0  0  0  0  0  0  0  0  0  0
   -4.7803   -2.4132    0.8623 C   0  0  0  0  0  0  0  0  0  0  0  0
   -4.3992    3.4231   -0.0362 H   0  0  0  0  0  0  0  0  0  0  0  0
   -5.7894    3.0209   -1.0505 H   0  0  0  0  0  0  0  0  0  0  0  0
   -4.1731    2.9251   -1.7587 H   0  0  0  0  0  0  0  0  0  0  0  0
   -2.2323    2.6102   -0.4719 H   0  0  0  0  0  0  0  0  0  0  0  0
   -0.1561    1.5191    0.1564 H   0  0  0  0  0  0  0  0  0  0  0  0
    1.2680   -0.0763   -0.4609 H   0  0  0  0  0  0  0  0  0  0  0  0
    2.4937   -2.3483    0.0724 H   0  0  0  0  0  0  0  0  0  0  0  0
    2.7104   -1.5706    1.6396 H   0  0  0  0  0  0  0  0  0  0  0  0
    3.9294   -1.7467   -1.7912 H   0  0  0  0  0  0  0  0  0  0  0  0
    5.8060   -0.4205   -2.6764 H   0  0  0  0  0  0  0  0  0  0  0  0
    3.7989    0.7729    1.7054 H   0  0  0  0  0  0  0  0  0  0  0  0
   -2.2592   -2.1389    0.9738 H   0  0  0  0  0  0  0  0  0  0  0  0
   -5.8299   -2.7228    0.8645 H   0  0  0  0  0  0  0  0  0  0  0  0
   -4.2288   -3.1153    0.2286 H   0  0  0  0  0  0  0  0  0  0  0  0
   -4.4222   -2.4459    1.8966 H   0  0  0  0  0  0  0  0  0  0  0  0
  1  2  1  0
  2  3  1  0
  3  4  2  0
  4  5  1  0
  5  6  2  0
  6  7  1  0
  7  8  2  0
  7  9  1  0
  9 10  1  0
 10 11  1  0
 11 12  2  0
 12 13  1  0
 13 14  2  0
 14 15  1  0
 14 16  1  0
 16 17  1  0
 16 18  2  0
  6 19  1  0
 19 20  2  0
 20 21  1  0
 21 22  1  0
 20  3  1  0
 18 11  1  0
  1 23  1  0
  1 24  1  0
  1 25  1  0
  4 26  1  0
  5 27  1  0
  9 28  1  0
 10 29  1  0
 10 30  1  0
 12 31  1  0
 13 32  1  0
 18 33  1  0
 19 34  1  0
 22 35  1  0
 22 36  1  0
 22 37  1  0
M  END
$$$$
