
     RDKit          3D

 60 65  0  0  0  0  0  0  0  0999 V2000
    6.5425   -0.0069    1.1885 C   0  0  0  0  0  0  0  0  0  0  0  0
    5.7314    0.8226    0.2667 C   0  0  0  0  0  0  0  0  0  0  0  0
    6.0820    2.0890    0.0110 N   0  0  0  0  0  0  0  0  0  0  0  0
    5.1591    2.5558   -0.9037 O   0  0  0  0  0  0  0  0  0  0  0  0
    4.2596    1.5761   -1.1860 C   0  0  0  0  0  0  0  0  0  0  0  0
    3.2467    1.9114   -2.2057 C   0  0  0  0  0  0  0  0  0  0  0  0
    4.5469    0.4592   -0.4278 C   0  0  0  0  0  0  0  0  0  0  0  0
    3.8660   -0.8194   -0.4198 C   0  0  0  0  0  0  0  0  0  0  0  0
    4.5097   -1.8660   -0.4138 O   0  0  0  0  0  0  0  0  0  0  0  0
    2.4618   -0.8081   -0.4413 N   0  0  0  0  0  0  0  0  0  0  0  0
    1.7212    0.1254    0.4041 C   0  0  0  0  0  0  0  0  0  0  0  0
    0.2914    0.3211   -0.0947 C   0  0  0  0  0  0  0  0  0  0  0  0
   -0.4739   -1.0221   -0.2317 C   0  0  0  0  0  0  0  0  0  0  0  0
    0.3876   -1.9372   -1.1473 C   0  0  0  0  0  0  0  0  0  0  0  0
    1.8137   -2.0985   -0.6288 C   0  0  0  0  0  0  0  0  0  0  0  0
   -0.5378   -1.5713    1.1069 O   0  0  0  0  0  0  0  0  0  0  0  0
   -1.3558   -2.6540    1.2713 C   0  0  0  0  0  0  0  0  0  0  0  0
   -1.1378   -3.4194    2.4175 C   0  0  0  0  0  0  0  0  0  0  0  0
   -1.9155   -4.5540    2.6545 C   0  0  0  0  0  0  0  0  0  0  0  0
   -2.9080   -4.9111    1.7467 C   0  0  0  0  0  0  0  0  0  0  0  0
   -3.6500   -6.0006    1.9795 F   0  0  0  0  0  0  0  0  0  0  0  0
   -3.1462   -4.1511    0.6090 C   0  0  0  0  0  0  0  0  0  0  0  0
   -2.3696   -3.0123    0.3812 C   0  0  0  0  0  0  0  0  0  0  0  0
   -2.6236   -2.1579   -0.7945 C   0  0  0  0  0  0  0  0  0  0  0  0
   -3.4087   -2.5326   -1.6586 O   0  0  0  0  0  0  0  0  0  0  0  0
   -1.9083   -0.8117   -0.7956 C   0  0  0  0  0  0  0  0  0  0  0  0
   -2.7886    0.1722   -0.0319 C   0  0  0  0  0  0  0  0  0  0  0  0
   -2.7085    1.3353   -0.9578 C   0  0  0  0  0  0  0  0  0  0  0  0
   -3.2020    2.6796   -0.5778 C   0  0  0  0  0  0  0  0  0  0  0  0
   -3.8718    2.8986    0.6319 C   0  0  0  0  0  0  0  0  0  0  0  0
   -4.3197    4.1825    0.9610 C   0  0  0  0  0  0  0  0  0  0  0  0
   -4.1007    5.2438    0.0836 C   0  0  0  0  0  0  0  0  0  0  0  0
   -4.6529    6.8195    0.4948 Cl  0  0  0  0  0  0  0  0  0  0  0  0
   -3.4393    5.0338   -1.1240 C   0  0  0  0  0  0  0  0  0  0  0  0
   -2.9911    3.7521   -1.4554 C   0  0  0  0  0  0  0  0  0  0  0  0
   -2.1758    1.0770   -2.1082 N   0  0  0  0  0  0  0  0  0  0  0  0
   -1.8522   -0.2990   -2.1305 O   0  0  0  0  0  0  0  0  0  0  0  0
    5.9075   -0.4613    1.9559 H   0  0  0  0  0  0  0  0  0  0  0  0
    7.3087    0.5877    1.6974 H   0  0  0  0  0  0  0  0  0  0  0  0
    7.0464   -0.8072    0.6372 H   0  0  0  0  0  0  0  0  0  0  0  0
    2.4171    2.4618   -1.7524 H   0  0  0  0  0  0  0  0  0  0  0  0
    3.6807    2.5356   -2.9932 H   0  0  0  0  0  0  0  0  0  0  0  0
    2.8458    1.0103   -2.6796 H   0  0  0  0  0  0  0  0  0  0  0  0
    2.2189    1.0956    0.4650 H   0  0  0  0  0  0  0  0  0  0  0  0
    1.7285   -0.2806    1.4235 H   0  0  0  0  0  0  0  0  0  0  0  0
   -0.2139    0.9838    0.6167 H   0  0  0  0  0  0  0  0  0  0  0  0
    0.3300    0.8350   -1.0623 H   0  0  0  0  0  0  0  0  0  0  0  0
    0.4275   -1.5131   -2.1588 H   0  0  0  0  0  0  0  0  0  0  0  0
   -0.0466   -2.9385   -1.2391 H   0  0  0  0  0  0  0  0  0  0  0  0
    1.8329   -2.6347    0.3277 H   0  0  0  0  0  0  0  0  0  0  0  0
    2.3890   -2.6949   -1.3468 H   0  0  0  0  0  0  0  0  0  0  0  0
   -0.3556   -3.1431    3.1209 H   0  0  0  0  0  0  0  0  0  0  0  0
   -1.7519   -5.1646    3.5379 H   0  0  0  0  0  0  0  0  0  0  0  0
   -3.9330   -4.4462   -0.0798 H   0  0  0  0  0  0  0  0  0  0  0  0
   -3.8347   -0.1472    0.0353 H   0  0  0  0  0  0  0  0  0  0  0  0
   -2.4196    0.4041    0.9697 H   0  0  0  0  0  0  0  0  0  0  0  0
   -4.0669    2.0906    1.3309 H   0  0  0  0  0  0  0  0  0  0  0  0
   -4.8418    4.3482    1.9004 H   0  0  0  0  0  0  0  0  0  0  0  0
   -3.2711    5.8581   -1.8126 H   0  0  0  0  0  0  0  0  0  0  0  0
   -2.4795    3.5986   -2.4044 H   0  0  0  0  0  0  0  0  0  0  0  0
  1  2  1  0
  2  3  2  0
  3  4  1  0
  4  5  1  0
  5  6  1  0
  5  7  2  0
  7  8  1  0
  8  9  2  0
  8 10  1  0
 10 11  1  0
 11 12  1  0
 12 13  1  0
 13 14  1  0
 14 15  1  0
 13 16  1  0
 16 17  1  0
 17 18  2  0
 18 19  1  0
 19 20  2  0
 20 21  1  0
 20 22  1  0
 22 23  2  0
 23 24  1  0
 24 25  2  0
 24 26  1  0
 26 27  1  0
 27 28  1  0
 28 29  1  0
 29 30  2  0
 30 31  1  0
 31 32  2  0
 32 33  1  0
 32 34  1  0
 34 35  2  0
 28 36  2  0
 36 37  1  0
  7  2  1  0
 15 10  1  0
 23 17  1  0
 37 26  1  0
 26 13  1  0
 35 29  1  0
  1 38  1  0
  1 39  1  0
  1 40  1  0
  6 41  1  0
  6 42  1  0
  6 43  1  0
 11 44  1  0
 11 45  1  0
 12 46  1  0
 12 47  1  0
 14 48  1  0
 14 49  1  0
 15 50  1  0
 15 51  1  0
 18 52  1  0
 19 53  1  0
 22 54  1  0
 27 55  1  0
 27 56  1  0
 30 57  1  0
 31 58  1  0
 34 59  1  0
 35 60  1  0
M  END
$$$$
