
     RDKit          3D

 41 42  0  0  0  0  0  0  0  0999 V2000
   -3.6772   -2.3911    0.5313 C   0  0  0  0  0  0  0  0  0  0  0  0
   -3.9138   -0.9882    1.0727 C   0  0  0  0  0  0  0  0  0  0  0  0
   -3.5045    0.0329    0.1001 N   0  0  0  0  0  0  0  0  0  0  0  0
   -4.5433    0.4724   -0.8402 C   0  0  0  0  0  0  0  0  0  0  0  0
   -5.2535    1.7152   -0.3228 C   0  0  0  0  0  0  0  0  0  0  0  0
   -2.1958    0.5001    0.0243 C   0  0  0  0  0  0  0  0  0  0  0  0
   -1.8178    1.5424   -0.8395 C   0  0  0  0  0  0  0  0  0  0  0  0
   -0.4991    2.0198   -0.9199 C   0  0  0  0  0  0  0  0  0  0  0  0
    0.5084    1.4612   -0.1375 C   0  0  0  0  0  0  0  0  0  0  0  0
    1.8622    2.0227   -0.1989 C   0  0  0  0  0  0  0  0  0  0  0  0
    3.0304    1.3751   -0.3347 C   0  0  0  0  0  0  0  0  0  0  0  0
    3.2026   -0.0901   -0.5427 C   0  0  0  0  0  0  0  0  0  0  0  0
    2.3708   -0.7762   -1.1226 O   0  0  0  0  0  0  0  0  0  0  0  0
    4.4683   -0.7057   -0.0790 C   0  0  0  0  0  0  0  0  0  0  0  0
    5.2769   -0.1583    0.9210 C   0  0  0  0  0  0  0  0  0  0  0  0
    6.4470   -0.8194    1.2939 C   0  0  0  0  0  0  0  0  0  0  0  0
    6.7658   -2.0089    0.6583 C   0  0  0  0  0  0  0  0  0  0  0  0
    6.0022   -2.5713   -0.3020 N   0  0  0  0  0  0  0  0  0  0  0  0
    4.8658   -1.9123   -0.6437 C   0  0  0  0  0  0  0  0  0  0  0  0
    0.1636    0.4391    0.7419 C   0  0  0  0  0  0  0  0  0  0  0  0
   -1.1592   -0.0297    0.8119 C   0  0  0  0  0  0  0  0  0  0  0  0
   -4.2344   -2.5541   -0.3971 H   0  0  0  0  0  0  0  0  0  0  0  0
   -2.6193   -2.5717    0.3182 H   0  0  0  0  0  0  0  0  0  0  0  0
   -4.0081   -3.1375    1.2601 H   0  0  0  0  0  0  0  0  0  0  0  0
   -3.4172   -0.8518    2.0399 H   0  0  0  0  0  0  0  0  0  0  0  0
   -4.9837   -0.8780    1.2917 H   0  0  0  0  0  0  0  0  0  0  0  0
   -5.2895   -0.3227   -0.9661 H   0  0  0  0  0  0  0  0  0  0  0  0
   -4.1421    0.6389   -1.8461 H   0  0  0  0  0  0  0  0  0  0  0  0
   -6.0389    2.0200   -1.0215 H   0  0  0  0  0  0  0  0  0  0  0  0
   -4.5637    2.5556   -0.2001 H   0  0  0  0  0  0  0  0  0  0  0  0
   -5.7198    1.5246    0.6496 H   0  0  0  0  0  0  0  0  0  0  0  0
   -2.5461    2.0300   -1.4793 H   0  0  0  0  0  0  0  0  0  0  0  0
   -0.2774    2.8297   -1.6104 H   0  0  0  0  0  0  0  0  0  0  0  0
    1.8888    3.1080   -0.1126 H   0  0  0  0  0  0  0  0  0  0  0  0
    3.9445    1.9606   -0.3378 H   0  0  0  0  0  0  0  0  0  0  0  0
    5.0080    0.7606    1.4328 H   0  0  0  0  0  0  0  0  0  0  0  0
    7.0929   -0.4200    2.0686 H   0  0  0  0  0  0  0  0  0  0  0  0
    7.6665   -2.5596    0.9156 H   0  0  0  0  0  0  0  0  0  0  0  0
    4.2705   -2.3997   -1.4130 H   0  0  0  0  0  0  0  0  0  0  0  0
    0.9123   -0.0187    1.3823 H   0  0  0  0  0  0  0  0  0  0  0  0
   -1.3429   -0.8438    1.5053 H   0  0  0  0  0  0  0  0  0  0  0  0
  1  2  1  0
  2  3  1  0
  3  4  1  0
  4  5  1  0
  3  6  1  0
  6  7  2  0
  7  8  1  0
  8  9  2  0
  9 10  1  0
 10 11  2  3
 11 12  1  0
 12 13  2  0
 12 14  1  0
 14 15  2  0
 15 16  1  0
 16 17  2  0
 17 18  1  0
 18 19  2  0
  9 20  1  0
 20 21  2  0
 21  6  1  0
 19 14  1  0
  1 22  1  0
  1 23  1  0
  1 24  1  0
  2 25  1  0
  2 26  1  0
  4 27  1  0
  4 28  1  0
  5 29  1  0
  5 30  1  0
  5 31  1  0
  7 32  1  0
  8 33  1  0
 10 34  1  0
 11 35  1  0
 15 36  1  0
 16 37  1  0
 17 38  1  0
 19 39  1  0
 20 40  1  0
 21 41  1  0
M  END
$$$$
