
     RDKit          3D

 52 51  0  0  0  0  0  0  0  0999 V2000
   -4.6570    1.1614    3.0001 C   0  0  0  0  0  0  0  0  0  0  0  0
   -4.9016    0.4865    2.0366 C   0  0  0  0  0  0  0  0  0  0  0  0
   -5.2006   -0.3504    0.8722 C   0  0  0  0  0  0  0  0  0  0  0  0
   -5.0658    0.4263   -0.4496 N   0  0  0  0  0  4  0  0  0  0  0  0
   -6.1285    1.5316   -0.4953 C   0  0  0  0  0  0  0  0  0  0  0  0
   -5.3524   -0.5349   -1.6006 C   0  0  0  0  0  0  0  0  0  0  0  0
   -3.6855    1.0903   -0.6263 C   0  0  0  0  0  0  0  0  0  0  0  0
   -2.5130    0.1088   -0.5611 C   0  0  0  0  0  0  0  0  0  0  0  0
   -1.1850    0.8497   -0.7548 C   0  0  0  0  0  0  0  0  0  0  0  0
    0.0316   -0.0798   -0.8138 C   0  0  0  0  0  0  0  0  0  0  0  0
    0.2880   -0.8287    0.4979 C   0  0  0  0  0  0  0  0  0  0  0  0
    1.5904   -1.6379    0.4775 C   0  0  0  0  0  0  0  0  0  0  0  0
    2.7848   -0.9439    1.1431 C   0  0  0  0  0  0  0  0  0  0  0  0
    3.2323    0.3406    0.4426 C   0  0  0  0  0  0  0  0  0  0  0  0
    4.5236    0.9207    1.0323 C   0  0  0  0  0  0  0  0  0  0  0  0
    5.7939    0.5765    0.2463 C   0  0  0  0  0  0  0  0  0  0  0  0
    6.1290   -0.9131    0.2169 C   0  0  0  0  0  0  0  0  0  0  0  0
    7.4711   -1.1669   -0.4533 C   0  0  0  0  0  0  0  0  0  0  0  0
   -4.4414    1.7498    3.8649 H   0  0  0  0  0  0  0  0  0  0  0  0
   -4.5298   -1.2141    0.8205 H   0  0  0  0  0  0  0  0  0  0  0  0
   -6.2289   -0.7277    0.9189 H   0  0  0  0  0  0  0  0  0  0  0  0
   -5.9129    2.2696    0.2821 H   0  0  0  0  0  0  0  0  0  0  0  0
   -7.1111    1.0779   -0.3346 H   0  0  0  0  0  0  0  0  0  0  0  0
   -6.0868    2.0057   -1.4809 H   0  0  0  0  0  0  0  0  0  0  0  0
   -6.3891   -0.8759   -1.5167 H   0  0  0  0  0  0  0  0  0  0  0  0
   -4.6770   -1.3909   -1.5283 H   0  0  0  0  0  0  0  0  0  0  0  0
   -5.2030   -0.0026   -2.5445 H   0  0  0  0  0  0  0  0  0  0  0  0
   -3.7052    1.5946   -1.6005 H   0  0  0  0  0  0  0  0  0  0  0  0
   -3.5882    1.8623    0.1456 H   0  0  0  0  0  0  0  0  0  0  0  0
   -2.6057   -0.6563   -1.3384 H   0  0  0  0  0  0  0  0  0  0  0  0
   -2.4999   -0.4003    0.4065 H   0  0  0  0  0  0  0  0  0  0  0  0
   -1.0483    1.5810    0.0512 H   0  0  0  0  0  0  0  0  0  0  0  0
   -1.2255    1.4175   -1.6927 H   0  0  0  0  0  0  0  0  0  0  0  0
    0.9043    0.5262   -1.0768 H   0  0  0  0  0  0  0  0  0  0  0  0
   -0.1006   -0.8030   -1.6280 H   0  0  0  0  0  0  0  0  0  0  0  0
    0.2789   -0.1351    1.3466 H   0  0  0  0  0  0  0  0  0  0  0  0
   -0.5373   -1.5328    0.6586 H   0  0  0  0  0  0  0  0  0  0  0  0
    1.4148   -2.5692    1.0317 H   0  0  0  0  0  0  0  0  0  0  0  0
    1.8494   -1.9349   -0.5457 H   0  0  0  0  0  0  0  0  0  0  0  0
    2.5355   -0.7188    2.1877 H   0  0  0  0  0  0  0  0  0  0  0  0
    3.6119   -1.6608    1.1747 H   0  0  0  0  0  0  0  0  0  0  0  0
    3.3434    0.1746   -0.6350 H   0  0  0  0  0  0  0  0  0  0  0  0
    2.4434    1.0913    0.5711 H   0  0  0  0  0  0  0  0  0  0  0  0
    4.6392    0.6273    2.0824 H   0  0  0  0  0  0  0  0  0  0  0  0
    4.4333    2.0148    1.0279 H   0  0  0  0  0  0  0  0  0  0  0  0
    5.6984    0.9508   -0.7806 H   0  0  0  0  0  0  0  0  0  0  0  0
    6.6302    1.1234    0.6999 H   0  0  0  0  0  0  0  0  0  0  0  0
    6.1571   -1.3109    1.2376 H   0  0  0  0  0  0  0  0  0  0  0  0
    5.3577   -1.4626   -0.3329 H   0  0  0  0  0  0  0  0  0  0  0  0
    7.4686   -0.8034   -1.4859 H   0  0  0  0  0  0  0  0  0  0  0  0
    8.2807   -0.6651    0.0863 H   0  0  0  0  0  0  0  0  0  0  0  0
    7.6888   -2.2394   -0.4709 H   0  0  0  0  0  0  0  0  0  0  0  0
  1  2  3  0
  2  3  1  0
  3  4  1  0
  4  5  1  0
  4  6  1  0
  4  7  1  0
  7  8  1  0
  8  9  1  0
  9 10  1  0
 10 11  1  0
 11 12  1  0
 12 13  1  0
 13 14  1  0
 14 15  1  0
 15 16  1  0
 16 17  1  0
 17 18  1  0
  1 19  1  0
  3 20  1  0
  3 21  1  0
  5 22  1  0
  5 23  1  0
  5 24  1  0
  6 25  1  0
  6 26  1  0
  6 27  1  0
  7 28  1  0
  7 29  1  0
  8 30  1  0
  8 31  1  0
  9 32  1  0
  9 33  1  0
 10 34  1  0
 10 35  1  0
 11 36  1  0
 11 37  1  0
 12 38  1  0
 12 39  1  0
 13 40  1  0
 13 41  1  0
 14 42  1  0
 14 43  1  0
 15 44  1  0
 15 45  1  0
 16 46  1  0
 16 47  1  0
 17 48  1  0
 17 49  1  0
 18 50  1  0
 18 51  1  0
 18 52  1  0
M  CHG  1   4   1
M  END
$$$$
