
     RDKit          3D

 27 27  0  0  0  0  0  0  0  0999 V2000
   -0.8622    0.3577   -1.7287 C   0  0  0  0  0  0  0  0  0  0  0  0
   -1.4839    0.1769   -0.3417 C   0  0  0  0  0  0  0  0  0  0  0  0
   -1.6536    1.5498    0.3257 C   0  0  0  0  0  0  0  0  0  0  0  0
   -2.8712   -0.4714   -0.5009 C   0  0  0  0  0  0  0  0  0  0  0  0
   -0.4803   -0.9256    0.7036 S   0  0  0  0  0  6  0  0  0  0  0  0
   -1.0360   -0.9341    2.0442 O   0  0  0  0  0  0  0  0  0  0  0  0
   -0.1934   -2.1687    0.0200 O   0  0  0  0  0  0  0  0  0  0  0  0
    1.0732   -0.1692    0.9242 C   0  0  0  0  0  0  0  0  0  0  0  0
    1.3251    0.7599    1.9875 C   0  0  0  0  0  0  0  0  0  0  0  0
    2.6337    1.1831    2.0111 C   0  0  0  0  0  0  0  0  0  0  0  0
    3.5603    0.4541    0.7774 S   0  0  0  0  0  0  0  0  0  0  0  0
    2.2146   -0.4411    0.1903 C   0  0  0  0  0  0  0  0  0  0  0  0
    2.3895   -1.2930   -0.9589 C   0  0  0  0  0  0  0  0  0  0  0  0
    1.7070   -1.3272   -1.9709 O   0  0  0  0  0  0  0  0  0  0  0  0
    3.4644   -2.1016   -0.8339 O   0  0  0  0  0  0  0  0  0  0  0  0
   -0.7534   -0.6016   -2.2445 H   0  0  0  0  0  0  0  0  0  0  0  0
   -1.4906    0.9968   -2.3600 H   0  0  0  0  0  0  0  0  0  0  0  0
    0.1233    0.8301   -1.6709 H   0  0  0  0  0  0  0  0  0  0  0  0
   -2.3315    2.1869   -0.2538 H   0  0  0  0  0  0  0  0  0  0  0  0
   -0.7004    2.0816    0.4042 H   0  0  0  0  0  0  0  0  0  0  0  0
   -2.0680    1.4588    1.3356 H   0  0  0  0  0  0  0  0  0  0  0  0
   -3.3619   -0.6051    0.4696 H   0  0  0  0  0  0  0  0  0  0  0  0
   -2.7960   -1.4600   -0.9676 H   0  0  0  0  0  0  0  0  0  0  0  0
   -3.5285    0.1439   -1.1254 H   0  0  0  0  0  0  0  0  0  0  0  0
    0.5849    1.0845    2.7111 H   0  0  0  0  0  0  0  0  0  0  0  0
    3.0952    1.8739    2.7043 H   0  0  0  0  0  0  0  0  0  0  0  0
    3.4395   -2.6393   -1.6515 H   0  0  0  0  0  0  0  0  0  0  0  0
  1  2  1  0
  2  3  1  0
  2  4  1  0
  2  5  1  0
  5  6  2  0
  5  7  2  0
  5  8  1  0
  8  9  1  0
  9 10  2  0
 10 11  1  0
 11 12  1  0
 12 13  1  0
 13 14  2  0
 13 15  1  0
 12  8  2  0
  1 16  1  0
  1 17  1  0
  1 18  1  0
  3 19  1  0
  3 20  1  0
  3 21  1  0
  4 22  1  0
  4 23  1  0
  4 24  1  0
  9 25  1  0
 10 26  1  0
 15 27  1  0
M  END
$$$$
