
     RDKit          3D

 19 19  0  0  0  0  0  0  0  0999 V2000
   -2.8839    0.0716   -1.8526 C   0  0  0  0  0  0  0  0  0  0  0  0
   -2.0681    0.2568   -0.5812 C   0  0  0  0  0  0  0  0  0  0  0  0
   -1.5896   -1.0875   -0.0362 C   0  0  0  0  0  0  0  0  0  0  0  0
   -0.6467   -0.8867    1.5059 S   0  0  0  0  0  0  0  0  0  0  0  0
    0.9138   -0.3739    0.9041 C   0  0  0  0  0  0  0  0  0  0  0  0
    1.2125   -0.3241   -0.3751 N   0  0  0  0  0  0  0  0  0  0  0  0
    2.5071    0.1100   -0.5865 N   0  0  0  0  0  0  0  0  0  0  0  0
    3.1385    0.3676    0.5366 C   0  0  0  0  0  0  0  0  0  0  0  0
    4.4081    0.8115    0.6145 N   0  0  0  0  0  0  0  0  0  0  0  0
    2.1880    0.1078    1.9434 S   0  0  0  0  0  0  0  0  0  0  0  0
   -3.2235    1.0415   -2.2295 H   0  0  0  0  0  0  0  0  0  0  0  0
   -3.7667   -0.5482   -1.6659 H   0  0  0  0  0  0  0  0  0  0  0  0
   -2.2864   -0.4068   -2.6353 H   0  0  0  0  0  0  0  0  0  0  0  0
   -1.2195    0.9132   -0.8044 H   0  0  0  0  0  0  0  0  0  0  0  0
   -2.6896    0.7684    0.1637 H   0  0  0  0  0  0  0  0  0  0  0  0
   -0.9971   -1.6330   -0.7784 H   0  0  0  0  0  0  0  0  0  0  0  0
   -2.4576   -1.7138    0.1977 H   0  0  0  0  0  0  0  0  0  0  0  0
    4.6759    1.3227    1.4472 H   0  0  0  0  0  0  0  0  0  0  0  0
    4.7849    1.2029   -0.2427 H   0  0  0  0  0  0  0  0  0  0  0  0
  1  2  1  0
  2  3  1  0
  3  4  1  0
  4  5  1  0
  5  6  2  0
  6  7  1  0
  7  8  2  0
  8  9  1  0
  8 10  1  0
 10  5  1  0
  1 11  1  0
  1 12  1  0
  1 13  1  0
  2 14  1  0
  2 15  1  0
  3 16  1  0
  3 17  1  0
  9 18  1  0
  9 19  1  0
M  END
$$$$
