
     RDKit          3D

 44 46  0  0  0  0  0  0  0  0999 V2000
   -6.2668    2.1800   -2.8666 C   0  0  0  0  0  0  0  0  0  0  0  0
   -6.1198    1.3369   -1.7333 O   0  0  0  0  0  0  0  0  0  0  0  0
   -4.8790    1.2618   -1.1508 C   0  0  0  0  0  0  0  0  0  0  0  0
   -3.7669    2.0030   -1.5620 C   0  0  0  0  0  0  0  0  0  0  0  0
   -2.5404    1.8621   -0.9070 C   0  0  0  0  0  0  0  0  0  0  0  0
   -2.4099    0.9719    0.1612 C   0  0  0  0  0  0  0  0  0  0  0  0
   -1.1345    0.8129    0.8719 C   0  0  0  0  0  0  0  0  0  0  0  0
    0.0085    0.3346    0.3396 C   0  0  0  0  0  0  0  0  0  0  0  0
    0.1073   -0.0835   -1.0146 C   0  0  0  0  0  0  0  0  0  0  0  0
    0.2862   -0.4362   -2.1056 N   0  0  0  0  0  0  0  0  0  0  0  0
    1.2100    0.2357    1.2486 C   0  0  0  0  0  0  0  0  0  0  0  0
    1.1109    0.5882    2.4206 O   0  0  0  0  0  0  0  0  0  0  0  0
    2.3572   -0.2648    0.6514 N   0  0  0  0  0  0  0  0  0  0  0  0
    3.6388   -0.4716    1.2398 C   0  0  0  0  0  0  0  0  0  0  0  0
    3.8909   -0.1556    2.5789 C   0  0  0  0  0  0  0  0  0  0  0  0
    5.1497   -0.3636    3.1322 C   0  0  0  0  0  0  0  0  0  0  0  0
    6.1713   -0.8905    2.3501 C   0  0  0  0  0  0  0  0  0  0  0  0
    5.9738   -1.2194    1.0213 C   0  0  0  0  0  0  0  0  0  0  0  0
    7.0272   -1.7222    0.3544 N   0  0  0  0  0  0  0  0  0  0  0  0
    6.8691   -2.0540   -0.9411 C   0  0  0  0  0  0  0  0  0  0  0  0
    5.6827   -1.9057   -1.6223 C   0  0  0  0  0  0  0  0  0  0  0  0
    4.5938   -1.3845   -0.9289 C   0  0  0  0  0  0  0  0  0  0  0  0
    4.6985   -1.0160    0.4373 C   0  0  0  0  0  0  0  0  0  0  0  0
   -3.5241    0.2373    0.5862 C   0  0  0  0  0  0  0  0  0  0  0  0
   -4.7578    0.3733   -0.0631 C   0  0  0  0  0  0  0  0  0  0  0  0
   -5.8966   -0.3114    0.2840 O   0  0  0  0  0  0  0  0  0  0  0  0
   -5.8215   -1.2114    1.3798 C   0  0  0  0  0  0  0  0  0  0  0  0
   -6.0905    3.2281   -2.6036 H   0  0  0  0  0  0  0  0  0  0  0  0
   -7.3007    2.0950   -3.2149 H   0  0  0  0  0  0  0  0  0  0  0  0
   -5.6134    1.8611   -3.6853 H   0  0  0  0  0  0  0  0  0  0  0  0
   -3.8217    2.7042   -2.3882 H   0  0  0  0  0  0  0  0  0  0  0  0
   -1.6967    2.4621   -1.2414 H   0  0  0  0  0  0  0  0  0  0  0  0
   -1.1762    1.0995    1.9228 H   0  0  0  0  0  0  0  0  0  0  0  0
    2.2997   -0.5238   -0.3224 H   0  0  0  0  0  0  0  0  0  0  0  0
    3.1306    0.2588    3.2321 H   0  0  0  0  0  0  0  0  0  0  0  0
    5.3350   -0.1144    4.1740 H   0  0  0  0  0  0  0  0  0  0  0  0
    7.1529   -1.0495    2.7915 H   0  0  0  0  0  0  0  0  0  0  0  0
    7.7528   -2.4552   -1.4287 H   0  0  0  0  0  0  0  0  0  0  0  0
    5.6019   -2.1874   -2.6662 H   0  0  0  0  0  0  0  0  0  0  0  0
    3.6689   -1.2776   -1.4860 H   0  0  0  0  0  0  0  0  0  0  0  0
   -3.4083   -0.4405    1.4261 H   0  0  0  0  0  0  0  0  0  0  0  0
   -5.1149   -2.0228    1.1768 H   0  0  0  0  0  0  0  0  0  0  0  0
   -6.8111   -1.6590    1.5135 H   0  0  0  0  0  0  0  0  0  0  0  0
   -5.5670   -0.6859    2.3061 H   0  0  0  0  0  0  0  0  0  0  0  0
  1  2  1  0
  2  3  1  0
  3  4  2  0
  4  5  1  0
  5  6  2  0
  6  7  1  0
  7  8  2  3
  8  9  1  0
  9 10  3  0
  8 11  1  0
 11 12  2  0
 11 13  1  0
 13 14  1  0
 14 15  2  0
 15 16  1  0
 16 17  2  0
 17 18  1  0
 18 19  2  0
 19 20  1  0
 20 21  2  0
 21 22  1  0
 22 23  2  0
  6 24  1  0
 24 25  2  0
 25 26  1  0
 26 27  1  0
 25  3  1  0
 23 14  1  0
 23 18  1  0
  1 28  1  0
  1 29  1  0
  1 30  1  0
  4 31  1  0
  5 32  1  0
  7 33  1  0
 13 34  1  0
 15 35  1  0
 16 36  1  0
 17 37  1  0
 20 38  1  0
 21 39  1  0
 22 40  1  0
 24 41  1  0
 27 42  1  0
 27 43  1  0
 27 44  1  0
M  END
$$$$
