
     RDKit          3D

 33 35  0  0  0  0  0  0  0  0999 V2000
    1.0119   -1.1976   -1.2513 O   0  0  0  0  0  0  0  0  0  0  0  0
    0.6214   -0.8476   -0.1434 C   0  0  0  0  0  0  0  0  0  0  0  0
   -0.8085   -0.5019    0.1362 C   0  0  0  0  0  0  0  0  0  0  0  0
   -1.5085   -0.0553   -0.9229 C   0  0  0  0  0  0  0  0  0  0  0  0
   -2.8692    0.3585   -0.8746 C   0  0  0  0  0  0  0  0  0  0  0  0
   -3.7199    0.6177   -1.9452 C   0  0  0  0  0  0  0  0  0  0  0  0
   -4.9728    1.0200   -1.4263 C   0  0  0  0  0  0  0  0  0  0  0  0
   -4.8338    0.9983   -0.0634 C   0  0  0  0  0  0  0  0  0  0  0  0
   -3.5823    0.6098    0.2776 O   0  0  0  0  0  0  0  0  0  0  0  0
   -1.3010   -0.7439    1.5359 C   0  0  0  0  0  0  0  0  0  0  0  0
   -0.4986   -1.8518    2.2159 C   0  0  0  0  0  0  0  0  0  0  0  0
    0.9848   -1.4979    2.2960 C   0  0  0  0  0  0  0  0  0  0  0  0
    1.5150   -0.8367    1.0524 C   0  0  0  0  0  0  0  0  0  0  0  0
    2.7348   -0.2680    1.0394 C   0  0  0  0  0  0  0  0  0  0  0  0
    3.2624    0.4954   -0.0374 C   0  0  0  0  0  0  0  0  0  0  0  0
    4.5918    0.6578   -0.4120 C   0  0  0  0  0  0  0  0  0  0  0  0
    4.6293    1.5335   -1.5229 C   0  0  0  0  0  0  0  0  0  0  0  0
    3.3263    1.8823   -1.7659 C   0  0  0  0  0  0  0  0  0  0  0  0
    2.5026    1.2832   -0.8739 O   0  0  0  0  0  0  0  0  0  0  0  0
   -1.0176    0.0238   -1.8920 H   0  0  0  0  0  0  0  0  0  0  0  0
   -3.4534    0.5208   -2.9892 H   0  0  0  0  0  0  0  0  0  0  0  0
   -5.8611    1.2936   -1.9773 H   0  0  0  0  0  0  0  0  0  0  0  0
   -5.4950    1.2222    0.7618 H   0  0  0  0  0  0  0  0  0  0  0  0
   -2.3496   -1.0579    1.5372 H   0  0  0  0  0  0  0  0  0  0  0  0
   -1.2259    0.1830    2.1170 H   0  0  0  0  0  0  0  0  0  0  0  0
   -0.6228   -2.7915    1.6611 H   0  0  0  0  0  0  0  0  0  0  0  0
   -0.8877   -2.0311    3.2250 H   0  0  0  0  0  0  0  0  0  0  0  0
    1.5578   -2.4087    2.5074 H   0  0  0  0  0  0  0  0  0  0  0  0
    1.1313   -0.8199    3.1472 H   0  0  0  0  0  0  0  0  0  0  0  0
    3.3638   -0.3502    1.9216 H   0  0  0  0  0  0  0  0  0  0  0  0
    5.4374    0.1793    0.0624 H   0  0  0  0  0  0  0  0  0  0  0  0
    5.4957    1.8656   -2.0763 H   0  0  0  0  0  0  0  0  0  0  0  0
    2.8416    2.5150   -2.4957 H   0  0  0  0  0  0  0  0  0  0  0  0
  1  2  2  0
  2  3  1  0
  3  4  2  3
  4  5  1  0
  5  6  2  0
  6  7  1  0
  7  8  2  0
  8  9  1  0
  3 10  1  0
 10 11  1  0
 11 12  1  0
 12 13  1  0
 13 14  2  3
 14 15  1  0
 15 16  2  0
 16 17  1  0
 17 18  2  0
 18 19  1  0
 13  2  1  0
 19 15  1  0
  9  5  1  0
  4 20  1  0
  6 21  1  0
  7 22  1  0
  8 23  1  0
 10 24  1  0
 10 25  1  0
 11 26  1  0
 11 27  1  0
 12 28  1  0
 12 29  1  0
 14 30  1  0
 16 31  1  0
 17 32  1  0
 18 33  1  0
M  END
$$$$
