
     RDKit          3D

 46 48  0  0  0  0  0  0  0  0999 V2000
    1.3543    1.4879   -0.3870 C   0  0  0  0  0  0  0  0  0  0  0  0
    1.5257    0.0186   -0.7143 C   0  0  0  0  0  0  0  0  0  0  0  0
    2.8346   -0.4500   -1.2661 C   0  0  0  0  0  0  0  0  0  0  0  0
    3.9479    0.2964   -1.3135 C   0  0  0  0  0  0  0  0  0  0  0  0
    5.2236   -0.1922   -1.8567 C   0  0  0  0  0  0  0  0  0  0  0  0
    5.6961   -1.4869   -1.6040 C   0  0  0  0  0  0  0  0  0  0  0  0
    6.9279   -1.9055   -2.1138 C   0  0  0  0  0  0  0  0  0  0  0  0
    7.7036   -1.0312   -2.8721 C   0  0  0  0  0  0  0  0  0  0  0  0
    7.2517    0.2637   -3.1164 C   0  0  0  0  0  0  0  0  0  0  0  0
    6.0204    0.6830   -2.6062 C   0  0  0  0  0  0  0  0  0  0  0  0
    0.5987   -0.8947   -0.5857 N   0  0  0  0  0  0  0  0  0  0  0  0
   -0.5824   -0.5706    0.0267 N   0  0  0  0  0  0  0  0  0  0  0  0
   -0.6219   -0.2224    1.3719 C   0  0  0  0  0  0  0  0  0  0  0  0
    0.3224    0.1239    2.0689 O   0  0  0  0  0  0  0  0  0  0  0  0
   -1.9811   -0.3454    1.9634 C   0  0  0  0  0  0  0  0  0  0  0  0
   -2.4664    0.6622    2.9730 C   0  0  0  0  0  0  0  0  0  0  0  0
   -3.1058    0.6281    1.5990 C   0  0  0  0  0  0  0  0  0  0  0  0
   -2.8220    1.8012    0.6885 C   0  0  0  0  0  0  0  0  0  0  0  0
   -4.5111    0.0551    1.4598 C   0  0  0  0  0  0  0  0  0  0  0  0
   -5.5730    0.5233    2.2531 C   0  0  0  0  0  0  0  0  0  0  0  0
   -6.8650    0.0077    2.1225 C   0  0  0  0  0  0  0  0  0  0  0  0
   -7.1250   -0.9883    1.1864 C   0  0  0  0  0  0  0  0  0  0  0  0
   -6.0950   -1.4641    0.3807 C   0  0  0  0  0  0  0  0  0  0  0  0
   -4.8046   -0.9446    0.5160 C   0  0  0  0  0  0  0  0  0  0  0  0
    1.8239    1.7085    0.5751 H   0  0  0  0  0  0  0  0  0  0  0  0
    0.3011    1.7741   -0.3542 H   0  0  0  0  0  0  0  0  0  0  0  0
    1.8192    2.1050   -1.1616 H   0  0  0  0  0  0  0  0  0  0  0  0
    2.8229   -1.4749   -1.6258 H   0  0  0  0  0  0  0  0  0  0  0  0
    3.9644    1.3203   -0.9523 H   0  0  0  0  0  0  0  0  0  0  0  0
    5.1182   -2.1805   -0.9976 H   0  0  0  0  0  0  0  0  0  0  0  0
    7.2832   -2.9128   -1.9125 H   0  0  0  0  0  0  0  0  0  0  0  0
    8.6622   -1.3572   -3.2672 H   0  0  0  0  0  0  0  0  0  0  0  0
    7.8578    0.9494   -3.7028 H   0  0  0  0  0  0  0  0  0  0  0  0
    5.6859    1.6982   -2.8075 H   0  0  0  0  0  0  0  0  0  0  0  0
   -1.3604   -1.1427   -0.2854 H   0  0  0  0  0  0  0  0  0  0  0  0
   -2.2469   -1.3752    2.1868 H   0  0  0  0  0  0  0  0  0  0  0  0
   -1.8075    1.4868    3.2262 H   0  0  0  0  0  0  0  0  0  0  0  0
   -3.0173    0.2820    3.8265 H   0  0  0  0  0  0  0  0  0  0  0  0
   -3.5759    2.5841    0.8259 H   0  0  0  0  0  0  0  0  0  0  0  0
   -1.8449    2.2535    0.8878 H   0  0  0  0  0  0  0  0  0  0  0  0
   -2.8417    1.4868   -0.3604 H   0  0  0  0  0  0  0  0  0  0  0  0
   -5.3898    1.3063    2.9863 H   0  0  0  0  0  0  0  0  0  0  0  0
   -7.6662    0.3869    2.7515 H   0  0  0  0  0  0  0  0  0  0  0  0
   -8.1293   -1.3902    1.0825 H   0  0  0  0  0  0  0  0  0  0  0  0
   -6.2947   -2.2381   -0.3558 H   0  0  0  0  0  0  0  0  0  0  0  0
   -4.0178   -1.3253   -0.1300 H   0  0  0  0  0  0  0  0  0  0  0  0
  1  2  1  0
  2  3  1  0
  3  4  2  3
  4  5  1  0
  5  6  2  0
  6  7  1  0
  7  8  2  0
  8  9  1  0
  9 10  2  0
  2 11  2  3
 11 12  1  0
 12 13  1  0
 13 14  2  0
 13 15  1  0
 15 16  1  0
 16 17  1  0
 17 18  1  0
 17 19  1  0
 19 20  2  0
 20 21  1  0
 21 22  2  0
 22 23  1  0
 23 24  2  0
 10  5  1  0
 17 15  1  0
 24 19  1  0
  1 25  1  0
  1 26  1  0
  1 27  1  0
  3 28  1  0
  4 29  1  0
  6 30  1  0
  7 31  1  0
  8 32  1  0
  9 33  1  0
 10 34  1  0
 12 35  1  0
 15 36  1  0
 16 37  1  0
 16 38  1  0
 18 39  1  0
 18 40  1  0
 18 41  1  0
 20 42  1  0
 21 43  1  0
 22 44  1  0
 23 45  1  0
 24 46  1  0
M  END
$$$$
