
     RDKit          3D

 54 57  0  0  0  0  0  0  0  0999 V2000
    5.4095    1.6397    2.9918 C   0  0  0  0  0  0  0  0  0  0  0  0
    5.2111    0.1478    3.1860 C   0  0  0  0  0  0  0  0  0  0  0  0
    3.7375   -0.1989    3.2655 C   0  0  0  0  0  0  0  0  0  0  0  0
    3.1731   -0.2130    4.3612 O   0  0  0  0  0  0  0  0  0  0  0  0
    3.0584   -0.4643    2.0892 N   0  0  0  0  0  0  0  0  0  0  0  0
    1.6414   -0.8411    2.1766 C   0  0  0  0  0  0  0  0  0  0  0  0
    1.1870   -1.7018    0.9870 C   0  0  0  0  0  0  0  0  0  0  0  0
    1.4013   -0.9860   -0.2967 N   0  0  0  0  0  0  0  0  0  0  0  0
    1.2191   -1.8517   -1.4064 C   0  0  0  0  0  0  0  0  0  0  0  0
    2.1854   -2.7902   -1.7946 C   0  0  0  0  0  0  0  0  0  0  0  0
    1.9524   -3.6331   -2.8825 C   0  0  0  0  0  0  0  0  0  0  0  0
    0.7527   -3.5432   -3.5867 C   0  0  0  0  0  0  0  0  0  0  0  0
    0.4819   -4.5888   -4.9281 Cl  0  0  0  0  0  0  0  0  0  0  0  0
   -0.2250   -2.6202   -3.2185 C   0  0  0  0  0  0  0  0  0  0  0  0
    0.0018   -1.7768   -2.1311 C   0  0  0  0  0  0  0  0  0  0  0  0
   -0.9118   -0.7997   -1.6820 N   0  0  0  0  0  0  0  0  0  0  0  0
   -2.1835   -0.5408   -2.1406 C   0  0  0  0  0  0  0  0  0  0  0  0
   -2.7827   -1.1600   -3.0113 O   0  0  0  0  0  0  0  0  0  0  0  0
   -2.8798    0.5888   -1.4596 C   0  0  0  0  0  0  0  0  0  0  0  0
   -2.1831    1.7096   -0.9823 C   0  0  0  0  0  0  0  0  0  0  0  0
   -2.8737    2.7428   -0.3432 C   0  0  0  0  0  0  0  0  0  0  0  0
   -4.2560    2.6623   -0.1866 C   0  0  0  0  0  0  0  0  0  0  0  0
   -4.9576    1.5667   -0.7001 C   0  0  0  0  0  0  0  0  0  0  0  0
   -4.2727    0.5270   -1.3257 C   0  0  0  0  0  0  0  0  0  0  0  0
   -6.3210    1.4445   -0.6164 O   0  0  0  0  0  0  0  0  0  0  0  0
   -6.9373    2.6971   -0.2968 C   0  0  0  0  0  0  0  0  0  0  0  0
   -6.2038    3.3749    0.8487 C   0  0  0  0  0  0  0  0  0  0  0  0
   -4.8614    3.7034    0.4689 O   0  0  0  0  0  0  0  0  0  0  0  0
    2.6246   -0.1495   -0.3612 C   0  0  0  0  0  0  0  0  0  0  0  0
    3.6473   -0.4751    0.7433 C   0  0  0  0  0  0  0  0  0  0  0  0
    6.4762    1.8821    2.9670 H   0  0  0  0  0  0  0  0  0  0  0  0
    4.9570    1.9911    2.0601 H   0  0  0  0  0  0  0  0  0  0  0  0
    4.9501    2.2031    3.8106 H   0  0  0  0  0  0  0  0  0  0  0  0
    5.6797   -0.1688    4.1255 H   0  0  0  0  0  0  0  0  0  0  0  0
    5.7050   -0.4255    2.3964 H   0  0  0  0  0  0  0  0  0  0  0  0
    1.0680    0.0932    2.2071 H   0  0  0  0  0  0  0  0  0  0  0  0
    1.4539   -1.3785    3.1124 H   0  0  0  0  0  0  0  0  0  0  0  0
    1.7441   -2.6478    1.0051 H   0  0  0  0  0  0  0  0  0  0  0  0
    0.1218   -1.9365    1.0986 H   0  0  0  0  0  0  0  0  0  0  0  0
    3.1194   -2.8838   -1.2497 H   0  0  0  0  0  0  0  0  0  0  0  0
    2.7065   -4.3596   -3.1742 H   0  0  0  0  0  0  0  0  0  0  0  0
   -1.1461   -2.5720   -3.7893 H   0  0  0  0  0  0  0  0  0  0  0  0
   -0.5533   -0.2899   -0.8797 H   0  0  0  0  0  0  0  0  0  0  0  0
   -1.1096    1.8062   -1.1196 H   0  0  0  0  0  0  0  0  0  0  0  0
   -2.3363    3.6094    0.0328 H   0  0  0  0  0  0  0  0  0  0  0  0
   -4.8244   -0.3254   -1.7156 H   0  0  0  0  0  0  0  0  0  0  0  0
   -6.9434    3.3237   -1.1975 H   0  0  0  0  0  0  0  0  0  0  0  0
   -7.9755    2.4942   -0.0150 H   0  0  0  0  0  0  0  0  0  0  0  0
   -6.1664    2.7321    1.7373 H   0  0  0  0  0  0  0  0  0  0  0  0
   -6.7084    4.3068    1.1222 H   0  0  0  0  0  0  0  0  0  0  0  0
    3.1100   -0.1966   -1.3438 H   0  0  0  0  0  0  0  0  0  0  0  0
    2.2994    0.8905   -0.2323 H   0  0  0  0  0  0  0  0  0  0  0  0
    4.0618   -1.4784    0.5921 H   0  0  0  0  0  0  0  0  0  0  0  0
    4.4756    0.2340    0.6816 H   0  0  0  0  0  0  0  0  0  0  0  0
  1  2  1  0
  2  3  1  0
  3  4  2  0
  3  5  1  0
  5  6  1  0
  6  7  1  0
  7  8  1  0
  8  9  1  0
  9 10  2  0
 10 11  1  0
 11 12  2  0
 12 13  1  0
 12 14  1  0
 14 15  2  0
 15 16  1  0
 16 17  1  0
 17 18  2  0
 17 19  1  0
 19 20  2  0
 20 21  1  0
 21 22  2  0
 22 23  1  0
 23 24  2  0
 23 25  1  0
 25 26  1  0
 26 27  1  0
 27 28  1  0
  8 29  1  0
 29 30  1  0
 30  5  1  0
 15  9  1  0
 24 19  1  0
 28 22  1  0
  1 31  1  0
  1 32  1  0
  1 33  1  0
  2 34  1  0
  2 35  1  0
  6 36  1  0
  6 37  1  0
  7 38  1  0
  7 39  1  0
 10 40  1  0
 11 41  1  0
 14 42  1  0
 16 43  1  0
 20 44  1  0
 21 45  1  0
 24 46  1  0
 26 47  1  0
 26 48  1  0
 27 49  1  0
 27 50  1  0
 29 51  1  0
 29 52  1  0
 30 53  1  0
 30 54  1  0
M  END
$$$$
