
     RDKit          3D

 44 45  0  0  0  0  0  0  0  0999 V2000
   -7.1640   -1.9382    2.1717 C   0  0  0  0  0  0  0  0  0  0  0  0
   -7.0916   -1.5460    0.7029 C   0  0  0  0  0  0  0  0  0  0  0  0
   -6.7709   -0.0660    0.5123 C   0  0  0  0  0  0  0  0  0  0  0  0
   -5.5108    0.2718    1.1120 O   0  0  0  0  0  0  0  0  0  0  0  0
   -4.4144    0.0589    0.3445 C   0  0  0  0  0  0  0  0  0  0  0  0
   -4.4062   -0.3828   -0.7939 O   0  0  0  0  0  0  0  0  0  0  0  0
   -3.1771    0.4355    1.0794 C   0  0  0  0  0  0  0  0  0  0  0  0
   -3.1992    0.9236    2.3895 C   0  0  0  0  0  0  0  0  0  0  0  0
   -2.0033    1.2574    3.0237 C   0  0  0  0  0  0  0  0  0  0  0  0
   -0.7831    1.1063    2.3568 C   0  0  0  0  0  0  0  0  0  0  0  0
   -0.7435    0.6200    1.0493 C   0  0  0  0  0  0  0  0  0  0  0  0
    0.4427    0.4371    0.3064 N   0  0  0  0  0  0  0  0  0  0  0  0
    1.7472    0.6957    0.7163 C   0  0  0  0  0  0  0  0  0  0  0  0
    2.0827    1.1334    1.8117 O   0  0  0  0  0  0  0  0  0  0  0  0
    2.7631    0.3637   -0.3868 C   0  0  0  0  0  0  0  0  0  0  0  0
    4.0924    0.6291    0.0348 O   0  0  0  0  0  0  0  0  0  0  0  0
    5.1005    0.3777   -0.8516 C   0  0  0  0  0  0  0  0  0  0  0  0
    6.3813    0.6635   -0.3655 C   0  0  0  0  0  0  0  0  0  0  0  0
    7.5124    0.4569   -1.1591 C   0  0  0  0  0  0  0  0  0  0  0  0
    7.3548   -0.0425   -2.4558 C   0  0  0  0  0  0  0  0  0  0  0  0
    8.5343   -0.2647   -3.3012 N   0  0  0  0  0  4  0  0  0  0  0  0
    8.3479   -0.7086   -4.4434 O   0  0  0  0  0  0  0  0  0  0  0  0
    9.6459    0.0041   -2.8243 O   0  0  0  0  0  1  0  0  0  0  0  0
    6.0775   -0.3324   -2.9536 C   0  0  0  0  0  0  0  0  0  0  0  0
    4.9519   -0.1207   -2.1478 C   0  0  0  0  0  0  0  0  0  0  0  0
   -1.9481    0.2863    0.4170 C   0  0  0  0  0  0  0  0  0  0  0  0
   -7.4298   -2.9958    2.2668 H   0  0  0  0  0  0  0  0  0  0  0  0
   -7.9223   -1.3492    2.6973 H   0  0  0  0  0  0  0  0  0  0  0  0
   -6.2024   -1.7872    2.6722 H   0  0  0  0  0  0  0  0  0  0  0  0
   -8.0486   -1.7727    0.2202 H   0  0  0  0  0  0  0  0  0  0  0  0
   -6.3245   -2.1606    0.2186 H   0  0  0  0  0  0  0  0  0  0  0  0
   -6.7822    0.2043   -0.5504 H   0  0  0  0  0  0  0  0  0  0  0  0
   -7.5333    0.5496    1.0021 H   0  0  0  0  0  0  0  0  0  0  0  0
   -4.1348    1.0489    2.9287 H   0  0  0  0  0  0  0  0  0  0  0  0
   -2.0147    1.6376    4.0429 H   0  0  0  0  0  0  0  0  0  0  0  0
    0.1204    1.3801    2.8939 H   0  0  0  0  0  0  0  0  0  0  0  0
    0.3198    0.0757   -0.6317 H   0  0  0  0  0  0  0  0  0  0  0  0
    2.5150    0.9835   -1.2572 H   0  0  0  0  0  0  0  0  0  0  0  0
    2.6508   -0.7011   -0.6251 H   0  0  0  0  0  0  0  0  0  0  0  0
    6.4963    1.0521    0.6453 H   0  0  0  0  0  0  0  0  0  0  0  0
    8.4946    0.6885   -0.7529 H   0  0  0  0  0  0  0  0  0  0  0  0
    5.9410   -0.7215   -3.9610 H   0  0  0  0  0  0  0  0  0  0  0  0
    3.9782   -0.3558   -2.5648 H   0  0  0  0  0  0  0  0  0  0  0  0
   -1.9459   -0.0955   -0.6022 H   0  0  0  0  0  0  0  0  0  0  0  0
  1  2  1  0
  2  3  1  0
  3  4  1  0
  4  5  1  0
  5  6  2  0
  5  7  1  0
  7  8  2  0
  8  9  1  0
  9 10  2  0
 10 11  1  0
 11 12  1  0
 12 13  1  0
 13 14  2  0
 13 15  1  0
 15 16  1  0
 16 17  1  0
 17 18  2  0
 18 19  1  0
 19 20  2  0
 20 21  1  0
 21 22  2  0
 21 23  1  0
 20 24  1  0
 24 25  2  0
 11 26  2  0
 26  7  1  0
 25 17  1  0
  1 27  1  0
  1 28  1  0
  1 29  1  0
  2 30  1  0
  2 31  1  0
  3 32  1  0
  3 33  1  0
  8 34  1  0
  9 35  1  0
 10 36  1  0
 12 37  1  0
 15 38  1  0
 15 39  1  0
 18 40  1  0
 19 41  1  0
 24 42  1  0
 25 43  1  0
 26 44  1  0
M  CHG  2  21   1  23  -1
M  END
$$$$
