
     RDKit          3D

 33 34  0  0  0  0  0  0  0  0999 V2000
   -4.0248    0.3216   -2.2500 C   0  0  0  0  0  0  0  0  0  0  0  0
   -3.6134    0.0934   -0.8244 C   0  0  0  0  0  0  0  0  0  0  0  0
   -4.5578   -0.2992    0.1307 C   0  0  0  0  0  0  0  0  0  0  0  0
   -4.1655   -0.5629    1.4424 C   0  0  0  0  0  0  0  0  0  0  0  0
   -2.8267   -0.4413    1.8058 C   0  0  0  0  0  0  0  0  0  0  0  0
   -2.5304   -0.7361    3.1112 O   0  0  0  0  0  0  0  0  0  0  0  0
   -1.8613   -0.0421    0.8686 C   0  0  0  0  0  0  0  0  0  0  0  0
   -0.4385    0.1018    1.2961 C   0  0  0  0  0  0  0  0  0  0  0  0
   -0.0863   -0.4008    2.3671 O   0  0  0  0  0  0  0  0  0  0  0  0
    0.5456    0.8680    0.4501 C   0  0  0  0  0  0  0  0  0  0  0  0
    1.3324   -0.0363   -0.4607 C   0  0  0  0  0  0  0  0  0  0  0  0
    0.7958   -0.8022   -1.2574 O   0  0  0  0  0  0  0  0  0  0  0  0
    2.8051   -0.0403   -0.3474 C   0  0  0  0  0  0  0  0  0  0  0  0
    3.4159   -1.2661   -0.0495 C   0  0  0  0  0  0  0  0  0  0  0  0
    4.8024   -1.3405    0.0836 C   0  0  0  0  0  0  0  0  0  0  0  0
    5.5807   -0.1969   -0.0907 C   0  0  0  0  0  0  0  0  0  0  0  0
    4.9748    1.0215   -0.4066 C   0  0  0  0  0  0  0  0  0  0  0  0
    3.5854    1.1037   -0.5415 C   0  0  0  0  0  0  0  0  0  0  0  0
    2.9117    2.6262   -0.9985 Cl  0  0  0  0  0  0  0  0  0  0  0  0
   -2.2640    0.2074   -0.4515 C   0  0  0  0  0  0  0  0  0  0  0  0
   -3.4264    1.1192   -2.7035 H   0  0  0  0  0  0  0  0  0  0  0  0
   -3.8915   -0.5973   -2.8292 H   0  0  0  0  0  0  0  0  0  0  0  0
   -5.0744    0.6287   -2.3116 H   0  0  0  0  0  0  0  0  0  0  0  0
   -5.6049   -0.4127   -0.1422 H   0  0  0  0  0  0  0  0  0  0  0  0
   -4.9004   -0.8743    2.1803 H   0  0  0  0  0  0  0  0  0  0  0  0
   -1.5511   -0.7425    3.2020 H   0  0  0  0  0  0  0  0  0  0  0  0
    0.0511    1.6461   -0.1382 H   0  0  0  0  0  0  0  0  0  0  0  0
    1.2105    1.3940    1.1456 H   0  0  0  0  0  0  0  0  0  0  0  0
    2.8121   -2.1627    0.0821 H   0  0  0  0  0  0  0  0  0  0  0  0
    5.2753   -2.2914    0.3203 H   0  0  0  0  0  0  0  0  0  0  0  0
    6.6624   -0.2559    0.0103 H   0  0  0  0  0  0  0  0  0  0  0  0
    5.5962    1.9016   -0.5571 H   0  0  0  0  0  0  0  0  0  0  0  0
   -1.5401    0.4682   -1.2195 H   0  0  0  0  0  0  0  0  0  0  0  0
  1  2  1  0
  2  3  2  0
  3  4  1  0
  4  5  2  0
  5  6  1  0
  5  7  1  0
  7  8  1  0
  8  9  2  0
  8 10  1  0
 10 11  1  0
 11 12  2  0
 11 13  1  0
 13 14  2  0
 14 15  1  0
 15 16  2  0
 16 17  1  0
 17 18  2  0
 18 19  1  0
  7 20  2  0
 20  2  1  0
 18 13  1  0
  1 21  1  0
  1 22  1  0
  1 23  1  0
  3 24  1  0
  4 25  1  0
  6 26  1  0
 10 27  1  0
 10 28  1  0
 14 29  1  0
 15 30  1  0
 16 31  1  0
 17 32  1  0
 20 33  1  0
M  END
$$$$
