
     RDKit          3D

 58 60  0  0  0  0  0  0  0  0999 V2000
    9.1870   -1.2364   -2.9346 C   0  0  0  0  0  0  0  0  0  0  0  0
    7.7372   -1.1985   -2.5522 C   0  0  0  0  0  0  0  0  0  0  0  0
    7.3630   -0.9563   -1.2261 C   0  0  0  0  0  0  0  0  0  0  0  0
    6.0151   -0.9475   -0.8605 C   0  0  0  0  0  0  0  0  0  0  0  0
    5.0184   -1.1874   -1.8139 C   0  0  0  0  0  0  0  0  0  0  0  0
    3.5667   -1.1975   -1.4077 C   0  0  0  0  0  0  0  0  0  0  0  0
    3.1395   -2.5662   -0.8735 C   0  0  0  0  0  0  0  0  0  0  0  0
    1.7356   -2.5979   -0.5040 N   0  0  0  0  0  0  0  0  0  0  0  0
    1.2925   -2.0717    0.6907 C   0  0  0  0  0  0  0  0  0  0  0  0
    2.0379   -1.5675    1.5242 O   0  0  0  0  0  0  0  0  0  0  0  0
   -0.2096   -2.1565    0.8580 C   0  0  0  0  0  0  0  0  0  0  0  0
   -0.6632   -1.7222    2.2469 C   0  0  0  0  0  0  0  0  0  0  0  0
   -0.4584   -0.2759    2.4176 N   0  0  0  0  0  0  0  0  0  0  0  0
   -1.3137    0.5135    3.6280 S   0  0  0  0  0  6  0  0  0  0  0  0
   -0.6320    1.7587    3.8935 O   0  0  0  0  0  0  0  0  0  0  0  0
   -1.6099   -0.4441    4.6700 O   0  0  0  0  0  0  0  0  0  0  0  0
   -2.8256    0.9219    2.7942 C   0  0  0  0  0  0  0  0  0  0  0  0
   -4.0461    0.4735    3.2957 C   0  0  0  0  0  0  0  0  0  0  0  0
   -5.2306    0.8052    2.6284 C   0  0  0  0  0  0  0  0  0  0  0  0
   -5.2092    1.5834    1.4573 C   0  0  0  0  0  0  0  0  0  0  0  0
   -3.9736    2.0145    0.9727 C   0  0  0  0  0  0  0  0  0  0  0  0
   -2.7792    1.6942    1.6345 C   0  0  0  0  0  0  0  0  0  0  0  0
   -3.9231    2.8115   -0.2622 C   0  0  0  0  0  0  0  0  0  0  0  0
   -2.8290    3.0933   -0.7449 O   0  0  0  0  0  0  0  0  0  0  0  0
   -5.1382    3.1778   -0.8169 N   0  0  0  0  0  0  0  0  0  0  0  0
   -5.1183    3.9924   -2.0186 C   0  0  0  0  0  0  0  0  0  0  0  0
   -6.3793    2.7226   -0.3877 C   0  0  0  0  0  0  0  0  0  0  0  0
   -7.4120    3.0006   -1.0024 O   0  0  0  0  0  0  0  0  0  0  0  0
   -6.3955    1.9324    0.7585 N   0  0  0  0  0  0  0  0  0  0  0  0
   -7.6849    1.4611    1.2481 C   0  0  0  0  0  0  0  0  0  0  0  0
    5.3939   -1.4487   -3.1368 C   0  0  0  0  0  0  0  0  0  0  0  0
    6.7425   -1.4574   -3.5015 C   0  0  0  0  0  0  0  0  0  0  0  0
    9.3206   -1.0016   -3.9960 H   0  0  0  0  0  0  0  0  0  0  0  0
    9.5997   -2.2309   -2.7400 H   0  0  0  0  0  0  0  0  0  0  0  0
    9.7582   -0.4963   -2.3643 H   0  0  0  0  0  0  0  0  0  0  0  0
    8.1196   -0.7711   -0.4669 H   0  0  0  0  0  0  0  0  0  0  0  0
    5.7473   -0.7534    0.1766 H   0  0  0  0  0  0  0  0  0  0  0  0
    3.3950   -0.4181   -0.6548 H   0  0  0  0  0  0  0  0  0  0  0  0
    2.9398   -0.9184   -2.2642 H   0  0  0  0  0  0  0  0  0  0  0  0
    3.2868   -3.3423   -1.6326 H   0  0  0  0  0  0  0  0  0  0  0  0
    3.7358   -2.8410    0.0041 H   0  0  0  0  0  0  0  0  0  0  0  0
    1.0620   -2.8850   -1.2027 H   0  0  0  0  0  0  0  0  0  0  0  0
   -0.6799   -1.5340    0.0883 H   0  0  0  0  0  0  0  0  0  0  0  0
   -0.5110   -3.1975    0.6935 H   0  0  0  0  0  0  0  0  0  0  0  0
   -1.7273   -1.9602    2.3515 H   0  0  0  0  0  0  0  0  0  0  0  0
   -0.1054   -2.2596    3.0216 H   0  0  0  0  0  0  0  0  0  0  0  0
    0.5193    0.0355    2.3791 H   0  0  0  0  0  0  0  0  0  0  0  0
   -4.0892   -0.1258    4.2037 H   0  0  0  0  0  0  0  0  0  0  0  0
   -6.1607    0.4387    3.0548 H   0  0  0  0  0  0  0  0  0  0  0  0
   -1.8232    2.0467    1.2491 H   0  0  0  0  0  0  0  0  0  0  0  0
   -5.3192    3.3456   -2.8789 H   0  0  0  0  0  0  0  0  0  0  0  0
   -5.9011    4.7561   -1.9654 H   0  0  0  0  0  0  0  0  0  0  0  0
   -4.1546    4.4882   -2.1625 H   0  0  0  0  0  0  0  0  0  0  0  0
   -7.8542    1.8499    2.2577 H   0  0  0  0  0  0  0  0  0  0  0  0
   -7.6926    0.3667    1.2546 H   0  0  0  0  0  0  0  0  0  0  0  0
   -8.5159    1.7957    0.6207 H   0  0  0  0  0  0  0  0  0  0  0  0
    4.6403   -1.6470   -3.8950 H   0  0  0  0  0  0  0  0  0  0  0  0
    7.0120   -1.6660   -4.5344 H   0  0  0  0  0  0  0  0  0  0  0  0
  1  2  1  0
  2  3  2  0
  3  4  1  0
  4  5  2  0
  5  6  1  0
  6  7  1  0
  7  8  1  0
  8  9  1  0
  9 10  2  0
  9 11  1  0
 11 12  1  0
 12 13  1  0
 13 14  1  0
 14 15  2  0
 14 16  2  0
 14 17  1  0
 17 18  2  0
 18 19  1  0
 19 20  2  0
 20 21  1  0
 21 22  2  0
 21 23  1  0
 23 24  2  0
 23 25  1  0
 25 26  1  0
 25 27  1  0
 27 28  2  0
 27 29  1  0
 29 30  1  0
  5 31  1  0
 31 32  2  0
 32  2  1  0
 22 17  1  0
 29 20  1  0
  1 33  1  0
  1 34  1  0
  1 35  1  0
  3 36  1  0
  4 37  1  0
  6 38  1  0
  6 39  1  0
  7 40  1  0
  7 41  1  0
  8 42  1  0
 11 43  1  0
 11 44  1  0
 12 45  1  0
 12 46  1  0
 13 47  1  0
 18 48  1  0
 19 49  1  0
 22 50  1  0
 26 51  1  0
 26 52  1  0
 26 53  1  0
 30 54  1  0
 30 55  1  0
 30 56  1  0
 31 57  1  0
 32 58  1  0
M  END
$$$$
