
     RDKit          3D

 52 54  0  0  0  0  0  0  0  0999 V2000
    6.8689   -1.6060   -4.9489 C   0  0  0  0  0  0  0  0  0  0  0  0
    6.3785   -1.5037   -3.5353 C   0  0  0  0  0  0  0  0  0  0  0  0
    6.6826   -0.3806   -2.7581 C   0  0  0  0  0  0  0  0  0  0  0  0
    6.1978   -0.2688   -1.4525 C   0  0  0  0  0  0  0  0  0  0  0  0
    5.3971   -1.2782   -0.9025 C   0  0  0  0  0  0  0  0  0  0  0  0
    4.8499   -1.1512    0.4946 C   0  0  0  0  0  0  0  0  0  0  0  0
    3.5517   -0.5299    0.4826 N   0  0  0  0  0  0  0  0  0  0  0  0
    2.3866   -1.2580    0.4848 C   0  0  0  0  0  0  0  0  0  0  0  0
    2.2828   -2.4670    0.6380 O   0  0  0  0  0  0  0  0  0  0  0  0
    1.1238   -0.3945    0.2612 C   0  0  0  0  0  0  0  0  0  0  0  0
    1.2158    0.8204    0.1594 O   0  0  0  0  0  0  0  0  0  0  0  0
   -0.0442   -1.1187    0.2181 N   0  0  0  0  0  0  0  0  0  0  0  0
   -1.3432   -0.4683    0.2000 C   0  0  0  0  0  0  0  0  0  0  0  0
   -1.7112    0.2105    1.5374 C   0  0  0  0  0  0  0  0  0  0  0  0
   -1.6378   -0.7797    2.5940 O   0  0  0  0  0  0  0  0  0  0  0  0
   -2.9592   -0.9668    3.1039 C   0  0  0  0  0  0  0  0  0  0  0  0
   -3.6631    0.3402    2.8309 C   0  0  0  0  0  0  0  0  0  0  0  0
   -3.1104    0.7018    1.5183 N   0  0  0  0  0  0  0  0  0  0  0  0
   -3.2628    2.3107    1.0281 S   0  0  0  0  0  6  0  0  0  0  0  0
   -2.7379    2.4238   -0.3138 O   0  0  0  0  0  0  0  0  0  0  0  0
   -2.7809    3.1500    2.1034 O   0  0  0  0  0  0  0  0  0  0  0  0
   -5.0266    2.5015    0.9194 C   0  0  0  0  0  0  0  0  0  0  0  0
   -5.7060    3.2945    1.8492 C   0  0  0  0  0  0  0  0  0  0  0  0
   -7.0914    3.4358    1.7468 C   0  0  0  0  0  0  0  0  0  0  0  0
   -7.7805    2.7915    0.7174 C   0  0  0  0  0  0  0  0  0  0  0  0
   -9.6564    2.9845    0.5847 Br  0  0  0  0  0  0  0  0  0  0  0  0
   -7.0992    2.0087   -0.2162 C   0  0  0  0  0  0  0  0  0  0  0  0
   -5.7144    1.8640   -0.1189 C   0  0  0  0  0  0  0  0  0  0  0  0
    5.0731   -2.3900   -1.6914 C   0  0  0  0  0  0  0  0  0  0  0  0
    5.5582   -2.5008   -2.9964 C   0  0  0  0  0  0  0  0  0  0  0  0
    6.1409   -1.1561   -5.6310 H   0  0  0  0  0  0  0  0  0  0  0  0
    7.8293   -1.0931   -5.0677 H   0  0  0  0  0  0  0  0  0  0  0  0
    7.0225   -2.6520   -5.2340 H   0  0  0  0  0  0  0  0  0  0  0  0
    7.2983    0.4179   -3.1663 H   0  0  0  0  0  0  0  0  0  0  0  0
    6.4472    0.6151   -0.8698 H   0  0  0  0  0  0  0  0  0  0  0  0
    4.7979   -2.1354    0.9742 H   0  0  0  0  0  0  0  0  0  0  0  0
    5.5090   -0.5260    1.1068 H   0  0  0  0  0  0  0  0  0  0  0  0
    3.4680    0.4496    0.2264 H   0  0  0  0  0  0  0  0  0  0  0  0
    0.0267   -2.0931    0.5005 H   0  0  0  0  0  0  0  0  0  0  0  0
   -1.3462    0.2598   -0.6168 H   0  0  0  0  0  0  0  0  0  0  0  0
   -2.0711   -1.2516   -0.0399 H   0  0  0  0  0  0  0  0  0  0  0  0
   -0.9983    0.9993    1.7996 H   0  0  0  0  0  0  0  0  0  0  0  0
   -2.9221   -1.2190    4.1669 H   0  0  0  0  0  0  0  0  0  0  0  0
   -3.4216   -1.7958    2.5567 H   0  0  0  0  0  0  0  0  0  0  0  0
   -4.7480    0.2166    2.8089 H   0  0  0  0  0  0  0  0  0  0  0  0
   -3.3867    1.0799    3.5895 H   0  0  0  0  0  0  0  0  0  0  0  0
   -5.1701    3.8058    2.6461 H   0  0  0  0  0  0  0  0  0  0  0  0
   -7.6227    4.0528    2.4675 H   0  0  0  0  0  0  0  0  0  0  0  0
   -7.6356    1.5147   -1.0227 H   0  0  0  0  0  0  0  0  0  0  0  0
   -5.1780    1.2623   -0.8500 H   0  0  0  0  0  0  0  0  0  0  0  0
    4.4316   -3.1744   -1.2926 H   0  0  0  0  0  0  0  0  0  0  0  0
    5.2874   -3.3707   -3.5905 H   0  0  0  0  0  0  0  0  0  0  0  0
  1  2  1  0
  2  3  2  0
  3  4  1  0
  4  5  2  0
  5  6  1  0
  6  7  1  0
  7  8  1  0
  8  9  2  0
  8 10  1  0
 10 11  2  0
 10 12  1  0
 12 13  1  0
 13 14  1  0
 14 15  1  0
 15 16  1  0
 16 17  1  0
 17 18  1  0
 18 19  1  0
 19 20  2  0
 19 21  2  0
 19 22  1  0
 22 23  2  0
 23 24  1  0
 24 25  2  0
 25 26  1  0
 25 27  1  0
 27 28  2  0
  5 29  1  0
 29 30  2  0
 30  2  1  0
 18 14  1  0
 28 22  1  0
  1 31  1  0
  1 32  1  0
  1 33  1  0
  3 34  1  0
  4 35  1  0
  6 36  1  0
  6 37  1  0
  7 38  1  0
 12 39  1  0
 13 40  1  0
 13 41  1  0
 14 42  1  0
 16 43  1  0
 16 44  1  0
 17 45  1  0
 17 46  1  0
 23 47  1  0
 24 48  1  0
 27 49  1  0
 28 50  1  0
 29 51  1  0
 30 52  1  0
M  END
$$$$
