
     RDKit          3D

 60 63  0  0  0  0  0  0  0  0999 V2000
    6.4203    0.5245   -4.3429 C   0  0  0  0  0  0  0  0  0  0  0  0
    6.7128   -0.0828   -3.0896 O   0  0  0  0  0  0  0  0  0  0  0  0
    5.9200    0.2694   -2.0328 C   0  0  0  0  0  0  0  0  0  0  0  0
    6.1914   -0.4144   -0.8457 C   0  0  0  0  0  0  0  0  0  0  0  0
    5.4536   -0.1549    0.3121 C   0  0  0  0  0  0  0  0  0  0  0  0
    4.4344    0.8038    0.3022 C   0  0  0  0  0  0  0  0  0  0  0  0
    3.6286    1.0654    1.5483 C   0  0  0  0  0  0  0  0  0  0  0  0
    2.6444    0.0287    1.7436 N   0  0  0  0  0  0  0  0  0  0  0  0
    2.6505   -0.8085    2.8421 C   0  0  0  0  0  0  0  0  0  0  0  0
    3.5232   -0.7477    3.7068 O   0  0  0  0  0  0  0  0  0  0  0  0
    1.5775   -1.9186    2.8124 C   0  0  0  0  0  0  0  0  0  0  0  0
    1.4635   -2.6444    4.1527 C   0  0  0  0  0  0  0  0  0  0  0  0
    0.2798   -1.3771    2.3733 N   0  0  0  0  0  0  0  0  0  0  0  0
   -0.3702   -0.5238    3.2797 N   0  0  0  0  0  0  0  0  0  0  0  0
   -1.4914    0.0665    2.9751 C   0  0  0  0  0  0  0  0  0  0  0  0
   -2.1073    0.9880    3.9897 C   0  0  0  0  0  0  0  0  0  0  0  0
   -2.0899   -0.1769    1.6849 C   0  0  0  0  0  0  0  0  0  0  0  0
   -3.2698    0.2159    1.0742 C   0  0  0  0  0  0  0  0  0  0  0  0
   -4.4350    0.9504    1.6360 C   0  0  0  0  0  0  0  0  0  0  0  0
   -3.1981   -0.2860   -0.2329 N   0  0  0  0  0  0  0  0  0  0  0  0
   -4.0245   -0.0395   -1.3723 C   0  0  0  0  0  0  0  0  0  0  0  0
   -4.8625    1.0762   -1.4653 C   0  0  0  0  0  0  0  0  0  0  0  0
   -5.6374    1.2872   -2.6141 C   0  0  0  0  0  0  0  0  0  0  0  0
   -5.5930    0.3867   -3.6829 C   0  0  0  0  0  0  0  0  0  0  0  0
   -6.3937    0.6274   -4.9251 C   0  0  0  0  0  0  0  0  0  0  0  0
   -4.7412   -0.7178   -3.6015 C   0  0  0  0  0  0  0  0  0  0  0  0
   -3.9561   -0.9252   -2.4615 C   0  0  0  0  0  0  0  0  0  0  0  0
   -2.1353   -1.1251   -0.3727 N   0  0  0  0  0  0  0  0  0  0  0  0
   -1.4434   -1.0034    0.7621 C   0  0  0  0  0  0  0  0  0  0  0  0
   -0.1695   -1.6423    1.0644 C   0  0  0  0  0  0  0  0  0  0  0  0
    0.4603   -2.3188    0.2537 O   0  0  0  0  0  0  0  0  0  0  0  0
    4.1657    1.4895   -0.8907 C   0  0  0  0  0  0  0  0  0  0  0  0
    4.9046    1.2257   -2.0508 C   0  0  0  0  0  0  0  0  0  0  0  0
    6.5672    1.6077   -4.3002 H   0  0  0  0  0  0  0  0  0  0  0  0
    7.1246    0.1210   -5.0788 H   0  0  0  0  0  0  0  0  0  0  0  0
    5.4062    0.2771   -4.6750 H   0  0  0  0  0  0  0  0  0  0  0  0
    6.9796   -1.1631   -0.8231 H   0  0  0  0  0  0  0  0  0  0  0  0
    5.6694   -0.7105    1.2239 H   0  0  0  0  0  0  0  0  0  0  0  0
    3.0818    2.0107    1.4578 H   0  0  0  0  0  0  0  0  0  0  0  0
    4.2921    1.1602    2.4160 H   0  0  0  0  0  0  0  0  0  0  0  0
    2.0401   -0.1945    0.9627 H   0  0  0  0  0  0  0  0  0  0  0  0
    1.9299   -2.6464    2.0700 H   0  0  0  0  0  0  0  0  0  0  0  0
    1.1964   -1.9600    4.9663 H   0  0  0  0  0  0  0  0  0  0  0  0
    0.6970   -3.4280    4.1006 H   0  0  0  0  0  0  0  0  0  0  0  0
    2.4142   -3.1178    4.4204 H   0  0  0  0  0  0  0  0  0  0  0  0
   -2.9675    0.4976    4.4581 H   0  0  0  0  0  0  0  0  0  0  0  0
   -2.4247    1.9197    3.5134 H   0  0  0  0  0  0  0  0  0  0  0  0
   -1.3782    1.2332    4.7701 H   0  0  0  0  0  0  0  0  0  0  0  0
   -5.3838    0.5778    1.2346 H   0  0  0  0  0  0  0  0  0  0  0  0
   -4.3462    2.0243    1.4423 H   0  0  0  0  0  0  0  0  0  0  0  0
   -4.4955    0.8139    2.7211 H   0  0  0  0  0  0  0  0  0  0  0  0
   -4.8998    1.8409   -0.6986 H   0  0  0  0  0  0  0  0  0  0  0  0
   -6.2664    2.1732   -2.6720 H   0  0  0  0  0  0  0  0  0  0  0  0
   -6.8952   -0.2919   -5.2463 H   0  0  0  0  0  0  0  0  0  0  0  0
   -7.1699    1.3834   -4.7577 H   0  0  0  0  0  0  0  0  0  0  0  0
   -5.7435    0.9754   -5.7351 H   0  0  0  0  0  0  0  0  0  0  0  0
   -4.6740   -1.4228   -4.4279 H   0  0  0  0  0  0  0  0  0  0  0  0
   -3.3028   -1.7975   -2.4354 H   0  0  0  0  0  0  0  0  0  0  0  0
    3.3744    2.2352   -0.9276 H   0  0  0  0  0  0  0  0  0  0  0  0
    4.6626    1.7832   -2.9490 H   0  0  0  0  0  0  0  0  0  0  0  0
  1  2  1  0
  2  3  1  0
  3  4  2  0
  4  5  1  0
  5  6  2  0
  6  7  1  0
  7  8  1  0
  8  9  1  0
  9 10  2  0
  9 11  1  0
 11 12  1  0
 11 13  1  0
 13 14  1  0
 14 15  2  0
 15 16  1  0
 15 17  1  0
 17 18  2  0
 18 19  1  0
 18 20  1  0
 20 21  1  0
 21 22  2  0
 22 23  1  0
 23 24  2  0
 24 25  1  0
 24 26  1  0
 26 27  2  0
 20 28  1  0
 28 29  2  0
 29 30  1  0
 30 31  2  0
  6 32  1  0
 32 33  2  0
 33  3  1  0
 30 13  1  0
 29 17  1  0
 27 21  1  0
  1 34  1  0
  1 35  1  0
  1 36  1  0
  4 37  1  0
  5 38  1  0
  7 39  1  0
  7 40  1  0
  8 41  1  0
 11 42  1  0
 12 43  1  0
 12 44  1  0
 12 45  1  0
 16 46  1  0
 16 47  1  0
 16 48  1  0
 19 49  1  0
 19 50  1  0
 19 51  1  0
 22 52  1  0
 23 53  1  0
 25 54  1  0
 25 55  1  0
 25 56  1  0
 26 57  1  0
 27 58  1  0
 32 59  1  0
 33 60  1  0
M  END
$$$$
