
     RDKit          3D

 64 69  0  0  0  0  0  0  0  0999 V2000
    6.8543    0.4298    2.8736 F   0  0  0  0  0  0  0  0  0  0  0  0
    6.8483    1.2551    1.7910 C   0  0  0  0  0  0  0  0  0  0  0  0
    7.7827    2.2130    2.0574 F   0  0  0  0  0  0  0  0  0  0  0  0
    5.6508    1.9029    1.8137 F   0  0  0  0  0  0  0  0  0  0  0  0
    7.0940    0.5173    0.4917 C   0  0  0  0  0  0  0  0  0  0  0  0
    8.2796    0.7768   -0.2247 C   0  0  0  0  0  0  0  0  0  0  0  0
    8.5565    0.1209   -1.4236 C   0  0  0  0  0  0  0  0  0  0  0  0
    7.6553   -0.8085   -1.9278 C   0  0  0  0  0  0  0  0  0  0  0  0
    6.4777   -1.0835   -1.2340 C   0  0  0  0  0  0  0  0  0  0  0  0
    6.1819   -0.4336   -0.0214 C   0  0  0  0  0  0  0  0  0  0  0  0
    4.8731   -0.7721    0.6679 C   0  0  0  0  0  0  0  0  0  0  0  0
    3.6922    0.0121    0.0665 C   0  0  0  0  0  0  0  0  0  0  0  0
    2.4189   -0.2900    0.7406 N   0  0  0  0  0  0  0  0  0  0  0  0
    1.4368    0.7878    0.4838 C   0  0  0  0  0  0  0  0  0  0  0  0
   -0.0243    0.3733    0.7580 C   0  0  0  0  0  0  0  0  0  0  0  0
   -0.4349   -0.7522   -0.0964 N   0  0  0  0  0  0  0  0  0  0  0  0
   -1.6448   -0.7354   -0.7845 C   0  0  0  0  0  0  0  0  0  0  0  0
   -1.6617   -1.1951   -2.0124 N   0  0  0  0  0  0  0  0  0  0  0  0
   -2.8407   -1.1617   -2.7806 C   0  0  0  0  0  0  0  0  0  0  0  0
   -2.7933   -1.6488   -4.0886 C   0  0  0  0  0  0  0  0  0  0  0  0
   -3.9303   -1.6256   -4.9007 C   0  0  0  0  0  0  0  0  0  0  0  0
   -5.1305   -1.1109   -4.4089 C   0  0  0  0  0  0  0  0  0  0  0  0
   -5.2004   -0.6191   -3.1048 C   0  0  0  0  0  0  0  0  0  0  0  0
   -4.0544   -0.6493   -2.3042 C   0  0  0  0  0  0  0  0  0  0  0  0
   -4.0390   -0.1901   -0.9772 N   0  0  0  0  0  0  0  0  0  0  0  0
   -5.0622    0.3384   -0.2269 C   0  0  0  0  0  0  0  0  0  0  0  0
   -4.5937    0.5739    1.0517 C   0  0  0  0  0  0  0  0  0  0  0  0
   -5.4117    1.0963    2.1359 C   0  0  0  0  0  0  0  0  0  0  0  0
   -5.2280    0.6277    3.4438 C   0  0  0  0  0  0  0  0  0  0  0  0
   -6.0025    1.1287    4.4935 C   0  0  0  0  0  0  0  0  0  0  0  0
   -6.9650    2.1053    4.2464 C   0  0  0  0  0  0  0  0  0  0  0  0
   -7.1543    2.5821    2.9504 C   0  0  0  0  0  0  0  0  0  0  0  0
   -6.3815    2.0804    1.8998 C   0  0  0  0  0  0  0  0  0  0  0  0
   -3.2302    0.1734    1.0600 C   0  0  0  0  0  0  0  0  0  0  0  0
   -2.8927   -0.2452   -0.2155 C   0  0  0  0  0  0  0  0  0  0  0  0
    0.6752   -1.5651   -0.6236 C   0  0  0  0  0  0  0  0  0  0  0  0
    1.8606   -1.6095    0.3641 C   0  0  0  0  0  0  0  0  0  0  0  0
    9.0013    1.5001    0.1534 H   0  0  0  0  0  0  0  0  0  0  0  0
    9.4767    0.3347   -1.9619 H   0  0  0  0  0  0  0  0  0  0  0  0
    7.8692   -1.3222   -2.8614 H   0  0  0  0  0  0  0  0  0  0  0  0
    5.7858   -1.8161   -1.6459 H   0  0  0  0  0  0  0  0  0  0  0  0
    4.7115   -1.8538    0.5811 H   0  0  0  0  0  0  0  0  0  0  0  0
    4.9430   -0.5800    1.7443 H   0  0  0  0  0  0  0  0  0  0  0  0
    3.9153    1.0812    0.1798 H   0  0  0  0  0  0  0  0  0  0  0  0
    3.6095   -0.1704   -1.0133 H   0  0  0  0  0  0  0  0  0  0  0  0
    1.6861    1.6471    1.1178 H   0  0  0  0  0  0  0  0  0  0  0  0
    1.5041    1.1241   -0.5607 H   0  0  0  0  0  0  0  0  0  0  0  0
   -0.1370    0.0841    1.8088 H   0  0  0  0  0  0  0  0  0  0  0  0
   -0.6549    1.2511    0.5805 H   0  0  0  0  0  0  0  0  0  0  0  0
   -1.8582   -2.0474   -4.4737 H   0  0  0  0  0  0  0  0  0  0  0  0
   -3.8773   -2.0095   -5.9167 H   0  0  0  0  0  0  0  0  0  0  0  0
   -6.0140   -1.0952   -5.0426 H   0  0  0  0  0  0  0  0  0  0  0  0
   -6.1460   -0.2279   -2.7448 H   0  0  0  0  0  0  0  0  0  0  0  0
   -6.0483    0.4799   -0.6437 H   0  0  0  0  0  0  0  0  0  0  0  0
   -4.4902   -0.1420    3.6562 H   0  0  0  0  0  0  0  0  0  0  0  0
   -5.8559    0.7547    5.5037 H   0  0  0  0  0  0  0  0  0  0  0  0
   -7.5648    2.4940    5.0649 H   0  0  0  0  0  0  0  0  0  0  0  0
   -7.9010    3.3475    2.7539 H   0  0  0  0  0  0  0  0  0  0  0  0
   -6.5355    2.4767    0.8990 H   0  0  0  0  0  0  0  0  0  0  0  0
   -2.5639    0.2018    1.9109 H   0  0  0  0  0  0  0  0  0  0  0  0
    0.3282   -2.5917   -0.7932 H   0  0  0  0  0  0  0  0  0  0  0  0
    1.0141   -1.1604   -1.5857 H   0  0  0  0  0  0  0  0  0  0  0  0
    1.5112   -2.0804    1.2924 H   0  0  0  0  0  0  0  0  0  0  0  0
    2.6292   -2.2793   -0.0372 H   0  0  0  0  0  0  0  0  0  0  0  0
  1  2  1  0
  2  3  1  0
  2  4  1  0
  2  5  1  0
  5  6  2  0
  6  7  1  0
  7  8  2  0
  8  9  1  0
  9 10  2  0
 10 11  1  0
 11 12  1  0
 12 13  1  0
 13 14  1  0
 14 15  1  0
 15 16  1  0
 16 17  1  0
 17 18  2  0
 18 19  1  0
 19 20  2  0
 20 21  1  0
 21 22  2  0
 22 23  1  0
 23 24  2  0
 24 25  1  0
 25 26  1  0
 26 27  2  0
 27 28  1  0
 28 29  2  0
 29 30  1  0
 30 31  2  0
 31 32  1  0
 32 33  2  0
 27 34  1  0
 34 35  2  0
 16 36  1  0
 36 37  1  0
 10  5  1  0
 37 13  1  0
 35 17  1  0
 24 19  1  0
 35 25  1  0
 33 28  1  0
  6 38  1  0
  7 39  1  0
  8 40  1  0
  9 41  1  0
 11 42  1  0
 11 43  1  0
 12 44  1  0
 12 45  1  0
 14 46  1  0
 14 47  1  0
 15 48  1  0
 15 49  1  0
 20 50  1  0
 21 51  1  0
 22 52  1  0
 23 53  1  0
 26 54  1  0
 29 55  1  0
 30 56  1  0
 31 57  1  0
 32 58  1  0
 33 59  1  0
 34 60  1  0
 36 61  1  0
 36 62  1  0
 37 63  1  0
 37 64  1  0
M  END
$$$$
