
     RDKit          3D

 54 58  0  0  0  0  0  0  0  0999 V2000
    7.0513   -0.9440   -2.3146 F   0  0  0  0  0  0  0  0  0  0  0  0
    5.9896   -1.0596   -1.4636 C   0  0  0  0  0  0  0  0  0  0  0  0
    4.9514   -1.4820   -2.2368 F   0  0  0  0  0  0  0  0  0  0  0  0
    6.2974   -2.0975   -0.6372 F   0  0  0  0  0  0  0  0  0  0  0  0
    5.6774    0.2170   -0.7087 C   0  0  0  0  0  0  0  0  0  0  0  0
    6.5408    1.3217   -0.8519 C   0  0  0  0  0  0  0  0  0  0  0  0
    6.2979    2.5185   -0.1780 C   0  0  0  0  0  0  0  0  0  0  0  0
    5.1881    2.6339    0.6516 C   0  0  0  0  0  0  0  0  0  0  0  0
    4.3218    1.5527    0.8106 C   0  0  0  0  0  0  0  0  0  0  0  0
    4.5536    0.3349    0.1436 C   0  0  0  0  0  0  0  0  0  0  0  0
    3.5663   -0.7981    0.3545 C   0  0  0  0  0  0  0  0  0  0  0  0
    2.3228   -0.6552   -0.5416 C   0  0  0  0  0  0  0  0  0  0  0  0
    1.4728   -1.8587   -0.5317 N   0  0  0  0  0  0  0  0  0  0  0  0
    0.4427   -1.7953   -1.5960 C   0  0  0  0  0  0  0  0  0  0  0  0
   -0.7118   -0.8043   -1.3328 C   0  0  0  0  0  0  0  0  0  0  0  0
   -1.3480   -1.0659   -0.0264 N   0  0  0  0  0  0  0  0  0  0  0  0
   -2.5668   -0.4402    0.2287 C   0  0  0  0  0  0  0  0  0  0  0  0
   -2.6404    0.4471    1.1891 N   0  0  0  0  0  0  0  0  0  0  0  0
   -3.8507    1.1193    1.4506 C   0  0  0  0  0  0  0  0  0  0  0  0
   -3.8754    2.0666    2.4763 C   0  0  0  0  0  0  0  0  0  0  0  0
   -5.0467    2.7704    2.7707 C   0  0  0  0  0  0  0  0  0  0  0  0
   -6.2099    2.5322    2.0376 C   0  0  0  0  0  0  0  0  0  0  0  0
   -6.2090    1.5892    1.0089 C   0  0  0  0  0  0  0  0  0  0  0  0
   -5.0301    0.8928    0.7264 C   0  0  0  0  0  0  0  0  0  0  0  0
   -4.9460   -0.0815   -0.2809 N   0  0  0  0  0  0  0  0  0  0  0  0
   -5.9181   -0.5474   -1.1339 C   0  0  0  0  0  0  0  0  0  0  0  0
   -5.3716   -1.5542   -1.9002 C   0  0  0  0  0  0  0  0  0  0  0  0
   -4.0197   -1.6919   -1.5087 C   0  0  0  0  0  0  0  0  0  0  0  0
   -3.7680   -0.7485   -0.5289 C   0  0  0  0  0  0  0  0  0  0  0  0
   -0.3636   -1.1033    1.0749 C   0  0  0  0  0  0  0  0  0  0  0  0
    0.7837   -2.0861    0.7591 C   0  0  0  0  0  0  0  0  0  0  0  0
    7.4169    1.2532   -1.4968 H   0  0  0  0  0  0  0  0  0  0  0  0
    6.9760    3.3594   -0.3008 H   0  0  0  0  0  0  0  0  0  0  0  0
    4.9972    3.5662    1.1777 H   0  0  0  0  0  0  0  0  0  0  0  0
    3.4590    1.6646    1.4662 H   0  0  0  0  0  0  0  0  0  0  0  0
    4.0512   -1.7638    0.1790 H   0  0  0  0  0  0  0  0  0  0  0  0
    3.2788   -0.8065    1.4133 H   0  0  0  0  0  0  0  0  0  0  0  0
    2.6708   -0.4863   -1.5691 H   0  0  0  0  0  0  0  0  0  0  0  0
    1.7608    0.2421   -0.2603 H   0  0  0  0  0  0  0  0  0  0  0  0
    0.9103   -1.5673   -2.5614 H   0  0  0  0  0  0  0  0  0  0  0  0
    0.0178   -2.8013   -1.7078 H   0  0  0  0  0  0  0  0  0  0  0  0
   -0.3419    0.2276   -1.3564 H   0  0  0  0  0  0  0  0  0  0  0  0
   -1.4338   -0.8999   -2.1494 H   0  0  0  0  0  0  0  0  0  0  0  0
   -2.9721    2.2566    3.0488 H   0  0  0  0  0  0  0  0  0  0  0  0
   -5.0500    3.5035    3.5734 H   0  0  0  0  0  0  0  0  0  0  0  0
   -7.1187    3.0812    2.2709 H   0  0  0  0  0  0  0  0  0  0  0  0
   -7.1261    1.4185    0.4553 H   0  0  0  0  0  0  0  0  0  0  0  0
   -6.9235   -0.1521   -1.1239 H   0  0  0  0  0  0  0  0  0  0  0  0
   -5.8954   -2.1331   -2.6501 H   0  0  0  0  0  0  0  0  0  0  0  0
   -3.3050   -2.4068   -1.8947 H   0  0  0  0  0  0  0  0  0  0  0  0
    0.0355   -0.0996    1.2608 H   0  0  0  0  0  0  0  0  0  0  0  0
   -0.8551   -1.4408    1.9947 H   0  0  0  0  0  0  0  0  0  0  0  0
    0.3673   -3.1019    0.7315 H   0  0  0  0  0  0  0  0  0  0  0  0
    1.4984   -2.0960    1.5886 H   0  0  0  0  0  0  0  0  0  0  0  0
  1  2  1  0
  2  3  1  0
  2  4  1  0
  2  5  1  0
  5  6  2  0
  6  7  1  0
  7  8  2  0
  8  9  1  0
  9 10  2  0
 10 11  1  0
 11 12  1  0
 12 13  1  0
 13 14  1  0
 14 15  1  0
 15 16  1  0
 16 17  1  0
 17 18  2  0
 18 19  1  0
 19 20  2  0
 20 21  1  0
 21 22  2  0
 22 23  1  0
 23 24  2  0
 24 25  1  0
 25 26  1  0
 26 27  2  0
 27 28  1  0
 28 29  2  0
 16 30  1  0
 30 31  1  0
 10  5  1  0
 31 13  1  0
 29 17  1  0
 24 19  1  0
 29 25  1  0
  6 32  1  0
  7 33  1  0
  8 34  1  0
  9 35  1  0
 11 36  1  0
 11 37  1  0
 12 38  1  0
 12 39  1  0
 14 40  1  0
 14 41  1  0
 15 42  1  0
 15 43  1  0
 20 44  1  0
 21 45  1  0
 22 46  1  0
 23 47  1  0
 26 48  1  0
 27 49  1  0
 28 50  1  0
 30 51  1  0
 30 52  1  0
 31 53  1  0
 31 54  1  0
M  END
$$$$
