
     RDKit          3D

 45 47  0  0  0  0  0  0  0  0999 V2000
   -3.5160    1.2008    1.7630 O   0  0  0  0  0  0  0  0  0  0  0  0
   -3.0666    0.6416    0.7637 C   0  0  0  0  0  0  0  0  0  0  0  0
   -3.9309    0.2955   -0.4432 C   0  0  0  0  0  0  0  0  0  0  0  0
   -5.3820    0.6986   -0.3124 C   0  0  0  0  0  0  0  0  0  0  0  0
   -6.3161   -0.1823    0.2526 C   0  0  0  0  0  0  0  0  0  0  0  0
   -7.6546    0.1949    0.3835 C   0  0  0  0  0  0  0  0  0  0  0  0
   -8.0639    1.4558   -0.0441 C   0  0  0  0  0  0  0  0  0  0  0  0
   -9.7134    1.9193    0.1160 Cl  0  0  0  0  0  0  0  0  0  0  0  0
   -7.1459    2.3446   -0.5987 C   0  0  0  0  0  0  0  0  0  0  0  0
   -5.8072    1.9685   -0.7300 C   0  0  0  0  0  0  0  0  0  0  0  0
   -1.6461    0.2761    0.6930 C   0  0  0  0  0  0  0  0  0  0  0  0
   -0.7197    0.5229    1.6888 C   0  0  0  0  0  0  0  0  0  0  0  0
    0.5017    0.0596    1.2818 N   0  0  0  0  0  0  0  0  0  0  0  0
    0.3997   -0.5148    0.0338 C   0  0  0  0  0  0  0  0  0  0  0  0
    1.4739   -1.1097   -0.7355 C   0  0  0  0  0  0  0  0  0  0  0  0
    1.3788   -1.3501   -1.9343 O   0  0  0  0  0  0  0  0  0  0  0  0
    2.6170   -1.3966   -0.0173 N   0  0  0  0  0  0  0  0  0  0  0  0
    3.7172   -2.1324   -0.6099 C   0  0  0  0  0  0  0  0  0  0  0  0
    4.4793   -1.3762   -1.7011 C   0  0  0  0  0  0  0  0  0  0  0  0
    4.9013    0.0446   -1.3260 C   0  0  0  0  0  0  0  0  0  0  0  0
    5.6271    0.1335   -0.0778 N   0  0  0  0  0  0  0  0  0  0  0  0
    6.8730   -0.3636    0.1791 C   0  0  0  0  0  0  0  0  0  0  0  0
    7.1028   -0.0703    1.5036 C   0  0  0  0  0  0  0  0  0  0  0  0
    6.0351    0.5978    2.0471 N   0  0  0  0  0  0  0  0  0  0  0  0
    5.1747    0.7303    1.0640 C   0  0  0  0  0  0  0  0  0  0  0  0
   -0.9260   -0.3706   -0.3514 C   0  0  0  0  0  0  0  0  0  0  0  0
   -3.8767   -0.7870   -0.6128 H   0  0  0  0  0  0  0  0  0  0  0  0
   -3.5053    0.7830   -1.3291 H   0  0  0  0  0  0  0  0  0  0  0  0
   -6.0075   -1.1653    0.6020 H   0  0  0  0  0  0  0  0  0  0  0  0
   -8.3687   -0.4953    0.8242 H   0  0  0  0  0  0  0  0  0  0  0  0
   -7.4631    3.3315   -0.9242 H   0  0  0  0  0  0  0  0  0  0  0  0
   -5.0983    2.6769   -1.1534 H   0  0  0  0  0  0  0  0  0  0  0  0
   -0.8380    1.0043    2.6525 H   0  0  0  0  0  0  0  0  0  0  0  0
    1.3564    0.1562    1.8142 H   0  0  0  0  0  0  0  0  0  0  0  0
    2.5253   -1.4795    0.9852 H   0  0  0  0  0  0  0  0  0  0  0  0
    3.3200   -3.0680   -1.0202 H   0  0  0  0  0  0  0  0  0  0  0  0
    4.3957   -2.3991    0.2077 H   0  0  0  0  0  0  0  0  0  0  0  0
    5.3667   -1.9648   -1.9659 H   0  0  0  0  0  0  0  0  0  0  0  0
    3.8709   -1.3212   -2.6113 H   0  0  0  0  0  0  0  0  0  0  0  0
    5.5515    0.4612   -2.1042 H   0  0  0  0  0  0  0  0  0  0  0  0
    4.0253    0.6997   -1.2554 H   0  0  0  0  0  0  0  0  0  0  0  0
    7.4706   -0.8702   -0.5657 H   0  0  0  0  0  0  0  0  0  0  0  0
    7.9798   -0.3034    2.0939 H   0  0  0  0  0  0  0  0  0  0  0  0
    4.2200    1.2354    1.1266 H   0  0  0  0  0  0  0  0  0  0  0  0
   -1.3174   -0.7122   -1.3031 H   0  0  0  0  0  0  0  0  0  0  0  0
  1  2  2  0
  2  3  1  0
  3  4  1  0
  4  5  2  0
  5  6  1  0
  6  7  2  0
  7  8  1  0
  7  9  1  0
  9 10  2  0
  2 11  1  0
 11 12  2  0
 12 13  1  0
 13 14  1  0
 14 15  1  0
 15 16  2  0
 15 17  1  0
 17 18  1  0
 18 19  1  0
 19 20  1  0
 20 21  1  0
 21 22  1  0
 22 23  2  0
 23 24  1  0
 24 25  2  0
 14 26  2  0
 10  4  1  0
 26 11  1  0
 25 21  1  0
  3 27  1  0
  3 28  1  0
  5 29  1  0
  6 30  1  0
  9 31  1  0
 10 32  1  0
 12 33  1  0
 13 34  1  0
 17 35  1  0
 18 36  1  0
 18 37  1  0
 19 38  1  0
 19 39  1  0
 20 40  1  0
 20 41  1  0
 22 42  1  0
 23 43  1  0
 25 44  1  0
 26 45  1  0
M  END
$$$$
