
     RDKit          3D

 24 24  0  0  0  0  0  0  0  0999 V2000
   -4.0767    0.1365   -0.7363 C   0  0  0  0  0  0  0  0  0  0  0  0
   -3.5600   -0.9874    0.0131 N   0  0  0  0  0  0  0  0  0  0  0  0
   -2.2659   -1.2136    0.4097 C   0  0  0  0  0  0  0  0  0  0  0  0
   -2.0416   -2.4598    1.4971 S   0  0  0  0  0  0  0  0  0  0  0  0
   -1.3358   -0.3931   -0.1789 N   0  0  0  0  0  0  0  0  0  0  0  0
    0.0250   -0.1494    0.1127 C   0  0  0  0  0  0  0  0  0  0  0  0
    0.6351   -0.4150    1.3374 C   0  0  0  0  0  0  0  0  0  0  0  0
    1.9881   -0.1151    1.5419 C   0  0  0  0  0  0  0  0  0  0  0  0
    2.7548    0.4598    0.5246 C   0  0  0  0  0  0  0  0  0  0  0  0
    4.1943    0.8073    0.7591 C   0  0  0  0  0  0  0  0  0  0  0  0
    2.1377    0.7633   -0.6907 C   0  0  0  0  0  0  0  0  0  0  0  0
    0.7863    0.4633   -0.8918 C   0  0  0  0  0  0  0  0  0  0  0  0
   -3.7161    1.0691   -0.2944 H   0  0  0  0  0  0  0  0  0  0  0  0
   -3.7375    0.0619   -1.7726 H   0  0  0  0  0  0  0  0  0  0  0  0
   -5.1682    0.1044   -0.7038 H   0  0  0  0  0  0  0  0  0  0  0  0
   -4.2347   -1.5881    0.4756 H   0  0  0  0  0  0  0  0  0  0  0  0
   -1.6428   -0.0108   -1.0612 H   0  0  0  0  0  0  0  0  0  0  0  0
    0.0831   -0.8232    2.1758 H   0  0  0  0  0  0  0  0  0  0  0  0
    2.4338   -0.3310    2.5107 H   0  0  0  0  0  0  0  0  0  0  0  0
    4.6562    0.1048    1.4607 H   0  0  0  0  0  0  0  0  0  0  0  0
    4.2734    1.8194    1.1677 H   0  0  0  0  0  0  0  0  0  0  0  0
    4.7653    0.7565   -0.1740 H   0  0  0  0  0  0  0  0  0  0  0  0
    2.7033    1.2338   -1.4917 H   0  0  0  0  0  0  0  0  0  0  0  0
    0.3430    0.7068   -1.8538 H   0  0  0  0  0  0  0  0  0  0  0  0
  1  2  1  0
  2  3  1  0
  3  4  2  0
  3  5  1  0
  5  6  1  0
  6  7  2  0
  7  8  1  0
  8  9  2  0
  9 10  1  0
  9 11  1  0
 11 12  2  0
 12  6  1  0
  1 13  1  0
  1 14  1  0
  1 15  1  0
  2 16  1  0
  5 17  1  0
  7 18  1  0
  8 19  1  0
 10 20  1  0
 10 21  1  0
 10 22  1  0
 11 23  1  0
 12 24  1  0
M  END
$$$$
