
     RDKit          3D

 62 66  0  0  0  0  0  0  0  0999 V2000
   -4.8799    5.7377   -2.8139 C   0  0  0  0  0  0  0  0  0  0  0  0
   -3.8655    4.8507   -2.3601 O   0  0  0  0  0  0  0  0  0  0  0  0
   -4.2772    3.7075   -1.7307 C   0  0  0  0  0  0  0  0  0  0  0  0
   -5.5923    3.3458   -1.4728 C   0  0  0  0  0  0  0  0  0  0  0  0
   -5.8861    2.1437   -0.8190 C   0  0  0  0  0  0  0  0  0  0  0  0
   -4.8314    1.3002   -0.4203 C   0  0  0  0  0  0  0  0  0  0  0  0
   -4.9692   -0.2088    0.3883 S   0  0  0  0  0  0  0  0  0  0  0  0
   -3.2760   -0.4401    0.4279 C   0  0  0  0  0  0  0  0  0  0  0  0
   -2.7552   -1.6515    1.0719 C   0  0  0  0  0  0  0  0  0  0  0  0
   -2.2874   -1.5766    2.3928 C   0  0  0  0  0  0  0  0  0  0  0  0
   -1.7746   -2.7082    3.0298 C   0  0  0  0  0  0  0  0  0  0  0  0
   -1.7146   -3.9231    2.3500 C   0  0  0  0  0  0  0  0  0  0  0  0
   -2.1720   -4.0118    1.0346 C   0  0  0  0  0  0  0  0  0  0  0  0
   -2.7062   -2.8851    0.4004 C   0  0  0  0  0  0  0  0  0  0  0  0
   -3.1128   -2.9402   -0.9105 O   0  0  0  0  0  0  0  0  0  0  0  0
   -4.1136   -3.9323   -1.1272 C   0  0  0  0  0  0  0  0  0  0  0  0
   -2.5996    0.6171   -0.1587 C   0  0  0  0  0  0  0  0  0  0  0  0
   -1.1423    0.6514   -0.2238 C   0  0  0  0  0  0  0  0  0  0  0  0
   -0.4303    1.5934    0.5266 C   0  0  0  0  0  0  0  0  0  0  0  0
    0.9678    1.6330    0.4715 C   0  0  0  0  0  0  0  0  0  0  0  0
    1.6633    0.7312   -0.3345 C   0  0  0  0  0  0  0  0  0  0  0  0
    3.0210    0.6597   -0.4766 O   0  0  0  0  0  0  0  0  0  0  0  0
    3.8085    1.5572    0.3107 C   0  0  0  0  0  0  0  0  0  0  0  0
    5.3026    1.2856    0.0540 C   0  0  0  0  0  0  0  0  0  0  0  0
    5.8535    0.1772    0.8508 N   0  0  0  0  0  0  0  0  0  0  0  0
    7.2873   -0.0037    0.6143 C   0  0  0  0  0  0  0  0  0  0  0  0
    7.5618   -1.3641    1.2329 C   0  0  0  0  0  0  0  0  0  0  0  0
    6.2456   -2.1230    1.1133 C   0  0  0  0  0  0  0  0  0  0  0  0
    5.2543   -1.1222    0.5334 C   0  0  0  0  0  0  0  0  0  0  0  0
    0.9494   -0.2036   -1.0889 C   0  0  0  0  0  0  0  0  0  0  0  0
   -0.4458   -0.2453   -1.0381 C   0  0  0  0  0  0  0  0  0  0  0  0
   -3.4979    1.6348   -0.6592 C   0  0  0  0  0  0  0  0  0  0  0  0
   -3.2380    2.8596   -1.3289 C   0  0  0  0  0  0  0  0  0  0  0  0
   -5.5224    5.2555   -3.5582 H   0  0  0  0  0  0  0  0  0  0  0  0
   -4.3891    6.5873   -3.2984 H   0  0  0  0  0  0  0  0  0  0  0  0
   -5.4676    6.1267   -1.9758 H   0  0  0  0  0  0  0  0  0  0  0  0
   -6.4262    3.9745   -1.7672 H   0  0  0  0  0  0  0  0  0  0  0  0
   -6.9179    1.8656   -0.6225 H   0  0  0  0  0  0  0  0  0  0  0  0
   -2.3169   -0.6307    2.9289 H   0  0  0  0  0  0  0  0  0  0  0  0
   -1.4115   -2.6370    4.0518 H   0  0  0  0  0  0  0  0  0  0  0  0
   -1.2982   -4.7995    2.8402 H   0  0  0  0  0  0  0  0  0  0  0  0
   -2.0849   -4.9561    0.5062 H   0  0  0  0  0  0  0  0  0  0  0  0
   -4.6101   -3.7033   -2.0752 H   0  0  0  0  0  0  0  0  0  0  0  0
   -4.8743   -3.9250   -0.3379 H   0  0  0  0  0  0  0  0  0  0  0  0
   -3.6616   -4.9251   -1.2175 H   0  0  0  0  0  0  0  0  0  0  0  0
   -0.9585    2.2999    1.1629 H   0  0  0  0  0  0  0  0  0  0  0  0
    1.4792    2.3784    1.0708 H   0  0  0  0  0  0  0  0  0  0  0  0
    3.5905    2.5864    0.0001 H   0  0  0  0  0  0  0  0  0  0  0  0
    3.5858    1.4443    1.3790 H   0  0  0  0  0  0  0  0  0  0  0  0
    5.8499    2.1944    0.3333 H   0  0  0  0  0  0  0  0  0  0  0  0
    5.4680    1.1125   -1.0171 H   0  0  0  0  0  0  0  0  0  0  0  0
    7.5228   -0.0273   -0.4576 H   0  0  0  0  0  0  0  0  0  0  0  0
    7.8862    0.7810    1.0874 H   0  0  0  0  0  0  0  0  0  0  0  0
    7.8336   -1.2599    2.2902 H   0  0  0  0  0  0  0  0  0  0  0  0
    8.3807   -1.8839    0.7261 H   0  0  0  0  0  0  0  0  0  0  0  0
    5.9232   -2.4685    2.1024 H   0  0  0  0  0  0  0  0  0  0  0  0
    6.3450   -3.0012    0.4668 H   0  0  0  0  0  0  0  0  0  0  0  0
    4.2653   -1.2467    0.9852 H   0  0  0  0  0  0  0  0  0  0  0  0
    5.1696   -1.2758   -0.5500 H   0  0  0  0  0  0  0  0  0  0  0  0
    1.4836   -0.9088   -1.7206 H   0  0  0  0  0  0  0  0  0  0  0  0
   -0.9811   -0.9823   -1.6328 H   0  0  0  0  0  0  0  0  0  0  0  0
   -2.2102    3.1462   -1.5410 H   0  0  0  0  0  0  0  0  0  0  0  0
  1  2  1  0
  2  3  1  0
  3  4  2  0
  4  5  1  0
  5  6  2  0
  6  7  1  0
  7  8  1  0
  8  9  1  0
  9 10  2  0
 10 11  1  0
 11 12  2  0
 12 13  1  0
 13 14  2  0
 14 15  1  0
 15 16  1  0
  8 17  2  0
 17 18  1  0
 18 19  2  0
 19 20  1  0
 20 21  2  0
 21 22  1  0
 22 23  1  0
 23 24  1  0
 24 25  1  0
 25 26  1  0
 26 27  1  0
 27 28  1  0
 28 29  1  0
 21 30  1  0
 30 31  2  0
 17 32  1  0
 32 33  2  0
 33  3  1  0
 32  6  1  0
 14  9  1  0
 31 18  1  0
 29 25  1  0
  1 34  1  0
  1 35  1  0
  1 36  1  0
  4 37  1  0
  5 38  1  0
 10 39  1  0
 11 40  1  0
 12 41  1  0
 13 42  1  0
 16 43  1  0
 16 44  1  0
 16 45  1  0
 19 46  1  0
 20 47  1  0
 23 48  1  0
 23 49  1  0
 24 50  1  0
 24 51  1  0
 26 52  1  0
 26 53  1  0
 27 54  1  0
 27 55  1  0
 28 56  1  0
 28 57  1  0
 29 58  1  0
 29 59  1  0
 30 60  1  0
 31 61  1  0
 33 62  1  0
M  END
$$$$
