
     RDKit          3D

 42 41  0  0  0  0  0  0  0  0999 V2000
   -6.1005   -0.1587    2.4275 C   0  0  0  0  0  0  0  0  0  0  0  0
   -5.0861   -0.1887    1.3152 C   0  0  0  0  0  0  0  0  0  0  0  0
   -5.5460    0.4621    0.0408 C   0  0  0  0  0  0  0  0  0  0  0  0
   -3.8785   -0.7550    1.5018 C   0  0  0  0  0  0  0  0  0  0  0  0
   -2.7710   -0.9038    0.4949 C   0  0  0  0  0  0  0  0  0  0  0  0
   -1.6756    0.1478    0.7049 C   0  0  0  0  0  0  0  0  0  0  0  0
   -0.5015   -0.0311   -0.2424 C   0  0  0  0  0  0  0  0  0  0  0  0
   -0.7863    0.2851   -1.6874 C   0  0  0  0  0  0  0  0  0  0  0  0
    0.7037   -0.4093    0.2300 C   0  0  0  0  0  0  0  0  0  0  0  0
    1.9608   -0.6549   -0.5609 C   0  0  0  0  0  0  0  0  0  0  0  0
    2.9368    0.5193   -0.4331 C   0  0  0  0  0  0  0  0  0  0  0  0
    4.2315    0.2771   -1.1808 C   0  0  0  0  0  0  0  0  0  0  0  0
    4.1880    0.5927   -2.6539 C   0  0  0  0  0  0  0  0  0  0  0  0
    5.3719   -0.1592   -0.6088 C   0  0  0  0  0  0  0  0  0  0  0  0
    5.5944   -0.5420    0.8187 C   0  0  0  0  0  0  0  0  0  0  0  0
    6.4759    0.4041    1.4009 O   0  0  0  0  0  0  0  0  0  0  0  0
   -7.0148   -0.6775    2.1197 H   0  0  0  0  0  0  0  0  0  0  0  0
   -6.3548    0.8750    2.6828 H   0  0  0  0  0  0  0  0  0  0  0  0
   -5.7341   -0.6454    3.3367 H   0  0  0  0  0  0  0  0  0  0  0  0
   -4.7555    0.5565   -0.7074 H   0  0  0  0  0  0  0  0  0  0  0  0
   -6.3650   -0.1141   -0.4025 H   0  0  0  0  0  0  0  0  0  0  0  0
   -5.9078    1.4755    0.2466 H   0  0  0  0  0  0  0  0  0  0  0  0
   -3.6492   -1.1807    2.4783 H   0  0  0  0  0  0  0  0  0  0  0  0
   -2.3465   -1.9083    0.6063 H   0  0  0  0  0  0  0  0  0  0  0  0
   -3.1598   -0.8613   -0.5261 H   0  0  0  0  0  0  0  0  0  0  0  0
   -1.3310    0.1059    1.7469 H   0  0  0  0  0  0  0  0  0  0  0  0
   -2.0906    1.1556    0.5690 H   0  0  0  0  0  0  0  0  0  0  0  0
   -1.3501    1.2216   -1.7665 H   0  0  0  0  0  0  0  0  0  0  0  0
    0.1208    0.4189   -2.2827 H   0  0  0  0  0  0  0  0  0  0  0  0
   -1.3777   -0.5145   -2.1442 H   0  0  0  0  0  0  0  0  0  0  0  0
    0.8113   -0.5866    1.3004 H   0  0  0  0  0  0  0  0  0  0  0  0
    2.4277   -1.5713   -0.1769 H   0  0  0  0  0  0  0  0  0  0  0  0
    1.7354   -0.8583   -1.6129 H   0  0  0  0  0  0  0  0  0  0  0  0
    2.4703    1.4369   -0.8169 H   0  0  0  0  0  0  0  0  0  0  0  0
    3.1351    0.7267    0.6254 H   0  0  0  0  0  0  0  0  0  0  0  0
    3.9167    1.6416   -2.8097 H   0  0  0  0  0  0  0  0  0  0  0  0
    3.4495   -0.0374   -3.1593 H   0  0  0  0  0  0  0  0  0  0  0  0
    5.1536    0.4251   -3.1423 H   0  0  0  0  0  0  0  0  0  0  0  0
    6.2573   -0.2788   -1.2333 H   0  0  0  0  0  0  0  0  0  0  0  0
    4.6786   -0.5837    1.4125 H   0  0  0  0  0  0  0  0  0  0  0  0
    6.0651   -1.5283    0.8695 H   0  0  0  0  0  0  0  0  0  0  0  0
    6.0981    1.2809    1.2190 H   0  0  0  0  0  0  0  0  0  0  0  0
  1  2  1  0
  2  3  1  0
  2  4  2  3
  4  5  1  0
  5  6  1  0
  6  7  1  0
  7  8  1  0
  7  9  2  3
  9 10  1  0
 10 11  1  0
 11 12  1  0
 12 13  1  0
 12 14  2  3
 14 15  1  0
 15 16  1  0
  1 17  1  0
  1 18  1  0
  1 19  1  0
  3 20  1  0
  3 21  1  0
  3 22  1  0
  4 23  1  0
  5 24  1  0
  5 25  1  0
  6 26  1  0
  6 27  1  0
  8 28  1  0
  8 29  1  0
  8 30  1  0
  9 31  1  0
 10 32  1  0
 10 33  1  0
 11 34  1  0
 11 35  1  0
 13 36  1  0
 13 37  1  0
 13 38  1  0
 14 39  1  0
 15 40  1  0
 15 41  1  0
 16 42  1  0
M  END
$$$$
