
     RDKit          3D

 31 32  0  0  0  0  0  0  0  0999 V2000
    3.0388   -2.6200   -1.1259 C   0  0  0  0  0  0  0  0  0  0  0  0
    2.7649   -1.7868    0.1179 C   0  0  0  0  0  0  0  0  0  0  0  0
    2.8068   -0.3532   -0.1576 N   0  0  0  0  0  0  0  0  0  0  0  0
    1.7766    0.5356   -0.2704 C   0  0  0  0  0  0  0  0  0  0  0  0
    0.3646    0.2039   -0.2447 C   0  0  0  0  0  0  0  0  0  0  0  0
   -0.2200   -0.9157   -0.8022 C   0  0  0  0  0  0  0  0  0  0  0  0
   -1.9141   -0.9739   -0.5843 S   0  0  0  0  0  0  0  0  0  0  0  0
   -1.9302    0.5354    0.2223 C   0  0  0  0  0  0  0  0  0  0  0  0
   -3.2111    1.1639    0.7253 C   0  0  0  0  0  0  0  0  0  0  0  0
   -3.8882    0.3091    1.7976 C   0  0  0  0  0  0  0  0  0  0  0  0
   -4.1778    1.4893   -0.4142 C   0  0  0  0  0  0  0  0  0  0  0  0
   -0.6523    1.0519    0.3207 C   0  0  0  0  0  0  0  0  0  0  0  0
    2.1445    1.7824   -0.3818 N   0  0  0  0  0  0  0  0  0  0  0  0
    3.5054    1.7342   -0.3612 N   0  0  0  0  0  0  0  0  0  0  0  0
    3.9394    0.4288   -0.2007 C   0  0  0  0  0  0  0  0  0  0  0  0
    5.5390    0.0128   -0.0746 S   0  0  0  0  0  0  0  0  0  0  0  0
    2.9366   -3.6853   -0.8971 H   0  0  0  0  0  0  0  0  0  0  0  0
    4.0523   -2.4537   -1.5031 H   0  0  0  0  0  0  0  0  0  0  0  0
    2.3472   -2.3739   -1.9365 H   0  0  0  0  0  0  0  0  0  0  0  0
    3.5175   -2.0194    0.8792 H   0  0  0  0  0  0  0  0  0  0  0  0
    1.7942   -2.0526    0.5444 H   0  0  0  0  0  0  0  0  0  0  0  0
    0.2493   -1.7185   -1.3492 H   0  0  0  0  0  0  0  0  0  0  0  0
   -2.9438    2.1185    1.1998 H   0  0  0  0  0  0  0  0  0  0  0  0
   -4.7487    0.8369    2.2231 H   0  0  0  0  0  0  0  0  0  0  0  0
   -4.2503   -0.6428    1.3942 H   0  0  0  0  0  0  0  0  0  0  0  0
   -3.1953    0.0838    2.6159 H   0  0  0  0  0  0  0  0  0  0  0  0
   -3.6919    2.1079   -1.1770 H   0  0  0  0  0  0  0  0  0  0  0  0
   -4.5512    0.5842   -0.9055 H   0  0  0  0  0  0  0  0  0  0  0  0
   -5.0446    2.0425   -0.0367 H   0  0  0  0  0  0  0  0  0  0  0  0
   -0.4373    2.0070    0.7885 H   0  0  0  0  0  0  0  0  0  0  0  0
    4.0796    2.5675   -0.4064 H   0  0  0  0  0  0  0  0  0  0  0  0
  1  2  1  0
  2  3  1  0
  3  4  1  0
  4  5  1  0
  5  6  2  0
  6  7  1  0
  7  8  1  0
  8  9  1  0
  9 10  1  0
  9 11  1  0
  8 12  2  0
  4 13  2  0
 13 14  1  0
 14 15  1  0
 15 16  2  0
 15  3  1  0
 12  5  1  0
  1 17  1  0
  1 18  1  0
  1 19  1  0
  2 20  1  0
  2 21  1  0
  6 22  1  0
  9 23  1  0
 10 24  1  0
 10 25  1  0
 10 26  1  0
 11 27  1  0
 11 28  1  0
 11 29  1  0
 12 30  1  0
 14 31  1  0
M  END
$$$$
