
     RDKit          3D

 51 55  0  0  0  0  0  0  0  0999 V2000
    7.4446    0.2791   -0.9143 C   0  0  0  0  0  0  0  0  0  0  0  0
    6.4784   -0.5502   -1.4798 C   0  0  0  0  0  0  0  0  0  0  0  0
    5.2746   -0.7784   -0.8112 C   0  0  0  0  0  0  0  0  0  0  0  0
    5.0249   -0.1800    0.4306 C   0  0  0  0  0  0  0  0  0  0  0  0
    3.7203   -0.4230    1.1533 C   0  0  0  0  0  0  0  0  0  0  0  0
    2.5507    0.4383    0.6351 C   0  0  0  0  0  0  0  0  0  0  0  0
    2.0337    0.0388   -0.6886 N   0  0  0  0  0  0  0  0  0  0  0  0
    1.2414   -1.2114   -0.6547 C   0  0  0  0  0  0  0  0  0  0  0  0
   -0.1557   -1.0970   -0.0040 C   0  0  0  0  0  0  0  0  0  0  0  0
   -0.9400   -0.0031   -0.6110 N   0  0  0  0  0  0  0  0  0  0  0  0
   -2.2998    0.0494   -0.3086 C   0  0  0  0  0  0  0  0  0  0  0  0
   -2.7635    1.0643    0.3767 N   0  0  0  0  0  0  0  0  0  0  0  0
   -4.1276    1.1293    0.7249 C   0  0  0  0  0  0  0  0  0  0  0  0
   -4.5705    2.2252    1.4679 C   0  0  0  0  0  0  0  0  0  0  0  0
   -5.9108    2.3349    1.8485 C   0  0  0  0  0  0  0  0  0  0  0  0
   -6.8247    1.3441    1.4876 C   0  0  0  0  0  0  0  0  0  0  0  0
   -6.4051    0.2401    0.7448 C   0  0  0  0  0  0  0  0  0  0  0  0
   -5.0612    0.1439    0.3719 C   0  0  0  0  0  0  0  0  0  0  0  0
   -4.5568   -0.9257   -0.3853 N   0  0  0  0  0  0  0  0  0  0  0  0
   -5.2093   -2.0212   -0.8998 C   0  0  0  0  0  0  0  0  0  0  0  0
   -4.3015   -2.7600   -1.6281 C   0  0  0  0  0  0  0  0  0  0  0  0
   -3.0554   -2.0971   -1.5405 C   0  0  0  0  0  0  0  0  0  0  0  0
   -3.2277   -0.9834   -0.7381 C   0  0  0  0  0  0  0  0  0  0  0  0
   -0.1980    1.2751   -0.6182 C   0  0  0  0  0  0  0  0  0  0  0  0
    1.1869    1.1034   -1.2775 C   0  0  0  0  0  0  0  0  0  0  0  0
    6.0021    0.6567    0.9877 C   0  0  0  0  0  0  0  0  0  0  0  0
    7.2063    0.8831    0.3186 C   0  0  0  0  0  0  0  0  0  0  0  0
    8.3808    0.4574   -1.4362 H   0  0  0  0  0  0  0  0  0  0  0  0
    6.6582   -1.0168   -2.4446 H   0  0  0  0  0  0  0  0  0  0  0  0
    4.5241   -1.4184   -1.2698 H   0  0  0  0  0  0  0  0  0  0  0  0
    3.8634   -0.1949    2.2181 H   0  0  0  0  0  0  0  0  0  0  0  0
    3.4821   -1.4922    1.1250 H   0  0  0  0  0  0  0  0  0  0  0  0
    2.9059    1.4765    0.5861 H   0  0  0  0  0  0  0  0  0  0  0  0
    1.7509    0.4251    1.3846 H   0  0  0  0  0  0  0  0  0  0  0  0
    1.8033   -2.0166   -0.1702 H   0  0  0  0  0  0  0  0  0  0  0  0
    1.1075   -1.5416   -1.6939 H   0  0  0  0  0  0  0  0  0  0  0  0
   -0.6647   -2.0584   -0.1242 H   0  0  0  0  0  0  0  0  0  0  0  0
   -0.0621   -0.9227    1.0747 H   0  0  0  0  0  0  0  0  0  0  0  0
   -3.8611    2.9980    1.7515 H   0  0  0  0  0  0  0  0  0  0  0  0
   -6.2393    3.1949    2.4265 H   0  0  0  0  0  0  0  0  0  0  0  0
   -7.8667    1.4346    1.7853 H   0  0  0  0  0  0  0  0  0  0  0  0
   -7.1342   -0.5159    0.4732 H   0  0  0  0  0  0  0  0  0  0  0  0
   -6.2628   -2.1887   -0.7303 H   0  0  0  0  0  0  0  0  0  0  0  0
   -4.5183   -3.6703   -2.1721 H   0  0  0  0  0  0  0  0  0  0  0  0
   -2.1297   -2.3959   -2.0144 H   0  0  0  0  0  0  0  0  0  0  0  0
   -0.0873    1.6536    0.4053 H   0  0  0  0  0  0  0  0  0  0  0  0
   -0.7583    2.0232   -1.1924 H   0  0  0  0  0  0  0  0  0  0  0  0
    1.0398    0.8618   -2.3388 H   0  0  0  0  0  0  0  0  0  0  0  0
    1.7220    2.0609   -1.2680 H   0  0  0  0  0  0  0  0  0  0  0  0
    5.8326    1.1385    1.9476 H   0  0  0  0  0  0  0  0  0  0  0  0
    7.9580    1.5326    0.7589 H   0  0  0  0  0  0  0  0  0  0  0  0
  1  2  2  0
  2  3  1  0
  3  4  2  0
  4  5  1  0
  5  6  1  0
  6  7  1  0
  7  8  1  0
  8  9  1  0
  9 10  1  0
 10 11  1  0
 11 12  2  0
 12 13  1  0
 13 14  2  0
 14 15  1  0
 15 16  2  0
 16 17  1  0
 17 18  2  0
 18 19  1  0
 19 20  1  0
 20 21  2  0
 21 22  1  0
 22 23  2  0
 10 24  1  0
 24 25  1  0
  4 26  1  0
 26 27  2  0
 27  1  1  0
 25  7  1  0
 23 11  1  0
 18 13  1  0
 23 19  1  0
  1 28  1  0
  2 29  1  0
  3 30  1  0
  5 31  1  0
  5 32  1  0
  6 33  1  0
  6 34  1  0
  8 35  1  0
  8 36  1  0
  9 37  1  0
  9 38  1  0
 14 39  1  0
 15 40  1  0
 16 41  1  0
 17 42  1  0
 20 43  1  0
 21 44  1  0
 22 45  1  0
 24 46  1  0
 24 47  1  0
 25 48  1  0
 25 49  1  0
 26 50  1  0
 27 51  1  0
M  END
$$$$
