
     RDKit          3D

 51 54  0  0  0  0  0  0  0  0999 V2000
    5.8319    2.9691   -4.2817 C   0  0  0  0  0  0  0  0  0  0  0  0
    5.8652    2.0562   -3.0647 C   0  0  0  0  0  0  0  0  0  0  0  0
    4.5012    1.8917   -2.4474 C   0  0  0  0  0  0  0  0  0  0  0  0
    3.6344    0.8892   -2.8869 C   0  0  0  0  0  0  0  0  0  0  0  0
    2.3617    0.7453   -2.3183 C   0  0  0  0  0  0  0  0  0  0  0  0
    1.9129    1.5989   -1.2977 C   0  0  0  0  0  0  0  0  0  0  0  0
    0.5974    1.4542   -0.7003 N   0  0  0  0  0  0  0  0  0  0  0  0
   -0.0857    2.6171   -0.3237 C   0  0  0  0  0  0  0  0  0  0  0  0
    0.2656    3.7718   -0.5710 O   0  0  0  0  0  0  0  0  0  0  0  0
   -1.3680    2.4559    0.3781 C   0  0  0  0  0  0  0  0  0  0  0  0
   -2.0216    3.5914    0.8896 C   0  0  0  0  0  0  0  0  0  0  0  0
   -3.2392    3.4642    1.5501 C   0  0  0  0  0  0  0  0  0  0  0  0
   -3.8024    2.2038    1.7012 C   0  0  0  0  0  0  0  0  0  0  0  0
   -3.1516    1.0767    1.1864 C   0  0  0  0  0  0  0  0  0  0  0  0
   -1.9250    1.1900    0.5101 C   0  0  0  0  0  0  0  0  0  0  0  0
   -1.2385    0.0753   -0.0310 N   0  0  0  0  0  0  0  0  0  0  0  0
   -1.7930   -1.2761    0.0795 C   0  0  0  0  0  0  0  0  0  0  0  0
   -1.4331   -1.9449    1.4123 C   0  0  0  0  0  0  0  0  0  0  0  0
   -1.2785   -1.3220    2.4604 O   0  0  0  0  0  0  0  0  0  0  0  0
   -1.3671   -3.3198    1.3454 N   0  0  0  0  0  0  0  0  0  0  0  0
   -1.1768   -4.1330    2.5237 C   0  0  0  0  0  0  0  0  0  0  0  0
   -2.5068   -4.6005    2.9826 C   0  0  0  0  0  0  0  0  0  0  0  0
   -3.3756   -4.1675    3.9633 C   0  0  0  0  0  0  0  0  0  0  0  0
   -4.4965   -5.0306    3.9132 C   0  0  0  0  0  0  0  0  0  0  0  0
   -4.2444   -5.9286    2.9029 C   0  0  0  0  0  0  0  0  0  0  0  0
   -3.0405   -5.6732    2.3275 O   0  0  0  0  0  0  0  0  0  0  0  0
    0.0513    0.1697   -0.5594 C   0  0  0  0  0  0  0  0  0  0  0  0
    0.6499   -0.8716   -0.8532 O   0  0  0  0  0  0  0  0  0  0  0  0
    2.7948    2.6070   -0.8724 C   0  0  0  0  0  0  0  0  0  0  0  0
    4.0681    2.7538   -1.4373 C   0  0  0  0  0  0  0  0  0  0  0  0
    6.8361    3.0736   -4.7040 H   0  0  0  0  0  0  0  0  0  0  0  0
    5.1753    2.5698   -5.0629 H   0  0  0  0  0  0  0  0  0  0  0  0
    5.4695    3.9688   -4.0211 H   0  0  0  0  0  0  0  0  0  0  0  0
    6.5594    2.4645   -2.3204 H   0  0  0  0  0  0  0  0  0  0  0  0
    6.2638    1.0738   -3.3464 H   0  0  0  0  0  0  0  0  0  0  0  0
    3.9381    0.2093   -3.6799 H   0  0  0  0  0  0  0  0  0  0  0  0
    1.7231   -0.0361   -2.7216 H   0  0  0  0  0  0  0  0  0  0  0  0
   -1.5788    4.5792    0.7748 H   0  0  0  0  0  0  0  0  0  0  0  0
   -3.7398    4.3426    1.9495 H   0  0  0  0  0  0  0  0  0  0  0  0
   -4.7467    2.0903    2.2292 H   0  0  0  0  0  0  0  0  0  0  0  0
   -3.6275    0.1168    1.3616 H   0  0  0  0  0  0  0  0  0  0  0  0
   -2.8804   -1.2658   -0.0431 H   0  0  0  0  0  0  0  0  0  0  0  0
   -1.4137   -1.8953   -0.7426 H   0  0  0  0  0  0  0  0  0  0  0  0
   -1.6106   -3.8018    0.4901 H   0  0  0  0  0  0  0  0  0  0  0  0
   -0.5453   -4.9815    2.2427 H   0  0  0  0  0  0  0  0  0  0  0  0
   -0.6668   -3.5656    3.3084 H   0  0  0  0  0  0  0  0  0  0  0  0
   -3.2130   -3.3287    4.6273 H   0  0  0  0  0  0  0  0  0  0  0  0
   -5.3805   -5.0012    4.5347 H   0  0  0  0  0  0  0  0  0  0  0  0
   -4.7919   -6.7644    2.4900 H   0  0  0  0  0  0  0  0  0  0  0  0
    2.5221    3.2893   -0.0704 H   0  0  0  0  0  0  0  0  0  0  0  0
    4.7171    3.5487   -1.0750 H   0  0  0  0  0  0  0  0  0  0  0  0
  1  2  1  0
  2  3  1  0
  3  4  2  0
  4  5  1  0
  5  6  2  0
  6  7  1  0
  7  8  1  0
  8  9  2  0
  8 10  1  0
 10 11  2  0
 11 12  1  0
 12 13  2  0
 13 14  1  0
 14 15  2  0
 15 16  1  0
 16 17  1  0
 17 18  1  0
 18 19  2  0
 18 20  1  0
 20 21  1  0
 21 22  1  0
 22 23  2  0
 23 24  1  0
 24 25  2  0
 25 26  1  0
 16 27  1  0
 27 28  2  0
  6 29  1  0
 29 30  2  0
 30  3  1  0
 27  7  1  0
 15 10  1  0
 26 22  1  0
  1 31  1  0
  1 32  1  0
  1 33  1  0
  2 34  1  0
  2 35  1  0
  4 36  1  0
  5 37  1  0
 11 38  1  0
 12 39  1  0
 13 40  1  0
 14 41  1  0
 17 42  1  0
 17 43  1  0
 20 44  1  0
 21 45  1  0
 21 46  1  0
 23 47  1  0
 24 48  1  0
 25 49  1  0
 29 50  1  0
 30 51  1  0
M  END
$$$$
