
     RDKit          3D

 38 39  0  0  0  0  0  0  0  0999 V2000
   -4.4771    1.3199    2.6995 C   0  0  0  0  0  0  0  0  0  0  0  0
   -3.5991    0.6448    1.8057 O   0  0  0  0  0  0  0  0  0  0  0  0
   -4.1161    0.1887    0.6230 C   0  0  0  0  0  0  0  0  0  0  0  0
   -5.4501    0.3691    0.2323 C   0  0  0  0  0  0  0  0  0  0  0  0
   -5.9212   -0.1601   -0.9737 C   0  0  0  0  0  0  0  0  0  0  0  0
   -5.0689   -0.8805   -1.8032 C   0  0  0  0  0  0  0  0  0  0  0  0
   -3.7396   -1.0649   -1.4311 C   0  0  0  0  0  0  0  0  0  0  0  0
   -3.2537   -0.5241   -0.2288 C   0  0  0  0  0  0  0  0  0  0  0  0
   -1.8140   -0.7628    0.0725 C   0  0  0  0  0  0  0  0  0  0  0  0
   -1.2912   -1.8108   -0.3114 O   0  0  0  0  0  0  0  0  0  0  0  0
   -1.0251    0.3187    0.8052 C   0  0  0  0  0  0  0  0  0  0  0  0
    0.3752    0.2482    0.5179 O   0  0  0  0  0  0  0  0  0  0  0  0
    0.7034    0.6636   -0.7287 C   0  0  0  0  0  0  0  0  0  0  0  0
   -0.0644    1.1460   -1.5493 O   0  0  0  0  0  0  0  0  0  0  0  0
    2.1435    0.4946   -1.0099 C   0  0  0  0  0  0  0  0  0  0  0  0
    3.0227   -0.0543   -0.1572 C   0  0  0  0  0  0  0  0  0  0  0  0
    4.4539   -0.2076   -0.4522 C   0  0  0  0  0  0  0  0  0  0  0  0
    4.9211   -0.5852   -1.7181 C   0  0  0  0  0  0  0  0  0  0  0  0
    6.2895   -0.7469   -1.9511 C   0  0  0  0  0  0  0  0  0  0  0  0
    7.2029   -0.5431   -0.9190 C   0  0  0  0  0  0  0  0  0  0  0  0
    6.7492   -0.1837    0.3481 C   0  0  0  0  0  0  0  0  0  0  0  0
    5.3811   -0.0226    0.5817 C   0  0  0  0  0  0  0  0  0  0  0  0
   -3.9008    1.5937    3.5885 H   0  0  0  0  0  0  0  0  0  0  0  0
   -5.2937    0.6653    3.0212 H   0  0  0  0  0  0  0  0  0  0  0  0
   -4.8587    2.2441    2.2534 H   0  0  0  0  0  0  0  0  0  0  0  0
   -6.1594    0.9145    0.8470 H   0  0  0  0  0  0  0  0  0  0  0  0
   -6.9598   -0.0130   -1.2616 H   0  0  0  0  0  0  0  0  0  0  0  0
   -5.4350   -1.2972   -2.7383 H   0  0  0  0  0  0  0  0  0  0  0  0
   -3.0743   -1.6263   -2.0856 H   0  0  0  0  0  0  0  0  0  0  0  0
   -1.1287    0.1466    1.8809 H   0  0  0  0  0  0  0  0  0  0  0  0
   -1.4001    1.3209    0.5702 H   0  0  0  0  0  0  0  0  0  0  0  0
    2.4422    0.8636   -1.9847 H   0  0  0  0  0  0  0  0  0  0  0  0
    2.7060   -0.4038    0.8229 H   0  0  0  0  0  0  0  0  0  0  0  0
    4.2272   -0.7716   -2.5343 H   0  0  0  0  0  0  0  0  0  0  0  0
    6.6402   -1.0390   -2.9376 H   0  0  0  0  0  0  0  0  0  0  0  0
    8.2668   -0.6708   -1.1006 H   0  0  0  0  0  0  0  0  0  0  0  0
    7.4591   -0.0307    1.1567 H   0  0  0  0  0  0  0  0  0  0  0  0
    5.0469    0.2564    1.5785 H   0  0  0  0  0  0  0  0  0  0  0  0
  1  2  1  0
  2  3  1  0
  3  4  2  0
  4  5  1  0
  5  6  2  0
  6  7  1  0
  7  8  2  0
  8  9  1  0
  9 10  2  0
  9 11  1  0
 11 12  1  0
 12 13  1  0
 13 14  2  0
 13 15  1  0
 15 16  2  3
 16 17  1  0
 17 18  2  0
 18 19  1  0
 19 20  2  0
 20 21  1  0
 21 22  2  0
  8  3  1  0
 22 17  1  0
  1 23  1  0
  1 24  1  0
  1 25  1  0
  4 26  1  0
  5 27  1  0
  6 28  1  0
  7 29  1  0
 11 30  1  0
 11 31  1  0
 15 32  1  0
 16 33  1  0
 18 34  1  0
 19 35  1  0
 20 36  1  0
 21 37  1  0
 22 38  1  0
M  END
$$$$
