
     RDKit          3D

 39 40  0  0  0  0  0  0  0  0999 V2000
   -1.4988   -0.0457   -2.3423 C   0  0  0  0  0  0  0  0  0  0  0  0
   -2.4082   -0.0158   -1.1302 C   0  0  0  0  0  0  0  0  0  0  0  0
   -1.9388    0.0011    0.1313 C   0  0  0  0  0  0  0  0  0  0  0  0
   -0.4900   -0.0705    0.4523 C   0  0  0  0  0  0  0  0  0  0  0  0
    0.3038   -0.9699   -0.0438 N   0  0  0  0  0  0  0  0  0  0  0  0
    1.6291   -0.8732    0.3003 N   0  0  0  0  0  0  0  0  0  0  0  0
    2.3511    0.3144    0.2517 C   0  0  0  0  0  0  0  0  0  0  0  0
    1.8490    1.4280    0.1032 O   0  0  0  0  0  0  0  0  0  0  0  0
    3.8413    0.1951    0.3692 C   0  0  0  0  0  0  0  0  0  0  0  0
    4.5723    1.3928    0.4571 C   0  0  0  0  0  0  0  0  0  0  0  0
    5.9628    1.3652    0.5567 C   0  0  0  0  0  0  0  0  0  0  0  0
    6.9298    2.9867    0.6674 Br  0  0  0  0  0  0  0  0  0  0  0  0
    6.6472    0.1525    0.5708 C   0  0  0  0  0  0  0  0  0  0  0  0
    5.9363   -1.0450    0.4830 C   0  0  0  0  0  0  0  0  0  0  0  0
    4.5414   -1.0232    0.3805 C   0  0  0  0  0  0  0  0  0  0  0  0
    3.8736   -2.2163    0.2791 O   0  0  0  0  0  0  0  0  0  0  0  0
   -2.8838    0.1692    1.2592 C   0  0  0  0  0  0  0  0  0  0  0  0
   -2.4509    0.3451    2.3972 O   0  0  0  0  0  0  0  0  0  0  0  0
   -4.2282    0.1213    0.9561 N   0  0  0  0  0  0  0  0  0  0  0  0
   -5.1771    0.2480    2.0464 C   0  0  0  0  0  0  0  0  0  0  0  0
   -4.7326    0.1161   -0.3357 C   0  0  0  0  0  0  0  0  0  0  0  0
   -5.9428    0.1999   -0.5565 O   0  0  0  0  0  0  0  0  0  0  0  0
   -3.7889    0.0290   -1.3621 N   0  0  0  0  0  0  0  0  0  0  0  0
   -4.3071   -0.0017   -2.7301 C   0  0  0  0  0  0  0  0  0  0  0  0
   -0.4469    0.1426   -2.1133 H   0  0  0  0  0  0  0  0  0  0  0  0
   -1.5617   -1.0129   -2.8461 H   0  0  0  0  0  0  0  0  0  0  0  0
   -1.7753    0.7437   -3.0519 H   0  0  0  0  0  0  0  0  0  0  0  0
   -0.1546    0.6580    1.2121 H   0  0  0  0  0  0  0  0  0  0  0  0
    2.1635   -1.7319    0.1631 H   0  0  0  0  0  0  0  0  0  0  0  0
    4.0509    2.3487    0.4447 H   0  0  0  0  0  0  0  0  0  0  0  0
    7.7317    0.1305    0.6467 H   0  0  0  0  0  0  0  0  0  0  0  0
    6.4875   -1.9816    0.4914 H   0  0  0  0  0  0  0  0  0  0  0  0
    4.5172   -2.9480    0.2957 H   0  0  0  0  0  0  0  0  0  0  0  0
   -4.7535   -0.1153    2.9873 H   0  0  0  0  0  0  0  0  0  0  0  0
   -5.4359    1.3065    2.1566 H   0  0  0  0  0  0  0  0  0  0  0  0
   -6.0894   -0.3180    1.8338 H   0  0  0  0  0  0  0  0  0  0  0  0
   -3.8642   -0.8391   -3.2784 H   0  0  0  0  0  0  0  0  0  0  0  0
   -5.3925   -0.1315   -2.7596 H   0  0  0  0  0  0  0  0  0  0  0  0
   -4.0673    0.9452   -3.2227 H   0  0  0  0  0  0  0  0  0  0  0  0
  1  2  1  0
  2  3  2  0
  3  4  1  0
  4  5  2  3
  5  6  1  0
  6  7  1  0
  7  8  2  0
  7  9  1  0
  9 10  2  0
 10 11  1  0
 11 12  1  0
 11 13  2  0
 13 14  1  0
 14 15  2  0
 15 16  1  0
  3 17  1  0
 17 18  2  0
 17 19  1  0
 19 20  1  0
 19 21  1  0
 21 22  2  0
 21 23  1  0
 23 24  1  0
 23  2  1  0
 15  9  1  0
  1 25  1  0
  1 26  1  0
  1 27  1  0
  4 28  1  0
  6 29  1  0
 10 30  1  0
 13 31  1  0
 14 32  1  0
 16 33  1  0
 20 34  1  0
 20 35  1  0
 20 36  1  0
 24 37  1  0
 24 38  1  0
 24 39  1  0
M  END
$$$$
