
     RDKit          3D

 53 52  0  0  0  0  0  0  0  0999 V2000
   -7.3773    1.5952    1.4833 C   0  0  0  0  0  0  0  0  0  0  0  0
   -7.0339    0.6023    0.3714 C   0  0  0  0  0  0  0  0  0  0  0  0
   -7.9052    0.8796   -0.8554 C   0  0  0  0  0  0  0  0  0  0  0  0
   -5.5309    0.6735    0.0440 C   0  0  0  0  0  0  0  0  0  0  0  0
   -5.0709   -0.4403   -0.8975 C   0  0  0  0  0  0  0  0  0  0  0  0
   -3.6368   -0.3983   -1.1012 N   0  0  0  0  0  0  0  0  0  0  0  0
   -3.0732    0.3425   -2.1174 C   0  0  0  0  0  0  0  0  0  0  0  0
   -3.7212    0.9769   -2.9466 O   0  0  0  0  0  0  0  0  0  0  0  0
   -1.5609    0.3341   -2.1184 C   0  0  0  0  0  0  0  0  0  0  0  0
   -1.0012    1.4995   -1.3156 C   0  0  0  0  0  0  0  0  0  0  0  0
   -1.0743    1.2356    0.4959 S   0  0  0  0  0  0  0  0  0  0  0  0
    0.3594    0.1254    0.7419 C   0  0  0  0  0  0  0  0  0  0  0  0
    1.6851    0.8775    0.6527 C   0  0  0  0  0  0  0  0  0  0  0  0
    2.8411   -0.0278    1.0317 C   0  0  0  0  0  0  0  0  0  0  0  0
    2.7173   -1.2303    1.2459 O   0  0  0  0  0  0  0  0  0  0  0  0
    4.0466    0.6393    1.0989 N   0  0  0  0  0  0  0  0  0  0  0  0
    5.2830   -0.0419    1.4337 C   0  0  0  0  0  0  0  0  0  0  0  0
    5.9130   -0.6997    0.2050 C   0  0  0  0  0  0  0  0  0  0  0  0
    7.2763   -1.3529    0.4898 C   0  0  0  0  0  0  0  0  0  0  0  0
    7.1903   -2.4655    1.5370 C   0  0  0  0  0  0  0  0  0  0  0  0
    7.8580   -1.9160   -0.8090 C   0  0  0  0  0  0  0  0  0  0  0  0
   -6.7747    1.4082    2.3759 H   0  0  0  0  0  0  0  0  0  0  0  0
   -7.1984    2.6269    1.1612 H   0  0  0  0  0  0  0  0  0  0  0  0
   -8.4322    1.5064    1.7702 H   0  0  0  0  0  0  0  0  0  0  0  0
   -7.2680   -0.4074    0.7368 H   0  0  0  0  0  0  0  0  0  0  0  0
   -8.9663    0.9065   -0.5815 H   0  0  0  0  0  0  0  0  0  0  0  0
   -7.7856    0.0976   -1.6119 H   0  0  0  0  0  0  0  0  0  0  0  0
   -7.6503    1.8414   -1.3160 H   0  0  0  0  0  0  0  0  0  0  0  0
   -5.2824    1.6550   -0.3853 H   0  0  0  0  0  0  0  0  0  0  0  0
   -4.9564    0.5953    0.9783 H   0  0  0  0  0  0  0  0  0  0  0  0
   -5.3000   -1.4209   -0.4683 H   0  0  0  0  0  0  0  0  0  0  0  0
   -5.5685   -0.3672   -1.8683 H   0  0  0  0  0  0  0  0  0  0  0  0
   -3.0465   -0.6439   -0.3193 H   0  0  0  0  0  0  0  0  0  0  0  0
   -1.1849   -0.6353   -1.7728 H   0  0  0  0  0  0  0  0  0  0  0  0
   -1.2460    0.4273   -3.1662 H   0  0  0  0  0  0  0  0  0  0  0  0
   -1.5676    2.4129   -1.5290 H   0  0  0  0  0  0  0  0  0  0  0  0
    0.0344    1.6950   -1.6070 H   0  0  0  0  0  0  0  0  0  0  0  0
    0.2458   -0.3180    1.7419 H   0  0  0  0  0  0  0  0  0  0  0  0
    0.3205   -0.7046    0.0222 H   0  0  0  0  0  0  0  0  0  0  0  0
    1.6889    1.7442    1.3295 H   0  0  0  0  0  0  0  0  0  0  0  0
    1.8680    1.2316   -0.3712 H   0  0  0  0  0  0  0  0  0  0  0  0
    4.0906    1.6137    0.8350 H   0  0  0  0  0  0  0  0  0  0  0  0
    5.0668   -0.7806    2.2096 H   0  0  0  0  0  0  0  0  0  0  0  0
    5.9592    0.7093    1.8536 H   0  0  0  0  0  0  0  0  0  0  0  0
    5.2222   -1.4477   -0.2128 H   0  0  0  0  0  0  0  0  0  0  0  0
    6.0408    0.0647   -0.5744 H   0  0  0  0  0  0  0  0  0  0  0  0
    7.9642   -0.5849    0.8636 H   0  0  0  0  0  0  0  0  0  0  0  0
    8.1558   -2.9701    1.6542 H   0  0  0  0  0  0  0  0  0  0  0  0
    6.4453   -3.2163    1.2558 H   0  0  0  0  0  0  0  0  0  0  0  0
    6.9120   -2.0712    2.5179 H   0  0  0  0  0  0  0  0  0  0  0  0
    8.8463   -2.3580   -0.6357 H   0  0  0  0  0  0  0  0  0  0  0  0
    7.2126   -2.6927   -1.2270 H   0  0  0  0  0  0  0  0  0  0  0  0
    7.9702   -1.1260   -1.5611 H   0  0  0  0  0  0  0  0  0  0  0  0
  1  2  1  0
  2  3  1  0
  2  4  1  0
  4  5  1  0
  5  6  1  0
  6  7  1  0
  7  8  2  0
  7  9  1  0
  9 10  1  0
 10 11  1  0
 11 12  1  0
 12 13  1  0
 13 14  1  0
 14 15  2  0
 14 16  1  0
 16 17  1  0
 17 18  1  0
 18 19  1  0
 19 20  1  0
 19 21  1  0
  1 22  1  0
  1 23  1  0
  1 24  1  0
  2 25  1  0
  3 26  1  0
  3 27  1  0
  3 28  1  0
  4 29  1  0
  4 30  1  0
  5 31  1  0
  5 32  1  0
  6 33  1  0
  9 34  1  0
  9 35  1  0
 10 36  1  0
 10 37  1  0
 12 38  1  0
 12 39  1  0
 13 40  1  0
 13 41  1  0
 16 42  1  0
 17 43  1  0
 17 44  1  0
 18 45  1  0
 18 46  1  0
 19 47  1  0
 20 48  1  0
 20 49  1  0
 20 50  1  0
 21 51  1  0
 21 52  1  0
 21 53  1  0
M  END
$$$$
