
     RDKit          3D

 61 63  0  0  0  0  0  0  0  0999 V2000
   -5.0804    2.2797    4.6748 C   0  0  0  0  0  0  0  0  0  0  0  0
   -4.7813    0.9720    4.2019 O   0  0  0  0  0  0  0  0  0  0  0  0
   -4.8818    0.7644    2.8537 C   0  0  0  0  0  0  0  0  0  0  0  0
   -5.2019    1.7269    1.8965 C   0  0  0  0  0  0  0  0  0  0  0  0
   -5.2696    1.3790    0.5421 C   0  0  0  0  0  0  0  0  0  0  0  0
   -5.0259    0.0627    0.1281 C   0  0  0  0  0  0  0  0  0  0  0  0
   -5.0743   -0.3088   -1.3309 C   0  0  0  0  0  0  0  0  0  0  0  0
   -3.7521   -0.2938   -1.9006 N   0  0  0  0  0  0  0  0  0  0  0  0
   -3.0387   -1.4425   -2.1426 C   0  0  0  0  0  0  0  0  0  0  0  0
   -3.4500   -2.5900   -2.0484 O   0  0  0  0  0  0  0  0  0  0  0  0
   -1.5754   -1.1757   -2.5621 C   0  0  0  0  0  0  0  0  0  0  0  0
   -1.1061   -0.0478   -2.4822 O   0  0  0  0  0  0  0  0  0  0  0  0
   -0.9017   -2.2969   -2.9861 N   0  0  0  0  0  0  0  0  0  0  0  0
    0.5202   -2.2629   -3.2908 C   0  0  0  0  0  0  0  0  0  0  0  0
    1.3974   -2.0466   -2.0440 C   0  0  0  0  0  0  0  0  0  0  0  0
    1.2566   -3.1869   -1.1687 O   0  0  0  0  0  0  0  0  0  0  0  0
    2.4776   -3.2420   -0.4265 C   0  0  0  0  0  0  0  0  0  0  0  0
    3.5379   -2.8758   -1.4422 C   0  0  0  0  0  0  0  0  0  0  0  0
    2.8294   -1.9860   -2.3702 N   0  0  0  0  0  0  0  0  0  0  0  0
    3.4980   -0.5029   -2.7784 S   0  0  0  0  0  6  0  0  0  0  0  0
    4.9070   -0.7153   -3.0362 O   0  0  0  0  0  0  0  0  0  0  0  0
    2.6481    0.1196   -3.7689 O   0  0  0  0  0  0  0  0  0  0  0  0
    3.3718    0.4573   -1.2836 C   0  0  0  0  0  0  0  0  0  0  0  0
    2.2409    1.2452   -1.0615 C   0  0  0  0  0  0  0  0  0  0  0  0
    2.1381    1.9882    0.1161 C   0  0  0  0  0  0  0  0  0  0  0  0
    3.1730    1.9672    1.0586 C   0  0  0  0  0  0  0  0  0  0  0  0
    3.1550    2.6594    2.2439 O   0  0  0  0  0  0  0  0  0  0  0  0
    1.9633    3.3546    2.5828 C   0  0  0  0  0  0  0  0  0  0  0  0
    4.3379    1.2125    0.8004 C   0  0  0  0  0  0  0  0  0  0  0  0
    5.3141    1.2536    1.7650 O   0  0  0  0  0  0  0  0  0  0  0  0
    6.6140    0.8133    1.3941 C   0  0  0  0  0  0  0  0  0  0  0  0
    4.4327    0.4581   -0.3726 C   0  0  0  0  0  0  0  0  0  0  0  0
   -4.6955   -0.8970    1.0929 C   0  0  0  0  0  0  0  0  0  0  0  0
   -4.6265   -0.5457    2.4432 C   0  0  0  0  0  0  0  0  0  0  0  0
   -6.1126    2.5601    4.4387 H   0  0  0  0  0  0  0  0  0  0  0  0
   -4.3704    3.0137    4.2796 H   0  0  0  0  0  0  0  0  0  0  0  0
   -4.9792    2.2716    5.7638 H   0  0  0  0  0  0  0  0  0  0  0  0
   -5.4023    2.7575    2.1686 H   0  0  0  0  0  0  0  0  0  0  0  0
   -5.5162    2.1470   -0.1878 H   0  0  0  0  0  0  0  0  0  0  0  0
   -5.6788    0.4145   -1.8896 H   0  0  0  0  0  0  0  0  0  0  0  0
   -5.5420   -1.2921   -1.4574 H   0  0  0  0  0  0  0  0  0  0  0  0
   -3.2252    0.5741   -1.9133 H   0  0  0  0  0  0  0  0  0  0  0  0
   -1.3647   -3.1899   -2.8361 H   0  0  0  0  0  0  0  0  0  0  0  0
    0.7586   -3.2200   -3.7670 H   0  0  0  0  0  0  0  0  0  0  0  0
    0.6790   -1.4662   -4.0231 H   0  0  0  0  0  0  0  0  0  0  0  0
    1.0709   -1.1770   -1.4705 H   0  0  0  0  0  0  0  0  0  0  0  0
    2.4251   -2.5101    0.3872 H   0  0  0  0  0  0  0  0  0  0  0  0
    2.6192   -4.2397   -0.0028 H   0  0  0  0  0  0  0  0  0  0  0  0
    4.4166   -2.4375   -0.9667 H   0  0  0  0  0  0  0  0  0  0  0  0
    3.8567   -3.7604   -2.0034 H   0  0  0  0  0  0  0  0  0  0  0  0
    1.4307    1.2820   -1.7897 H   0  0  0  0  0  0  0  0  0  0  0  0
    1.2394    2.5785    0.2647 H   0  0  0  0  0  0  0  0  0  0  0  0
    1.7707    4.1707    1.8793 H   0  0  0  0  0  0  0  0  0  0  0  0
    1.1091    2.6721    2.6429 H   0  0  0  0  0  0  0  0  0  0  0  0
    2.1048    3.7973    3.5732 H   0  0  0  0  0  0  0  0  0  0  0  0
    7.2986    1.0680    2.2093 H   0  0  0  0  0  0  0  0  0  0  0  0
    6.9671    1.3222    0.4907 H   0  0  0  0  0  0  0  0  0  0  0  0
    6.6363   -0.2744    1.2698 H   0  0  0  0  0  0  0  0  0  0  0  0
    5.3154   -0.1343   -0.5907 H   0  0  0  0  0  0  0  0  0  0  0  0
   -4.4879   -1.9240    0.7974 H   0  0  0  0  0  0  0  0  0  0  0  0
   -4.3707   -1.3010    3.1825 H   0  0  0  0  0  0  0  0  0  0  0  0
  1  2  1  0
  2  3  1  0
  3  4  2  0
  4  5  1  0
  5  6  2  0
  6  7  1  0
  7  8  1  0
  8  9  1  0
  9 10  2  0
  9 11  1  0
 11 12  2  0
 11 13  1  0
 13 14  1  0
 14 15  1  0
 15 16  1  0
 16 17  1  0
 17 18  1  0
 18 19  1  0
 19 20  1  0
 20 21  2  0
 20 22  2  0
 20 23  1  0
 23 24  2  0
 24 25  1  0
 25 26  2  0
 26 27  1  0
 27 28  1  0
 26 29  1  0
 29 30  1  0
 30 31  1  0
 29 32  2  0
  6 33  1  0
 33 34  2  0
 34  3  1  0
 19 15  1  0
 32 23  1  0
  1 35  1  0
  1 36  1  0
  1 37  1  0
  4 38  1  0
  5 39  1  0
  7 40  1  0
  7 41  1  0
  8 42  1  0
 13 43  1  0
 14 44  1  0
 14 45  1  0
 15 46  1  0
 17 47  1  0
 17 48  1  0
 18 49  1  0
 18 50  1  0
 24 51  1  0
 25 52  1  0
 28 53  1  0
 28 54  1  0
 28 55  1  0
 31 56  1  0
 31 57  1  0
 31 58  1  0
 32 59  1  0
 33 60  1  0
 34 61  1  0
M  END
$$$$
