
     RDKit          3D

 44 46  0  0  0  0  0  0  0  0999 V2000
   -4.5035    2.0311    0.0072 C   0  0  0  0  0  0  0  0  0  0  0  0
   -3.6194    0.8150    0.0747 C   0  0  0  0  0  0  0  0  0  0  0  0
   -3.7374   -0.1767   -0.9149 C   0  0  0  0  0  0  0  0  0  0  0  0
   -2.9359   -1.3322   -0.9115 C   0  0  0  0  0  0  0  0  0  0  0  0
   -3.1441   -2.3427   -2.0034 C   0  0  0  0  0  0  0  0  0  0  0  0
   -2.0071   -1.4870    0.1313 C   0  0  0  0  0  0  0  0  0  0  0  0
   -0.9333   -2.9145    0.2554 S   0  0  0  0  0  6  0  0  0  0  0  0
   -1.6533   -4.0755   -0.2231 O   0  0  0  0  0  0  0  0  0  0  0  0
   -0.3300   -2.9178    1.5719 O   0  0  0  0  0  0  0  0  0  0  0  0
    0.2687   -2.5914   -0.8913 N   0  0  0  0  0  0  0  0  0  0  0  0
    0.9406   -1.3370   -0.8608 C   0  0  0  0  0  0  0  0  0  0  0  0
    0.7677   -0.4580   -1.9295 C   0  0  0  0  0  0  0  0  0  0  0  0
    1.3794    0.7940   -1.9024 C   0  0  0  0  0  0  0  0  0  0  0  0
    2.1678    1.1598   -0.8128 C   0  0  0  0  0  0  0  0  0  0  0  0
    2.7307    2.4053   -0.8758 O   0  0  0  0  0  0  0  0  0  0  0  0
    2.3522    0.2876    0.2696 C   0  0  0  0  0  0  0  0  0  0  0  0
    3.2636    0.7198    1.7441 S   0  0  0  0  0  0  0  0  0  0  0  0
    4.8827    0.9025    1.1348 C   0  0  0  0  0  0  0  0  0  0  0  0
    5.9104    0.0607    1.4505 N   0  0  0  0  0  0  0  0  0  0  0  0
    6.9269    0.5777    0.8022 C   0  0  0  0  0  0  0  0  0  0  0  0
    6.5211    1.6887    0.1334 N   0  0  0  0  0  0  0  0  0  0  0  0
    5.2117    1.9251    0.3334 N   0  0  0  0  0  0  0  0  0  0  0  0
    1.7273   -0.9673    0.2325 C   0  0  0  0  0  0  0  0  0  0  0  0
   -1.8937   -0.5096    1.1341 C   0  0  0  0  0  0  0  0  0  0  0  0
   -2.6879    0.6454    1.1132 C   0  0  0  0  0  0  0  0  0  0  0  0
   -2.5187    1.6752    2.1968 C   0  0  0  0  0  0  0  0  0  0  0  0
   -5.1652    2.0673    0.8783 H   0  0  0  0  0  0  0  0  0  0  0  0
   -5.1342    2.0215   -0.8881 H   0  0  0  0  0  0  0  0  0  0  0  0
   -3.8974    2.9418   -0.0304 H   0  0  0  0  0  0  0  0  0  0  0  0
   -4.4735   -0.0428   -1.7076 H   0  0  0  0  0  0  0  0  0  0  0  0
   -3.6740   -3.2180   -1.6162 H   0  0  0  0  0  0  0  0  0  0  0  0
   -3.7474   -1.9280   -2.8189 H   0  0  0  0  0  0  0  0  0  0  0  0
   -2.1927   -2.6450   -2.4492 H   0  0  0  0  0  0  0  0  0  0  0  0
    0.0438   -2.9927   -1.7993 H   0  0  0  0  0  0  0  0  0  0  0  0
    0.1476   -0.7253   -2.7801 H   0  0  0  0  0  0  0  0  0  0  0  0
    1.2420    1.4887   -2.7267 H   0  0  0  0  0  0  0  0  0  0  0  0
    3.4973    2.4207   -0.2624 H   0  0  0  0  0  0  0  0  0  0  0  0
    7.9415    0.2059    0.7827 H   0  0  0  0  0  0  0  0  0  0  0  0
    7.0601    2.3148   -0.4554 H   0  0  0  0  0  0  0  0  0  0  0  0
    1.8558   -1.6605    1.0617 H   0  0  0  0  0  0  0  0  0  0  0  0
   -1.1719   -0.6424    1.9395 H   0  0  0  0  0  0  0  0  0  0  0  0
   -2.1759    2.6225    1.7689 H   0  0  0  0  0  0  0  0  0  0  0  0
   -1.7778    1.3606    2.9394 H   0  0  0  0  0  0  0  0  0  0  0  0
   -3.4646    1.8327    2.7244 H   0  0  0  0  0  0  0  0  0  0  0  0
  1  2  1  0
  2  3  2  0
  3  4  1  0
  4  5  1  0
  4  6  2  0
  6  7  1  0
  7  8  2  0
  7  9  2  0
  7 10  1  0
 10 11  1  0
 11 12  2  0
 12 13  1  0
 13 14  2  0
 14 15  1  0
 14 16  1  0
 16 17  1  0
 17 18  1  0
 18 19  1  0
 19 20  2  0
 20 21  1  0
 21 22  1  0
 16 23  2  0
  6 24  1  0
 24 25  2  0
 25 26  1  0
 25  2  1  0
 23 11  1  0
 22 18  2  0
  1 27  1  0
  1 28  1  0
  1 29  1  0
  3 30  1  0
  5 31  1  0
  5 32  1  0
  5 33  1  0
 10 34  1  0
 12 35  1  0
 13 36  1  0
 15 37  1  0
 20 38  1  0
 21 39  1  0
 23 40  1  0
 24 41  1  0
 26 42  1  0
 26 43  1  0
 26 44  1  0
M  END
$$$$
