
     RDKit          3D

 54 57  0  0  0  0  0  0  0  0999 V2000
    6.5072    2.4525    2.0776 C   0  0  0  0  0  0  0  0  0  0  0  0
    6.4826    0.9234    2.1467 C   0  0  0  0  0  0  0  0  0  0  0  0
    7.8784    0.3436    1.9051 C   0  0  0  0  0  0  0  0  0  0  0  0
    5.4623    0.3366    1.1882 C   0  0  0  0  0  0  0  0  0  0  0  0
    4.3912   -0.4174    1.6828 C   0  0  0  0  0  0  0  0  0  0  0  0
    3.4431   -0.9664    0.8131 C   0  0  0  0  0  0  0  0  0  0  0  0
    3.5424   -0.7734   -0.5690 C   0  0  0  0  0  0  0  0  0  0  0  0
    2.5470   -1.3633   -1.3713 N   0  0  0  0  0  0  0  0  0  0  0  0
    2.3912   -1.2685   -2.7429 C   0  0  0  0  0  0  0  0  0  0  0  0
    3.1002   -0.6333   -3.5187 O   0  0  0  0  0  0  0  0  0  0  0  0
    1.1950   -2.0756   -3.2628 C   0  0  0  0  0  0  0  0  0  0  0  0
   -0.0717   -1.4617   -3.0139 O   0  0  0  0  0  0  0  0  0  0  0  0
   -0.5629   -1.6303   -1.7648 C   0  0  0  0  0  0  0  0  0  0  0  0
   -0.0012   -2.2290   -0.8595 O   0  0  0  0  0  0  0  0  0  0  0  0
   -1.8909   -0.9763   -1.6204 C   0  0  0  0  0  0  0  0  0  0  0  0
   -2.4890   -0.2496   -2.6561 C   0  0  0  0  0  0  0  0  0  0  0  0
   -3.7423    0.3473   -2.4660 C   0  0  0  0  0  0  0  0  0  0  0  0
   -4.4209    0.2317   -1.2415 C   0  0  0  0  0  0  0  0  0  0  0  0
   -3.8154   -0.4910   -0.2243 C   0  0  0  0  0  0  0  0  0  0  0  0
   -2.5601   -1.0949   -0.3978 C   0  0  0  0  0  0  0  0  0  0  0  0
   -4.6070   -0.6774    1.3236 S   0  0  0  0  0  6  0  0  0  0  0  0
   -4.9442   -2.0818    1.4370 O   0  0  0  0  0  0  0  0  0  0  0  0
   -3.7600   -0.0116    2.2923 O   0  0  0  0  0  0  0  0  0  0  0  0
   -6.1185    0.1984    1.2969 C   0  0  0  0  0  0  0  0  0  0  0  0
   -6.8963    0.2065    2.4631 C   0  0  0  0  0  0  0  0  0  0  0  0
   -8.1089    0.8913    2.4788 C   0  0  0  0  0  0  0  0  0  0  0  0
   -8.5382    1.5619    1.3363 C   0  0  0  0  0  0  0  0  0  0  0  0
   -7.7537    1.5477    0.1792 C   0  0  0  0  0  0  0  0  0  0  0  0
   -6.5282    0.8622    0.1489 C   0  0  0  0  0  0  0  0  0  0  0  0
   -5.7434    0.8871   -1.1078 C   0  0  0  0  0  0  0  0  0  0  0  0
   -6.2043    1.4771   -2.0813 O   0  0  0  0  0  0  0  0  0  0  0  0
    4.6069   -0.0250   -1.0670 C   0  0  0  0  0  0  0  0  0  0  0  0
    5.5572    0.5246   -0.1973 C   0  0  0  0  0  0  0  0  0  0  0  0
    5.5108    2.8686    2.2638 H   0  0  0  0  0  0  0  0  0  0  0  0
    6.8424    2.8139    1.0993 H   0  0  0  0  0  0  0  0  0  0  0  0
    7.1872    2.8607    2.8333 H   0  0  0  0  0  0  0  0  0  0  0  0
    6.1945    0.6531    3.1714 H   0  0  0  0  0  0  0  0  0  0  0  0
    8.5853    0.7171    2.6538 H   0  0  0  0  0  0  0  0  0  0  0  0
    8.2683    0.6114    0.9172 H   0  0  0  0  0  0  0  0  0  0  0  0
    7.8647   -0.7497    1.9733 H   0  0  0  0  0  0  0  0  0  0  0  0
    4.2824   -0.5856    2.7519 H   0  0  0  0  0  0  0  0  0  0  0  0
    2.6248   -1.5450    1.2352 H   0  0  0  0  0  0  0  0  0  0  0  0
    1.8207   -1.8787   -0.8721 H   0  0  0  0  0  0  0  0  0  0  0  0
    1.3009   -2.1695   -4.3492 H   0  0  0  0  0  0  0  0  0  0  0  0
    1.2279   -3.0967   -2.8626 H   0  0  0  0  0  0  0  0  0  0  0  0
   -1.9957   -0.1326   -3.6194 H   0  0  0  0  0  0  0  0  0  0  0  0
   -4.1854    0.9089   -3.2895 H   0  0  0  0  0  0  0  0  0  0  0  0
   -2.1103   -1.6562    0.4219 H   0  0  0  0  0  0  0  0  0  0  0  0
   -6.5604   -0.3187    3.3561 H   0  0  0  0  0  0  0  0  0  0  0  0
   -8.7189    0.9023    3.3795 H   0  0  0  0  0  0  0  0  0  0  0  0
   -9.4850    2.0981    1.3425 H   0  0  0  0  0  0  0  0  0  0  0  0
   -8.1098    2.0799   -0.7027 H   0  0  0  0  0  0  0  0  0  0  0  0
    4.7330    0.1510   -2.1305 H   0  0  0  0  0  0  0  0  0  0  0  0
    6.3752    1.1023   -0.6219 H   0  0  0  0  0  0  0  0  0  0  0  0
  1  2  1  0
  2  3  1  0
  2  4  1  0
  4  5  2  0
  5  6  1  0
  6  7  2  0
  7  8  1  0
  8  9  1  0
  9 10  2  0
  9 11  1  0
 11 12  1  0
 12 13  1  0
 13 14  2  0
 13 15  1  0
 15 16  2  0
 16 17  1  0
 17 18  2  0
 18 19  1  0
 19 20  2  0
 19 21  1  0
 21 22  2  0
 21 23  2  0
 21 24  1  0
 24 25  2  0
 25 26  1  0
 26 27  2  0
 27 28  1  0
 28 29  2  0
 29 30  1  0
 30 31  2  0
  7 32  1  0
 32 33  2  0
 33  4  1  0
 20 15  1  0
 29 24  1  0
 30 18  1  0
  1 34  1  0
  1 35  1  0
  1 36  1  0
  2 37  1  0
  3 38  1  0
  3 39  1  0
  3 40  1  0
  5 41  1  0
  6 42  1  0
  8 43  1  0
 11 44  1  0
 11 45  1  0
 16 46  1  0
 17 47  1  0
 20 48  1  0
 25 49  1  0
 26 50  1  0
 27 51  1  0
 28 52  1  0
 32 53  1  0
 33 54  1  0
M  END
$$$$
