
     RDKit          3D

 64 67  0  0  0  0  0  0  0  0999 V2000
    4.3084   -6.3492   -0.8593 C   0  0  0  0  0  0  0  0  0  0  0  0
    4.8209   -5.0472   -1.1306 O   0  0  0  0  0  0  0  0  0  0  0  0
    3.9510   -4.1331   -1.6496 C   0  0  0  0  0  0  0  0  0  0  0  0
    4.5029   -2.8771   -1.8965 C   0  0  0  0  0  0  0  0  0  0  0  0
    3.7238   -1.8420   -2.4175 C   0  0  0  0  0  0  0  0  0  0  0  0
    2.3635   -2.0419   -2.6795 C   0  0  0  0  0  0  0  0  0  0  0  0
    1.6403   -0.9473   -3.1842 N   0  0  0  0  0  0  0  0  0  0  0  0
    0.2893   -0.8758   -3.4726 C   0  0  0  0  0  0  0  0  0  0  0  0
   -0.5192   -1.7991   -3.4298 O   0  0  0  0  0  0  0  0  0  0  0  0
   -0.1566    0.5260   -3.9209 C   0  0  0  0  0  0  0  0  0  0  0  0
    0.8244    1.5941   -3.6498 N   0  0  0  0  0  0  0  0  0  0  0  0
    1.4184    2.2495   -4.8057 C   0  0  0  0  0  0  0  0  0  0  0  0
    0.8707    2.2691   -2.4300 C   0  0  0  0  0  0  0  0  0  0  0  0
    1.3983    3.3650   -2.2608 O   0  0  0  0  0  0  0  0  0  0  0  0
    0.2746    1.5516   -1.2847 C   0  0  0  0  0  0  0  0  0  0  0  0
   -0.8233    2.0526   -0.6933 C   0  0  0  0  0  0  0  0  0  0  0  0
   -1.4926    1.3882    0.3725 C   0  0  0  0  0  0  0  0  0  0  0  0
   -2.1383    0.1825    0.2252 C   0  0  0  0  0  0  0  0  0  0  0  0
   -2.6300   -0.1584    1.4617 N   0  0  0  0  0  0  0  0  0  0  0  0
   -3.3691   -1.3203    1.8204 C   0  0  0  0  0  0  0  0  0  0  0  0
   -3.7542   -1.5077    3.1563 C   0  0  0  0  0  0  0  0  0  0  0  0
   -4.4891   -2.6380    3.5286 C   0  0  0  0  0  0  0  0  0  0  0  0
   -4.8437   -3.5860    2.5714 C   0  0  0  0  0  0  0  0  0  0  0  0
   -4.4646   -3.4063    1.2433 C   0  0  0  0  0  0  0  0  0  0  0  0
   -3.7322   -2.2786    0.8636 C   0  0  0  0  0  0  0  0  0  0  0  0
   -2.3205    0.7800    2.3879 N   0  0  0  0  0  0  0  0  0  0  0  0
   -1.6321    1.7377    1.7439 C   0  0  0  0  0  0  0  0  0  0  0  0
   -1.1169    2.8964    2.4882 C   0  0  0  0  0  0  0  0  0  0  0  0
   -0.8142    2.7671    3.8529 C   0  0  0  0  0  0  0  0  0  0  0  0
   -0.3246    3.8496    4.5908 C   0  0  0  0  0  0  0  0  0  0  0  0
   -0.1158    5.0876    3.9779 C   0  0  0  0  0  0  0  0  0  0  0  0
    0.3769    6.2608    4.7705 C   0  0  0  0  0  0  0  0  0  0  0  0
   -0.4316    5.2299    2.6234 C   0  0  0  0  0  0  0  0  0  0  0  0
   -0.9292    4.1465    1.8875 C   0  0  0  0  0  0  0  0  0  0  0  0
    1.8115   -3.2977   -2.4290 C   0  0  0  0  0  0  0  0  0  0  0  0
    2.5959   -4.3376   -1.9105 C   0  0  0  0  0  0  0  0  0  0  0  0
    4.0213   -6.8497   -1.7900 H   0  0  0  0  0  0  0  0  0  0  0  0
    5.1105   -6.9356   -0.3991 H   0  0  0  0  0  0  0  0  0  0  0  0
    3.4745   -6.3109   -0.1520 H   0  0  0  0  0  0  0  0  0  0  0  0
    5.5582   -2.7043   -1.6946 H   0  0  0  0  0  0  0  0  0  0  0  0
    4.1958   -0.8805   -2.5938 H   0  0  0  0  0  0  0  0  0  0  0  0
    2.1481   -0.0714   -3.2869 H   0  0  0  0  0  0  0  0  0  0  0  0
   -1.0945    0.7637   -3.4109 H   0  0  0  0  0  0  0  0  0  0  0  0
   -0.3586    0.4840   -4.9944 H   0  0  0  0  0  0  0  0  0  0  0  0
    2.2896    2.8421   -4.5073 H   0  0  0  0  0  0  0  0  0  0  0  0
    0.6781    2.9169   -5.2629 H   0  0  0  0  0  0  0  0  0  0  0  0
    1.7360    1.4935   -5.5281 H   0  0  0  0  0  0  0  0  0  0  0  0
    0.7405    0.6212   -0.9721 H   0  0  0  0  0  0  0  0  0  0  0  0
   -1.2369    3.0055   -1.0341 H   0  0  0  0  0  0  0  0  0  0  0  0
   -2.2763   -0.4439   -0.6435 H   0  0  0  0  0  0  0  0  0  0  0  0
   -3.4975   -0.7759    3.9181 H   0  0  0  0  0  0  0  0  0  0  0  0
   -4.7867   -2.7713    4.5635 H   0  0  0  0  0  0  0  0  0  0  0  0
   -5.4151   -4.4653    2.8604 H   0  0  0  0  0  0  0  0  0  0  0  0
   -4.7438   -4.1443    0.4947 H   0  0  0  0  0  0  0  0  0  0  0  0
   -3.4667   -2.1794   -0.1834 H   0  0  0  0  0  0  0  0  0  0  0  0
   -0.9572    1.8154    4.3597 H   0  0  0  0  0  0  0  0  0  0  0  0
   -0.1142    3.7103    5.6471 H   0  0  0  0  0  0  0  0  0  0  0  0
    1.0452    6.8839    4.1648 H   0  0  0  0  0  0  0  0  0  0  0  0
   -0.4711    6.8663    5.1078 H   0  0  0  0  0  0  0  0  0  0  0  0
    0.9443    5.9329    5.6501 H   0  0  0  0  0  0  0  0  0  0  0  0
   -0.2936    6.1897    2.1292 H   0  0  0  0  0  0  0  0  0  0  0  0
   -1.1771    4.3104    0.8459 H   0  0  0  0  0  0  0  0  0  0  0  0
    0.7568   -3.5003   -2.5991 H   0  0  0  0  0  0  0  0  0  0  0  0
    2.1173   -5.2940   -1.7406 H   0  0  0  0  0  0  0  0  0  0  0  0
  1  2  1  0
  2  3  1  0
  3  4  2  0
  4  5  1  0
  5  6  2  0
  6  7  1  0
  7  8  1  0
  8  9  2  0
  8 10  1  0
 10 11  1  0
 11 12  1  0
 11 13  1  0
 13 14  2  0
 13 15  1  0
 15 16  2  3
 16 17  1  0
 17 18  2  0
 18 19  1  0
 19 20  1  0
 20 21  2  0
 21 22  1  0
 22 23  2  0
 23 24  1  0
 24 25  2  0
 19 26  1  0
 26 27  2  0
 27 28  1  0
 28 29  2  0
 29 30  1  0
 30 31  2  0
 31 32  1  0
 31 33  1  0
 33 34  2  0
  6 35  1  0
 35 36  2  0
 36  3  1  0
 27 17  1  0
 34 28  1  0
 25 20  1  0
  1 37  1  0
  1 38  1  0
  1 39  1  0
  4 40  1  0
  5 41  1  0
  7 42  1  0
 10 43  1  0
 10 44  1  0
 12 45  1  0
 12 46  1  0
 12 47  1  0
 15 48  1  0
 16 49  1  0
 18 50  1  0
 21 51  1  0
 22 52  1  0
 23 53  1  0
 24 54  1  0
 25 55  1  0
 29 56  1  0
 30 57  1  0
 32 58  1  0
 32 59  1  0
 32 60  1  0
 33 61  1  0
 34 62  1  0
 35 63  1  0
 36 64  1  0
M  END
$$$$
