
     RDKit          3D

 56 60  0  0  0  0  0  0  0  0999 V2000
   -6.0038    0.1456    0.7715 C   0  0  0  0  0  0  0  0  0  0  0  0
   -4.5121   -0.0284    0.7945 C   0  0  0  0  0  0  0  0  0  0  0  0
   -3.7632    0.8043    1.6439 C   0  0  0  0  0  0  0  0  0  0  0  0
   -2.3713    0.6960    1.7261 C   0  0  0  0  0  0  0  0  0  0  0  0
   -1.6778   -0.2561    0.9702 C   0  0  0  0  0  0  0  0  0  0  0  0
   -0.2172   -0.3711    1.0649 C   0  0  0  0  0  0  0  0  0  0  0  0
    0.4476    0.6635    0.5079 N   0  0  0  0  0  0  0  0  0  0  0  0
    1.8146    0.6778    0.5005 N   0  0  0  0  0  0  0  0  0  0  0  0
    2.5272   -0.3295    1.0475 C   0  0  0  0  0  0  0  0  0  0  0  0
    3.9485   -0.3158    0.9862 N   0  0  0  0  0  0  0  0  0  0  0  0
    4.7971    0.7628    0.6427 C   0  0  0  0  0  0  0  0  0  0  0  0
    6.0957    0.4722    0.1553 C   0  0  0  0  0  0  0  0  0  0  0  0
    7.0131    1.4874   -0.1411 C   0  0  0  0  0  0  0  0  0  0  0  0
    6.6199    2.7861    0.0828 C   0  0  0  0  0  0  0  0  0  0  0  0
    5.3778    3.0844    0.5872 C   0  0  0  0  0  0  0  0  0  0  0  0
    4.4555    2.1012    0.8869 C   0  0  0  0  0  0  0  0  0  0  0  0
    5.1964    4.4223    0.7563 O   0  0  0  0  0  0  0  0  0  0  0  0
    6.4585    4.9304    0.2785 C   0  0  0  0  0  0  0  0  0  0  0  0
    7.3743    3.8954   -0.1364 O   0  0  0  0  0  0  0  0  0  0  0  0
    1.8729   -1.4202    1.6688 C   0  0  0  0  0  0  0  0  0  0  0  0
    2.5652   -2.4846    2.3020 C   0  0  0  0  0  0  0  0  0  0  0  0
    1.8912   -3.5465    2.9064 C   0  0  0  0  0  0  0  0  0  0  0  0
    0.5056   -3.5719    2.9028 C   0  0  0  0  0  0  0  0  0  0  0  0
   -0.2027   -2.5331    2.2994 C   0  0  0  0  0  0  0  0  0  0  0  0
    0.4581   -1.4450    1.6738 C   0  0  0  0  0  0  0  0  0  0  0  0
   -2.4164   -1.0796    0.1094 C   0  0  0  0  0  0  0  0  0  0  0  0
   -3.8173   -0.9690    0.0151 C   0  0  0  0  0  0  0  0  0  0  0  0
   -4.6061   -2.0948   -1.1221 S   0  0  0  0  0  6  0  0  0  0  0  0
   -6.0396   -1.9220   -1.1273 O   0  0  0  0  0  0  0  0  0  0  0  0
   -4.0065   -3.3957   -0.9174 O   0  0  0  0  0  0  0  0  0  0  0  0
   -4.0276   -1.5494   -2.6030 N   0  0  0  0  0  0  0  0  0  0  0  0
   -4.7011   -0.4097   -3.2318 C   0  0  0  0  0  0  0  0  0  0  0  0
   -3.7861    0.2382   -4.2710 C   0  0  0  0  0  0  0  0  0  0  0  0
   -4.4560    1.2966   -4.9468 O   0  0  0  0  0  0  0  0  0  0  0  0
   -6.5029   -0.7766    1.0836 H   0  0  0  0  0  0  0  0  0  0  0  0
   -6.3408    0.4495   -0.2238 H   0  0  0  0  0  0  0  0  0  0  0  0
   -6.3261    0.9280    1.4677 H   0  0  0  0  0  0  0  0  0  0  0  0
   -4.2601    1.5564    2.2557 H   0  0  0  0  0  0  0  0  0  0  0  0
   -1.8251    1.3659    2.3894 H   0  0  0  0  0  0  0  0  0  0  0  0
    4.2585   -1.1833    0.5609 H   0  0  0  0  0  0  0  0  0  0  0  0
    6.4017   -0.5597   -0.0007 H   0  0  0  0  0  0  0  0  0  0  0  0
    8.0011    1.2606   -0.5246 H   0  0  0  0  0  0  0  0  0  0  0  0
    3.4967    2.3810    1.3082 H   0  0  0  0  0  0  0  0  0  0  0  0
    6.9278    5.5122    1.0802 H   0  0  0  0  0  0  0  0  0  0  0  0
    6.2698    5.5942   -0.5729 H   0  0  0  0  0  0  0  0  0  0  0  0
    3.6526   -2.4849    2.3505 H   0  0  0  0  0  0  0  0  0  0  0  0
    2.4506   -4.3451    3.3881 H   0  0  0  0  0  0  0  0  0  0  0  0
   -0.0287   -4.3918    3.3769 H   0  0  0  0  0  0  0  0  0  0  0  0
   -1.2903   -2.5787    2.3319 H   0  0  0  0  0  0  0  0  0  0  0  0
   -1.8932   -1.8149   -0.5025 H   0  0  0  0  0  0  0  0  0  0  0  0
   -3.6916   -2.3110   -3.1911 H   0  0  0  0  0  0  0  0  0  0  0  0
   -5.6213   -0.7524   -3.7178 H   0  0  0  0  0  0  0  0  0  0  0  0
   -4.9834    0.3443   -2.4896 H   0  0  0  0  0  0  0  0  0  0  0  0
   -2.8941    0.6518   -3.7890 H   0  0  0  0  0  0  0  0  0  0  0  0
   -3.4519   -0.4921   -5.0163 H   0  0  0  0  0  0  0  0  0  0  0  0
   -5.1633    0.9050   -5.4877 H   0  0  0  0  0  0  0  0  0  0  0  0
  1  2  1  0
  2  3  2  0
  3  4  1  0
  4  5  2  0
  5  6  1  0
  6  7  2  0
  7  8  1  0
  8  9  2  0
  9 10  1  0
 10 11  1  0
 11 12  2  0
 12 13  1  0
 13 14  2  0
 14 15  1  0
 15 16  2  0
 15 17  1  0
 17 18  1  0
 18 19  1  0
  9 20  1  0
 20 21  2  0
 21 22  1  0
 22 23  2  0
 23 24  1  0
 24 25  2  0
  5 26  1  0
 26 27  2  0
 27 28  1  0
 28 29  2  0
 28 30  2  0
 28 31  1  0
 31 32  1  0
 32 33  1  0
 33 34  1  0
 27  2  1  0
 25  6  1  0
 16 11  1  0
 25 20  1  0
 19 14  1  0
  1 35  1  0
  1 36  1  0
  1 37  1  0
  3 38  1  0
  4 39  1  0
 10 40  1  0
 12 41  1  0
 13 42  1  0
 16 43  1  0
 18 44  1  0
 18 45  1  0
 21 46  1  0
 22 47  1  0
 23 48  1  0
 24 49  1  0
 26 50  1  0
 31 51  1  0
 32 52  1  0
 32 53  1  0
 33 54  1  0
 33 55  1  0
 34 56  1  0
M  END
$$$$
