
     RDKit          3D

 50 53  0  0  0  0  0  0  0  0999 V2000
    7.7613    2.7306    1.2802 C   0  0  0  0  0  0  0  0  0  0  0  0
    7.4289    1.9001    0.1750 O   0  0  0  0  0  0  0  0  0  0  0  0
    6.1974    1.3074    0.1960 C   0  0  0  0  0  0  0  0  0  0  0  0
    5.9208    0.4921   -0.8999 C   0  0  0  0  0  0  0  0  0  0  0  0
    4.6945   -0.1742   -1.0029 C   0  0  0  0  0  0  0  0  0  0  0  0
    3.7026   -0.0411   -0.0161 C   0  0  0  0  0  0  0  0  0  0  0  0
    2.4095   -0.7460   -0.1441 C   0  0  0  0  0  0  0  0  0  0  0  0
    1.2239   -0.2476    0.3658 C   0  0  0  0  0  0  0  0  0  0  0  0
    0.0566   -0.9901    0.1846 C   0  0  0  0  0  0  0  0  0  0  0  0
   -1.1897   -0.3809    0.7010 C   0  0  0  0  0  0  0  0  0  0  0  0
   -1.2451   -0.1177    1.8943 O   0  0  0  0  0  0  0  0  0  0  0  0
   -2.1381   -0.1377   -0.2732 N   0  0  0  0  0  0  0  0  0  0  0  0
   -3.4182    0.4298   -0.1017 C   0  0  0  0  0  0  0  0  0  0  0  0
   -4.2096    0.5729   -1.2433 C   0  0  0  0  0  0  0  0  0  0  0  0
   -5.4805    1.1445   -1.1567 C   0  0  0  0  0  0  0  0  0  0  0  0
   -5.9921    1.5706    0.0774 C   0  0  0  0  0  0  0  0  0  0  0  0
   -7.3480    2.2189    0.1243 C   0  0  0  0  0  0  0  0  0  0  0  0
   -5.2286    1.3745    1.2409 C   0  0  0  0  0  0  0  0  0  0  0  0
   -5.6457    1.8836    2.4828 N   0  0  0  0  0  0  0  0  0  0  0  0
   -3.9286    0.8525    1.1274 C   0  0  0  0  0  0  0  0  0  0  0  0
    0.0756   -2.2425   -0.4639 C   0  0  0  0  0  0  0  0  0  0  0  0
   -1.0462   -3.0965   -0.6262 C   0  0  0  0  0  0  0  0  0  0  0  0
   -0.9311   -4.3134   -1.2949 C   0  0  0  0  0  0  0  0  0  0  0  0
    0.3012   -4.6983   -1.8022 C   0  0  0  0  0  0  0  0  0  0  0  0
    1.4111   -3.8686   -1.6270 C   0  0  0  0  0  0  0  0  0  0  0  0
    1.3244   -2.6532   -0.9613 C   0  0  0  0  0  0  0  0  0  0  0  0
    2.4433   -1.9226   -0.8193 N   0  0  0  0  0  0  0  0  0  0  0  0
    4.0049    0.7789    1.0862 C   0  0  0  0  0  0  0  0  0  0  0  0
    5.2345    1.4469    1.1921 C   0  0  0  0  0  0  0  0  0  0  0  0
    7.0805    3.5854    1.3505 H   0  0  0  0  0  0  0  0  0  0  0  0
    8.7697    3.1214    1.1133 H   0  0  0  0  0  0  0  0  0  0  0  0
    7.7764    2.1585    2.2137 H   0  0  0  0  0  0  0  0  0  0  0  0
    6.6652    0.3685   -1.6827 H   0  0  0  0  0  0  0  0  0  0  0  0
    4.5152   -0.8058   -1.8717 H   0  0  0  0  0  0  0  0  0  0  0  0
    1.1824    0.7089    0.8771 H   0  0  0  0  0  0  0  0  0  0  0  0
   -1.8870   -0.3785   -1.2250 H   0  0  0  0  0  0  0  0  0  0  0  0
   -3.8474    0.2592   -2.2186 H   0  0  0  0  0  0  0  0  0  0  0  0
   -6.0656    1.2682   -2.0654 H   0  0  0  0  0  0  0  0  0  0  0  0
   -8.0411    1.6046    0.7080 H   0  0  0  0  0  0  0  0  0  0  0  0
   -7.2791    3.2166    0.5697 H   0  0  0  0  0  0  0  0  0  0  0  0
   -7.7731    2.3373   -0.8781 H   0  0  0  0  0  0  0  0  0  0  0  0
   -6.6518    1.9067    2.6048 H   0  0  0  0  0  0  0  0  0  0  0  0
   -5.1741    1.4531    3.2733 H   0  0  0  0  0  0  0  0  0  0  0  0
   -3.3268    0.7831    2.0276 H   0  0  0  0  0  0  0  0  0  0  0  0
   -2.0175   -2.8289   -0.2134 H   0  0  0  0  0  0  0  0  0  0  0  0
   -1.7975   -4.9602   -1.4093 H   0  0  0  0  0  0  0  0  0  0  0  0
    0.4095   -5.6464   -2.3229 H   0  0  0  0  0  0  0  0  0  0  0  0
    2.3776   -4.1849   -2.0147 H   0  0  0  0  0  0  0  0  0  0  0  0
    3.2910    0.8985    1.8990 H   0  0  0  0  0  0  0  0  0  0  0  0
    5.4045    2.0616    2.0698 H   0  0  0  0  0  0  0  0  0  0  0  0
  1  2  1  0
  2  3  1  0
  3  4  2  0
  4  5  1  0
  5  6  2  0
  6  7  1  0
  7  8  2  0
  8  9  1  0
  9 10  1  0
 10 11  2  0
 10 12  1  0
 12 13  1  0
 13 14  2  0
 14 15  1  0
 15 16  2  0
 16 17  1  0
 16 18  1  0
 18 19  1  0
 18 20  2  0
  9 21  2  0
 21 22  1  0
 22 23  2  0
 23 24  1  0
 24 25  2  0
 25 26  1  0
 26 27  2  0
  6 28  1  0
 28 29  2  0
 29  3  1  0
 27  7  1  0
 20 13  1  0
 26 21  1  0
  1 30  1  0
  1 31  1  0
  1 32  1  0
  4 33  1  0
  5 34  1  0
  8 35  1  0
 12 36  1  0
 14 37  1  0
 15 38  1  0
 17 39  1  0
 17 40  1  0
 17 41  1  0
 19 42  1  0
 19 43  1  0
 20 44  1  0
 22 45  1  0
 23 46  1  0
 24 47  1  0
 25 48  1  0
 28 49  1  0
 29 50  1  0
M  END
$$$$
