
     RDKit          3D

 57 60  0  0  0  0  0  0  0  0999 V2000
    8.6746    3.5980    0.5681 C   0  0  0  0  0  0  0  0  0  0  0  0
    7.6973    2.5508    1.0796 C   0  0  0  0  0  0  0  0  0  0  0  0
    6.4895    2.6567    0.3148 O   0  0  0  0  0  0  0  0  0  0  0  0
    5.5139    1.7310    0.5674 C   0  0  0  0  0  0  0  0  0  0  0  0
    5.5286    0.7828    1.5897 C   0  0  0  0  0  0  0  0  0  0  0  0
    4.4612   -0.1162    1.7402 C   0  0  0  0  0  0  0  0  0  0  0  0
    3.3712   -0.0748    0.8686 C   0  0  0  0  0  0  0  0  0  0  0  0
    2.2817   -0.9658    0.9258 N   0  0  0  0  0  0  0  0  0  0  0  0
    1.9850   -1.8769    1.9255 C   0  0  0  0  0  0  0  0  0  0  0  0
    2.5714   -1.9896    3.0012 O   0  0  0  0  0  0  0  0  0  0  0  0
    0.8361   -2.8047    1.5717 C   0  0  0  0  0  0  0  0  0  0  0  0
   -0.7754   -2.0322    1.8708 S   0  0  0  0  0  0  0  0  0  0  0  0
   -1.0861   -1.3089    0.3271 C   0  0  0  0  0  0  0  0  0  0  0  0
   -0.1554   -0.7113   -0.3833 N   0  0  0  0  0  0  0  0  0  0  0  0
   -0.6979   -0.3656   -1.5807 N   0  0  0  0  0  0  0  0  0  0  0  0
   -1.9650   -0.7522   -1.5918 C   0  0  0  0  0  0  0  0  0  0  0  0
   -2.9323   -0.3868   -2.6706 C   0  0  0  0  0  0  0  0  0  0  0  0
   -4.0218    0.5333   -2.2018 C   0  0  0  0  0  0  0  0  0  0  0  0
   -5.3793    0.2855   -2.0658 C   0  0  0  0  0  0  0  0  0  0  0  0
   -5.9941    1.4587   -1.5819 C   0  0  0  0  0  0  0  0  0  0  0  0
   -5.0079    2.4094   -1.4429 C   0  0  0  0  0  0  0  0  0  0  0  0
   -3.8161    1.8475   -1.8434 N   0  0  0  0  0  0  0  0  0  0  0  0
   -2.5551    2.5679   -1.8719 C   0  0  0  0  0  0  0  0  0  0  0  0
   -2.2681   -1.4057   -0.3998 N   0  0  0  0  0  0  0  0  0  0  0  0
   -3.4746   -2.0637   -0.0423 C   0  0  0  0  0  0  0  0  0  0  0  0
   -4.0191   -1.8948    1.2424 C   0  0  0  0  0  0  0  0  0  0  0  0
   -5.1974   -2.5587    1.5928 C   0  0  0  0  0  0  0  0  0  0  0  0
   -5.8318   -3.3770    0.6591 C   0  0  0  0  0  0  0  0  0  0  0  0
   -6.9606   -4.0134    0.9970 F   0  0  0  0  0  0  0  0  0  0  0  0
   -5.3064   -3.5494   -0.6193 C   0  0  0  0  0  0  0  0  0  0  0  0
   -4.1232   -2.8948   -0.9730 C   0  0  0  0  0  0  0  0  0  0  0  0
    3.3592    0.8812   -0.1513 C   0  0  0  0  0  0  0  0  0  0  0  0
    4.4189    1.7801   -0.3000 C   0  0  0  0  0  0  0  0  0  0  0  0
    9.6294    3.5215    1.0936 H   0  0  0  0  0  0  0  0  0  0  0  0
    8.2745    4.6052    0.7231 H   0  0  0  0  0  0  0  0  0  0  0  0
    8.8470    3.4807   -0.5102 H   0  0  0  0  0  0  0  0  0  0  0  0
    8.1451    1.5531    0.9487 H   0  0  0  0  0  0  0  0  0  0  0  0
    7.4929    2.7398    2.1363 H   0  0  0  0  0  0  0  0  0  0  0  0
    6.3530    0.7091    2.2940 H   0  0  0  0  0  0  0  0  0  0  0  0
    4.5201   -0.8469    2.5384 H   0  0  0  0  0  0  0  0  0  0  0  0
    1.5712   -0.8353    0.2103 H   0  0  0  0  0  0  0  0  0  0  0  0
    0.9300   -3.1574    0.5392 H   0  0  0  0  0  0  0  0  0  0  0  0
    0.9081   -3.6904    2.2177 H   0  0  0  0  0  0  0  0  0  0  0  0
   -3.3585   -1.2830   -3.1260 H   0  0  0  0  0  0  0  0  0  0  0  0
   -2.3829    0.1051   -3.4852 H   0  0  0  0  0  0  0  0  0  0  0  0
   -5.8773   -0.6492   -2.2927 H   0  0  0  0  0  0  0  0  0  0  0  0
   -7.0447    1.5996   -1.3613 H   0  0  0  0  0  0  0  0  0  0  0  0
   -5.0608    3.4388   -1.1047 H   0  0  0  0  0  0  0  0  0  0  0  0
   -2.7514    3.6425   -1.8173 H   0  0  0  0  0  0  0  0  0  0  0  0
   -1.9559    2.2511   -1.0122 H   0  0  0  0  0  0  0  0  0  0  0  0
   -2.0417    2.3449   -2.8104 H   0  0  0  0  0  0  0  0  0  0  0  0
   -3.5781   -1.2206    1.9676 H   0  0  0  0  0  0  0  0  0  0  0  0
   -5.6304   -2.4332    2.5856 H   0  0  0  0  0  0  0  0  0  0  0  0
   -5.8173   -4.1963   -1.3253 H   0  0  0  0  0  0  0  0  0  0  0  0
   -3.7114   -3.0877   -1.9619 H   0  0  0  0  0  0  0  0  0  0  0  0
    2.5241    0.9468   -0.8437 H   0  0  0  0  0  0  0  0  0  0  0  0
    4.3943    2.5213   -1.0972 H   0  0  0  0  0  0  0  0  0  0  0  0
  1  2  1  0
  2  3  1  0
  3  4  1  0
  4  5  2  0
  5  6  1  0
  6  7  2  0
  7  8  1  0
  8  9  1  0
  9 10  2  0
  9 11  1  0
 11 12  1  0
 12 13  1  0
 13 14  2  0
 14 15  1  0
 15 16  2  0
 16 17  1  0
 17 18  1  0
 18 19  2  0
 19 20  1  0
 20 21  2  0
 21 22  1  0
 22 23  1  0
 16 24  1  0
 24 25  1  0
 25 26  2  0
 26 27  1  0
 27 28  2  0
 28 29  1  0
 28 30  1  0
 30 31  2  0
  7 32  1  0
 32 33  2  0
 33  4  1  0
 24 13  1  0
 31 25  1  0
 22 18  1  0
  1 34  1  0
  1 35  1  0
  1 36  1  0
  2 37  1  0
  2 38  1  0
  5 39  1  0
  6 40  1  0
  8 41  1  0
 11 42  1  0
 11 43  1  0
 17 44  1  0
 17 45  1  0
 19 46  1  0
 20 47  1  0
 21 48  1  0
 23 49  1  0
 23 50  1  0
 23 51  1  0
 26 52  1  0
 27 53  1  0
 30 54  1  0
 31 55  1  0
 32 56  1  0
 33 57  1  0
M  END
$$$$
