
     RDKit          3D

 62 65  0  0  0  0  0  0  0  0999 V2000
   -4.4343   -1.9565   -1.6898 C   0  0  0  0  0  0  0  0  0  0  0  0
   -4.1070   -2.2190   -0.2275 C   0  0  0  0  0  0  0  0  0  0  0  0
   -3.7269   -0.9853    0.4515 N   0  0  0  0  0  0  0  0  0  0  0  0
   -2.4555   -0.3832    0.5341 C   0  0  0  0  0  0  0  0  0  0  0  0
   -1.3239   -0.9159    0.0256 C   0  0  0  0  0  0  0  0  0  0  0  0
    0.0237   -0.3832    0.0701 C   0  0  0  0  0  0  0  0  0  0  0  0
    1.0624   -1.0202   -0.4897 C   0  0  0  0  0  0  0  0  0  0  0  0
    2.4744   -0.5499   -0.4956 C   0  0  0  0  0  0  0  0  0  0  0  0
    3.4657   -1.2404   -0.9895 N   0  0  0  0  0  4  0  0  0  0  0  0
    3.4849   -2.5988   -1.5736 C   0  0  0  0  0  0  0  0  0  0  0  0
    3.2932   -2.5176   -3.0764 C   0  0  0  0  0  0  0  0  0  0  0  0
    4.7181   -0.4716   -0.8846 C   0  0  0  0  0  0  0  0  0  0  0  0
    5.9900   -0.8169   -1.3098 C   0  0  0  0  0  0  0  0  0  0  0  0
    7.0178    0.1054   -1.0970 C   0  0  0  0  0  0  0  0  0  0  0  0
    6.7564    1.3365   -0.4758 C   0  0  0  0  0  0  0  0  0  0  0  0
    5.4650    1.6665   -0.0595 C   0  0  0  0  0  0  0  0  0  0  0  0
    4.4502    0.7454   -0.2744 C   0  0  0  0  0  0  0  0  0  0  0  0
    2.9789    0.8235    0.0572 C   0  0  0  0  0  0  0  0  0  0  0  0
    2.3503    2.0078   -0.6838 C   0  0  0  0  0  0  0  0  0  0  0  0
    2.8134    0.9309    1.5772 C   0  0  0  0  0  0  0  0  0  0  0  0
   -2.6155    0.9771    1.2985 C   0  0  0  0  0  0  0  0  0  0  0  0
   -1.8794    0.9842    2.6461 C   0  0  0  0  0  0  0  0  0  0  0  0
   -2.2406    2.1910    0.4344 C   0  0  0  0  0  0  0  0  0  0  0  0
   -4.1190    1.0028    1.5538 C   0  0  0  0  0  0  0  0  0  0  0  0
   -4.8811    1.9787    2.1875 C   0  0  0  0  0  0  0  0  0  0  0  0
   -6.2572    1.7831    2.2896 C   0  0  0  0  0  0  0  0  0  0  0  0
   -6.8484    0.6286    1.7619 C   0  0  0  0  0  0  0  0  0  0  0  0
   -6.0708   -0.3474    1.1279 C   0  0  0  0  0  0  0  0  0  0  0  0
   -4.7009   -0.1605    1.0266 C   0  0  0  0  0  0  0  0  0  0  0  0
   -4.7026   -2.8917   -2.1912 H   0  0  0  0  0  0  0  0  0  0  0  0
   -5.2754   -1.2632   -1.7919 H   0  0  0  0  0  0  0  0  0  0  0  0
   -3.5777   -1.5226   -2.2159 H   0  0  0  0  0  0  0  0  0  0  0  0
   -3.2957   -2.9533   -0.1647 H   0  0  0  0  0  0  0  0  0  0  0  0
   -4.9577   -2.7031    0.2656 H   0  0  0  0  0  0  0  0  0  0  0  0
   -1.4165   -1.8719   -0.4853 H   0  0  0  0  0  0  0  0  0  0  0  0
    0.1495    0.5564    0.5849 H   0  0  0  0  0  0  0  0  0  0  0  0
    0.8637   -1.9617   -0.9967 H   0  0  0  0  0  0  0  0  0  0  0  0
    4.4262   -3.0920   -1.3113 H   0  0  0  0  0  0  0  0  0  0  0  0
    2.6862   -3.1884   -1.1130 H   0  0  0  0  0  0  0  0  0  0  0  0
    4.0943   -1.9463   -3.5574 H   0  0  0  0  0  0  0  0  0  0  0  0
    2.3418   -2.0399   -3.3347 H   0  0  0  0  0  0  0  0  0  0  0  0
    3.2925   -3.5230   -3.5094 H   0  0  0  0  0  0  0  0  0  0  0  0
    6.2196   -1.7575   -1.7983 H   0  0  0  0  0  0  0  0  0  0  0  0
    8.0342   -0.1258   -1.4154 H   0  0  0  0  0  0  0  0  0  0  0  0
    7.5718    2.0429   -0.3191 H   0  0  0  0  0  0  0  0  0  0  0  0
    5.2765    2.6252    0.4182 H   0  0  0  0  0  0  0  0  0  0  0  0
    2.8382    2.9532   -0.4195 H   0  0  0  0  0  0  0  0  0  0  0  0
    1.2884    2.1235   -0.4538 H   0  0  0  0  0  0  0  0  0  0  0  0
    2.4328    1.8869   -1.7708 H   0  0  0  0  0  0  0  0  0  0  0  0
    3.2009    0.0389    2.0844 H   0  0  0  0  0  0  0  0  0  0  0  0
    3.3500    1.7979    1.9801 H   0  0  0  0  0  0  0  0  0  0  0  0
    1.7686    1.0410    1.8763 H   0  0  0  0  0  0  0  0  0  0  0  0
   -2.1201    1.8820    3.2278 H   0  0  0  0  0  0  0  0  0  0  0  0
   -0.7931    0.9678    2.5250 H   0  0  0  0  0  0  0  0  0  0  0  0
   -2.1555    0.1174    3.2590 H   0  0  0  0  0  0  0  0  0  0  0  0
   -2.5091    3.1322    0.9289 H   0  0  0  0  0  0  0  0  0  0  0  0
   -2.7610    2.1722   -0.5310 H   0  0  0  0  0  0  0  0  0  0  0  0
   -1.1686    2.2409    0.2290 H   0  0  0  0  0  0  0  0  0  0  0  0
   -4.4261    2.8757    2.5945 H   0  0  0  0  0  0  0  0  0  0  0  0
   -6.8771    2.5304    2.7795 H   0  0  0  0  0  0  0  0  0  0  0  0
   -7.9238    0.4892    1.8465 H   0  0  0  0  0  0  0  0  0  0  0  0
   -6.5593   -1.2285    0.7289 H   0  0  0  0  0  0  0  0  0  0  0  0
  1  2  1  0
  2  3  1  0
  3  4  1  0
  4  5  2  3
  5  6  1  0
  6  7  2  3
  7  8  1  0
  8  9  2  0
  9 10  1  0
 10 11  1  0
  9 12  1  0
 12 13  2  0
 13 14  1  0
 14 15  2  0
 15 16  1  0
 16 17  2  0
 17 18  1  0
 18 19  1  0
 18 20  1  0
  4 21  1  0
 21 22  1  0
 21 23  1  0
 21 24  1  0
 24 25  2  0
 25 26  1  0
 26 27  2  0
 27 28  1  0
 28 29  2  0
 29  3  1  0
 18  8  1  0
 29 24  1  0
 17 12  1  0
  1 30  1  0
  1 31  1  0
  1 32  1  0
  2 33  1  0
  2 34  1  0
  5 35  1  0
  6 36  1  0
  7 37  1  0
 10 38  1  0
 10 39  1  0
 11 40  1  0
 11 41  1  0
 11 42  1  0
 13 43  1  0
 14 44  1  0
 15 45  1  0
 16 46  1  0
 19 47  1  0
 19 48  1  0
 19 49  1  0
 20 50  1  0
 20 51  1  0
 20 52  1  0
 22 53  1  0
 22 54  1  0
 22 55  1  0
 23 56  1  0
 23 57  1  0
 23 58  1  0
 25 59  1  0
 26 60  1  0
 27 61  1  0
 28 62  1  0
M  CHG  1   9   1
M  END
$$$$
