
     RDKit          3D

 38 40  0  0  0  0  0  0  0  0999 V2000
   -0.5382    0.0004   -2.8361 C   0  0  0  0  0  0  0  0  0  0  0  0
   -0.6660   -0.2814   -1.3649 C   0  0  0  0  0  0  0  0  0  0  0  0
   -0.9245   -1.5954   -0.9424 C   0  0  0  0  0  0  0  0  0  0  0  0
   -1.0569   -1.8896    0.4161 C   0  0  0  0  0  0  0  0  0  0  0  0
   -1.2903   -3.1808    0.8058 O   0  0  0  0  0  0  0  0  0  0  0  0
   -0.9500   -0.8805    1.3791 C   0  0  0  0  0  0  0  0  0  0  0  0
   -1.1108   -1.2111    3.1254 S   0  0  0  0  0  0  0  0  0  0  0  0
   -2.8439   -1.1963    3.3343 C   0  0  0  0  0  0  0  0  0  0  0  0
   -3.7389   -0.7774    2.3808 N   0  0  0  0  0  0  0  0  0  0  0  0
   -4.8983   -0.9146    2.9781 C   0  0  0  0  0  0  0  0  0  0  0  0
   -4.7052   -1.3869    4.2359 N   0  0  0  0  0  0  0  0  0  0  0  0
   -3.4027   -1.5681    4.4931 N   0  0  0  0  0  0  0  0  0  0  0  0
   -0.6887    0.4294    0.9604 C   0  0  0  0  0  0  0  0  0  0  0  0
   -0.5389    0.7302   -0.3971 C   0  0  0  0  0  0  0  0  0  0  0  0
   -0.2410    2.0659   -0.7959 N   0  0  0  0  0  0  0  0  0  0  0  0
    1.1816    2.8151   -0.2883 S   0  0  0  0  0  6  0  0  0  0  0  0
    1.3288    3.9905   -1.1219 O   0  0  0  0  0  0  0  0  0  0  0  0
    1.1968    2.9156    1.1542 O   0  0  0  0  0  0  0  0  0  0  0  0
    2.4483    1.6598   -0.7712 C   0  0  0  0  0  0  0  0  0  0  0  0
    3.0230    1.7568   -2.0432 C   0  0  0  0  0  0  0  0  0  0  0  0
    4.0232    0.8562   -2.4157 C   0  0  0  0  0  0  0  0  0  0  0  0
    4.4486   -0.1218   -1.5149 C   0  0  0  0  0  0  0  0  0  0  0  0
    5.6758   -1.2332   -1.9820 Cl  0  0  0  0  0  0  0  0  0  0  0  0
    3.8905   -0.2033   -0.2387 C   0  0  0  0  0  0  0  0  0  0  0  0
    2.8920    0.6957    0.1411 C   0  0  0  0  0  0  0  0  0  0  0  0
    0.4345    0.4479   -3.0593 H   0  0  0  0  0  0  0  0  0  0  0  0
   -0.6193   -0.9156   -3.4310 H   0  0  0  0  0  0  0  0  0  0  0  0
   -1.3346    0.6773   -3.1617 H   0  0  0  0  0  0  0  0  0  0  0  0
   -1.0173   -2.3877   -1.6806 H   0  0  0  0  0  0  0  0  0  0  0  0
   -1.4224   -3.7375    0.0225 H   0  0  0  0  0  0  0  0  0  0  0  0
   -5.8719   -0.6936    2.5656 H   0  0  0  0  0  0  0  0  0  0  0  0
   -5.3879   -1.5988    4.9546 H   0  0  0  0  0  0  0  0  0  0  0  0
   -0.6196    1.2223    1.7023 H   0  0  0  0  0  0  0  0  0  0  0  0
   -0.5453    2.3845   -1.7129 H   0  0  0  0  0  0  0  0  0  0  0  0
    2.7027    2.5254   -2.7432 H   0  0  0  0  0  0  0  0  0  0  0  0
    4.4711    0.9247   -3.4040 H   0  0  0  0  0  0  0  0  0  0  0  0
    4.2302   -0.9594    0.4650 H   0  0  0  0  0  0  0  0  0  0  0  0
    2.4660    0.6355    1.1409 H   0  0  0  0  0  0  0  0  0  0  0  0
  1  2  1  0
  2  3  2  0
  3  4  1  0
  4  5  1  0
  4  6  2  0
  6  7  1  0
  7  8  1  0
  8  9  1  0
  9 10  2  0
 10 11  1  0
 11 12  1  0
  6 13  1  0
 13 14  2  0
 14 15  1  0
 15 16  1  0
 16 17  2  0
 16 18  2  0
 16 19  1  0
 19 20  2  0
 20 21  1  0
 21 22  2  0
 22 23  1  0
 22 24  1  0
 24 25  2  0
 14  2  1  0
 25 19  1  0
 12  8  2  0
  1 26  1  0
  1 27  1  0
  1 28  1  0
  3 29  1  0
  5 30  1  0
 10 31  1  0
 11 32  1  0
 13 33  1  0
 15 34  1  0
 20 35  1  0
 21 36  1  0
 24 37  1  0
 25 38  1  0
M  END
$$$$
