
     RDKit          3D

 58 62  0  0  0  0  0  0  0  0999 V2000
    7.5427    3.3048   -0.2653 C   0  0  0  0  0  0  0  0  0  0  0  0
    7.1707    1.9417   -0.0983 O   0  0  0  0  0  0  0  0  0  0  0  0
    5.8533    1.6914    0.1860 C   0  0  0  0  0  0  0  0  0  0  0  0
    4.8349    2.6412    0.2744 C   0  0  0  0  0  0  0  0  0  0  0  0
    3.5218    2.2460    0.5628 C   0  0  0  0  0  0  0  0  0  0  0  0
    3.2126    0.8965    0.7688 C   0  0  0  0  0  0  0  0  0  0  0  0
    1.7958    0.4634    1.0445 C   0  0  0  0  0  0  0  0  0  0  0  0
    1.0879   -0.0008   -0.2323 C   0  0  0  0  0  0  0  0  0  0  0  0
   -0.2868   -0.4466    0.0639 N   0  0  0  0  0  0  0  0  0  0  0  0
   -1.3660    0.4542    0.0521 C   0  0  0  0  0  0  0  0  0  0  0  0
   -1.2379    1.7419   -0.1238 N   0  0  0  0  0  0  0  0  0  0  0  0
   -2.7718   -0.0606    0.2548 C   0  0  0  0  0  0  0  0  0  0  0  0
   -4.0311    0.7475    0.2045 C   0  0  0  0  0  0  0  0  0  0  0  0
   -5.1342    0.2247    0.3085 O   0  0  0  0  0  0  0  0  0  0  0  0
   -3.8569    2.0903    0.0120 N   0  0  0  0  0  0  0  0  0  0  0  0
   -4.9548    3.0036   -0.1871 C   0  0  0  0  0  0  0  0  0  0  0  0
   -5.3306    3.0768   -1.6241 C   0  0  0  0  0  0  0  0  0  0  0  0
   -4.8867    2.4614   -2.7786 C   0  0  0  0  0  0  0  0  0  0  0  0
   -5.6923    2.9531   -3.8318 C   0  0  0  0  0  0  0  0  0  0  0  0
   -6.5691    3.8469   -3.2622 C   0  0  0  0  0  0  0  0  0  0  0  0
   -6.3551    3.9318   -1.9255 O   0  0  0  0  0  0  0  0  0  0  0  0
   -2.8854   -1.3779    0.4955 C   0  0  0  0  0  0  0  0  0  0  0  0
   -1.7417   -2.2680    0.5867 C   0  0  0  0  0  0  0  0  0  0  0  0
   -1.9575   -3.7092    0.9067 C   0  0  0  0  0  0  0  0  0  0  0  0
   -3.1005   -4.1389    1.0772 O   0  0  0  0  0  0  0  0  0  0  0  0
   -0.8178   -4.4888    0.9914 N   0  0  0  0  0  0  0  0  0  0  0  0
   -0.9342   -5.8441    1.2848 C   0  0  0  0  0  0  0  0  0  0  0  0
    0.1397   -6.6379    1.3854 C   0  0  0  0  0  0  0  0  0  0  0  0
    1.4562   -6.0910    1.1910 C   0  0  0  0  0  0  0  0  0  0  0  0
    1.6128   -4.7937    0.9008 C   0  0  0  0  0  0  0  0  0  0  0  0
    0.4187   -3.9086    0.7820 C   0  0  0  0  0  0  0  0  0  0  0  0
    0.6023   -2.6601    0.4938 N   0  0  0  0  0  0  0  0  0  0  0  0
   -0.4826   -1.8186    0.3841 C   0  0  0  0  0  0  0  0  0  0  0  0
    4.2369   -0.0532    0.6803 C   0  0  0  0  0  0  0  0  0  0  0  0
    5.5456    0.3451    0.3905 C   0  0  0  0  0  0  0  0  0  0  0  0
    7.0223    3.7565   -1.1177 H   0  0  0  0  0  0  0  0  0  0  0  0
    8.6147    3.3327   -0.4761 H   0  0  0  0  0  0  0  0  0  0  0  0
    7.3717    3.8727    0.6538 H   0  0  0  0  0  0  0  0  0  0  0  0
    5.0256    3.6979    0.1226 H   0  0  0  0  0  0  0  0  0  0  0  0
    2.7466    3.0060    0.6260 H   0  0  0  0  0  0  0  0  0  0  0  0
    1.2444    1.2904    1.5074 H   0  0  0  0  0  0  0  0  0  0  0  0
    1.8025   -0.3372    1.7942 H   0  0  0  0  0  0  0  0  0  0  0  0
    1.0822    0.7965   -0.9857 H   0  0  0  0  0  0  0  0  0  0  0  0
    1.6599   -0.8046   -0.7133 H   0  0  0  0  0  0  0  0  0  0  0  0
   -0.2582    2.0053   -0.2309 H   0  0  0  0  0  0  0  0  0  0  0  0
   -2.9009    2.4173   -0.1424 H   0  0  0  0  0  0  0  0  0  0  0  0
   -5.8122    2.6896    0.4184 H   0  0  0  0  0  0  0  0  0  0  0  0
   -4.6242    3.9910    0.1594 H   0  0  0  0  0  0  0  0  0  0  0  0
   -4.0912    1.7336   -2.8430 H   0  0  0  0  0  0  0  0  0  0  0  0
   -5.6461    2.6846   -4.8756 H   0  0  0  0  0  0  0  0  0  0  0  0
   -7.3679    4.4639   -3.6454 H   0  0  0  0  0  0  0  0  0  0  0  0
   -3.8675   -1.8228    0.6471 H   0  0  0  0  0  0  0  0  0  0  0  0
   -1.9391   -6.2358    1.4290 H   0  0  0  0  0  0  0  0  0  0  0  0
    0.0403   -7.6950    1.6130 H   0  0  0  0  0  0  0  0  0  0  0  0
    2.3121   -6.7527    1.2831 H   0  0  0  0  0  0  0  0  0  0  0  0
    2.5862   -4.3438    0.7456 H   0  0  0  0  0  0  0  0  0  0  0  0
    4.0254   -1.1093    0.8337 H   0  0  0  0  0  0  0  0  0  0  0  0
    6.3347   -0.4013    0.3227 H   0  0  0  0  0  0  0  0  0  0  0  0
  1  2  1  0
  2  3  1  0
  3  4  2  0
  4  5  1  0
  5  6  2  0
  6  7  1  0
  7  8  1  0
  8  9  1  0
  9 10  1  0
 10 11  2  3
 10 12  1  0
 12 13  1  0
 13 14  2  0
 13 15  1  0
 15 16  1  0
 16 17  1  0
 17 18  2  0
 18 19  1  0
 19 20  2  0
 20 21  1  0
 12 22  2  0
 22 23  1  0
 23 24  1  0
 24 25  2  0
 24 26  1  0
 26 27  1  0
 27 28  2  0
 28 29  1  0
 29 30  2  0
 30 31  1  0
 31 32  2  0
 32 33  1  0
  6 34  1  0
 34 35  2  0
 35  3  1  0
 33  9  1  0
 21 17  1  0
 33 23  2  0
 31 26  1  0
  1 36  1  0
  1 37  1  0
  1 38  1  0
  4 39  1  0
  5 40  1  0
  7 41  1  0
  7 42  1  0
  8 43  1  0
  8 44  1  0
 11 45  1  0
 15 46  1  0
 16 47  1  0
 16 48  1  0
 18 49  1  0
 19 50  1  0
 20 51  1  0
 22 52  1  0
 27 53  1  0
 28 54  1  0
 29 55  1  0
 30 56  1  0
 34 57  1  0
 35 58  1  0
M  END
$$$$
