
     RDKit          3D

 28 30  0  0  0  0  0  0  0  0999 V2000
    1.1284   -1.0484   -4.5096 N   0  0  0  0  0  0  0  0  0  0  0  0
    0.6938   -0.6379   -3.5144 C   0  0  0  0  0  0  0  0  0  0  0  0
    0.1239   -0.1291   -2.3104 C   0  0  0  0  0  0  0  0  0  0  0  0
   -0.8481    0.8046   -2.3730 C   0  0  0  0  0  0  0  0  0  0  0  0
   -1.5456    1.4261   -1.2382 C   0  0  0  0  0  0  0  0  0  0  0  0
   -2.9296    1.2898   -1.1299 C   0  0  0  0  0  0  0  0  0  0  0  0
   -3.5689    1.8930   -0.0589 C   0  0  0  0  0  0  0  0  0  0  0  0
   -2.9309    2.6134    0.8869 N   0  0  0  0  0  0  0  0  0  0  0  0
   -1.5934    2.7400    0.7551 C   0  0  0  0  0  0  0  0  0  0  0  0
   -0.8651    2.1781   -0.2803 C   0  0  0  0  0  0  0  0  0  0  0  0
    0.6030   -0.6295   -1.0654 C   0  0  0  0  0  0  0  0  0  0  0  0
    1.5743   -0.1073   -0.3422 N   0  0  0  0  0  0  0  0  0  0  0  0
    1.7696   -0.8422    0.8153 C   0  0  0  0  0  0  0  0  0  0  0  0
    2.7209   -0.5654    1.8179 C   0  0  0  0  0  0  0  0  0  0  0  0
    2.8082   -1.3938    2.9415 C   0  0  0  0  0  0  0  0  0  0  0  0
    1.9620   -2.4898    3.0758 C   0  0  0  0  0  0  0  0  0  0  0  0
    1.0111   -2.7858    2.0942 C   0  0  0  0  0  0  0  0  0  0  0  0
    0.9326   -1.9468    0.9702 C   0  0  0  0  0  0  0  0  0  0  0  0
   -0.1166   -2.0492   -0.3881 S   0  0  0  0  0  0  0  0  0  0  0  0
   -1.1996    1.1482   -3.3463 H   0  0  0  0  0  0  0  0  0  0  0  0
   -3.5067    0.7239   -1.8532 H   0  0  0  0  0  0  0  0  0  0  0  0
   -4.6444    1.8102    0.0704 H   0  0  0  0  0  0  0  0  0  0  0  0
   -1.1044    3.3262    1.5280 H   0  0  0  0  0  0  0  0  0  0  0  0
    0.2091    2.3277   -0.3253 H   0  0  0  0  0  0  0  0  0  0  0  0
    3.3806    0.2898    1.7095 H   0  0  0  0  0  0  0  0  0  0  0  0
    3.5435   -1.1775    3.7132 H   0  0  0  0  0  0  0  0  0  0  0  0
    2.0402   -3.1265    3.9549 H   0  0  0  0  0  0  0  0  0  0  0  0
    0.3519   -3.6421    2.2005 H   0  0  0  0  0  0  0  0  0  0  0  0
  1  2  3  0
  2  3  1  0
  3  4  2  3
  4  5  1  0
  5  6  2  0
  6  7  1  0
  7  8  2  0
  8  9  1  0
  9 10  2  0
  3 11  1  0
 11 12  2  0
 12 13  1  0
 13 14  2  0
 14 15  1  0
 15 16  2  0
 16 17  1  0
 17 18  2  0
 18 19  1  0
 10  5  1  0
 19 11  1  0
 18 13  1  0
  4 20  1  0
  6 21  1  0
  7 22  1  0
  9 23  1  0
 10 24  1  0
 14 25  1  0
 15 26  1  0
 16 27  1  0
 17 28  1  0
M  END
$$$$
