
     RDKit          3D

 28 29  0  0  0  0  0  0  0  0999 V2000
    5.0295   -1.3716    0.9657 C   0  0  0  0  0  0  0  0  0  0  0  0
    4.6336    0.0891    0.8586 C   0  0  0  0  0  0  0  0  0  0  0  0
    3.4672    0.2265    0.0361 O   0  0  0  0  0  0  0  0  0  0  0  0
    2.2735    0.0936    0.6743 C   0  0  0  0  0  0  0  0  0  0  0  0
    2.1243   -0.1338    1.8677 O   0  0  0  0  0  0  0  0  0  0  0  0
    1.1875    0.2558   -0.2596 C   0  0  0  0  0  0  0  0  0  0  0  0
    1.1791    0.5111   -1.6201 C   0  0  0  0  0  0  0  0  0  0  0  0
   -0.1714    0.5737   -2.0434 C   0  0  0  0  0  0  0  0  0  0  0  0
   -0.9695    0.3563   -0.9382 C   0  0  0  0  0  0  0  0  0  0  0  0
   -2.3967    0.3219   -0.8497 C   0  0  0  0  0  0  0  0  0  0  0  0
   -3.2129    0.1065    0.2419 C   0  0  0  0  0  0  0  0  0  0  0  0
   -4.5316    0.1842   -0.2588 C   0  0  0  0  0  0  0  0  0  0  0  0
   -5.8076    0.0306    0.4735 C   0  0  0  0  0  0  0  0  0  0  0  0
   -4.5352    0.4308   -1.5714 N   0  0  0  0  0  0  0  0  0  0  0  0
   -3.2056    0.5164   -1.9387 O   0  0  0  0  0  0  0  0  0  0  0  0
   -0.1317    0.1659    0.1318 N   0  0  0  0  0  0  0  0  0  0  0  0
    5.1808   -1.8028   -0.0294 H   0  0  0  0  0  0  0  0  0  0  0  0
    4.2423   -1.9577    1.4503 H   0  0  0  0  0  0  0  0  0  0  0  0
    5.9522   -1.4821    1.5423 H   0  0  0  0  0  0  0  0  0  0  0  0
    5.4364    0.6528    0.3722 H   0  0  0  0  0  0  0  0  0  0  0  0
    4.4803    0.5367    1.8473 H   0  0  0  0  0  0  0  0  0  0  0  0
    2.0562    0.6387   -2.2431 H   0  0  0  0  0  0  0  0  0  0  0  0
   -0.5251    0.7584   -3.0506 H   0  0  0  0  0  0  0  0  0  0  0  0
   -2.9091   -0.0810    1.2599 H   0  0  0  0  0  0  0  0  0  0  0  0
   -6.3874   -0.8040    0.0664 H   0  0  0  0  0  0  0  0  0  0  0  0
   -5.6316   -0.1669    1.5358 H   0  0  0  0  0  0  0  0  0  0  0  0
   -6.4092    0.9418    0.3945 H   0  0  0  0  0  0  0  0  0  0  0  0
   -0.4185   -0.0168    1.0848 H   0  0  0  0  0  0  0  0  0  0  0  0
  1  2  1  0
  2  3  1  0
  3  4  1  0
  4  5  2  0
  4  6  1  0
  6  7  2  0
  7  8  1  0
  8  9  2  0
  9 10  1  0
 10 11  2  0
 11 12  1  0
 12 13  1  0
 12 14  2  0
 14 15  1  0
  9 16  1  0
 16  6  1  0
 15 10  1  0
  1 17  1  0
  1 18  1  0
  1 19  1  0
  2 20  1  0
  2 21  1  0
  7 22  1  0
  8 23  1  0
 11 24  1  0
 13 25  1  0
 13 26  1  0
 13 27  1  0
 16 28  1  0
M  END
$$$$
