
     RDKit          3D

 36 37  0  0  0  0  0  0  0  0999 V2000
   -3.0018   -1.0839    0.7286 O   0  0  0  0  0  0  0  0  0  0  0  0
   -1.9011   -1.5423    0.4361 C   0  0  0  0  0  0  0  0  0  0  0  0
   -0.9823   -2.2229    1.4496 C   0  0  0  0  0  0  0  0  0  0  0  0
    0.3861   -1.8652    1.2431 O   0  0  0  0  0  0  0  0  0  0  0  0
    0.7388   -0.6879    1.8132 C   0  0  0  0  0  0  0  0  0  0  0  0
    0.0022    0.0719    2.4201 O   0  0  0  0  0  0  0  0  0  0  0  0
    2.1411   -0.3626    1.4886 C   0  0  0  0  0  0  0  0  0  0  0  0
    2.3723    0.9379    1.0044 C   0  0  0  0  0  0  0  0  0  0  0  0
    3.6570    1.3396    0.6500 C   0  0  0  0  0  0  0  0  0  0  0  0
    4.7202    0.4522    0.7976 C   0  0  0  0  0  0  0  0  0  0  0  0
    4.5038   -0.8341    1.3076 C   0  0  0  0  0  0  0  0  0  0  0  0
    5.8933   -1.8555    1.4711 Cl  0  0  0  0  0  0  0  0  0  0  0  0
    3.2109   -1.2529    1.6672 C   0  0  0  0  0  0  0  0  0  0  0  0
    2.9674   -2.8197    2.3742 Cl  0  0  0  0  0  0  0  0  0  0  0  0
   -1.3865   -1.5054   -0.8413 N   0  0  0  0  0  0  0  0  0  0  0  0
   -2.1444   -1.0868   -2.0096 C   0  0  0  0  0  0  0  0  0  0  0  0
   -2.8657    0.2679   -1.9011 C   0  0  0  0  0  0  0  0  0  0  0  0
   -2.0246    1.3371   -1.3953 N   0  0  0  0  0  0  0  0  0  0  0  0
   -2.2290    2.0048   -0.2118 C   0  0  0  0  0  0  0  0  0  0  0  0
   -3.2163    1.6354    0.6507 O   0  0  0  0  0  0  0  0  0  0  0  0
   -1.3854    3.0177    0.0091 C   0  0  0  0  0  0  0  0  0  0  0  0
   -0.2411    3.1853   -1.2865 S   0  0  0  0  0  0  0  0  0  0  0  0
   -0.9766    1.8279   -2.1599 C   0  0  0  0  0  0  0  0  0  0  0  0
   -0.5838    1.4260   -3.2435 O   0  0  0  0  0  0  0  0  0  0  0  0
   -1.3104   -1.9944    2.4711 H   0  0  0  0  0  0  0  0  0  0  0  0
   -1.0708   -3.3050    1.3098 H   0  0  0  0  0  0  0  0  0  0  0  0
    1.5454    1.6378    0.8995 H   0  0  0  0  0  0  0  0  0  0  0  0
    3.8283    2.3441    0.2672 H   0  0  0  0  0  0  0  0  0  0  0  0
    5.7233    0.7724    0.5221 H   0  0  0  0  0  0  0  0  0  0  0  0
   -0.4833   -1.9419   -0.9945 H   0  0  0  0  0  0  0  0  0  0  0  0
   -1.4312   -1.0642   -2.8397 H   0  0  0  0  0  0  0  0  0  0  0  0
   -2.8758   -1.8723   -2.2270 H   0  0  0  0  0  0  0  0  0  0  0  0
   -3.7730    0.1758   -1.2966 H   0  0  0  0  0  0  0  0  0  0  0  0
   -3.2005    0.5572   -2.9054 H   0  0  0  0  0  0  0  0  0  0  0  0
   -3.2151    0.6542    0.6918 H   0  0  0  0  0  0  0  0  0  0  0  0
   -1.3912    3.6516    0.8862 H   0  0  0  0  0  0  0  0  0  0  0  0
  1  2  2  0
  2  3  1  0
  3  4  1  0
  4  5  1  0
  5  6  2  0
  5  7  1  0
  7  8  2  0
  8  9  1  0
  9 10  2  0
 10 11  1  0
 11 12  1  0
 11 13  2  0
 13 14  1  0
  2 15  1  0
 15 16  1  0
 16 17  1  0
 17 18  1  0
 18 19  1  0
 19 20  1  0
 19 21  2  0
 21 22  1  0
 22 23  1  0
 23 24  2  0
 13  7  1  0
 23 18  1  0
  3 25  1  0
  3 26  1  0
  8 27  1  0
  9 28  1  0
 10 29  1  0
 15 30  1  0
 16 31  1  0
 16 32  1  0
 17 33  1  0
 17 34  1  0
 20 35  1  0
 21 36  1  0
M  END
$$$$
