
     RDKit          3D

 62 66  0  0  0  0  0  0  0  0999 V2000
   -3.4630    6.0767   -2.8554 C   0  0  0  0  0  0  0  0  0  0  0  0
   -2.7562    4.9446   -2.3648 O   0  0  0  0  0  0  0  0  0  0  0  0
   -3.4997    3.9523   -1.7860 C   0  0  0  0  0  0  0  0  0  0  0  0
   -4.8765    3.9609   -1.6090 C   0  0  0  0  0  0  0  0  0  0  0  0
   -5.5243    2.8793   -1.0010 C   0  0  0  0  0  0  0  0  0  0  0  0
   -4.7641    1.7769   -0.5656 C   0  0  0  0  0  0  0  0  0  0  0  0
   -5.3537    0.3562    0.1992 S   0  0  0  0  0  0  0  0  0  0  0  0
   -3.7924   -0.3282    0.3244 C   0  0  0  0  0  0  0  0  0  0  0  0
   -3.6576   -1.6418    0.9681 C   0  0  0  0  0  0  0  0  0  0  0  0
   -3.3059   -1.6907    2.3271 C   0  0  0  0  0  0  0  0  0  0  0  0
   -3.1577   -2.9143    2.9772 C   0  0  0  0  0  0  0  0  0  0  0  0
   -3.3572   -4.0986    2.2741 C   0  0  0  0  0  0  0  0  0  0  0  0
   -3.7023   -4.0649    0.9197 C   0  0  0  0  0  0  0  0  0  0  0  0
   -3.8542   -2.8424    0.2543 C   0  0  0  0  0  0  0  0  0  0  0  0
   -4.1723   -2.7181   -1.0751 O   0  0  0  0  0  0  0  0  0  0  0  0
   -4.4368   -3.9091   -1.8027 C   0  0  0  0  0  0  0  0  0  0  0  0
   -2.8216    0.5090   -0.2006 C   0  0  0  0  0  0  0  0  0  0  0  0
   -1.4090    0.1461   -0.1877 C   0  0  0  0  0  0  0  0  0  0  0  0
   -0.9295   -0.8697   -1.0185 C   0  0  0  0  0  0  0  0  0  0  0  0
    0.4266   -1.2039   -1.0010 C   0  0  0  0  0  0  0  0  0  0  0  0
    1.3173   -0.5273   -0.1634 C   0  0  0  0  0  0  0  0  0  0  0  0
    2.6145   -0.9526   -0.2481 O   0  0  0  0  0  0  0  0  0  0  0  0
    3.5789   -0.2584    0.5495 C   0  0  0  0  0  0  0  0  0  0  0  0
    4.9573   -0.8807    0.2786 C   0  0  0  0  0  0  0  0  0  0  0  0
    6.0363   -0.2816    1.0734 N   0  0  0  0  0  0  0  0  0  0  0  0
    7.3009   -1.0004    0.8980 C   0  0  0  0  0  0  0  0  0  0  0  0
    8.3177   -0.0430    1.4966 C   0  0  0  0  0  0  0  0  0  0  0  0
    7.7172    1.3434    1.2957 C   0  0  0  0  0  0  0  0  0  0  0  0
    6.3383    1.1013    0.6958 C   0  0  0  0  0  0  0  0  0  0  0  0
    0.8387    0.4894    0.6642 C   0  0  0  0  0  0  0  0  0  0  0  0
   -0.5197    0.8261    0.6510 C   0  0  0  0  0  0  0  0  0  0  0  0
   -3.3783    1.7371   -0.7238 C   0  0  0  0  0  0  0  0  0  0  0  0
   -2.7557    2.8501   -1.3481 C   0  0  0  0  0  0  0  0  0  0  0  0
   -2.7322    6.7619   -3.2957 H   0  0  0  0  0  0  0  0  0  0  0  0
   -3.9696    6.6078   -2.0427 H   0  0  0  0  0  0  0  0  0  0  0  0
   -4.1685    5.7917   -3.6429 H   0  0  0  0  0  0  0  0  0  0  0  0
   -5.4893    4.7956   -1.9333 H   0  0  0  0  0  0  0  0  0  0  0  0
   -6.6026    2.8913   -0.8680 H   0  0  0  0  0  0  0  0  0  0  0  0
   -3.1445   -0.7690    2.8818 H   0  0  0  0  0  0  0  0  0  0  0  0
   -2.8845   -2.9419    4.0287 H   0  0  0  0  0  0  0  0  0  0  0  0
   -3.2393   -5.0542    2.7791 H   0  0  0  0  0  0  0  0  0  0  0  0
   -3.8394   -5.0134    0.4116 H   0  0  0  0  0  0  0  0  0  0  0  0
   -5.2866   -4.4532   -1.3775 H   0  0  0  0  0  0  0  0  0  0  0  0
   -3.5460   -4.5432   -1.8574 H   0  0  0  0  0  0  0  0  0  0  0  0
   -4.7035   -3.6236   -2.8249 H   0  0  0  0  0  0  0  0  0  0  0  0
   -1.6055   -1.4060   -1.6804 H   0  0  0  0  0  0  0  0  0  0  0  0
    0.7912   -1.9981   -1.6475 H   0  0  0  0  0  0  0  0  0  0  0  0
    3.3342   -0.3687    1.6130 H   0  0  0  0  0  0  0  0  0  0  0  0
    3.5875    0.8021    0.2725 H   0  0  0  0  0  0  0  0  0  0  0  0
    4.8873   -1.9511    0.5146 H   0  0  0  0  0  0  0  0  0  0  0  0
    5.1757   -0.8300   -0.7968 H   0  0  0  0  0  0  0  0  0  0  0  0
    7.5274   -1.1703   -0.1624 H   0  0  0  0  0  0  0  0  0  0  0  0
    7.3035   -1.9646    1.4159 H   0  0  0  0  0  0  0  0  0  0  0  0
    8.4476   -0.2378    2.5678 H   0  0  0  0  0  0  0  0  0  0  0  0
    9.2971   -0.1376    1.0171 H   0  0  0  0  0  0  0  0  0  0  0  0
    8.3352    1.9567    0.6314 H   0  0  0  0  0  0  0  0  0  0  0  0
    7.6427    1.8613    2.2590 H   0  0  0  0  0  0  0  0  0  0  0  0
    5.6059    1.8102    1.0940 H   0  0  0  0  0  0  0  0  0  0  0  0
    6.3849    1.2227   -0.3939 H   0  0  0  0  0  0  0  0  0  0  0  0
    1.4917    1.0390    1.3337 H   0  0  0  0  0  0  0  0  0  0  0  0
   -0.8789    1.6198    1.3023 H   0  0  0  0  0  0  0  0  0  0  0  0
   -1.6779    2.8472   -1.4955 H   0  0  0  0  0  0  0  0  0  0  0  0
  1  2  1  0
  2  3  1  0
  3  4  2  0
  4  5  1  0
  5  6  2  0
  6  7  1  0
  7  8  1  0
  8  9  1  0
  9 10  2  0
 10 11  1  0
 11 12  2  0
 12 13  1  0
 13 14  2  0
 14 15  1  0
 15 16  1  0
  8 17  2  0
 17 18  1  0
 18 19  2  0
 19 20  1  0
 20 21  2  0
 21 22  1  0
 22 23  1  0
 23 24  1  0
 24 25  1  0
 25 26  1  0
 26 27  1  0
 27 28  1  0
 28 29  1  0
 21 30  1  0
 30 31  2  0
 17 32  1  0
 32 33  2  0
 33  3  1  0
 32  6  1  0
 14  9  1  0
 31 18  1  0
 29 25  1  0
  1 34  1  0
  1 35  1  0
  1 36  1  0
  4 37  1  0
  5 38  1  0
 10 39  1  0
 11 40  1  0
 12 41  1  0
 13 42  1  0
 16 43  1  0
 16 44  1  0
 16 45  1  0
 19 46  1  0
 20 47  1  0
 23 48  1  0
 23 49  1  0
 24 50  1  0
 24 51  1  0
 26 52  1  0
 26 53  1  0
 27 54  1  0
 27 55  1  0
 28 56  1  0
 28 57  1  0
 29 58  1  0
 29 59  1  0
 30 60  1  0
 31 61  1  0
 33 62  1  0
M  END
$$$$
