
     RDKit          3D

 60 63  0  0  0  0  0  0  0  0999 V2000
   10.1140   -1.9954    2.4298 C   0  0  0  0  0  0  0  0  0  0  0  0
    9.8283   -0.7240    1.6510 C   0  0  0  0  0  0  0  0  0  0  0  0
    9.0634   -1.0028    0.4810 O   0  0  0  0  0  0  0  0  0  0  0  0
    7.7023   -1.0492    0.5705 C   0  0  0  0  0  0  0  0  0  0  0  0
    7.0571   -1.3031   -0.6413 C   0  0  0  0  0  0  0  0  0  0  0  0
    5.6656   -1.3860   -0.7060 C   0  0  0  0  0  0  0  0  0  0  0  0
    4.8925   -1.2234    0.4492 C   0  0  0  0  0  0  0  0  0  0  0  0
    3.3911   -1.2972    0.3660 C   0  0  0  0  0  0  0  0  0  0  0  0
    2.8453   -0.0309   -0.0655 N   0  0  0  0  0  0  0  0  0  0  0  0
    1.5886    0.0308   -0.6462 C   0  0  0  0  0  0  0  0  0  0  0  0
    0.9423   -0.9771   -0.9322 O   0  0  0  0  0  0  0  0  0  0  0  0
    1.1195    1.4584   -0.9446 C   0  0  0  0  0  0  0  0  0  0  0  0
   -0.3161    1.4804   -1.1674 N   0  0  0  0  0  0  0  0  0  0  0  0
   -0.7450    1.4479   -2.4993 N   0  0  0  0  0  0  0  0  0  0  0  0
   -2.0104    1.3260   -2.7897 C   0  0  0  0  0  0  0  0  0  0  0  0
   -2.4103    1.2781   -4.2369 C   0  0  0  0  0  0  0  0  0  0  0  0
   -2.9787    1.2454   -1.7228 C   0  0  0  0  0  0  0  0  0  0  0  0
   -4.3600    1.1521   -1.6778 C   0  0  0  0  0  0  0  0  0  0  0  0
   -5.3622    1.2406   -2.7711 C   0  0  0  0  0  0  0  0  0  0  0  0
   -4.6734    0.9924   -0.3227 N   0  0  0  0  0  0  0  0  0  0  0  0
   -5.8920    0.5914    0.3058 C   0  0  0  0  0  0  0  0  0  0  0  0
   -6.8886   -0.1102   -0.3813 C   0  0  0  0  0  0  0  0  0  0  0  0
   -8.0549   -0.5135    0.2812 C   0  0  0  0  0  0  0  0  0  0  0  0
   -8.2380   -0.2366    1.6396 C   0  0  0  0  0  0  0  0  0  0  0  0
   -9.4923   -0.6500    2.3461 C   0  0  0  0  0  0  0  0  0  0  0  0
   -7.2412    0.4606    2.3287 C   0  0  0  0  0  0  0  0  0  0  0  0
   -6.0728    0.8583    1.6732 C   0  0  0  0  0  0  0  0  0  0  0  0
   -3.5920    1.2586    0.4593 N   0  0  0  0  0  0  0  0  0  0  0  0
   -2.5615    1.3029   -0.3884 C   0  0  0  0  0  0  0  0  0  0  0  0
   -1.1545    1.4254   -0.0372 C   0  0  0  0  0  0  0  0  0  0  0  0
   -0.7315    1.4747    1.1170 O   0  0  0  0  0  0  0  0  0  0  0  0
    5.5402   -0.9585    1.6615 C   0  0  0  0  0  0  0  0  0  0  0  0
    6.9367   -0.8758    1.7221 C   0  0  0  0  0  0  0  0  0  0  0  0
    9.1973   -2.4196    2.8507 H   0  0  0  0  0  0  0  0  0  0  0  0
   10.5449   -2.7578    1.7740 H   0  0  0  0  0  0  0  0  0  0  0  0
   10.8108   -1.7993    3.2498 H   0  0  0  0  0  0  0  0  0  0  0  0
   10.7803   -0.3140    1.3000 H   0  0  0  0  0  0  0  0  0  0  0  0
    9.3780    0.0571    2.2732 H   0  0  0  0  0  0  0  0  0  0  0  0
    7.6451   -1.4381   -1.5461 H   0  0  0  0  0  0  0  0  0  0  0  0
    5.1855   -1.5817   -1.6624 H   0  0  0  0  0  0  0  0  0  0  0  0
    2.9559   -1.5345    1.3441 H   0  0  0  0  0  0  0  0  0  0  0  0
    3.0895   -2.0968   -0.3205 H   0  0  0  0  0  0  0  0  0  0  0  0
    3.2331    0.8054    0.3488 H   0  0  0  0  0  0  0  0  0  0  0  0
    1.6357    1.8232   -1.8377 H   0  0  0  0  0  0  0  0  0  0  0  0
    1.3653    2.1102   -0.1004 H   0  0  0  0  0  0  0  0  0  0  0  0
   -1.5278    1.1599   -4.8729 H   0  0  0  0  0  0  0  0  0  0  0  0
   -2.9101    2.2117   -4.5092 H   0  0  0  0  0  0  0  0  0  0  0  0
   -3.0822    0.4344   -4.4163 H   0  0  0  0  0  0  0  0  0  0  0  0
   -5.0174    1.9140   -3.5592 H   0  0  0  0  0  0  0  0  0  0  0  0
   -5.5332    0.2589   -3.2217 H   0  0  0  0  0  0  0  0  0  0  0  0
   -6.3140    1.6535   -2.4267 H   0  0  0  0  0  0  0  0  0  0  0  0
   -6.7754   -0.4133   -1.4158 H   0  0  0  0  0  0  0  0  0  0  0  0
   -8.8131   -1.0654   -0.2712 H   0  0  0  0  0  0  0  0  0  0  0  0
   -9.2563   -1.0629    3.3330 H   0  0  0  0  0  0  0  0  0  0  0  0
  -10.0268   -1.4261    1.7865 H   0  0  0  0  0  0  0  0  0  0  0  0
  -10.1565    0.2110    2.4658 H   0  0  0  0  0  0  0  0  0  0  0  0
   -7.3616    0.6938    3.3848 H   0  0  0  0  0  0  0  0  0  0  0  0
   -5.3115    1.3893    2.2445 H   0  0  0  0  0  0  0  0  0  0  0  0
    4.9626   -0.8213    2.5732 H   0  0  0  0  0  0  0  0  0  0  0  0
    7.3904   -0.6819    2.6863 H   0  0  0  0  0  0  0  0  0  0  0  0
  1  2  1  0
  2  3  1  0
  3  4  1  0
  4  5  2  0
  5  6  1  0
  6  7  2  0
  7  8  1  0
  8  9  1  0
  9 10  1  0
 10 11  2  0
 10 12  1  0
 12 13  1  0
 13 14  1  0
 14 15  2  0
 15 16  1  0
 15 17  1  0
 17 18  2  0
 18 19  1  0
 18 20  1  0
 20 21  1  0
 21 22  2  0
 22 23  1  0
 23 24  2  0
 24 25  1  0
 24 26  1  0
 26 27  2  0
 20 28  1  0
 28 29  2  0
 29 30  1  0
 30 31  2  0
  7 32  1  0
 32 33  2  0
 33  4  1  0
 30 13  1  0
 29 17  1  0
 27 21  1  0
  1 34  1  0
  1 35  1  0
  1 36  1  0
  2 37  1  0
  2 38  1  0
  5 39  1  0
  6 40  1  0
  8 41  1  0
  8 42  1  0
  9 43  1  0
 12 44  1  0
 12 45  1  0
 16 46  1  0
 16 47  1  0
 16 48  1  0
 19 49  1  0
 19 50  1  0
 19 51  1  0
 22 52  1  0
 23 53  1  0
 25 54  1  0
 25 55  1  0
 25 56  1  0
 26 57  1  0
 27 58  1  0
 32 59  1  0
 33 60  1  0
M  END
$$$$
