
     RDKit          3D

 33 33  0  0  0  0  0  0  0  0999 V2000
   -3.5396    3.4961   -1.0296 C   0  0  0  0  0  0  0  0  0  0  0  0
   -3.3760    2.7066    0.2454 C   0  0  0  0  0  0  0  0  0  0  0  0
   -4.0888    2.9341    1.2169 O   0  0  0  0  0  0  0  0  0  0  0  0
   -2.4011    1.7379    0.1411 N   0  0  0  0  0  0  0  0  0  0  0  0
   -1.9542    0.8333    1.1305 C   0  0  0  0  0  0  0  0  0  0  0  0
   -2.4394    0.8216    2.4397 C   0  0  0  0  0  0  0  0  0  0  0  0
   -1.9336   -0.0891    3.3690 C   0  0  0  0  0  0  0  0  0  0  0  0
   -0.9378   -0.9879    2.9969 C   0  0  0  0  0  0  0  0  0  0  0  0
   -0.4466   -0.9895    1.6897 C   0  0  0  0  0  0  0  0  0  0  0  0
   -0.9565   -0.0911    0.7475 C   0  0  0  0  0  0  0  0  0  0  0  0
   -0.5584   -0.0130   -0.5678 O   0  0  0  0  0  0  0  0  0  0  0  0
    0.2740   -1.0424   -1.0755 C   0  0  0  0  0  0  0  0  0  0  0  0
    1.7739   -0.8680   -0.8056 C   0  0  0  0  0  0  0  0  0  0  0  0
    2.2810    0.1725   -0.4014 O   0  0  0  0  0  0  0  0  0  0  0  0
    2.5224   -2.0052   -1.0517 N   0  0  0  0  0  0  0  0  0  0  0  0
    3.9861   -1.9502   -0.9794 C   0  0  0  0  0  0  0  0  0  0  0  0
    4.6766   -1.4429   -2.2488 C   0  0  0  0  0  0  0  0  0  0  0  0
    4.3475   -2.2310   -3.3025 F   0  0  0  0  0  0  0  0  0  0  0  0
    6.0210   -1.4907   -2.1154 F   0  0  0  0  0  0  0  0  0  0  0  0
    4.3334   -0.1789   -2.5633 F   0  0  0  0  0  0  0  0  0  0  0  0
   -3.8798    4.5070   -0.7872 H   0  0  0  0  0  0  0  0  0  0  0  0
   -2.5918    3.5796   -1.5691 H   0  0  0  0  0  0  0  0  0  0  0  0
   -4.2797    3.0039   -1.6658 H   0  0  0  0  0  0  0  0  0  0  0  0
   -1.9134    1.6400   -0.7437 H   0  0  0  0  0  0  0  0  0  0  0  0
   -3.2051    1.5161    2.7701 H   0  0  0  0  0  0  0  0  0  0  0  0
   -2.3138   -0.0855    4.3876 H   0  0  0  0  0  0  0  0  0  0  0  0
   -0.5376   -1.6844    3.7296 H   0  0  0  0  0  0  0  0  0  0  0  0
    0.3418   -1.6940    1.4522 H   0  0  0  0  0  0  0  0  0  0  0  0
   -0.0684   -2.0343   -0.7560 H   0  0  0  0  0  0  0  0  0  0  0  0
    0.1608   -1.0194   -2.1662 H   0  0  0  0  0  0  0  0  0  0  0  0
    2.1052   -2.7582   -1.5870 H   0  0  0  0  0  0  0  0  0  0  0  0
    4.3217   -2.9711   -0.7701 H   0  0  0  0  0  0  0  0  0  0  0  0
    4.2763   -1.3221   -0.1305 H   0  0  0  0  0  0  0  0  0  0  0  0
  1  2  1  0
  2  3  2  0
  2  4  1  0
  4  5  1  0
  5  6  2  0
  6  7  1  0
  7  8  2  0
  8  9  1  0
  9 10  2  0
 10 11  1  0
 11 12  1  0
 12 13  1  0
 13 14  2  0
 13 15  1  0
 15 16  1  0
 16 17  1  0
 17 18  1  0
 17 19  1  0
 17 20  1  0
 10  5  1  0
  1 21  1  0
  1 22  1  0
  1 23  1  0
  4 24  1  0
  6 25  1  0
  7 26  1  0
  8 27  1  0
  9 28  1  0
 12 29  1  0
 12 30  1  0
 15 31  1  0
 16 32  1  0
 16 33  1  0
M  END
$$$$
