
     RDKit          3D

 73 75  0  0  0  0  0  0  0  0999 V2000
   -2.5761   -3.1368   -2.9187 C   0  0  0  0  0  0  0  0  0  0  0  0
   -2.2982   -2.8291   -1.4516 C   0  0  0  0  0  0  0  0  0  0  0  0
   -1.7160   -1.4238   -1.2520 C   0  0  0  0  0  0  0  0  0  0  0  0
   -1.2165   -1.2383    0.5065 S   0  0  0  0  0  0  0  0  0  0  0  0
   -0.5650    0.3855    0.4243 C   0  0  0  0  0  0  0  0  0  0  0  0
   -1.4133    1.3385    0.6245 N   0  0  0  0  0  0  0  0  0  0  0  0
   -0.9555    2.6584    0.5669 C   0  0  0  0  0  0  0  0  0  0  0  0
   -1.8732    3.6980    0.7340 C   0  0  0  0  0  0  0  0  0  0  0  0
   -1.4570    5.0346    0.6908 C   0  0  0  0  0  0  0  0  0  0  0  0
   -2.2945    6.1112    0.8481 O   0  0  0  0  0  0  0  0  0  0  0  0
   -3.6861    5.8536    0.9710 C   0  0  0  0  0  0  0  0  0  0  0  0
   -0.0947    5.3363    0.4824 C   0  0  0  0  0  0  0  0  0  0  0  0
    0.2316    6.6690    0.4602 O   0  0  0  0  0  0  0  0  0  0  0  0
    1.5934    7.0134    0.2447 C   0  0  0  0  0  0  0  0  0  0  0  0
    0.8226    4.2967    0.3146 C   0  0  0  0  0  0  0  0  0  0  0  0
    0.3818    2.9689    0.3566 C   0  0  0  0  0  0  0  0  0  0  0  0
    1.3248    1.8500    0.1898 C   0  0  0  0  0  0  0  0  0  0  0  0
    2.5263    2.0889    0.0888 O   0  0  0  0  0  0  0  0  0  0  0  0
    0.7837    0.5650    0.1810 N   0  0  0  0  0  0  0  0  0  0  0  0
    1.7469   -0.5335    0.0278 C   0  0  0  0  0  0  0  0  0  0  0  0
    2.3423   -0.9595    1.3756 C   0  0  0  0  0  0  0  0  0  0  0  0
    3.2887   -2.1230    1.2177 C   0  0  0  0  0  0  0  0  0  0  0  0
    2.8321   -3.4348    1.3724 C   0  0  0  0  0  0  0  0  0  0  0  0
    3.7041   -4.5125    1.2001 C   0  0  0  0  0  0  0  0  0  0  0  0
    5.0451   -4.2941    0.8676 C   0  0  0  0  0  0  0  0  0  0  0  0
    5.9690   -5.2920    0.6764 O   0  0  0  0  0  0  0  0  0  0  0  0
    5.5510   -6.6297    0.9042 C   0  0  0  0  0  0  0  0  0  0  0  0
    5.5141   -2.9753    0.7045 C   0  0  0  0  0  0  0  0  0  0  0  0
    6.8401   -2.8436    0.3722 O   0  0  0  0  0  0  0  0  0  0  0  0
    7.3651   -1.5283    0.2624 C   0  0  0  0  0  0  0  0  0  0  0  0
    4.6320   -1.9015    0.8787 C   0  0  0  0  0  0  0  0  0  0  0  0
   -2.7172   -0.3370   -1.6529 C   0  0  0  0  0  0  0  0  0  0  0  0
   -2.5512    0.3431   -2.6626 O   0  0  0  0  0  0  0  0  0  0  0  0
   -3.8274   -0.2277   -0.8383 N   0  0  0  0  0  0  0  0  0  0  0  0
   -4.7845    0.8450   -1.0624 C   0  0  0  0  0  0  0  0  0  0  0  0
   -6.0607    0.6852   -0.2305 C   0  0  0  0  0  0  0  0  0  0  0  0
   -7.0344   -0.1748   -0.8272 O   0  0  0  0  0  0  0  0  0  0  0  0
   -6.6549   -1.5426   -0.8606 C   0  0  0  0  0  0  0  0  0  0  0  0
   -1.6690   -3.0265   -3.5213 H   0  0  0  0  0  0  0  0  0  0  0  0
   -2.9307   -4.1671   -3.0253 H   0  0  0  0  0  0  0  0  0  0  0  0
   -3.3460   -2.4752   -3.3278 H   0  0  0  0  0  0  0  0  0  0  0  0
   -1.5921   -3.5831   -1.0808 H   0  0  0  0  0  0  0  0  0  0  0  0
   -3.2310   -2.9546   -0.8876 H   0  0  0  0  0  0  0  0  0  0  0  0
   -0.8169   -1.3024   -1.8668 H   0  0  0  0  0  0  0  0  0  0  0  0
   -2.9107    3.4305    0.9003 H   0  0  0  0  0  0  0  0  0  0  0  0
   -3.9029    5.2931    1.8863 H   0  0  0  0  0  0  0  0  0  0  0  0
   -4.1997    6.8174    1.0423 H   0  0  0  0  0  0  0  0  0  0  0  0
   -4.0735    5.3357    0.0872 H   0  0  0  0  0  0  0  0  0  0  0  0
    1.9382    6.6669   -0.7350 H   0  0  0  0  0  0  0  0  0  0  0  0
    2.2296    6.6285    1.0485 H   0  0  0  0  0  0  0  0  0  0  0  0
    1.6681    8.1051    0.2561 H   0  0  0  0  0  0  0  0  0  0  0  0
    1.8783    4.4877    0.1510 H   0  0  0  0  0  0  0  0  0  0  0  0
    1.2762   -1.3850   -0.4730 H   0  0  0  0  0  0  0  0  0  0  0  0
    2.5513   -0.2089   -0.6450 H   0  0  0  0  0  0  0  0  0  0  0  0
    2.8720   -0.1195    1.8428 H   0  0  0  0  0  0  0  0  0  0  0  0
    1.5466   -1.2277    2.0816 H   0  0  0  0  0  0  0  0  0  0  0  0
    1.7932   -3.6313    1.6298 H   0  0  0  0  0  0  0  0  0  0  0  0
    3.3044   -5.5125    1.3309 H   0  0  0  0  0  0  0  0  0  0  0  0
    4.7733   -6.9262    0.1927 H   0  0  0  0  0  0  0  0  0  0  0  0
    5.2181   -6.7704    1.9380 H   0  0  0  0  0  0  0  0  0  0  0  0
    6.4145   -7.2822    0.7422 H   0  0  0  0  0  0  0  0  0  0  0  0
    7.2776   -0.9862    1.2099 H   0  0  0  0  0  0  0  0  0  0  0  0
    6.8860   -0.9796   -0.5553 H   0  0  0  0  0  0  0  0  0  0  0  0
    8.4302   -1.6122    0.0259 H   0  0  0  0  0  0  0  0  0  0  0  0
    4.9671   -0.8760    0.7529 H   0  0  0  0  0  0  0  0  0  0  0  0
   -3.6590   -0.4960    0.1262 H   0  0  0  0  0  0  0  0  0  0  0  0
   -4.2767    1.7746   -0.7835 H   0  0  0  0  0  0  0  0  0  0  0  0
   -5.0205    0.8866   -2.1314 H   0  0  0  0  0  0  0  0  0  0  0  0
   -5.8445    0.3497    0.7907 H   0  0  0  0  0  0  0  0  0  0  0  0
   -6.5420    1.6661   -0.1530 H   0  0  0  0  0  0  0  0  0  0  0  0
   -7.5354   -2.1321   -1.1306 H   0  0  0  0  0  0  0  0  0  0  0  0
   -6.3005   -1.8780    0.1188 H   0  0  0  0  0  0  0  0  0  0  0  0
   -5.8921   -1.7127   -1.6248 H   0  0  0  0  0  0  0  0  0  0  0  0
  1  2  1  0
  2  3  1  0
  3  4  1  0
  4  5  1  0
  5  6  2  0
  6  7  1  0
  7  8  2  0
  8  9  1  0
  9 10  1  0
 10 11  1  0
  9 12  2  0
 12 13  1  0
 13 14  1  0
 12 15  1  0
 15 16  2  0
 16 17  1  0
 17 18  2  0
 17 19  1  0
 19 20  1  0
 20 21  1  0
 21 22  1  0
 22 23  2  0
 23 24  1  0
 24 25  2  0
 25 26  1  0
 26 27  1  0
 25 28  1  0
 28 29  1  0
 29 30  1  0
 28 31  2  0
  3 32  1  0
 32 33  2  0
 32 34  1  0
 34 35  1  0
 35 36  1  0
 36 37  1  0
 37 38  1  0
 19  5  1  0
 31 22  1  0
 16  7  1  0
  1 39  1  0
  1 40  1  0
  1 41  1  0
  2 42  1  0
  2 43  1  0
  3 44  1  0
  8 45  1  0
 11 46  1  0
 11 47  1  0
 11 48  1  0
 14 49  1  0
 14 50  1  0
 14 51  1  0
 15 52  1  0
 20 53  1  0
 20 54  1  0
 21 55  1  0
 21 56  1  0
 23 57  1  0
 24 58  1  0
 27 59  1  0
 27 60  1  0
 27 61  1  0
 30 62  1  0
 30 63  1  0
 30 64  1  0
 31 65  1  0
 34 66  1  0
 35 67  1  0
 35 68  1  0
 36 69  1  0
 36 70  1  0
 38 71  1  0
 38 72  1  0
 38 73  1  0
M  END
$$$$
