
     RDKit          3D

 58 63  0  0  0  0  0  0  0  0999 V2000
    8.3658   -0.7663   -0.4266 C   0  0  0  0  0  0  0  0  0  0  0  0
    6.9623   -0.2668   -0.4041 C   0  0  0  0  0  0  0  0  0  0  0  0
    6.1635    0.0997   -1.4668 C   0  0  0  0  0  0  0  0  0  0  0  0
    4.8752    0.5389   -1.0441 C   0  0  0  0  0  0  0  0  0  0  0  0
    4.7212    0.4769    0.3288 C   0  0  0  0  0  0  0  0  0  0  0  0
    3.5748    0.8506    1.1456 C   0  0  0  0  0  0  0  0  0  0  0  0
    3.6937    1.4854    2.1948 O   0  0  0  0  0  0  0  0  0  0  0  0
    2.2954    0.4993    0.6607 N   0  0  0  0  0  0  0  0  0  0  0  0
    2.0747   -0.8129    0.0582 C   0  0  0  0  0  0  0  0  0  0  0  0
    0.8038   -0.8401   -0.7857 C   0  0  0  0  0  0  0  0  0  0  0  0
   -0.4472   -0.3889    0.0195 C   0  0  0  0  0  0  0  0  0  0  0  0
   -0.1224    1.0142    0.5928 C   0  0  0  0  0  0  0  0  0  0  0  0
    1.1644    1.0215    1.4156 C   0  0  0  0  0  0  0  0  0  0  0  0
   -0.6374   -1.2447    1.1722 O   0  0  0  0  0  0  0  0  0  0  0  0
   -1.1520   -2.4853    0.9235 C   0  0  0  0  0  0  0  0  0  0  0  0
   -0.9863   -3.4320    1.9338 C   0  0  0  0  0  0  0  0  0  0  0  0
   -1.4640   -4.7327    1.7572 C   0  0  0  0  0  0  0  0  0  0  0  0
   -2.1113   -5.0811    0.5714 C   0  0  0  0  0  0  0  0  0  0  0  0
   -2.6948   -6.6846    0.3591 Cl  0  0  0  0  0  0  0  0  0  0  0  0
   -2.2946   -4.1382   -0.4368 C   0  0  0  0  0  0  0  0  0  0  0  0
   -1.8201   -2.8361   -0.2487 C   0  0  0  0  0  0  0  0  0  0  0  0
   -2.0370   -1.8051   -1.2815 C   0  0  0  0  0  0  0  0  0  0  0  0
   -2.4814   -2.1302   -2.3772 O   0  0  0  0  0  0  0  0  0  0  0  0
   -1.7322   -0.3729   -0.8564 C   0  0  0  0  0  0  0  0  0  0  0  0
   -2.9863    0.1843   -0.1919 C   0  0  0  0  0  0  0  0  0  0  0  0
   -3.0330    1.5191   -0.8498 C   0  0  0  0  0  0  0  0  0  0  0  0
   -3.9396    2.5947   -0.3849 C   0  0  0  0  0  0  0  0  0  0  0  0
   -3.8453    3.8626   -0.9750 C   0  0  0  0  0  0  0  0  0  0  0  0
   -4.6827    4.9001   -0.5560 C   0  0  0  0  0  0  0  0  0  0  0  0
   -5.6165    4.6705    0.4514 C   0  0  0  0  0  0  0  0  0  0  0  0
   -6.6482    5.9450    0.9695 Cl  0  0  0  0  0  0  0  0  0  0  0  0
   -5.7209    3.4117    1.0419 C   0  0  0  0  0  0  0  0  0  0  0  0
   -4.8837    2.3714    0.6246 C   0  0  0  0  0  0  0  0  0  0  0  0
   -2.2252    1.6591   -1.8506 N   0  0  0  0  0  0  0  0  0  0  0  0
   -1.5387    0.4356   -2.0214 O   0  0  0  0  0  0  0  0  0  0  0  0
    6.1520   -0.0734    1.0906 S   0  0  0  0  0  0  0  0  0  0  0  0
    9.0222   -0.1105    0.1554 H   0  0  0  0  0  0  0  0  0  0  0  0
    8.4239   -1.7778   -0.0111 H   0  0  0  0  0  0  0  0  0  0  0  0
    8.7519   -0.8020   -1.4509 H   0  0  0  0  0  0  0  0  0  0  0  0
    6.4892    0.0672   -2.4999 H   0  0  0  0  0  0  0  0  0  0  0  0
    4.1000    0.8921   -1.7142 H   0  0  0  0  0  0  0  0  0  0  0  0
    2.9196   -1.1191   -0.5616 H   0  0  0  0  0  0  0  0  0  0  0  0
    2.0174   -1.5425    0.8756 H   0  0  0  0  0  0  0  0  0  0  0  0
    0.6850   -1.8579   -1.1726 H   0  0  0  0  0  0  0  0  0  0  0  0
    0.9433   -0.1826   -1.6533 H   0  0  0  0  0  0  0  0  0  0  0  0
   -0.9287    1.3636    1.2472 H   0  0  0  0  0  0  0  0  0  0  0  0
   -0.0161    1.7397   -0.2227 H   0  0  0  0  0  0  0  0  0  0  0  0
    1.0571    0.4219    2.3279 H   0  0  0  0  0  0  0  0  0  0  0  0
    1.3776    2.0506    1.7285 H   0  0  0  0  0  0  0  0  0  0  0  0
   -0.4751   -3.1642    2.8561 H   0  0  0  0  0  0  0  0  0  0  0  0
   -1.3253   -5.4695    2.5452 H   0  0  0  0  0  0  0  0  0  0  0  0
   -2.8081   -4.4095   -1.3570 H   0  0  0  0  0  0  0  0  0  0  0  0
   -3.8958   -0.3662   -0.4575 H   0  0  0  0  0  0  0  0  0  0  0  0
   -2.9134    0.2519    0.8958 H   0  0  0  0  0  0  0  0  0  0  0  0
   -3.1207    4.0524   -1.7655 H   0  0  0  0  0  0  0  0  0  0  0  0
   -4.6006    5.8794   -1.0209 H   0  0  0  0  0  0  0  0  0  0  0  0
   -6.4541    3.2338    1.8250 H   0  0  0  0  0  0  0  0  0  0  0  0
   -4.9954    1.3998    1.0966 H   0  0  0  0  0  0  0  0  0  0  0  0
  1  2  1  0
  2  3  2  0
  3  4  1  0
  4  5  2  0
  5  6  1  0
  6  7  2  0
  6  8  1  0
  8  9  1  0
  9 10  1  0
 10 11  1  0
 11 12  1  0
 12 13  1  0
 11 14  1  0
 14 15  1  0
 15 16  2  0
 16 17  1  0
 17 18  2  0
 18 19  1  0
 18 20  1  0
 20 21  2  0
 21 22  1  0
 22 23  2  0
 22 24  1  0
 24 25  1  0
 25 26  1  0
 26 27  1  0
 27 28  2  0
 28 29  1  0
 29 30  2  0
 30 31  1  0
 30 32  1  0
 32 33  2  0
 26 34  2  0
 34 35  1  0
  5 36  1  0
 36  2  1  0
 13  8  1  0
 21 15  1  0
 35 24  1  0
 24 11  1  0
 33 27  1  0
  1 37  1  0
  1 38  1  0
  1 39  1  0
  3 40  1  0
  4 41  1  0
  9 42  1  0
  9 43  1  0
 10 44  1  0
 10 45  1  0
 12 46  1  0
 12 47  1  0
 13 48  1  0
 13 49  1  0
 16 50  1  0
 17 51  1  0
 20 52  1  0
 25 53  1  0
 25 54  1  0
 28 55  1  0
 29 56  1  0
 32 57  1  0
 33 58  1  0
M  END
$$$$
