
     RDKit          3D

 60 62  0  0  0  0  0  0  0  0999 V2000
   -3.9563    1.2659   -4.0359 C   0  0  0  0  0  0  0  0  0  0  0  0
   -3.3729    1.7991   -2.7599 C   0  0  0  0  0  0  0  0  0  0  0  0
   -2.0254    2.1591   -2.7054 C   0  0  0  0  0  0  0  0  0  0  0  0
   -1.4741    2.6333   -1.5167 C   0  0  0  0  0  0  0  0  0  0  0  0
   -2.2591    2.7283   -0.3553 C   0  0  0  0  0  0  0  0  0  0  0  0
   -1.4504    3.3294    1.1232 S   0  0  0  0  0  6  0  0  0  0  0  0
   -2.4093    4.0707    1.9148 O   0  0  0  0  0  0  0  0  0  0  0  0
   -0.1955    3.9404    0.7374 O   0  0  0  0  0  0  0  0  0  0  0  0
   -1.1118    1.9194    1.9951 N   0  0  0  0  0  0  0  0  0  0  0  0
   -0.5113    0.7993    1.3350 C   0  0  0  0  0  0  0  0  0  0  0  0
    0.7556    0.9705    0.7667 C   0  0  0  0  0  0  0  0  0  0  0  0
    1.3741   -0.0584    0.0496 C   0  0  0  0  0  0  0  0  0  0  0  0
    2.7250    0.2030   -0.6056 C   0  0  0  0  0  0  0  0  0  0  0  0
    3.8107   -0.8213   -0.3811 C   0  0  0  0  0  0  0  0  0  0  0  0
    4.7113   -1.0367   -1.1839 O   0  0  0  0  0  0  0  0  0  0  0  0
    3.7312   -1.3811    0.8587 O   0  0  0  0  0  0  0  0  0  0  0  0
    4.7427   -2.3493    1.1927 C   0  0  0  0  0  0  0  0  0  0  0  0
    5.9617   -1.6317    1.7582 C   0  0  0  0  0  0  0  0  0  0  0  0
    4.1355   -3.2879    2.2284 C   0  0  0  0  0  0  0  0  0  0  0  0
    2.5725    0.6019   -2.0582 C   0  0  0  0  0  0  0  0  0  0  0  0
    2.5812    1.8072   -2.3586 O   0  0  0  0  0  0  0  0  0  0  0  0
    2.2772   -0.4758   -3.0900 C   0  0  0  0  0  0  0  0  0  0  0  0
    2.7008   -0.1163   -4.3372 F   0  0  0  0  0  0  0  0  0  0  0  0
    2.8433   -1.6852   -2.8477 F   0  0  0  0  0  0  0  0  0  0  0  0
    0.9365   -0.6981   -3.2130 F   0  0  0  0  0  0  0  0  0  0  0  0
    0.6936   -1.2750   -0.0707 C   0  0  0  0  0  0  0  0  0  0  0  0
    1.3555   -2.2537   -0.7629 O   0  0  0  0  0  0  0  0  0  0  0  0
   -0.5946   -1.4900    0.4827 C   0  0  0  0  0  0  0  0  0  0  0  0
   -1.3140   -2.7005    0.3175 C   0  0  0  0  0  0  0  0  0  0  0  0
   -2.5771   -2.8915    0.8778 C   0  0  0  0  0  0  0  0  0  0  0  0
   -3.1603   -1.8755    1.6136 C   0  0  0  0  0  0  0  0  0  0  0  0
   -2.4845   -0.6657    1.7755 C   0  0  0  0  0  0  0  0  0  0  0  0
   -1.2033   -0.4361    1.2139 C   0  0  0  0  0  0  0  0  0  0  0  0
   -3.6191    2.3690   -0.3852 C   0  0  0  0  0  0  0  0  0  0  0  0
   -4.5459    2.4941    0.7908 C   0  0  0  0  0  0  0  0  0  0  0  0
   -4.1560    1.9056   -1.6023 C   0  0  0  0  0  0  0  0  0  0  0  0
   -3.6638    0.2196   -4.1721 H   0  0  0  0  0  0  0  0  0  0  0  0
   -5.0496    1.3229   -4.0275 H   0  0  0  0  0  0  0  0  0  0  0  0
   -3.6057    1.8507   -4.8933 H   0  0  0  0  0  0  0  0  0  0  0  0
   -1.3966    2.0784   -3.5899 H   0  0  0  0  0  0  0  0  0  0  0  0
   -0.4238    2.9214   -1.5073 H   0  0  0  0  0  0  0  0  0  0  0  0
   -1.7868    1.7543    2.7363 H   0  0  0  0  0  0  0  0  0  0  0  0
    1.2678    1.9257    0.8841 H   0  0  0  0  0  0  0  0  0  0  0  0
    3.1507    1.0921   -0.1121 H   0  0  0  0  0  0  0  0  0  0  0  0
    5.0190   -2.9386    0.3098 H   0  0  0  0  0  0  0  0  0  0  0  0
    6.7306   -2.3432    2.0725 H   0  0  0  0  0  0  0  0  0  0  0  0
    5.6863   -1.0087    2.6164 H   0  0  0  0  0  0  0  0  0  0  0  0
    6.3988   -0.9602    1.0117 H   0  0  0  0  0  0  0  0  0  0  0  0
    3.2487   -3.7848    1.8179 H   0  0  0  0  0  0  0  0  0  0  0  0
    4.8519   -4.0539    2.5406 H   0  0  0  0  0  0  0  0  0  0  0  0
    3.8030   -2.7344    3.1136 H   0  0  0  0  0  0  0  0  0  0  0  0
    1.0278   -3.1256   -0.4875 H   0  0  0  0  0  0  0  0  0  0  0  0
   -0.9155   -3.5190   -0.2750 H   0  0  0  0  0  0  0  0  0  0  0  0
   -3.1032   -3.8321    0.7317 H   0  0  0  0  0  0  0  0  0  0  0  0
   -4.1441   -2.0151    2.0546 H   0  0  0  0  0  0  0  0  0  0  0  0
   -2.9892    0.1022    2.3533 H   0  0  0  0  0  0  0  0  0  0  0  0
   -4.0895    2.1073    1.7048 H   0  0  0  0  0  0  0  0  0  0  0  0
   -4.8358    3.5392    0.9337 H   0  0  0  0  0  0  0  0  0  0  0  0
   -5.4606    1.9106    0.6370 H   0  0  0  0  0  0  0  0  0  0  0  0
   -5.2077    1.6247   -1.6519 H   0  0  0  0  0  0  0  0  0  0  0  0
  1  2  1  0
  2  3  2  0
  3  4  1  0
  4  5  2  0
  5  6  1  0
  6  7  2  0
  6  8  2  0
  6  9  1  0
  9 10  1  0
 10 11  2  0
 11 12  1  0
 12 13  1  0
 13 14  1  0
 14 15  2  0
 14 16  1  0
 16 17  1  0
 17 18  1  0
 17 19  1  0
 13 20  1  0
 20 21  2  0
 20 22  1  0
 22 23  1  0
 22 24  1  0
 22 25  1  0
 12 26  2  0
 26 27  1  0
 26 28  1  0
 28 29  2  0
 29 30  1  0
 30 31  2  0
 31 32  1  0
 32 33  2  0
  5 34  1  0
 34 35  1  0
 34 36  2  0
 36  2  1  0
 33 10  1  0
 33 28  1  0
  1 37  1  0
  1 38  1  0
  1 39  1  0
  3 40  1  0
  4 41  1  0
  9 42  1  0
 11 43  1  0
 13 44  1  0
 17 45  1  0
 18 46  1  0
 18 47  1  0
 18 48  1  0
 19 49  1  0
 19 50  1  0
 19 51  1  0
 27 52  1  0
 29 53  1  0
 30 54  1  0
 31 55  1  0
 32 56  1  0
 35 57  1  0
 35 58  1  0
 35 59  1  0
 36 60  1  0
M  END
$$$$
