
     RDKit          3D

 49 50  0  0  0  0  0  0  0  0999 V2000
    6.8963   -0.8634   -1.7050 C   0  0  0  0  0  0  0  0  0  0  0  0
    5.9267   -1.4467   -0.6956 C   0  0  0  0  0  0  0  0  0  0  0  0
    4.7323   -0.6591   -0.7210 O   0  0  0  0  0  0  0  0  0  0  0  0
    3.7648   -1.0701    0.1510 C   0  0  0  0  0  0  0  0  0  0  0  0
    3.8982   -2.0360    0.8956 O   0  0  0  0  0  0  0  0  0  0  0  0
    2.5523   -0.2384    0.0965 C   0  0  0  0  0  0  0  0  0  0  0  0
    2.3384    1.0056   -0.5995 C   0  0  0  0  0  0  0  0  0  0  0  0
    3.3394    1.7372   -1.4316 C   0  0  0  0  0  0  0  0  0  0  0  0
    1.0321    1.4056   -0.3510 C   0  0  0  0  0  0  0  0  0  0  0  0
    0.2930    2.6051   -0.8469 C   0  0  0  0  0  0  0  0  0  0  0  0
    0.4618    0.4836    0.5053 N   0  0  0  0  0  0  0  0  0  0  0  0
   -0.8717    0.6108    1.1092 C   0  0  0  0  0  0  0  0  0  0  0  0
   -2.0017   -0.0100    0.3125 C   0  0  0  0  0  0  0  0  0  0  0  0
   -1.8005   -0.7442   -0.8659 C   0  0  0  0  0  0  0  0  0  0  0  0
   -2.8783   -1.3081   -1.5472 C   0  0  0  0  0  0  0  0  0  0  0  0
   -4.1764   -1.1660   -1.0565 C   0  0  0  0  0  0  0  0  0  0  0  0
   -4.4136   -0.4506    0.1198 C   0  0  0  0  0  0  0  0  0  0  0  0
   -5.6505   -0.3000    0.6903 O   0  0  0  0  0  0  0  0  0  0  0  0
   -6.7243   -1.0538    0.1431 C   0  0  0  0  0  0  0  0  0  0  0  0
   -3.3235    0.1506    0.7820 C   0  0  0  0  0  0  0  0  0  0  0  0
   -3.4604    0.8609    1.9548 O   0  0  0  0  0  0  0  0  0  0  0  0
   -4.3944    1.9359    1.8605 C   0  0  0  0  0  0  0  0  0  0  0  0
    1.3571   -0.5396    0.7498 C   0  0  0  0  0  0  0  0  0  0  0  0
    1.0226   -1.7295    1.5925 C   0  0  0  0  0  0  0  0  0  0  0  0
    7.1229    0.1803   -1.4630 H   0  0  0  0  0  0  0  0  0  0  0  0
    7.8297   -1.4327   -1.7239 H   0  0  0  0  0  0  0  0  0  0  0  0
    6.4577   -0.8691   -2.7084 H   0  0  0  0  0  0  0  0  0  0  0  0
    6.3719   -1.4141    0.3051 H   0  0  0  0  0  0  0  0  0  0  0  0
    5.6932   -2.4831   -0.9640 H   0  0  0  0  0  0  0  0  0  0  0  0
    2.9834    2.7278   -1.7278 H   0  0  0  0  0  0  0  0  0  0  0  0
    4.2685    1.8878   -0.8725 H   0  0  0  0  0  0  0  0  0  0  0  0
    3.5601    1.1745   -2.3441 H   0  0  0  0  0  0  0  0  0  0  0  0
    0.2889    3.3889   -0.0830 H   0  0  0  0  0  0  0  0  0  0  0  0
   -0.7421    2.3607   -1.1040 H   0  0  0  0  0  0  0  0  0  0  0  0
    0.7533    3.0134   -1.7512 H   0  0  0  0  0  0  0  0  0  0  0  0
   -1.0529    1.6831    1.2479 H   0  0  0  0  0  0  0  0  0  0  0  0
   -0.8198    0.1630    2.1081 H   0  0  0  0  0  0  0  0  0  0  0  0
   -0.8024   -0.8919   -1.2741 H   0  0  0  0  0  0  0  0  0  0  0  0
   -2.7023   -1.8717   -2.4606 H   0  0  0  0  0  0  0  0  0  0  0  0
   -4.9798   -1.6330   -1.6161 H   0  0  0  0  0  0  0  0  0  0  0  0
   -6.9643   -0.7156   -0.8701 H   0  0  0  0  0  0  0  0  0  0  0  0
   -7.6059   -0.8802    0.7678 H   0  0  0  0  0  0  0  0  0  0  0  0
   -6.5089   -2.1273    0.1635 H   0  0  0  0  0  0  0  0  0  0  0  0
   -4.0305    2.7463    2.4999 H   0  0  0  0  0  0  0  0  0  0  0  0
   -4.4882    2.3324    0.8428 H   0  0  0  0  0  0  0  0  0  0  0  0
   -5.3688    1.6238    2.2469 H   0  0  0  0  0  0  0  0  0  0  0  0
    1.4088   -1.5913    2.6072 H   0  0  0  0  0  0  0  0  0  0  0  0
    1.4612   -2.6400    1.1729 H   0  0  0  0  0  0  0  0  0  0  0  0
   -0.0535   -1.9116    1.6549 H   0  0  0  0  0  0  0  0  0  0  0  0
  1  2  1  0
  2  3  1  0
  3  4  1  0
  4  5  2  0
  4  6  1  0
  6  7  1  0
  7  8  1  0
  7  9  2  0
  9 10  1  0
  9 11  1  0
 11 12  1  0
 12 13  1  0
 13 14  2  0
 14 15  1  0
 15 16  2  0
 16 17  1  0
 17 18  1  0
 18 19  1  0
 17 20  2  0
 20 21  1  0
 21 22  1  0
 11 23  1  0
 23 24  1  0
 23  6  2  0
 20 13  1  0
  1 25  1  0
  1 26  1  0
  1 27  1  0
  2 28  1  0
  2 29  1  0
  8 30  1  0
  8 31  1  0
  8 32  1  0
 10 33  1  0
 10 34  1  0
 10 35  1  0
 12 36  1  0
 12 37  1  0
 14 38  1  0
 15 39  1  0
 16 40  1  0
 19 41  1  0
 19 42  1  0
 19 43  1  0
 22 44  1  0
 22 45  1  0
 22 46  1  0
 24 47  1  0
 24 48  1  0
 24 49  1  0
M  END
$$$$
