
     RDKit          3D

 33 34  0  0  0  0  0  0  0  0999 V2000
   -4.1507   -2.0451   -1.7710 C   0  0  0  0  0  0  0  0  0  0  0  0
   -3.4331   -0.8381   -1.2395 C   0  0  0  0  0  0  0  0  0  0  0  0
   -4.1575    0.2399   -0.7190 C   0  0  0  0  0  0  0  0  0  0  0  0
   -3.4933    1.3531   -0.2057 C   0  0  0  0  0  0  0  0  0  0  0  0
   -2.1014    1.3911   -0.1975 C   0  0  0  0  0  0  0  0  0  0  0  0
   -1.5375    2.5275    0.3196 O   0  0  0  0  0  0  0  0  0  0  0  0
   -1.3511    0.3117   -0.6890 C   0  0  0  0  0  0  0  0  0  0  0  0
    0.1420    0.3645   -0.6440 C   0  0  0  0  0  0  0  0  0  0  0  0
    0.6755    1.4360   -0.3570 O   0  0  0  0  0  0  0  0  0  0  0  0
    0.9276   -0.8883   -0.9498 C   0  0  0  0  0  0  0  0  0  0  0  0
    2.4095   -0.8515   -0.6637 C   0  0  0  0  0  0  0  0  0  0  0  0
    3.2109   -1.4730   -1.3595 O   0  0  0  0  0  0  0  0  0  0  0  0
    2.8990   -0.1826    0.5603 C   0  0  0  0  0  0  0  0  0  0  0  0
    2.4216   -0.6277    1.8017 C   0  0  0  0  0  0  0  0  0  0  0  0
    2.8743   -0.0251    2.9761 C   0  0  0  0  0  0  0  0  0  0  0  0
    3.8016    1.0145    2.9141 C   0  0  0  0  0  0  0  0  0  0  0  0
    4.2800    1.4544    1.6776 C   0  0  0  0  0  0  0  0  0  0  0  0
    3.8327    0.8570    0.4954 C   0  0  0  0  0  0  0  0  0  0  0  0
    4.4343    1.4778   -0.9990 Cl  0  0  0  0  0  0  0  0  0  0  0  0
   -2.0293   -0.8014   -1.2107 C   0  0  0  0  0  0  0  0  0  0  0  0
   -3.5823   -2.5100   -2.5833 H   0  0  0  0  0  0  0  0  0  0  0  0
   -4.2913   -2.7784   -0.9710 H   0  0  0  0  0  0  0  0  0  0  0  0
   -5.1305   -1.7713   -2.1763 H   0  0  0  0  0  0  0  0  0  0  0  0
   -5.2456    0.2242   -0.7152 H   0  0  0  0  0  0  0  0  0  0  0  0
   -4.0597    2.1938    0.1871 H   0  0  0  0  0  0  0  0  0  0  0  0
   -0.5651    2.4753    0.1797 H   0  0  0  0  0  0  0  0  0  0  0  0
    0.5155   -1.7318   -0.3857 H   0  0  0  0  0  0  0  0  0  0  0  0
    0.8171   -1.0809   -2.0238 H   0  0  0  0  0  0  0  0  0  0  0  0
    1.7133   -1.4492    1.8668 H   0  0  0  0  0  0  0  0  0  0  0  0
    2.5082   -0.3677    3.9416 H   0  0  0  0  0  0  0  0  0  0  0  0
    4.1537    1.4853    3.8293 H   0  0  0  0  0  0  0  0  0  0  0  0
    4.9989    2.2696    1.6416 H   0  0  0  0  0  0  0  0  0  0  0  0
   -1.4875   -1.6531   -1.6135 H   0  0  0  0  0  0  0  0  0  0  0  0
  1  2  1  0
  2  3  2  0
  3  4  1  0
  4  5  2  0
  5  6  1  0
  5  7  1  0
  7  8  1  0
  8  9  2  0
  8 10  1  0
 10 11  1  0
 11 12  2  0
 11 13  1  0
 13 14  2  0
 14 15  1  0
 15 16  2  0
 16 17  1  0
 17 18  2  0
 18 19  1  0
  7 20  2  0
 20  2  1  0
 18 13  1  0
  1 21  1  0
  1 22  1  0
  1 23  1  0
  3 24  1  0
  4 25  1  0
  6 26  1  0
 10 27  1  0
 10 28  1  0
 14 29  1  0
 15 30  1  0
 16 31  1  0
 17 32  1  0
 20 33  1  0
M  END
$$$$
