
     RDKit          3D

 39 41  0  0  0  0  0  0  0  0999 V2000
   -3.3058   -2.9475    2.7195 C   0  0  0  0  0  0  0  0  0  0  0  0
   -3.0296   -1.6357    3.1947 O   0  0  0  0  0  0  0  0  0  0  0  0
   -2.8653   -0.6582    2.2524 C   0  0  0  0  0  0  0  0  0  0  0  0
   -2.9754   -0.8244    0.8699 C   0  0  0  0  0  0  0  0  0  0  0  0
   -2.7791    0.2633    0.0132 C   0  0  0  0  0  0  0  0  0  0  0  0
   -2.4567    1.5148    0.5449 C   0  0  0  0  0  0  0  0  0  0  0  0
   -2.1905    2.8974   -0.5426 S   0  0  0  0  0  6  0  0  0  0  0  0
   -2.5155    4.1009    0.1943 O   0  0  0  0  0  0  0  0  0  0  0  0
   -2.8207    2.6018   -1.8112 O   0  0  0  0  0  0  0  0  0  0  0  0
   -0.5095    2.9069   -0.7360 N   0  0  0  0  0  0  0  0  0  0  0  0
    0.1408    1.7216   -1.1797 C   0  0  0  0  0  0  0  0  0  0  0  0
   -0.0766    1.2328   -2.4662 C   0  0  0  0  0  0  0  0  0  0  0  0
    0.5261    0.0414   -2.8663 C   0  0  0  0  0  0  0  0  0  0  0  0
    1.3469   -0.6545   -1.9807 C   0  0  0  0  0  0  0  0  0  0  0  0
    1.8980   -1.8116   -2.4590 O   0  0  0  0  0  0  0  0  0  0  0  0
    1.5722   -0.1778   -0.6812 C   0  0  0  0  0  0  0  0  0  0  0  0
    2.5292   -1.0597    0.5427 S   0  0  0  0  0  0  0  0  0  0  0  0
    4.1241   -1.0129   -0.1502 C   0  0  0  0  0  0  0  0  0  0  0  0
    5.1478   -0.2642    0.3553 N   0  0  0  0  0  0  0  0  0  0  0  0
    6.1413   -0.5361   -0.4577 C   0  0  0  0  0  0  0  0  0  0  0  0
    5.7248   -1.4151   -1.4069 N   0  0  0  0  0  0  0  0  0  0  0  0
    4.4311   -1.7411   -1.2319 N   0  0  0  0  0  0  0  0  0  0  0  0
    0.9573    1.0200   -0.2890 C   0  0  0  0  0  0  0  0  0  0  0  0
   -2.3652    1.6975    1.9257 C   0  0  0  0  0  0  0  0  0  0  0  0
   -2.5663    0.6061    2.7725 C   0  0  0  0  0  0  0  0  0  0  0  0
   -4.2593   -2.9792    2.1819 H   0  0  0  0  0  0  0  0  0  0  0  0
   -2.4870   -3.3229    2.0968 H   0  0  0  0  0  0  0  0  0  0  0  0
   -3.3919   -3.6065    3.5888 H   0  0  0  0  0  0  0  0  0  0  0  0
   -3.2140   -1.7855    0.4257 H   0  0  0  0  0  0  0  0  0  0  0  0
   -2.8693    0.1224   -1.0621 H   0  0  0  0  0  0  0  0  0  0  0  0
   -0.0523    3.4598   -0.0125 H   0  0  0  0  0  0  0  0  0  0  0  0
   -0.7119    1.7719   -3.1653 H   0  0  0  0  0  0  0  0  0  0  0  0
    0.3585   -0.3445   -3.8684 H   0  0  0  0  0  0  0  0  0  0  0  0
    2.6849   -2.0229   -1.9115 H   0  0  0  0  0  0  0  0  0  0  0  0
    7.1467   -0.1422   -0.4093 H   0  0  0  0  0  0  0  0  0  0  0  0
    6.2458   -1.8224   -2.1764 H   0  0  0  0  0  0  0  0  0  0  0  0
    1.1021    1.3940    0.7216 H   0  0  0  0  0  0  0  0  0  0  0  0
   -2.1427    2.6736    2.3497 H   0  0  0  0  0  0  0  0  0  0  0  0
   -2.4930    0.7385    3.8499 H   0  0  0  0  0  0  0  0  0  0  0  0
  1  2  1  0
  2  3  1  0
  3  4  2  0
  4  5  1  0
  5  6  2  0
  6  7  1  0
  7  8  2  0
  7  9  2  0
  7 10  1  0
 10 11  1  0
 11 12  2  0
 12 13  1  0
 13 14  2  0
 14 15  1  0
 14 16  1  0
 16 17  1  0
 17 18  1  0
 18 19  1  0
 19 20  2  0
 20 21  1  0
 21 22  1  0
 16 23  2  0
  6 24  1  0
 24 25  2  0
 25  3  1  0
 23 11  1  0
 22 18  2  0
  1 26  1  0
  1 27  1  0
  1 28  1  0
  4 29  1  0
  5 30  1  0
 10 31  1  0
 12 32  1  0
 13 33  1  0
 15 34  1  0
 20 35  1  0
 21 36  1  0
 23 37  1  0
 24 38  1  0
 25 39  1  0
M  END
$$$$
