
     RDKit          3D

 59 62  0  0  0  0  0  0  0  0999 V2000
   -7.2506   -0.7739    0.6162 C   0  0  0  0  0  0  0  0  0  0  0  0
   -6.5258    0.2883   -0.1983 C   0  0  0  0  0  0  0  0  0  0  0  0
   -5.5309   -0.2758   -1.0994 N   0  0  0  0  0  0  0  0  0  0  0  0
   -5.7618   -0.5887   -2.4268 C   0  0  0  0  0  0  0  0  0  0  0  0
   -6.9275   -0.5093   -3.2151 C   0  0  0  0  0  0  0  0  0  0  0  0
   -6.8510   -0.8989   -4.5566 C   0  0  0  0  0  0  0  0  0  0  0  0
   -5.6522   -1.3515   -5.0985 C   0  0  0  0  0  0  0  0  0  0  0  0
   -4.4967   -1.4266   -4.3081 C   0  0  0  0  0  0  0  0  0  0  0  0
   -4.5492   -1.0421   -2.9503 C   0  0  0  0  0  0  0  0  0  0  0  0
   -3.5820   -1.0083   -1.8973 C   0  0  0  0  0  0  0  0  0  0  0  0
   -2.2105   -1.3392   -1.8304 C   0  0  0  0  0  0  0  0  0  0  0  0
   -1.5180   -1.2256   -0.6218 C   0  0  0  0  0  0  0  0  0  0  0  0
   -0.1532   -1.5433   -0.4671 N   0  0  0  0  0  0  0  0  0  0  0  0
    0.7683   -1.8402   -1.4561 C   0  0  0  0  0  0  0  0  0  0  0  0
    0.5385   -1.8647   -2.6604 O   0  0  0  0  0  0  0  0  0  0  0  0
    2.1695   -2.1862   -0.8845 C   0  0  0  0  0  0  0  0  0  0  0  0
    3.0944   -2.7000   -1.9834 C   0  0  0  0  0  0  0  0  0  0  0  0
    2.8438   -1.0696   -0.2829 O   0  0  0  0  0  0  0  0  0  0  0  0
    2.5277   -0.8072    1.0116 C   0  0  0  0  0  0  0  0  0  0  0  0
    1.6160   -1.3328    1.6329 O   0  0  0  0  0  0  0  0  0  0  0  0
    3.4651    0.1874    1.5995 C   0  0  0  0  0  0  0  0  0  0  0  0
    4.4164    0.8708    0.8334 C   0  0  0  0  0  0  0  0  0  0  0  0
    5.3011    1.7730    1.4411 C   0  0  0  0  0  0  0  0  0  0  0  0
    5.2542    2.0033    2.8179 C   0  0  0  0  0  0  0  0  0  0  0  0
    6.1256    2.8781    3.5068 N   0  0  0  0  0  0  0  0  0  0  0  0
    7.0885    3.7079    2.9527 C   0  0  0  0  0  0  0  0  0  0  0  0
    7.3020    3.8520    1.7493 O   0  0  0  0  0  0  0  0  0  0  0  0
    7.8937    4.4787    3.9802 C   0  0  0  0  0  0  0  0  0  0  0  0
    9.2994    4.0658    3.9376 C   0  0  0  0  0  0  0  0  0  0  0  0
   10.4151    3.7391    3.9573 N   0  0  0  0  0  0  0  0  0  0  0  0
    4.2992    1.3173    3.5801 C   0  0  0  0  0  0  0  0  0  0  0  0
    3.4060    0.4208    2.9773 C   0  0  0  0  0  0  0  0  0  0  0  0
   -2.1989   -0.7880    0.5168 C   0  0  0  0  0  0  0  0  0  0  0  0
   -3.5510   -0.4367    0.4771 C   0  0  0  0  0  0  0  0  0  0  0  0
   -4.2253   -0.5525   -0.7465 C   0  0  0  0  0  0  0  0  0  0  0  0
   -8.0200   -0.3033    1.2348 H   0  0  0  0  0  0  0  0  0  0  0  0
   -6.5626   -1.3113    1.2775 H   0  0  0  0  0  0  0  0  0  0  0  0
   -7.7373   -1.5114   -0.0349 H   0  0  0  0  0  0  0  0  0  0  0  0
   -6.0200    1.0084    0.4592 H   0  0  0  0  0  0  0  0  0  0  0  0
   -7.2424    0.8636   -0.7954 H   0  0  0  0  0  0  0  0  0  0  0  0
   -7.8702   -0.1608   -2.8064 H   0  0  0  0  0  0  0  0  0  0  0  0
   -7.7423   -0.8454   -5.1862 H   0  0  0  0  0  0  0  0  0  0  0  0
   -5.6113   -1.6518   -6.1431 H   0  0  0  0  0  0  0  0  0  0  0  0
   -3.5680   -1.7836   -4.7377 H   0  0  0  0  0  0  0  0  0  0  0  0
   -1.7290   -1.6936   -2.7341 H   0  0  0  0  0  0  0  0  0  0  0  0
    0.2145   -1.4808    0.4823 H   0  0  0  0  0  0  0  0  0  0  0  0
    2.0470   -2.9998   -0.1533 H   0  0  0  0  0  0  0  0  0  0  0  0
    2.6617   -3.5683   -2.4949 H   0  0  0  0  0  0  0  0  0  0  0  0
    4.0646   -2.9864   -1.5651 H   0  0  0  0  0  0  0  0  0  0  0  0
    3.2888   -1.9216   -2.7280 H   0  0  0  0  0  0  0  0  0  0  0  0
    4.4980    0.7128   -0.2406 H   0  0  0  0  0  0  0  0  0  0  0  0
    6.0281    2.2649    0.8027 H   0  0  0  0  0  0  0  0  0  0  0  0
    6.0136    2.8932    4.5141 H   0  0  0  0  0  0  0  0  0  0  0  0
    7.4904    4.3208    4.9883 H   0  0  0  0  0  0  0  0  0  0  0  0
    7.7885    5.5500    3.7608 H   0  0  0  0  0  0  0  0  0  0  0  0
    4.2248    1.4672    4.6545 H   0  0  0  0  0  0  0  0  0  0  0  0
    2.6711   -0.1007    3.5915 H   0  0  0  0  0  0  0  0  0  0  0  0
   -1.6766   -0.6951    1.4620 H   0  0  0  0  0  0  0  0  0  0  0  0
   -4.0517   -0.0887    1.3751 H   0  0  0  0  0  0  0  0  0  0  0  0
  1  2  1  0
  2  3  1  0
  3  4  1  0
  4  5  2  0
  5  6  1  0
  6  7  2  0
  7  8  1  0
  8  9  2  0
  9 10  1  0
 10 11  2  0
 11 12  1  0
 12 13  1  0
 13 14  1  0
 14 15  2  0
 14 16  1  0
 16 17  1  0
 16 18  1  0
 18 19  1  0
 19 20  2  0
 19 21  1  0
 21 22  2  0
 22 23  1  0
 23 24  2  0
 24 25  1  0
 25 26  1  0
 26 27  2  0
 26 28  1  0
 28 29  1  0
 29 30  3  0
 24 31  1  0
 31 32  2  0
 12 33  2  0
 33 34  1  0
 34 35  2  0
 35  3  1  0
  9  4  1  0
 35 10  1  0
 32 21  1  0
  1 36  1  0
  1 37  1  0
  1 38  1  0
  2 39  1  0
  2 40  1  0
  5 41  1  0
  6 42  1  0
  7 43  1  0
  8 44  1  0
 11 45  1  0
 13 46  1  0
 16 47  1  0
 17 48  1  0
 17 49  1  0
 17 50  1  0
 22 51  1  0
 23 52  1  0
 25 53  1  0
 28 54  1  0
 28 55  1  0
 31 56  1  0
 32 57  1  0
 33 58  1  0
 34 59  1  0
M  END
$$$$
