
     RDKit          3D

 48 50  0  0  0  0  0  0  0  0999 V2000
    9.6396    0.2263   -1.0560 C   0  0  0  0  0  0  0  0  0  0  0  0
    8.8652   -0.7234   -0.3346 O   0  0  0  0  0  0  0  0  0  0  0  0
    7.5120   -0.5366   -0.3096 C   0  0  0  0  0  0  0  0  0  0  0  0
    6.8192    0.5154   -0.9070 C   0  0  0  0  0  0  0  0  0  0  0  0
    5.4215    0.5900   -0.8144 C   0  0  0  0  0  0  0  0  0  0  0  0
    4.7000   -0.3897   -0.1254 C   0  0  0  0  0  0  0  0  0  0  0  0
    3.3360   -0.4072    0.0047 O   0  0  0  0  0  0  0  0  0  0  0  0
    2.5839    0.5821   -0.6925 C   0  0  0  0  0  0  0  0  0  0  0  0
    1.1545    0.2188   -0.5527 C   0  0  0  0  0  0  0  0  0  0  0  0
    0.4695   -0.9618   -0.3906 C   0  0  0  0  0  0  0  0  0  0  0  0
   -0.8966   -0.5886   -0.3864 C   0  0  0  0  0  0  0  0  0  0  0  0
   -2.0609   -1.4734   -0.2768 C   0  0  0  0  0  0  0  0  0  0  0  0
   -1.9592   -2.6959   -0.1901 O   0  0  0  0  0  0  0  0  0  0  0  0
   -3.2696   -0.8048   -0.2856 N   0  0  0  0  0  0  0  0  0  0  0  0
   -4.5447   -1.4731   -0.0473 C   0  0  0  0  0  0  0  0  0  0  0  0
   -4.7974   -1.6284    1.4523 C   0  0  0  0  0  0  0  0  0  0  0  0
   -5.7044   -0.7892   -0.7985 C   0  0  0  0  0  0  0  0  0  0  0  0
   -6.1284    0.5438   -0.2379 C   0  0  0  0  0  0  0  0  0  0  0  0
   -5.4559    1.7182   -0.5865 C   0  0  0  0  0  0  0  0  0  0  0  0
   -5.8593    2.9207   -0.0082 C   0  0  0  0  0  0  0  0  0  0  0  0
   -6.9269    2.9253    0.8804 C   0  0  0  0  0  0  0  0  0  0  0  0
   -7.5528    1.7203    1.1541 C   0  0  0  0  0  0  0  0  0  0  0  0
   -7.1728    0.5364    0.6239 N   0  0  0  0  0  0  0  0  0  0  0  0
   -1.0249    0.7502   -0.5125 N   0  0  0  0  0  0  0  0  0  0  0  0
    0.2636    1.2428   -0.6299 O   0  0  0  0  0  0  0  0  0  0  0  0
    5.4064   -1.4400    0.4823 C   0  0  0  0  0  0  0  0  0  0  0  0
    4.5840   -2.6916    1.3546 Cl  0  0  0  0  0  0  0  0  0  0  0  0
    6.7994   -1.5114    0.3910 C   0  0  0  0  0  0  0  0  0  0  0  0
   10.6886   -0.0749   -0.9895 H   0  0  0  0  0  0  0  0  0  0  0  0
    9.3642    0.2370   -2.1150 H   0  0  0  0  0  0  0  0  0  0  0  0
    9.5502    1.2217   -0.6134 H   0  0  0  0  0  0  0  0  0  0  0  0
    7.3351    1.2978   -1.4566 H   0  0  0  0  0  0  0  0  0  0  0  0
    4.9333    1.4310   -1.2971 H   0  0  0  0  0  0  0  0  0  0  0  0
    2.7681    1.5692   -0.2518 H   0  0  0  0  0  0  0  0  0  0  0  0
    2.8368    0.5873   -1.7587 H   0  0  0  0  0  0  0  0  0  0  0  0
    0.8854   -1.9569   -0.3031 H   0  0  0  0  0  0  0  0  0  0  0  0
   -3.2034    0.1997   -0.1525 H   0  0  0  0  0  0  0  0  0  0  0  0
   -4.4534   -2.4830   -0.4661 H   0  0  0  0  0  0  0  0  0  0  0  0
   -5.7644   -2.1087    1.6390 H   0  0  0  0  0  0  0  0  0  0  0  0
   -4.0193   -2.2482    1.9123 H   0  0  0  0  0  0  0  0  0  0  0  0
   -4.7808   -0.6618    1.9680 H   0  0  0  0  0  0  0  0  0  0  0  0
   -6.5764   -1.4586   -0.7778 H   0  0  0  0  0  0  0  0  0  0  0  0
   -5.4445   -0.6665   -1.8576 H   0  0  0  0  0  0  0  0  0  0  0  0
   -4.6345    1.7069   -1.2949 H   0  0  0  0  0  0  0  0  0  0  0  0
   -5.3453    3.8470   -0.2451 H   0  0  0  0  0  0  0  0  0  0  0  0
   -7.2692    3.8468    1.3400 H   0  0  0  0  0  0  0  0  0  0  0  0
   -8.4084    1.6721    1.8267 H   0  0  0  0  0  0  0  0  0  0  0  0
    7.3369   -2.3329    0.8613 H   0  0  0  0  0  0  0  0  0  0  0  0
  1  2  1  0
  2  3  1  0
  3  4  2  0
  4  5  1  0
  5  6  2  0
  6  7  1  0
  7  8  1  0
  8  9  1  0
  9 10  2  0
 10 11  1  0
 11 12  1  0
 12 13  2  0
 12 14  1  0
 14 15  1  0
 15 16  1  0
 15 17  1  0
 17 18  1  0
 18 19  2  0
 19 20  1  0
 20 21  2  0
 21 22  1  0
 22 23  2  0
 11 24  2  0
 24 25  1  0
  6 26  1  0
 26 27  1  0
 26 28  2  0
 28  3  1  0
 25  9  1  0
 23 18  1  0
  1 29  1  0
  1 30  1  0
  1 31  1  0
  4 32  1  0
  5 33  1  0
  8 34  1  0
  8 35  1  0
 10 36  1  0
 14 37  1  0
 15 38  1  0
 16 39  1  0
 16 40  1  0
 16 41  1  0
 17 42  1  0
 17 43  1  0
 19 44  1  0
 20 45  1  0
 21 46  1  0
 22 47  1  0
 28 48  1  0
M  END
$$$$
