
     RDKit          3D

 21 21  0  0  0  0  0  0  0  0999 V2000
    3.0792   -0.2788   -0.3713 C   0  0  0  0  0  0  0  0  0  0  0  0
    1.6042   -0.0145   -0.2384 C   0  0  0  0  0  0  0  0  0  0  0  0
    1.1131    1.2517   -0.5683 C   0  0  0  0  0  0  0  0  0  0  0  0
   -0.2412    1.5154   -0.4369 C   0  0  0  0  0  0  0  0  0  0  0  0
   -0.7040    2.7345   -0.8564 O   0  0  0  0  0  0  0  0  0  0  0  0
   -1.1461    0.5707    0.0737 C   0  0  0  0  0  0  0  0  0  0  0  0
   -2.5082    0.9453    0.1747 N   0  0  0  0  0  0  0  0  0  0  0  0
   -0.6956   -0.7448    0.2917 C   0  0  0  0  0  0  0  0  0  0  0  0
   -1.6569   -1.8290    0.7101 C   0  0  0  0  0  0  0  0  0  0  0  0
    0.6940   -1.0100    0.1801 C   0  0  0  0  0  0  0  0  0  0  0  0
    1.3116   -2.5882    0.5773 Cl  0  0  0  0  0  0  0  0  0  0  0  0
    3.6211    0.6199   -0.6857 H   0  0  0  0  0  0  0  0  0  0  0  0
    3.2625   -1.0518   -1.1244 H   0  0  0  0  0  0  0  0  0  0  0  0
    3.5011   -0.5908    0.5895 H   0  0  0  0  0  0  0  0  0  0  0  0
    1.7721    2.0308   -0.9419 H   0  0  0  0  0  0  0  0  0  0  0  0
   -1.6316    2.5643   -1.1092 H   0  0  0  0  0  0  0  0  0  0  0  0
   -2.5935    1.8977    0.5296 H   0  0  0  0  0  0  0  0  0  0  0  0
   -3.0432    0.3229    0.7740 H   0  0  0  0  0  0  0  0  0  0  0  0
   -1.7172   -1.8749    1.8018 H   0  0  0  0  0  0  0  0  0  0  0  0
   -2.6600   -1.6613    0.3060 H   0  0  0  0  0  0  0  0  0  0  0  0
   -1.3614   -2.8093    0.3242 H   0  0  0  0  0  0  0  0  0  0  0  0
  1  2  1  0
  2  3  2  0
  3  4  1  0
  4  5  1  0
  4  6  2  0
  6  7  1  0
  6  8  1  0
  8  9  1  0
  8 10  2  0
 10 11  1  0
 10  2  1  0
  1 12  1  0
  1 13  1  0
  1 14  1  0
  3 15  1  0
  5 16  1  0
  7 17  1  0
  7 18  1  0
  9 19  1  0
  9 20  1  0
  9 21  1  0
M  END
$$$$
