
     RDKit          3D

 26 28  0  0  0  0  0  0  0  0999 V2000
   -4.0360    0.9219   -0.2041 C   0  0  0  0  0  0  0  0  0  0  0  0
   -2.6049    0.5670   -0.0954 C   0  0  0  0  0  0  0  0  0  0  0  0
   -1.7200    1.5607   -0.3829 O   0  0  0  0  0  0  0  0  0  0  0  0
   -0.4716    1.0462   -0.2305 C   0  0  0  0  0  0  0  0  0  0  0  0
    0.7148    1.7436   -0.4337 C   0  0  0  0  0  0  0  0  0  0  0  0
    1.8837    1.0111   -0.2191 C   0  0  0  0  0  0  0  0  0  0  0  0
    3.1026    1.6976   -0.4194 O   0  0  0  0  0  0  0  0  0  0  0  0
    4.3262    1.0695   -0.2355 C   0  0  0  0  0  0  0  0  0  0  0  0
    5.3942    1.6464   -0.4038 O   0  0  0  0  0  0  0  0  0  0  0  0
    4.2926   -0.3439    0.1776 C   0  0  0  0  0  0  0  0  0  0  0  0
    3.1496   -1.0086    0.3715 C   0  0  0  0  0  0  0  0  0  0  0  0
    1.8784   -0.3293    0.1726 C   0  0  0  0  0  0  0  0  0  0  0  0
    0.6581   -0.9945    0.3668 C   0  0  0  0  0  0  0  0  0  0  0  0
   -0.5445   -0.2863    0.1597 C   0  0  0  0  0  0  0  0  0  0  0  0
   -1.9375   -0.5962    0.2509 C   0  0  0  0  0  0  0  0  0  0  0  0
   -2.5371   -1.8988    0.6311 C   0  0  0  0  0  0  0  0  0  0  0  0
   -4.4901    0.9750    0.7901 H   0  0  0  0  0  0  0  0  0  0  0  0
   -4.1703    1.8918   -0.6931 H   0  0  0  0  0  0  0  0  0  0  0  0
   -4.5745    0.1711   -0.7905 H   0  0  0  0  0  0  0  0  0  0  0  0
    0.7224    2.7819   -0.7377 H   0  0  0  0  0  0  0  0  0  0  0  0
    5.2579   -0.8155    0.3156 H   0  0  0  0  0  0  0  0  0  0  0  0
    3.1524   -2.0496    0.6757 H   0  0  0  0  0  0  0  0  0  0  0  0
    0.6285   -2.0362    0.6712 H   0  0  0  0  0  0  0  0  0  0  0  0
   -2.0422   -2.3079    1.5178 H   0  0  0  0  0  0  0  0  0  0  0  0
   -2.4298   -2.6180   -0.1870 H   0  0  0  0  0  0  0  0  0  0  0  0
   -3.6027   -1.7992    0.8604 H   0  0  0  0  0  0  0  0  0  0  0  0
  1  2  1  0
  2  3  1  0
  3  4  1  0
  4  5  2  0
  5  6  1  0
  6  7  1  0
  7  8  1  0
  8  9  2  0
  8 10  1  0
 10 11  2  0
 11 12  1  0
 12 13  1  0
 13 14  2  0
 14 15  1  0
 15 16  1  0
 15  2  2  0
 14  4  1  0
 12  6  2  0
  1 17  1  0
  1 18  1  0
  1 19  1  0
  5 20  1  0
 10 21  1  0
 11 22  1  0
 13 23  1  0
 16 24  1  0
 16 25  1  0
 16 26  1  0
M  END
$$$$
