
     RDKit          3D

 30 31  0  0  0  0  0  0  0  0999 V2000
   -2.7847   -1.5667    0.6278 C   0  0  0  0  0  0  0  0  0  0  0  0
   -3.2717   -0.1151    0.6710 C   0  0  0  0  0  0  0  0  0  0  0  0
   -4.8004   -0.0995    0.7229 C   0  0  0  0  0  0  0  0  0  0  0  0
   -2.8274    0.5348    1.8704 O   0  0  0  0  0  0  0  0  0  0  0  0
   -1.5881    1.0489    1.9144 C   0  0  0  0  0  0  0  0  0  0  0  0
   -1.1082    1.6014    2.8869 O   0  0  0  0  0  0  0  0  0  0  0  0
   -0.8497    0.9141    0.6113 C   0  0  0  0  0  0  0  0  0  0  0  0
    0.4153    0.6016    0.6298 N   0  0  0  0  0  0  0  0  0  0  0  0
    1.0375    0.4524   -0.5755 N   0  0  0  0  0  0  0  0  0  0  0  0
    2.4318    0.2185   -0.5784 C   0  0  0  0  0  0  0  0  0  0  0  0
    3.1304   -0.1757    0.5700 C   0  0  0  0  0  0  0  0  0  0  0  0
    4.4973   -0.4638    0.5171 C   0  0  0  0  0  0  0  0  0  0  0  0
    5.1805   -0.3837   -0.6936 C   0  0  0  0  0  0  0  0  0  0  0  0
    4.4956   -0.0242   -1.8516 C   0  0  0  0  0  0  0  0  0  0  0  0
    3.1289    0.2640   -1.7946 C   0  0  0  0  0  0  0  0  0  0  0  0
   -1.6691    1.0773   -0.6388 C   0  0  0  0  0  0  0  0  0  0  0  0
   -1.2233    1.6236   -1.6344 O   0  0  0  0  0  0  0  0  0  0  0  0
   -2.9086    0.5795   -0.5313 O   0  0  0  0  0  0  0  0  0  0  0  0
   -3.1011   -2.1150    1.5216 H   0  0  0  0  0  0  0  0  0  0  0  0
   -1.6926   -1.6279    0.5904 H   0  0  0  0  0  0  0  0  0  0  0  0
   -3.1604   -2.0817   -0.2628 H   0  0  0  0  0  0  0  0  0  0  0  0
   -5.1699    0.9324    0.7544 H   0  0  0  0  0  0  0  0  0  0  0  0
   -5.2364   -0.5710   -0.1644 H   0  0  0  0  0  0  0  0  0  0  0  0
   -5.1762   -0.6038    1.6197 H   0  0  0  0  0  0  0  0  0  0  0  0
    0.7411    1.0440   -1.3626 H   0  0  0  0  0  0  0  0  0  0  0  0
    2.6119   -0.2546    1.5221 H   0  0  0  0  0  0  0  0  0  0  0  0
    5.0228   -0.7542    1.4228 H   0  0  0  0  0  0  0  0  0  0  0  0
    6.2428   -0.6088   -0.7353 H   0  0  0  0  0  0  0  0  0  0  0  0
    5.0217    0.0269   -2.8010 H   0  0  0  0  0  0  0  0  0  0  0  0
    2.6102    0.5262   -2.7131 H   0  0  0  0  0  0  0  0  0  0  0  0
  1  2  1  0
  2  3  1  0
  2  4  1  0
  4  5  1  0
  5  6  2  0
  5  7  1  0
  7  8  2  3
  8  9  1  0
  9 10  1  0
 10 11  2  0
 11 12  1  0
 12 13  2  0
 13 14  1  0
 14 15  2  0
  7 16  1  0
 16 17  2  0
 16 18  1  0
 18  2  1  0
 15 10  1  0
  1 19  1  0
  1 20  1  0
  1 21  1  0
  3 22  1  0
  3 23  1  0
  3 24  1  0
  9 25  1  0
 11 26  1  0
 12 27  1  0
 13 28  1  0
 14 29  1  0
 15 30  1  0
M  END
$$$$
