
     RDKit          3D

 40 42  0  0  0  0  0  0  0  0999 V2000
   -7.2765    0.1172   -0.7902 C   0  0  0  0  0  0  0  0  0  0  0  0
   -6.4258   -1.1888    0.0682 S   0  0  0  0  0  6  0  0  0  0  0  0
   -7.3861   -1.8482    0.9281 O   0  0  0  0  0  0  0  0  0  0  0  0
   -5.6238   -1.9385   -0.8715 O   0  0  0  0  0  0  0  0  0  0  0  0
   -5.4263   -0.3078    1.1163 N   0  0  0  0  0  0  0  0  0  0  0  0
   -4.0916   -0.0628    0.6834 C   0  0  0  0  0  0  0  0  0  0  0  0
   -3.0967   -1.0169    0.9016 C   0  0  0  0  0  0  0  0  0  0  0  0
   -1.7981   -0.7910    0.4342 C   0  0  0  0  0  0  0  0  0  0  0  0
   -1.4952    0.3957   -0.2477 C   0  0  0  0  0  0  0  0  0  0  0  0
   -0.1264    0.6822   -0.7685 C   0  0  0  0  0  0  0  0  0  0  0  0
   -0.0266    1.3392   -1.7976 O   0  0  0  0  0  0  0  0  0  0  0  0
    0.9092    0.1981    0.0104 N   0  0  0  0  0  0  0  0  0  0  0  0
    2.2929    0.2841   -0.2556 C   0  0  0  0  0  0  0  0  0  0  0  0
    2.8310    0.8162   -1.4304 C   0  0  0  0  0  0  0  0  0  0  0  0
    4.2167    0.8539   -1.6254 C   0  0  0  0  0  0  0  0  0  0  0  0
    5.0722    0.3545   -0.6491 C   0  0  0  0  0  0  0  0  0  0  0  0
    4.5449   -0.1574    0.5378 C   0  0  0  0  0  0  0  0  0  0  0  0
    3.1630   -0.2074    0.7268 C   0  0  0  0  0  0  0  0  0  0  0  0
    5.3234   -0.6382    1.5606 O   0  0  0  0  0  0  0  0  0  0  0  0
    6.6890   -0.2309    1.4105 C   0  0  0  0  0  0  0  0  0  0  0  0
    7.1560   -0.4331   -0.0216 C   0  0  0  0  0  0  0  0  0  0  0  0
    6.4154    0.4033   -0.9173 O   0  0  0  0  0  0  0  0  0  0  0  0
   -2.5082    1.3347   -0.4858 C   0  0  0  0  0  0  0  0  0  0  0  0
   -3.8057    1.1043   -0.0222 C   0  0  0  0  0  0  0  0  0  0  0  0
   -6.5604    0.6759   -1.3942 H   0  0  0  0  0  0  0  0  0  0  0  0
   -7.7661    0.7632   -0.0591 H   0  0  0  0  0  0  0  0  0  0  0  0
   -8.0261   -0.3416   -1.4388 H   0  0  0  0  0  0  0  0  0  0  0  0
   -5.5119   -0.7080    2.0532 H   0  0  0  0  0  0  0  0  0  0  0  0
   -3.3295   -1.9524    1.4039 H   0  0  0  0  0  0  0  0  0  0  0  0
   -1.0508   -1.5677    0.5729 H   0  0  0  0  0  0  0  0  0  0  0  0
    0.6643   -0.2078    0.9036 H   0  0  0  0  0  0  0  0  0  0  0  0
    2.1991    1.2045   -2.2232 H   0  0  0  0  0  0  0  0  0  0  0  0
    4.6212    1.2632   -2.5471 H   0  0  0  0  0  0  0  0  0  0  0  0
    2.7820   -0.6234    1.6549 H   0  0  0  0  0  0  0  0  0  0  0  0
    6.7749    0.8192    1.7166 H   0  0  0  0  0  0  0  0  0  0  0  0
    7.2922   -0.8361    2.0944 H   0  0  0  0  0  0  0  0  0  0  0  0
    7.0368   -1.4764   -0.3395 H   0  0  0  0  0  0  0  0  0  0  0  0
    8.2133   -0.1662   -0.1163 H   0  0  0  0  0  0  0  0  0  0  0  0
   -2.2869    2.2475   -1.0364 H   0  0  0  0  0  0  0  0  0  0  0  0
   -4.5789    1.8438   -0.2084 H   0  0  0  0  0  0  0  0  0  0  0  0
  1  2  1  0
  2  3  2  0
  2  4  2  0
  2  5  1  0
  5  6  1  0
  6  7  2  0
  7  8  1  0
  8  9  2  0
  9 10  1  0
 10 11  2  0
 10 12  1  0
 12 13  1  0
 13 14  2  0
 14 15  1  0
 15 16  2  0
 16 17  1  0
 17 18  2  0
 17 19  1  0
 19 20  1  0
 20 21  1  0
 21 22  1  0
  9 23  1  0
 23 24  2  0
 24  6  1  0
 18 13  1  0
 22 16  1  0
  1 25  1  0
  1 26  1  0
  1 27  1  0
  5 28  1  0
  7 29  1  0
  8 30  1  0
 12 31  1  0
 14 32  1  0
 15 33  1  0
 18 34  1  0
 20 35  1  0
 20 36  1  0
 21 37  1  0
 21 38  1  0
 23 39  1  0
 24 40  1  0
M  END
$$$$
