
     RDKit          3D

 51 53  0  0  0  0  0  0  0  0999 V2000
    8.3286    2.1510    0.4649 C   0  0  0  0  0  0  0  0  0  0  0  0
    7.8433    1.3961   -0.6347 O   0  0  0  0  0  0  0  0  0  0  0  0
    6.6768    0.6935   -0.4577 C   0  0  0  0  0  0  0  0  0  0  0  0
    5.9890    0.5965    0.7559 C   0  0  0  0  0  0  0  0  0  0  0  0
    4.8111   -0.1496    0.8451 C   0  0  0  0  0  0  0  0  0  0  0  0
    4.3048   -0.8162   -0.2757 C   0  0  0  0  0  0  0  0  0  0  0  0
    3.0384   -1.6322   -0.1705 C   0  0  0  0  0  0  0  0  0  0  0  0
    1.7498   -0.8150   -0.1629 C   0  0  0  0  0  0  0  0  0  0  0  0
    1.7137    0.3718   -0.4652 O   0  0  0  0  0  0  0  0  0  0  0  0
    0.6600   -1.5975    0.2036 N   0  0  0  0  0  0  0  0  0  0  0  0
   -0.6829   -1.1905    0.3440 C   0  0  0  0  0  0  0  0  0  0  0  0
   -1.1313    0.1159    0.1604 C   0  0  0  0  0  0  0  0  0  0  0  0
   -2.4870    0.4394    0.3268 C   0  0  0  0  0  0  0  0  0  0  0  0
   -3.4151   -0.5380    0.6807 C   0  0  0  0  0  0  0  0  0  0  0  0
   -4.7929   -0.2943    0.8609 N   0  0  0  0  0  0  0  0  0  0  0  0
   -5.4360    0.9304    0.8349 C   0  0  0  0  0  0  0  0  0  0  0  0
   -4.9179    2.0340    0.7214 O   0  0  0  0  0  0  0  0  0  0  0  0
   -6.9142    0.8634    1.0147 C   0  0  0  0  0  0  0  0  0  0  0  0
   -7.6785   -0.1704    0.4560 C   0  0  0  0  0  0  0  0  0  0  0  0
   -9.0632   -0.1955    0.6471 C   0  0  0  0  0  0  0  0  0  0  0  0
   -9.6806    0.8146    1.3859 C   0  0  0  0  0  0  0  0  0  0  0  0
  -11.5533    0.7763    1.6407 Br  0  0  0  0  0  0  0  0  0  0  0  0
   -8.9300    1.8560    1.9290 C   0  0  0  0  0  0  0  0  0  0  0  0
   -7.5462    1.8831    1.7391 C   0  0  0  0  0  0  0  0  0  0  0  0
   -2.9675   -1.8505    0.8597 C   0  0  0  0  0  0  0  0  0  0  0  0
   -1.6147   -2.1728    0.6962 C   0  0  0  0  0  0  0  0  0  0  0  0
    4.9876   -0.7097   -1.4971 C   0  0  0  0  0  0  0  0  0  0  0  0
    6.1682    0.0387   -1.5967 C   0  0  0  0  0  0  0  0  0  0  0  0
    6.9008    0.1780   -2.7508 O   0  0  0  0  0  0  0  0  0  0  0  0
    6.3142   -0.2830   -3.9589 C   0  0  0  0  0  0  0  0  0  0  0  0
    7.6003    2.9046    0.7823 H   0  0  0  0  0  0  0  0  0  0  0  0
    9.2294    2.6781    0.1363 H   0  0  0  0  0  0  0  0  0  0  0  0
    8.6113    1.4980    1.2967 H   0  0  0  0  0  0  0  0  0  0  0  0
    6.3418    1.0921    1.6536 H   0  0  0  0  0  0  0  0  0  0  0  0
    4.2895   -0.1999    1.7988 H   0  0  0  0  0  0  0  0  0  0  0  0
    3.0880   -2.2295    0.7495 H   0  0  0  0  0  0  0  0  0  0  0  0
    2.9802   -2.3431   -1.0046 H   0  0  0  0  0  0  0  0  0  0  0  0
    0.8429   -2.5766    0.3826 H   0  0  0  0  0  0  0  0  0  0  0  0
   -0.4560    0.9215   -0.1121 H   0  0  0  0  0  0  0  0  0  0  0  0
   -2.7792    1.4730    0.1648 H   0  0  0  0  0  0  0  0  0  0  0  0
   -5.3506   -1.0990    1.1130 H   0  0  0  0  0  0  0  0  0  0  0  0
   -7.2181   -0.9429   -0.1548 H   0  0  0  0  0  0  0  0  0  0  0  0
   -9.6521   -0.9963    0.2073 H   0  0  0  0  0  0  0  0  0  0  0  0
   -9.4083    2.6514    2.4947 H   0  0  0  0  0  0  0  0  0  0  0  0
   -6.9596    2.7001    2.1574 H   0  0  0  0  0  0  0  0  0  0  0  0
   -3.6595   -2.6425    1.1321 H   0  0  0  0  0  0  0  0  0  0  0  0
   -1.3072   -3.2038    0.8487 H   0  0  0  0  0  0  0  0  0  0  0  0
    4.5812   -1.2235   -2.3625 H   0  0  0  0  0  0  0  0  0  0  0  0
    5.3434    0.1908   -4.1385 H   0  0  0  0  0  0  0  0  0  0  0  0
    6.2297   -1.3748   -3.9608 H   0  0  0  0  0  0  0  0  0  0  0  0
    6.9779   -0.0012   -4.7822 H   0  0  0  0  0  0  0  0  0  0  0  0
  1  2  1  0
  2  3  1  0
  3  4  2  0
  4  5  1  0
  5  6  2  0
  6  7  1  0
  7  8  1  0
  8  9  2  0
  8 10  1  0
 10 11  1  0
 11 12  2  0
 12 13  1  0
 13 14  2  0
 14 15  1  0
 15 16  1  0
 16 17  2  0
 16 18  1  0
 18 19  2  0
 19 20  1  0
 20 21  2  0
 21 22  1  0
 21 23  1  0
 23 24  2  0
 14 25  1  0
 25 26  2  0
  6 27  1  0
 27 28  2  0
 28 29  1  0
 29 30  1  0
 28  3  1  0
 26 11  1  0
 24 18  1  0
  1 31  1  0
  1 32  1  0
  1 33  1  0
  4 34  1  0
  5 35  1  0
  7 36  1  0
  7 37  1  0
 10 38  1  0
 12 39  1  0
 13 40  1  0
 15 41  1  0
 19 42  1  0
 20 43  1  0
 23 44  1  0
 24 45  1  0
 25 46  1  0
 26 47  1  0
 27 48  1  0
 30 49  1  0
 30 50  1  0
 30 51  1  0
M  END
$$$$
