
     RDKit          3D

 41 43  0  0  0  0  0  0  0  0999 V2000
   -1.8928   -1.9346   -1.8855 O   0  0  0  0  0  0  0  0  0  0  0  0
   -1.6431   -1.0558   -1.0697 C   0  0  0  0  0  0  0  0  0  0  0  0
   -2.5562   -0.2744   -0.3895 N   0  0  0  0  0  0  0  0  0  0  0  0
   -3.9659   -0.2447   -0.5206 C   0  0  0  0  0  0  0  0  0  0  0  0
   -4.6294   -0.9927   -1.5045 C   0  0  0  0  0  0  0  0  0  0  0  0
   -6.0218   -0.9543   -1.6299 C   0  0  0  0  0  0  0  0  0  0  0  0
   -6.7642   -0.1609   -0.7697 C   0  0  0  0  0  0  0  0  0  0  0  0
   -8.1218   -0.0940   -0.8564 O   0  0  0  0  0  0  0  0  0  0  0  0
   -6.1384    0.5953    0.2110 C   0  0  0  0  0  0  0  0  0  0  0  0
   -4.7391    0.5645    0.3457 C   0  0  0  0  0  0  0  0  0  0  0  0
   -4.1876    1.4179    1.4358 C   0  0  0  0  0  0  0  0  0  0  0  0
   -4.8401    2.0935    2.2112 O   0  0  0  0  0  0  0  0  0  0  0  0
   -2.8415    1.4115    1.5300 O   0  0  0  0  0  0  0  0  0  0  0  0
   -0.2161   -0.7994   -0.7205 C   0  0  0  0  0  0  0  0  0  0  0  0
    0.6791   -1.8733   -0.7257 C   0  0  0  0  0  0  0  0  0  0  0  0
    2.0279   -1.6746   -0.4061 C   0  0  0  0  0  0  0  0  0  0  0  0
    2.5000   -0.3995   -0.0907 C   0  0  0  0  0  0  0  0  0  0  0  0
    3.8369   -0.1134    0.2390 N   0  0  0  0  0  0  0  0  0  0  0  0
    4.9066   -0.9867    0.3352 C   0  0  0  0  0  0  0  0  0  0  0  0
    4.8576   -2.1976    0.1484 O   0  0  0  0  0  0  0  0  0  0  0  0
    6.1422   -0.3125    0.6957 C   0  0  0  0  0  0  0  0  0  0  0  0
    7.4211   -0.7990    0.8910 C   0  0  0  0  0  0  0  0  0  0  0  0
    8.2333    0.3099    1.2278 C   0  0  0  0  0  0  0  0  0  0  0  0
    7.4057    1.4072    1.2191 C   0  0  0  0  0  0  0  0  0  0  0  0
    6.1361    1.0458    0.8990 O   0  0  0  0  0  0  0  0  0  0  0  0
    1.6034    0.6776   -0.1060 C   0  0  0  0  0  0  0  0  0  0  0  0
    0.2535    0.4838   -0.4213 C   0  0  0  0  0  0  0  0  0  0  0  0
   -2.1979    0.3143    0.3613 H   0  0  0  0  0  0  0  0  0  0  0  0
   -4.0857   -1.6217   -2.2035 H   0  0  0  0  0  0  0  0  0  0  0  0
   -6.4970   -1.5495   -2.4041 H   0  0  0  0  0  0  0  0  0  0  0  0
   -8.4208   -0.6785   -1.5730 H   0  0  0  0  0  0  0  0  0  0  0  0
   -6.7468    1.2098    0.8719 H   0  0  0  0  0  0  0  0  0  0  0  0
   -2.6876    2.0070    2.2984 H   0  0  0  0  0  0  0  0  0  0  0  0
    0.3317   -2.8740   -0.9775 H   0  0  0  0  0  0  0  0  0  0  0  0
    2.6816   -2.5416   -0.4207 H   0  0  0  0  0  0  0  0  0  0  0  0
    4.0702    0.8542    0.4362 H   0  0  0  0  0  0  0  0  0  0  0  0
    7.7176   -1.8354    0.7972 H   0  0  0  0  0  0  0  0  0  0  0  0
    9.2916    0.3092    1.4492 H   0  0  0  0  0  0  0  0  0  0  0  0
    7.5596    2.4607    1.4092 H   0  0  0  0  0  0  0  0  0  0  0  0
    1.9449    1.6855    0.1186 H   0  0  0  0  0  0  0  0  0  0  0  0
   -0.4071    1.3460   -0.4560 H   0  0  0  0  0  0  0  0  0  0  0  0
  1  2  2  0
  2  3  1  0
  3  4  1  0
  4  5  2  0
  5  6  1  0
  6  7  2  0
  7  8  1  0
  7  9  1  0
  9 10  2  0
 10 11  1  0
 11 12  2  0
 11 13  1  0
  2 14  1  0
 14 15  2  0
 15 16  1  0
 16 17  2  0
 17 18  1  0
 18 19  1  0
 19 20  2  0
 19 21  1  0
 21 22  2  0
 22 23  1  0
 23 24  2  0
 24 25  1  0
 17 26  1  0
 26 27  2  0
 10  4  1  0
 27 14  1  0
 25 21  1  0
  3 28  1  0
  5 29  1  0
  6 30  1  0
  8 31  1  0
  9 32  1  0
 13 33  1  0
 15 34  1  0
 16 35  1  0
 18 36  1  0
 22 37  1  0
 23 38  1  0
 24 39  1  0
 26 40  1  0
 27 41  1  0
M  END
$$$$
