
     RDKit          3D

 53 56  0  0  0  0  0  0  0  0999 V2000
   -7.2187   -1.9295    1.3175 C   0  0  0  0  0  0  0  0  0  0  0  0
   -7.8245   -1.1263    0.3127 O   0  0  0  0  0  0  0  0  0  0  0  0
   -7.1375   -0.0223   -0.1116 C   0  0  0  0  0  0  0  0  0  0  0  0
   -7.8085    0.7414   -1.0697 C   0  0  0  0  0  0  0  0  0  0  0  0
   -7.2284    1.8953   -1.5922 C   0  0  0  0  0  0  0  0  0  0  0  0
   -5.9657    2.2917   -1.1571 C   0  0  0  0  0  0  0  0  0  0  0  0
   -5.2765    1.5362   -0.1976 C   0  0  0  0  0  0  0  0  0  0  0  0
   -3.9203    2.0086    0.2265 C   0  0  0  0  0  0  0  0  0  0  0  0
   -3.4580    3.0260   -0.2874 O   0  0  0  0  0  0  0  0  0  0  0  0
   -3.1577    1.1913    1.2718 C   0  0  0  0  0  0  0  0  0  0  0  0
   -1.9214    1.7462    1.6987 O   0  0  0  0  0  0  0  0  0  0  0  0
   -0.8001    1.4270    0.9878 C   0  0  0  0  0  0  0  0  0  0  0  0
   -0.7656    0.9825   -0.3314 C   0  0  0  0  0  0  0  0  0  0  0  0
    0.4611    0.7002   -0.9542 C   0  0  0  0  0  0  0  0  0  0  0  0
    1.6780    0.8614   -0.2762 C   0  0  0  0  0  0  0  0  0  0  0  0
    3.0003    0.5727   -0.8699 C   0  0  0  0  0  0  0  0  0  0  0  0
    3.0090    0.0786   -2.2944 C   0  0  0  0  0  0  0  0  0  0  0  0
    4.1117    0.7475   -0.1174 C   0  0  0  0  0  0  0  0  0  0  0  0
    5.5331    0.4787   -0.5730 C   0  0  0  0  0  0  0  0  0  0  0  0
    6.0330   -0.9018   -0.1970 C   0  0  0  0  0  0  0  0  0  0  0  0
    6.6631   -1.1179    1.0374 C   0  0  0  0  0  0  0  0  0  0  0  0
    7.1111   -2.3904    1.3963 C   0  0  0  0  0  0  0  0  0  0  0  0
    6.9350   -3.4634    0.5262 C   0  0  0  0  0  0  0  0  0  0  0  0
    6.3115   -3.2641   -0.7033 C   0  0  0  0  0  0  0  0  0  0  0  0
    5.8622   -1.9916   -1.0631 C   0  0  0  0  0  0  0  0  0  0  0  0
    4.0291    1.2960    1.2689 C   0  0  0  0  0  0  0  0  0  0  0  0
    5.0303    1.5555    1.9296 O   0  0  0  0  0  0  0  0  0  0  0  0
    2.7701    1.5216    1.7947 O   0  0  0  0  0  0  0  0  0  0  0  0
    1.6115    1.3181    1.0346 C   0  0  0  0  0  0  0  0  0  0  0  0
    0.4006    1.6072    1.6682 C   0  0  0  0  0  0  0  0  0  0  0  0
   -5.8698    0.3751    0.3240 C   0  0  0  0  0  0  0  0  0  0  0  0
   -6.2826   -2.3694    0.9581 H   0  0  0  0  0  0  0  0  0  0  0  0
   -7.9049   -2.7497    1.5495 H   0  0  0  0  0  0  0  0  0  0  0  0
   -7.0595   -1.3573    2.2374 H   0  0  0  0  0  0  0  0  0  0  0  0
   -8.7949    0.4336   -1.4101 H   0  0  0  0  0  0  0  0  0  0  0  0
   -7.7595    2.4844   -2.3357 H   0  0  0  0  0  0  0  0  0  0  0  0
   -5.5218    3.1961   -1.5711 H   0  0  0  0  0  0  0  0  0  0  0  0
   -3.0236    0.1601    0.9234 H   0  0  0  0  0  0  0  0  0  0  0  0
   -3.7846    1.1568    2.1702 H   0  0  0  0  0  0  0  0  0  0  0  0
   -1.6703    0.8708   -0.9200 H   0  0  0  0  0  0  0  0  0  0  0  0
    0.4299    0.3607   -1.9862 H   0  0  0  0  0  0  0  0  0  0  0  0
    2.4759   -0.8753   -2.3737 H   0  0  0  0  0  0  0  0  0  0  0  0
    2.5314    0.8086   -2.9576 H   0  0  0  0  0  0  0  0  0  0  0  0
    4.0072   -0.0873   -2.7009 H   0  0  0  0  0  0  0  0  0  0  0  0
    6.2206    1.2337   -0.1681 H   0  0  0  0  0  0  0  0  0  0  0  0
    5.6398    0.6150   -1.6550 H   0  0  0  0  0  0  0  0  0  0  0  0
    6.8107   -0.2927    1.7325 H   0  0  0  0  0  0  0  0  0  0  0  0
    7.5966   -2.5413    2.3570 H   0  0  0  0  0  0  0  0  0  0  0  0
    7.2843   -4.4534    0.8065 H   0  0  0  0  0  0  0  0  0  0  0  0
    6.1754   -4.1005   -1.3837 H   0  0  0  0  0  0  0  0  0  0  0  0
    5.3832   -1.8615   -2.0292 H   0  0  0  0  0  0  0  0  0  0  0  0
    0.3975    1.9711    2.6921 H   0  0  0  0  0  0  0  0  0  0  0  0
   -5.3488   -0.2172    1.0652 H   0  0  0  0  0  0  0  0  0  0  0  0
  1  2  1  0
  2  3  1  0
  3  4  2  0
  4  5  1  0
  5  6  2  0
  6  7  1  0
  7  8  1  0
  8  9  2  0
  8 10  1  0
 10 11  1  0
 11 12  1  0
 12 13  2  0
 13 14  1  0
 14 15  2  0
 15 16  1  0
 16 17  1  0
 16 18  2  0
 18 19  1  0
 19 20  1  0
 20 21  2  0
 21 22  1  0
 22 23  2  0
 23 24  1  0
 24 25  2  0
 18 26  1  0
 26 27  2  0
 26 28  1  0
 28 29  1  0
 29 30  2  0
  7 31  2  0
 31  3  1  0
 30 12  1  0
 29 15  1  0
 25 20  1  0
  1 32  1  0
  1 33  1  0
  1 34  1  0
  4 35  1  0
  5 36  1  0
  6 37  1  0
 10 38  1  0
 10 39  1  0
 13 40  1  0
 14 41  1  0
 17 42  1  0
 17 43  1  0
 17 44  1  0
 19 45  1  0
 19 46  1  0
 21 47  1  0
 22 48  1  0
 23 49  1  0
 24 50  1  0
 25 51  1  0
 30 52  1  0
 31 53  1  0
M  END
$$$$
