
     RDKit          3D

 49 50  0  0  0  0  0  0  0  0999 V2000
    5.9974   -0.5613    1.6617 C   0  0  0  0  0  0  0  0  0  0  0  0
    5.7381    0.5880    0.7062 C   0  0  0  0  0  0  0  0  0  0  0  0
    4.3567    0.6109    0.3247 O   0  0  0  0  0  0  0  0  0  0  0  0
    4.0145   -0.1712   -0.7415 C   0  0  0  0  0  0  0  0  0  0  0  0
    4.8186   -0.8602   -1.3602 O   0  0  0  0  0  0  0  0  0  0  0  0
    2.5868   -0.0914   -1.0889 C   0  0  0  0  0  0  0  0  0  0  0  0
    1.9750   -0.6395   -2.2717 C   0  0  0  0  0  0  0  0  0  0  0  0
    2.6901   -1.3838   -3.3511 C   0  0  0  0  0  0  0  0  0  0  0  0
    0.6206   -0.3466   -2.2218 C   0  0  0  0  0  0  0  0  0  0  0  0
   -0.4645   -0.7006   -3.1847 C   0  0  0  0  0  0  0  0  0  0  0  0
    0.3920    0.3938   -1.0778 N   0  0  0  0  0  0  0  0  0  0  0  0
   -0.8932    1.0131   -0.7253 C   0  0  0  0  0  0  0  0  0  0  0  0
   -1.7954    0.1719    0.1547 C   0  0  0  0  0  0  0  0  0  0  0  0
   -1.4562   -1.1137    0.6019 C   0  0  0  0  0  0  0  0  0  0  0  0
   -2.3252   -1.8359    1.4190 C   0  0  0  0  0  0  0  0  0  0  0  0
   -3.5445   -1.2853    1.8154 C   0  0  0  0  0  0  0  0  0  0  0  0
   -3.9145   -0.0065    1.3914 C   0  0  0  0  0  0  0  0  0  0  0  0
   -5.0725    0.6235    1.7655 O   0  0  0  0  0  0  0  0  0  0  0  0
   -5.9092   -0.0358    2.7066 C   0  0  0  0  0  0  0  0  0  0  0  0
   -3.0461    0.7036    0.5372 C   0  0  0  0  0  0  0  0  0  0  0  0
   -3.3225    1.9743    0.0810 O   0  0  0  0  0  0  0  0  0  0  0  0
   -4.5679    2.0673   -0.6107 C   0  0  0  0  0  0  0  0  0  0  0  0
    1.5649    0.5095   -0.3522 C   0  0  0  0  0  0  0  0  0  0  0  0
    1.6253    1.1836    0.9818 C   0  0  0  0  0  0  0  0  0  0  0  0
    5.3324   -0.4972    2.5292 H   0  0  0  0  0  0  0  0  0  0  0  0
    5.8000   -1.5247    1.1809 H   0  0  0  0  0  0  0  0  0  0  0  0
    7.0341   -0.5505    2.0097 H   0  0  0  0  0  0  0  0  0  0  0  0
    6.3958    0.5399   -0.1694 H   0  0  0  0  0  0  0  0  0  0  0  0
    5.9455    1.5377    1.2105 H   0  0  0  0  0  0  0  0  0  0  0  0
    3.0539   -2.3444   -2.9729 H   0  0  0  0  0  0  0  0  0  0  0  0
    2.0444   -1.5833   -4.2106 H   0  0  0  0  0  0  0  0  0  0  0  0
    3.5427   -0.8029   -3.7169 H   0  0  0  0  0  0  0  0  0  0  0  0
   -0.1805   -1.5518   -3.8101 H   0  0  0  0  0  0  0  0  0  0  0  0
   -0.6798    0.1481   -3.8413 H   0  0  0  0  0  0  0  0  0  0  0  0
   -1.3849   -0.9849   -2.6653 H   0  0  0  0  0  0  0  0  0  0  0  0
   -1.4039    1.2492   -1.6665 H   0  0  0  0  0  0  0  0  0  0  0  0
   -0.6639    1.9679   -0.2379 H   0  0  0  0  0  0  0  0  0  0  0  0
   -0.5101   -1.5753    0.3251 H   0  0  0  0  0  0  0  0  0  0  0  0
   -2.0441   -2.8309    1.7566 H   0  0  0  0  0  0  0  0  0  0  0  0
   -4.1786   -1.8815    2.4627 H   0  0  0  0  0  0  0  0  0  0  0  0
   -6.3089   -0.9676    2.2926 H   0  0  0  0  0  0  0  0  0  0  0  0
   -6.7567    0.6233    2.9185 H   0  0  0  0  0  0  0  0  0  0  0  0
   -5.3822   -0.2134    3.6505 H   0  0  0  0  0  0  0  0  0  0  0  0
   -5.3488    2.4293    0.0644 H   0  0  0  0  0  0  0  0  0  0  0  0
   -4.8679    1.1231   -1.0799 H   0  0  0  0  0  0  0  0  0  0  0  0
   -4.4493    2.8100   -1.4061 H   0  0  0  0  0  0  0  0  0  0  0  0
    2.0631    2.1815    0.8799 H   0  0  0  0  0  0  0  0  0  0  0  0
    2.2350    0.6013    1.6800 H   0  0  0  0  0  0  0  0  0  0  0  0
    0.6445    1.2892    1.4519 H   0  0  0  0  0  0  0  0  0  0  0  0
  1  2  1  0
  2  3  1  0
  3  4  1  0
  4  5  2  0
  4  6  1  0
  6  7  1  0
  7  8  1  0
  7  9  2  0
  9 10  1  0
  9 11  1  0
 11 12  1  0
 12 13  1  0
 13 14  2  0
 14 15  1  0
 15 16  2  0
 16 17  1  0
 17 18  1  0
 18 19  1  0
 17 20  2  0
 20 21  1  0
 21 22  1  0
 11 23  1  0
 23 24  1  0
 23  6  2  0
 20 13  1  0
  1 25  1  0
  1 26  1  0
  1 27  1  0
  2 28  1  0
  2 29  1  0
  8 30  1  0
  8 31  1  0
  8 32  1  0
 10 33  1  0
 10 34  1  0
 10 35  1  0
 12 36  1  0
 12 37  1  0
 14 38  1  0
 15 39  1  0
 16 40  1  0
 19 41  1  0
 19 42  1  0
 19 43  1  0
 22 44  1  0
 22 45  1  0
 22 46  1  0
 24 47  1  0
 24 48  1  0
 24 49  1  0
M  END
$$$$
