
     RDKit          3D

 36 39  0  0  0  0  0  0  0  0999 V2000
   -6.6642   -0.2908    1.5797 C   0  0  0  0  0  0  0  0  0  0  0  0
   -5.3175    0.0270    1.0008 C   0  0  0  0  0  0  0  0  0  0  0  0
   -4.3103    0.2245    1.6663 O   0  0  0  0  0  0  0  0  0  0  0  0
   -5.4246    0.0560   -0.3866 O   0  0  0  0  0  0  0  0  0  0  0  0
   -4.2454    0.3373   -1.0897 C   0  0  0  0  0  0  0  0  0  0  0  0
   -4.2669    1.4222   -1.9635 C   0  0  0  0  0  0  0  0  0  0  0  0
   -3.1338    1.7115   -2.7213 C   0  0  0  0  0  0  0  0  0  0  0  0
   -1.9938    0.9109   -2.6083 C   0  0  0  0  0  0  0  0  0  0  0  0
   -1.9818   -0.1870   -1.7373 C   0  0  0  0  0  0  0  0  0  0  0  0
   -0.7954   -1.0372   -1.6117 C   0  0  0  0  0  0  0  0  0  0  0  0
    0.3459   -0.6912   -0.9996 C   0  0  0  0  0  0  0  0  0  0  0  0
    0.7058    0.8340   -0.2109 S   0  0  0  0  0  0  0  0  0  0  0  0
    2.2619    0.2439    0.2017 C   0  0  0  0  0  0  0  0  0  0  0  0
    3.2978    0.7205    0.8292 N   0  0  0  0  0  0  0  0  0  0  0  0
    4.1790   -0.3507    0.7559 C   0  0  0  0  0  0  0  0  0  0  0  0
    5.6108   -0.2886    1.3813 C   0  0  0  0  0  0  0  0  0  0  0  0
    6.1423    0.7950    2.0544 C   0  0  0  0  0  0  0  0  0  0  0  0
    7.4514    0.4273    2.4500 C   0  0  0  0  0  0  0  0  0  0  0  0
    7.6393   -0.8560    1.9952 C   0  0  0  0  0  0  0  0  0  0  0  0
    6.5320   -1.2987    1.3471 O   0  0  0  0  0  0  0  0  0  0  0  0
    3.7108   -1.4374    0.1083 N   0  0  0  0  0  0  0  0  0  0  0  0
    2.4818   -1.0145   -0.2278 N   0  0  0  0  0  0  0  0  0  0  0  0
    1.4814   -1.6606   -0.9213 C   0  0  0  0  0  0  0  0  0  0  0  0
    1.5679   -2.7930   -1.3601 O   0  0  0  0  0  0  0  0  0  0  0  0
   -3.1226   -0.4845   -0.9856 C   0  0  0  0  0  0  0  0  0  0  0  0
   -6.5915   -0.3190    2.6707 H   0  0  0  0  0  0  0  0  0  0  0  0
   -6.9971   -1.2704    1.2277 H   0  0  0  0  0  0  0  0  0  0  0  0
   -7.3809    0.4847    1.2983 H   0  0  0  0  0  0  0  0  0  0  0  0
   -5.1560    2.0392   -2.0535 H   0  0  0  0  0  0  0  0  0  0  0  0
   -3.1365    2.5596   -3.4015 H   0  0  0  0  0  0  0  0  0  0  0  0
   -1.1187    1.1510   -3.2084 H   0  0  0  0  0  0  0  0  0  0  0  0
   -0.9021   -2.0311   -2.0453 H   0  0  0  0  0  0  0  0  0  0  0  0
    5.6369    1.7341    2.2337 H   0  0  0  0  0  0  0  0  0  0  0  0
    8.1681    1.0224    2.9982 H   0  0  0  0  0  0  0  0  0  0  0  0
    8.4599   -1.5581    2.0474 H   0  0  0  0  0  0  0  0  0  0  0  0
   -3.1339   -1.3380   -0.3133 H   0  0  0  0  0  0  0  0  0  0  0  0
  1  2  1  0
  2  3  2  0
  2  4  1  0
  4  5  1  0
  5  6  2  0
  6  7  1  0
  7  8  2  0
  8  9  1  0
  9 10  1  0
 10 11  2  3
 11 12  1  0
 12 13  1  0
 13 14  2  0
 14 15  1  0
 15 16  1  0
 16 17  2  0
 17 18  1  0
 18 19  2  0
 19 20  1  0
 15 21  2  0
 21 22  1  0
 22 23  1  0
 23 24  2  0
  9 25  2  0
 25  5  1  0
 23 11  1  0
 22 13  1  0
 20 16  1  0
  1 26  1  0
  1 27  1  0
  1 28  1  0
  6 29  1  0
  7 30  1  0
  8 31  1  0
 10 32  1  0
 17 33  1  0
 18 34  1  0
 19 35  1  0
 25 36  1  0
M  END
$$$$
