
     RDKit          3D

 39 41  0  0  0  0  0  0  0  0999 V2000
    4.1414    0.1293   -2.7548 C   0  0  0  0  0  0  0  0  0  0  0  0
    4.7930   -0.0773   -1.3988 C   0  0  0  0  0  0  0  0  0  0  0  0
    4.2786    0.8302   -0.3856 N   0  0  0  0  0  0  0  0  0  0  0  0
    5.0268    1.9122   -0.0659 N   0  0  0  0  0  0  0  0  0  0  0  0
    4.3259    2.5132    0.8946 C   0  0  0  0  0  0  0  0  0  0  0  0
    3.1263    1.8432    1.1560 C   0  0  0  0  0  0  0  0  0  0  0  0
    1.9233    2.3884    2.4840 Br  0  0  0  0  0  0  0  0  0  0  0  0
    3.0782    0.7620    0.2969 C   0  0  0  0  0  0  0  0  0  0  0  0
    2.0820   -0.2741    0.0981 C   0  0  0  0  0  0  0  0  0  0  0  0
    2.4036   -1.3874   -0.2993 O   0  0  0  0  0  0  0  0  0  0  0  0
    0.7883    0.1474    0.3420 N   0  0  0  0  0  0  0  0  0  0  0  0
   -0.3819   -0.5976    0.2648 C   0  0  0  0  0  0  0  0  0  0  0  0
   -0.3440   -2.2914   -0.0091 S   0  0  0  0  0  0  0  0  0  0  0  0
   -2.0044   -2.3773    0.0720 C   0  0  0  0  0  0  0  0  0  0  0  0
   -2.6130   -1.1767    0.3033 C   0  0  0  0  0  0  0  0  0  0  0  0
   -1.6825   -0.1038    0.4148 C   0  0  0  0  0  0  0  0  0  0  0  0
   -1.9778    1.3084    0.6394 C   0  0  0  0  0  0  0  0  0  0  0  0
   -1.1048    2.1686    0.7047 O   0  0  0  0  0  0  0  0  0  0  0  0
   -3.3126    1.5621    0.7620 O   0  0  0  0  0  0  0  0  0  0  0  0
   -3.6279    2.9367    0.9817 C   0  0  0  0  0  0  0  0  0  0  0  0
   -4.0901   -1.3383    0.3598 C   0  0  0  0  0  0  0  0  0  0  0  0
   -4.2546   -2.8867    0.4718 C   0  0  0  0  0  0  0  0  0  0  0  0
   -2.9360   -3.5197   -0.0652 C   0  0  0  0  0  0  0  0  0  0  0  0
    4.2828    1.1566   -3.1068 H   0  0  0  0  0  0  0  0  0  0  0  0
    4.5824   -0.5479   -3.4927 H   0  0  0  0  0  0  0  0  0  0  0  0
    3.0648   -0.0638   -2.7178 H   0  0  0  0  0  0  0  0  0  0  0  0
    5.8730    0.0971   -1.4790 H   0  0  0  0  0  0  0  0  0  0  0  0
    4.6689   -1.1024   -1.0397 H   0  0  0  0  0  0  0  0  0  0  0  0
    4.7259    3.4064    1.3568 H   0  0  0  0  0  0  0  0  0  0  0  0
    0.6513    1.1332    0.5588 H   0  0  0  0  0  0  0  0  0  0  0  0
   -3.1811    3.2881    1.9170 H   0  0  0  0  0  0  0  0  0  0  0  0
   -4.7144    3.0255    1.0636 H   0  0  0  0  0  0  0  0  0  0  0  0
   -3.2932    3.5474    0.1372 H   0  0  0  0  0  0  0  0  0  0  0  0
   -4.5429   -0.8362    1.2192 H   0  0  0  0  0  0  0  0  0  0  0  0
   -4.5503   -0.9702   -0.5634 H   0  0  0  0  0  0  0  0  0  0  0  0
   -5.1388   -3.2504   -0.0609 H   0  0  0  0  0  0  0  0  0  0  0  0
   -4.3738   -3.1559    1.5298 H   0  0  0  0  0  0  0  0  0  0  0  0
   -3.0480   -3.8069   -1.1156 H   0  0  0  0  0  0  0  0  0  0  0  0
   -2.6448   -4.3919    0.5263 H   0  0  0  0  0  0  0  0  0  0  0  0
  1  2  1  0
  2  3  1  0
  3  4  1  0
  4  5  2  0
  5  6  1  0
  6  7  1  0
  6  8  2  0
  8  9  1  0
  9 10  2  0
  9 11  1  0
 11 12  1  0
 12 13  1  0
 13 14  1  0
 14 15  2  0
 15 16  1  0
 16 17  1  0
 17 18  2  0
 17 19  1  0
 19 20  1  0
 15 21  1  0
 21 22  1  0
 22 23  1  0
  8  3  1  0
 16 12  2  0
 23 14  1  0
  1 24  1  0
  1 25  1  0
  1 26  1  0
  2 27  1  0
  2 28  1  0
  5 29  1  0
 11 30  1  0
 20 31  1  0
 20 32  1  0
 20 33  1  0
 21 34  1  0
 21 35  1  0
 22 36  1  0
 22 37  1  0
 23 38  1  0
 23 39  1  0
M  END
$$$$
