
     RDKit          3D

 61 65  0  0  0  0  0  0  0  0999 V2000
    6.3573   -4.1701    2.4275 C   0  0  0  0  0  0  0  0  0  0  0  0
    5.1452   -3.4028    1.9868 C   0  0  0  0  0  0  0  0  0  0  0  0
    4.4433   -3.7826    0.8398 C   0  0  0  0  0  0  0  0  0  0  0  0
    3.3317   -3.0493    0.4123 C   0  0  0  0  0  0  0  0  0  0  0  0
    2.9006   -1.9117    1.1135 C   0  0  0  0  0  0  0  0  0  0  0  0
    1.7319   -1.1418    0.6639 C   0  0  0  0  0  0  0  0  0  0  0  0
    1.8019    0.2341    0.4616 C   0  0  0  0  0  0  0  0  0  0  0  0
    0.6834    0.9653    0.0363 C   0  0  0  0  0  0  0  0  0  0  0  0
    0.7720    2.4187   -0.1388 C   0  0  0  0  0  0  0  0  0  0  0  0
    1.3778    2.9648   -1.2822 C   0  0  0  0  0  0  0  0  0  0  0  0
    1.4666    4.3488   -1.4515 C   0  0  0  0  0  0  0  0  0  0  0  0
    0.9540    5.2160   -0.4823 C   0  0  0  0  0  0  0  0  0  0  0  0
    1.0817    6.7028   -0.6490 C   0  0  0  0  0  0  0  0  0  0  0  0
    0.3814    4.6802    0.6751 C   0  0  0  0  0  0  0  0  0  0  0  0
    0.2922    3.2964    0.8468 C   0  0  0  0  0  0  0  0  0  0  0  0
   -0.5083    0.3330   -0.1959 N   0  0  0  0  0  4  0  0  0  0  0  0
   -1.6570    1.0894   -0.6367 C   0  0  0  0  0  0  0  0  0  0  0  0
   -1.7269    1.4927   -1.9718 C   0  0  0  0  0  0  0  0  0  0  0  0
   -2.8376    2.2225   -2.3893 C   0  0  0  0  0  0  0  0  0  0  0  0
   -3.8519    2.5343   -1.4792 C   0  0  0  0  0  0  0  0  0  0  0  0
   -3.7651    2.1213   -0.1464 C   0  0  0  0  0  0  0  0  0  0  0  0
   -2.6599    1.3923    0.2866 C   0  0  0  0  0  0  0  0  0  0  0  0
   -0.6062   -1.0194   -0.0081 C   0  0  0  0  0  0  0  0  0  0  0  0
   -1.8791   -1.6933   -0.2850 C   0  0  0  0  0  0  0  0  0  0  0  0
   -2.2628   -2.0031   -1.5998 C   0  0  0  0  0  0  0  0  0  0  0  0
   -3.4763   -2.6464   -1.8566 C   0  0  0  0  0  0  0  0  0  0  0  0
   -4.3299   -2.9964   -0.8063 C   0  0  0  0  0  0  0  0  0  0  0  0
   -5.6165   -3.7200   -1.0814 C   0  0  0  0  0  0  0  0  0  0  0  0
   -3.9383   -2.7239    0.5077 C   0  0  0  0  0  0  0  0  0  0  0  0
   -2.7258   -2.0800    0.7667 C   0  0  0  0  0  0  0  0  0  0  0  0
    0.5061   -1.7569    0.4225 C   0  0  0  0  0  0  0  0  0  0  0  0
    3.6234   -1.5308    2.2556 C   0  0  0  0  0  0  0  0  0  0  0  0
    4.7345   -2.2640    2.6845 C   0  0  0  0  0  0  0  0  0  0  0  0
    7.2538   -3.7561    1.9559 H   0  0  0  0  0  0  0  0  0  0  0  0
    6.4748   -4.1230    3.5152 H   0  0  0  0  0  0  0  0  0  0  0  0
    6.2704   -5.2275    2.1562 H   0  0  0  0  0  0  0  0  0  0  0  0
    4.7596   -4.6541    0.2692 H   0  0  0  0  0  0  0  0  0  0  0  0
    2.8174   -3.3767   -0.4890 H   0  0  0  0  0  0  0  0  0  0  0  0
    2.7433    0.7586    0.6344 H   0  0  0  0  0  0  0  0  0  0  0  0
    1.7929    2.3225   -2.0576 H   0  0  0  0  0  0  0  0  0  0  0  0
    1.9442    4.7502   -2.3445 H   0  0  0  0  0  0  0  0  0  0  0  0
    2.0302    7.0464   -0.2248 H   0  0  0  0  0  0  0  0  0  0  0  0
    0.2593    7.2238   -0.1474 H   0  0  0  0  0  0  0  0  0  0  0  0
    1.0447    6.9812   -1.7076 H   0  0  0  0  0  0  0  0  0  0  0  0
    0.0058    5.3424    1.4542 H   0  0  0  0  0  0  0  0  0  0  0  0
   -0.1512    2.9193    1.7669 H   0  0  0  0  0  0  0  0  0  0  0  0
   -0.9455    1.2488   -2.6842 H   0  0  0  0  0  0  0  0  0  0  0  0
   -2.9219    2.5530   -3.4233 H   0  0  0  0  0  0  0  0  0  0  0  0
   -4.7186    3.1049   -1.8119 H   0  0  0  0  0  0  0  0  0  0  0  0
   -4.5650    2.3727    0.5481 H   0  0  0  0  0  0  0  0  0  0  0  0
   -2.5957    1.0791    1.3236 H   0  0  0  0  0  0  0  0  0  0  0  0
   -1.6220   -1.7566   -2.4447 H   0  0  0  0  0  0  0  0  0  0  0  0
   -3.7524   -2.8798   -2.8841 H   0  0  0  0  0  0  0  0  0  0  0  0
   -6.3691   -3.4794   -0.3229 H   0  0  0  0  0  0  0  0  0  0  0  0
   -6.0292   -3.4269   -2.0525 H   0  0  0  0  0  0  0  0  0  0  0  0
   -5.4451   -4.8008   -1.0805 H   0  0  0  0  0  0  0  0  0  0  0  0
   -4.5774   -3.0180    1.3393 H   0  0  0  0  0  0  0  0  0  0  0  0
   -2.4543   -1.8891    1.8040 H   0  0  0  0  0  0  0  0  0  0  0  0
    0.4029   -2.8330    0.5718 H   0  0  0  0  0  0  0  0  0  0  0  0
    3.3276   -0.6606    2.8380 H   0  0  0  0  0  0  0  0  0  0  0  0
    5.2769   -1.9415    3.5716 H   0  0  0  0  0  0  0  0  0  0  0  0
  1  2  1  0
  2  3  2  0
  3  4  1  0
  4  5  2  0
  5  6  1  0
  6  7  2  0
  7  8  1  0
  8  9  1  0
  9 10  2  0
 10 11  1  0
 11 12  2  0
 12 13  1  0
 12 14  1  0
 14 15  2  0
  8 16  2  0
 16 17  1  0
 17 18  2  0
 18 19  1  0
 19 20  2  0
 20 21  1  0
 21 22  2  0
 16 23  1  0
 23 24  1  0
 24 25  2  0
 25 26  1  0
 26 27  2  0
 27 28  1  0
 27 29  1  0
 29 30  2  0
 23 31  2  0
  5 32  1  0
 32 33  2  0
 33  2  1  0
 31  6  1  0
 15  9  1  0
 22 17  1  0
 30 24  1  0
  1 34  1  0
  1 35  1  0
  1 36  1  0
  3 37  1  0
  4 38  1  0
  7 39  1  0
 10 40  1  0
 11 41  1  0
 13 42  1  0
 13 43  1  0
 13 44  1  0
 14 45  1  0
 15 46  1  0
 18 47  1  0
 19 48  1  0
 20 49  1  0
 21 50  1  0
 22 51  1  0
 25 52  1  0
 26 53  1  0
 28 54  1  0
 28 55  1  0
 28 56  1  0
 29 57  1  0
 30 58  1  0
 31 59  1  0
 32 60  1  0
 33 61  1  0
M  CHG  1  16   1
M  END
$$$$
