
     RDKit          3D

 31 32  0  0  0  0  0  0  0  0999 V2000
    3.8958   -1.8209   -1.2614 O   0  0  0  0  0  0  0  0  0  0  0  0
    4.4165   -0.9408   -0.5767 C   0  0  0  0  0  0  0  0  0  0  0  0
    3.7381    0.0719    0.0927 N   0  0  0  0  0  0  0  0  0  0  0  0
    2.3498    0.3063    0.1318 C   0  0  0  0  0  0  0  0  0  0  0  0
    1.4034   -0.4734   -0.5285 C   0  0  0  0  0  0  0  0  0  0  0  0
    0.0377   -0.1685   -0.4327 C   0  0  0  0  0  0  0  0  0  0  0  0
   -0.4138    0.9229    0.3133 C   0  0  0  0  0  0  0  0  0  0  0  0
   -1.7732    1.2389    0.4683 N   0  0  0  0  0  0  0  0  0  0  0  0
   -2.9383    0.4571    0.3773 C   0  0  0  0  0  0  0  0  0  0  0  0
   -2.9478   -0.9254    0.5936 C   0  0  0  0  0  0  0  0  0  0  0  0
   -4.1240   -1.6692    0.4563 C   0  0  0  0  0  0  0  0  0  0  0  0
   -5.3102   -1.0388    0.0909 C   0  0  0  0  0  0  0  0  0  0  0  0
   -5.3199    0.3344   -0.1353 C   0  0  0  0  0  0  0  0  0  0  0  0
   -4.1419    1.0740    0.0050 C   0  0  0  0  0  0  0  0  0  0  0  0
    0.5436    1.6984    0.9771 C   0  0  0  0  0  0  0  0  0  0  0  0
    1.9082    1.3971    0.8868 C   0  0  0  0  0  0  0  0  0  0  0  0
    5.9353   -0.8971   -0.4038 C   0  0  0  0  0  0  0  0  0  0  0  0
    6.3411   -1.0614    1.3196 Cl  0  0  0  0  0  0  0  0  0  0  0  0
    6.5605    0.6420   -1.0382 Cl  0  0  0  0  0  0  0  0  0  0  0  0
    4.3140    0.7205    0.6201 H   0  0  0  0  0  0  0  0  0  0  0  0
    1.6839   -1.3286   -1.1347 H   0  0  0  0  0  0  0  0  0  0  0  0
   -0.6666   -0.7859   -0.9845 H   0  0  0  0  0  0  0  0  0  0  0  0
   -1.9509    2.2168    0.6652 H   0  0  0  0  0  0  0  0  0  0  0  0
   -2.0426   -1.4391    0.9055 H   0  0  0  0  0  0  0  0  0  0  0  0
   -4.1100   -2.7404    0.6392 H   0  0  0  0  0  0  0  0  0  0  0  0
   -6.2239   -1.6169   -0.0175 H   0  0  0  0  0  0  0  0  0  0  0  0
   -6.2413    0.8315   -0.4265 H   0  0  0  0  0  0  0  0  0  0  0  0
   -4.1697    2.1424   -0.1928 H   0  0  0  0  0  0  0  0  0  0  0  0
    0.2334    2.5434    1.5869 H   0  0  0  0  0  0  0  0  0  0  0  0
    2.6124    2.0284    1.4223 H   0  0  0  0  0  0  0  0  0  0  0  0
    6.4005   -1.7193   -0.9545 H   0  0  0  0  0  0  0  0  0  0  0  0
  1  2  2  0
  2  3  1  0
  3  4  1  0
  4  5  2  0
  5  6  1  0
  6  7  2  0
  7  8  1  0
  8  9  1  0
  9 10  2  0
 10 11  1  0
 11 12  2  0
 12 13  1  0
 13 14  2  0
  7 15  1  0
 15 16  2  0
  2 17  1  0
 17 18  1  0
 17 19  1  0
 16  4  1  0
 14  9  1  0
  3 20  1  0
  5 21  1  0
  6 22  1  0
  8 23  1  0
 10 24  1  0
 11 25  1  0
 12 26  1  0
 13 27  1  0
 14 28  1  0
 15 29  1  0
 16 30  1  0
 17 31  1  0
M  END
$$$$
