
     RDKit          3D

 51 54  0  0  0  0  0  0  0  0999 V2000
   -6.9624    1.6062    1.7240 C   0  0  0  0  0  0  0  0  0  0  0  0
   -6.5587    0.2235    1.2109 C   0  0  0  0  0  0  0  0  0  0  0  0
   -5.7343    0.3393   -0.0039 N   0  0  0  0  0  0  0  0  0  0  0  0
   -6.4470    0.1073   -1.2710 C   0  0  0  0  0  0  0  0  0  0  0  0
   -6.4006   -1.3685   -1.6505 C   0  0  0  0  0  0  0  0  0  0  0  0
   -4.3571    0.5325    0.0536 C   0  0  0  0  0  0  0  0  0  0  0  0
   -3.6635    0.6647    1.2798 C   0  0  0  0  0  0  0  0  0  0  0  0
   -2.2721    0.8471    1.3571 C   0  0  0  0  0  0  0  0  0  0  0  0
   -1.5194    0.9245    0.1923 C   0  0  0  0  0  0  0  0  0  0  0  0
   -0.0804    1.1044    0.2056 C   0  0  0  0  0  0  0  0  0  0  0  0
    0.5945    1.1980   -0.9559 C   0  0  0  0  0  0  0  0  0  0  0  0
    2.0062    1.3603   -0.9119 C   0  0  0  0  0  0  0  0  0  0  0  0
    2.8768    0.4379   -0.5378 N   0  0  0  0  0  0  0  0  0  0  0  0
    4.1684    0.9453   -0.5353 C   0  0  0  0  0  0  0  0  0  0  0  0
    5.2967    0.1009   -0.1468 C   0  0  0  0  0  0  0  0  0  0  0  0
    5.1808   -1.2955   -0.2555 C   0  0  0  0  0  0  0  0  0  0  0  0
    6.2301   -2.1439    0.1245 C   0  0  0  0  0  0  0  0  0  0  0  0
    7.4211   -1.6054    0.6117 C   0  0  0  0  0  0  0  0  0  0  0  0
    8.5238   -2.3203    1.0084 O   0  0  0  0  0  0  0  0  0  0  0  0
    8.4734   -3.7329    0.8235 C   0  0  0  0  0  0  0  0  0  0  0  0
    7.5417   -0.2135    0.7266 C   0  0  0  0  0  0  0  0  0  0  0  0
    6.4903    0.6341    0.3554 C   0  0  0  0  0  0  0  0  0  0  0  0
    4.2642    2.2724   -0.9179 C   0  0  0  0  0  0  0  0  0  0  0  0
    2.7077    2.9072   -1.2589 S   0  0  0  0  0  0  0  0  0  0  0  0
   -0.0865    1.0986   -2.2706 C   0  0  0  0  0  0  0  0  0  0  0  0
    0.5198    1.1570   -3.3420 O   0  0  0  0  0  0  0  0  0  0  0  0
   -1.4687    0.9174   -2.2359 O   0  0  0  0  0  0  0  0  0  0  0  0
   -2.1793    0.8254   -1.0244 C   0  0  0  0  0  0  0  0  0  0  0  0
   -3.5622    0.6202   -1.1036 C   0  0  0  0  0  0  0  0  0  0  0  0
   -7.6291    1.5118    2.5922 H   0  0  0  0  0  0  0  0  0  0  0  0
   -7.4964    2.1766    0.9516 H   0  0  0  0  0  0  0  0  0  0  0  0
   -6.0902    2.2000    2.0270 H   0  0  0  0  0  0  0  0  0  0  0  0
   -6.0559   -0.3655    1.9907 H   0  0  0  0  0  0  0  0  0  0  0  0
   -7.4782   -0.3406    0.9870 H   0  0  0  0  0  0  0  0  0  0  0  0
   -6.0629    0.7330   -2.0878 H   0  0  0  0  0  0  0  0  0  0  0  0
   -7.4997    0.4098   -1.1608 H   0  0  0  0  0  0  0  0  0  0  0  0
   -5.3711   -1.7037   -1.8476 H   0  0  0  0  0  0  0  0  0  0  0  0
   -6.9933   -1.5440   -2.5596 H   0  0  0  0  0  0  0  0  0  0  0  0
   -6.8083   -1.9972   -0.8502 H   0  0  0  0  0  0  0  0  0  0  0  0
   -4.1880    0.6238    2.2242 H   0  0  0  0  0  0  0  0  0  0  0  0
   -1.8001    0.9206    2.3350 H   0  0  0  0  0  0  0  0  0  0  0  0
    0.4247    1.1574    1.1658 H   0  0  0  0  0  0  0  0  0  0  0  0
    4.2604   -1.7389   -0.6362 H   0  0  0  0  0  0  0  0  0  0  0  0
    6.0807   -3.2175    0.0231 H   0  0  0  0  0  0  0  0  0  0  0  0
    7.6949   -4.1751    1.4512 H   0  0  0  0  0  0  0  0  0  0  0  0
    8.3294   -3.9854   -0.2341 H   0  0  0  0  0  0  0  0  0  0  0  0
    9.4367   -4.1506    1.1431 H   0  0  0  0  0  0  0  0  0  0  0  0
    8.4647    0.2144    1.1146 H   0  0  0  0  0  0  0  0  0  0  0  0
    6.6250    1.7111    0.4788 H   0  0  0  0  0  0  0  0  0  0  0  0
    5.1413    2.9005   -1.0031 H   0  0  0  0  0  0  0  0  0  0  0  0
   -3.9880    0.5157   -2.1012 H   0  0  0  0  0  0  0  0  0  0  0  0
  1  2  1  0
  2  3  1  0
  3  4  1  0
  4  5  1  0
  3  6  1  0
  6  7  2  0
  7  8  1  0
  8  9  2  0
  9 10  1  0
 10 11  2  0
 11 12  1  0
 12 13  2  0
 13 14  1  0
 14 15  1  0
 15 16  2  0
 16 17  1  0
 17 18  2  0
 18 19  1  0
 19 20  1  0
 18 21  1  0
 21 22  2  0
 14 23  2  0
 23 24  1  0
 11 25  1  0
 25 26  2  0
 25 27  1  0
 27 28  1  0
 28 29  2  0
 29  6  1  0
 28  9  1  0
 24 12  1  0
 22 15  1  0
  1 30  1  0
  1 31  1  0
  1 32  1  0
  2 33  1  0
  2 34  1  0
  4 35  1  0
  4 36  1  0
  5 37  1  0
  5 38  1  0
  5 39  1  0
  7 40  1  0
  8 41  1  0
 10 42  1  0
 16 43  1  0
 17 44  1  0
 20 45  1  0
 20 46  1  0
 20 47  1  0
 21 48  1  0
 22 49  1  0
 23 50  1  0
 29 51  1  0
M  END
$$$$
