
     RDKit          3D

 60 64  0  0  0  0  0  0  0  0999 V2000
   -1.5420    1.6936   -3.8822 C   0  0  0  0  0  0  0  0  0  0  0  0
   -2.1606    0.9118   -2.8148 N   0  0  0  0  0  0  0  0  0  0  0  0
   -3.4121    1.3393   -2.3670 C   0  0  0  0  0  0  0  0  0  0  0  0
   -3.9769    2.3254   -2.8516 O   0  0  0  0  0  0  0  0  0  0  0  0
   -4.0671    0.6170   -1.2271 C   0  0  0  0  0  0  0  0  0  0  0  0
   -4.9317    1.3237   -0.4730 C   0  0  0  0  0  0  0  0  0  0  0  0
   -5.7100    0.8094    0.6586 C   0  0  0  0  0  0  0  0  0  0  0  0
   -7.0654    0.5114    0.4899 C   0  0  0  0  0  0  0  0  0  0  0  0
   -7.8142    0.0114    1.5588 C   0  0  0  0  0  0  0  0  0  0  0  0
   -7.2170   -0.2018    2.8113 C   0  0  0  0  0  0  0  0  0  0  0  0
   -8.0330   -0.7277    3.9674 C   0  0  0  0  0  0  0  0  0  0  0  0
   -7.2838   -1.3742    4.9041 F   0  0  0  0  0  0  0  0  0  0  0  0
   -8.9922   -1.6168    3.5827 F   0  0  0  0  0  0  0  0  0  0  0  0
   -8.6874    0.2640    4.6332 F   0  0  0  0  0  0  0  0  0  0  0  0
   -5.8597    0.1145    2.9766 C   0  0  0  0  0  0  0  0  0  0  0  0
   -5.1110    0.6146    1.9075 C   0  0  0  0  0  0  0  0  0  0  0  0
   -3.7790   -1.0640   -1.0228 S   0  0  0  0  0  0  0  0  0  0  0  0
   -2.0456   -1.1055   -1.3859 C   0  0  0  0  0  0  0  0  0  0  0  0
   -1.3115   -2.1710   -0.8317 C   0  0  0  0  0  0  0  0  0  0  0  0
    0.0435   -2.3226   -1.1085 C   0  0  0  0  0  0  0  0  0  0  0  0
    0.6621   -1.4008   -1.9443 C   0  0  0  0  0  0  0  0  0  0  0  0
    2.0909   -1.5614   -2.2645 C   0  0  0  0  0  0  0  0  0  0  0  0
    2.3834   -2.3165   -3.1863 O   0  0  0  0  0  0  0  0  0  0  0  0
    3.0082   -0.8550   -1.5024 N   0  0  0  0  0  0  0  0  0  0  0  0
    2.6596   -0.0044   -0.3538 C   0  0  0  0  0  0  0  0  0  0  0  0
    3.8723    0.7279    0.2517 C   0  0  0  0  0  0  0  0  0  0  0  0
    4.9404   -0.2333    0.5696 N   0  0  0  0  0  0  0  0  0  0  0  0
    6.0234    0.2934    1.2781 C   0  0  0  0  0  0  0  0  0  0  0  0
    7.0178   -0.5482    1.7820 C   0  0  0  0  0  0  0  0  0  0  0  0
    8.0876   -0.0170    2.5022 C   0  0  0  0  0  0  0  0  0  0  0  0
    8.1449    1.3497    2.7169 C   0  0  0  0  0  0  0  0  0  0  0  0
    7.1212    2.1221    2.2049 C   0  0  0  0  0  0  0  0  0  0  0  0
    6.0760    1.6251    1.5054 N   0  0  0  0  0  0  0  0  0  0  0  0
    5.2498   -1.2407   -0.4663 C   0  0  0  0  0  0  0  0  0  0  0  0
    4.4390   -1.0287   -1.7599 C   0  0  0  0  0  0  0  0  0  0  0  0
   -0.0583   -0.3471   -2.5183 C   0  0  0  0  0  0  0  0  0  0  0  0
   -1.4257   -0.1750   -2.2375 C   0  0  0  0  0  0  0  0  0  0  0  0
   -1.1392    1.0243   -4.6498 H   0  0  0  0  0  0  0  0  0  0  0  0
   -0.7479    2.3153   -3.4559 H   0  0  0  0  0  0  0  0  0  0  0  0
   -2.2587    2.3550   -4.3784 H   0  0  0  0  0  0  0  0  0  0  0  0
   -5.1122    2.3765   -0.6861 H   0  0  0  0  0  0  0  0  0  0  0  0
   -7.5457    0.6597   -0.4754 H   0  0  0  0  0  0  0  0  0  0  0  0
   -8.8685   -0.2175    1.4084 H   0  0  0  0  0  0  0  0  0  0  0  0
   -5.3763   -0.0323    3.9419 H   0  0  0  0  0  0  0  0  0  0  0  0
   -4.0586    0.8471    2.0562 H   0  0  0  0  0  0  0  0  0  0  0  0
   -1.8007   -2.9010   -0.1884 H   0  0  0  0  0  0  0  0  0  0  0  0
    0.6032   -3.1546   -0.6895 H   0  0  0  0  0  0  0  0  0  0  0  0
    1.9049    0.7246   -0.6669 H   0  0  0  0  0  0  0  0  0  0  0  0
    2.2057   -0.6562    0.4033 H   0  0  0  0  0  0  0  0  0  0  0  0
    3.5348    1.2492    1.1565 H   0  0  0  0  0  0  0  0  0  0  0  0
    4.2373    1.4796   -0.4612 H   0  0  0  0  0  0  0  0  0  0  0  0
    6.9562   -1.6215    1.6397 H   0  0  0  0  0  0  0  0  0  0  0  0
    8.8589   -0.6712    2.8966 H   0  0  0  0  0  0  0  0  0  0  0  0
    8.9576    1.7999    3.2742 H   0  0  0  0  0  0  0  0  0  0  0  0
    7.1083    3.1986    2.3475 H   0  0  0  0  0  0  0  0  0  0  0  0
    6.3127   -1.2401   -0.7383 H   0  0  0  0  0  0  0  0  0  0  0  0
    5.0127   -2.2283   -0.0531 H   0  0  0  0  0  0  0  0  0  0  0  0
    4.7786   -0.1168   -2.2660 H   0  0  0  0  0  0  0  0  0  0  0  0
    4.6170   -1.8625   -2.4464 H   0  0  0  0  0  0  0  0  0  0  0  0
    0.4837    0.3293   -3.1725 H   0  0  0  0  0  0  0  0  0  0  0  0
  1  2  1  0
  2  3  1  0
  3  4  2  0
  3  5  1  0
  5  6  2  3
  6  7  1  0
  7  8  2  0
  8  9  1  0
  9 10  2  0
 10 11  1  0
 11 12  1  0
 11 13  1  0
 11 14  1  0
 10 15  1  0
 15 16  2  0
  5 17  1  0
 17 18  1  0
 18 19  2  0
 19 20  1  0
 20 21  2  0
 21 22  1  0
 22 23  2  0
 22 24  1  0
 24 25  1  0
 25 26  1  0
 26 27  1  0
 27 28  1  0
 28 29  2  0
 29 30  1  0
 30 31  2  0
 31 32  1  0
 32 33  2  0
 27 34  1  0
 34 35  1  0
 21 36  1  0
 36 37  2  0
 37  2  1  0
 16  7  1  0
 37 18  1  0
 35 24  1  0
 33 28  1  0
  1 38  1  0
  1 39  1  0
  1 40  1  0
  6 41  1  0
  8 42  1  0
  9 43  1  0
 15 44  1  0
 16 45  1  0
 19 46  1  0
 20 47  1  0
 25 48  1  0
 25 49  1  0
 26 50  1  0
 26 51  1  0
 29 52  1  0
 30 53  1  0
 31 54  1  0
 32 55  1  0
 34 56  1  0
 34 57  1  0
 35 58  1  0
 35 59  1  0
 36 60  1  0
M  END
$$$$
