
     RDKit          3D

 53 56  0  0  0  0  0  0  0  0999 V2000
   -8.6379    0.3684   -1.6033 C   0  0  0  0  0  0  0  0  0  0  0  0
   -7.2149    0.5138   -1.1523 C   0  0  0  0  0  0  0  0  0  0  0  0
   -6.7939   -0.0341    0.0634 C   0  0  0  0  0  0  0  0  0  0  0  0
   -5.4587    0.0712    0.4736 C   0  0  0  0  0  0  0  0  0  0  0  0
   -4.5218    0.7319   -0.3278 C   0  0  0  0  0  0  0  0  0  0  0  0
   -3.1474    0.8621    0.0453 N   0  0  0  0  0  0  0  0  0  0  0  0
   -2.2375    1.1662   -0.9199 N   0  0  0  0  0  0  0  0  0  0  0  0
   -1.0472    0.9991   -0.3397 C   0  0  0  0  0  0  0  0  0  0  0  0
    0.2542    1.1284   -0.9811 C   0  0  0  0  0  0  0  0  0  0  0  0
    0.4102    1.3807   -2.1746 O   0  0  0  0  0  0  0  0  0  0  0  0
    1.3223    0.9597   -0.0781 N   0  0  0  0  0  0  0  0  0  0  0  0
    2.6751    0.9889   -0.6067 C   0  0  0  0  0  0  0  0  0  0  0  0
    3.0867   -0.3788   -1.1565 C   0  0  0  0  0  0  0  0  0  0  0  0
    2.3874   -1.3875   -1.1061 O   0  0  0  0  0  0  0  0  0  0  0  0
    4.3539   -0.3822   -1.7137 N   0  0  0  0  0  0  0  0  0  0  0  0
    4.9654   -1.6065   -2.2011 C   0  0  0  0  0  0  0  0  0  0  0  0
    5.4985   -2.5062   -1.0798 C   0  0  0  0  0  0  0  0  0  0  0  0
    6.5587   -1.8304   -0.2529 C   0  0  0  0  0  0  0  0  0  0  0  0
    6.4180   -1.2355    0.9860 C   0  0  0  0  0  0  0  0  0  0  0  0
    7.6438   -0.6930    1.4683 C   0  0  0  0  0  0  0  0  0  0  0  0
    8.6801   -0.8967    0.5848 C   0  0  0  0  0  0  0  0  0  0  0  0
    8.1747   -1.7390   -0.8147 S   0  0  0  0  0  0  0  0  0  0  0  0
    1.1941    0.6792    1.2883 N   0  0  0  0  0  0  0  0  0  0  0  0
    0.0171    0.5464    1.8344 C   0  0  0  0  0  0  0  0  0  0  0  0
   -0.0552    0.2242    3.2999 C   0  0  0  0  0  0  0  0  0  0  0  0
   -1.1656    0.7202    1.0262 C   0  0  0  0  0  0  0  0  0  0  0  0
   -2.5249    0.7324    1.2938 C   0  0  0  0  0  0  0  0  0  0  0  0
   -3.2399    0.6912    2.5954 C   0  0  0  0  0  0  0  0  0  0  0  0
   -4.9386    1.2433   -1.5681 C   0  0  0  0  0  0  0  0  0  0  0  0
   -6.2724    1.1372   -1.9737 C   0  0  0  0  0  0  0  0  0  0  0  0
   -8.7547   -0.5518   -2.1836 H   0  0  0  0  0  0  0  0  0  0  0  0
   -9.3181    0.3350   -0.7459 H   0  0  0  0  0  0  0  0  0  0  0  0
   -8.9393    1.2192   -2.2234 H   0  0  0  0  0  0  0  0  0  0  0  0
   -7.5032   -0.5622    0.6977 H   0  0  0  0  0  0  0  0  0  0  0  0
   -5.1868   -0.4213    1.3991 H   0  0  0  0  0  0  0  0  0  0  0  0
    3.3654    1.2755    0.1946 H   0  0  0  0  0  0  0  0  0  0  0  0
    2.7432    1.7280   -1.4126 H   0  0  0  0  0  0  0  0  0  0  0  0
    4.9600    0.4159   -1.5672 H   0  0  0  0  0  0  0  0  0  0  0  0
    4.2175   -2.1576   -2.7827 H   0  0  0  0  0  0  0  0  0  0  0  0
    5.7688   -1.3103   -2.8844 H   0  0  0  0  0  0  0  0  0  0  0  0
    5.9017   -3.4275   -1.5182 H   0  0  0  0  0  0  0  0  0  0  0  0
    4.6746   -2.8121   -0.4227 H   0  0  0  0  0  0  0  0  0  0  0  0
    5.4766   -1.1957    1.5231 H   0  0  0  0  0  0  0  0  0  0  0  0
    7.7612   -0.1863    2.4187 H   0  0  0  0  0  0  0  0  0  0  0  0
    9.7138   -0.5986    0.6952 H   0  0  0  0  0  0  0  0  0  0  0  0
   -0.7666   -0.5869    3.4758 H   0  0  0  0  0  0  0  0  0  0  0  0
    0.9264   -0.0890    3.6685 H   0  0  0  0  0  0  0  0  0  0  0  0
   -0.3647    1.1145    3.8537 H   0  0  0  0  0  0  0  0  0  0  0  0
   -3.4570   -0.3406    2.8871 H   0  0  0  0  0  0  0  0  0  0  0  0
   -2.6366    1.1433    3.3875 H   0  0  0  0  0  0  0  0  0  0  0  0
   -4.1682    1.2696    2.5716 H   0  0  0  0  0  0  0  0  0  0  0  0
   -4.2334    1.7395   -2.2343 H   0  0  0  0  0  0  0  0  0  0  0  0
   -6.5650    1.5446   -2.9392 H   0  0  0  0  0  0  0  0  0  0  0  0
  1  2  1  0
  2  3  2  0
  3  4  1  0
  4  5  2  0
  5  6  1  0
  6  7  1  0
  7  8  2  0
  8  9  1  0
  9 10  2  0
  9 11  1  0
 11 12  1  0
 12 13  1  0
 13 14  2  0
 13 15  1  0
 15 16  1  0
 16 17  1  0
 17 18  1  0
 18 19  2  0
 19 20  1  0
 20 21  2  0
 21 22  1  0
 11 23  1  0
 23 24  2  0
 24 25  1  0
 24 26  1  0
 26 27  2  0
 27 28  1  0
  5 29  1  0
 29 30  2  0
 30  2  1  0
 27  6  1  0
 26  8  1  0
 22 18  1  0
  1 31  1  0
  1 32  1  0
  1 33  1  0
  3 34  1  0
  4 35  1  0
 12 36  1  0
 12 37  1  0
 15 38  1  0
 16 39  1  0
 16 40  1  0
 17 41  1  0
 17 42  1  0
 19 43  1  0
 20 44  1  0
 21 45  1  0
 25 46  1  0
 25 47  1  0
 25 48  1  0
 28 49  1  0
 28 50  1  0
 28 51  1  0
 29 52  1  0
 30 53  1  0
M  END
$$$$
