
     RDKit          3D

 37 38  0  0  0  0  0  0  0  0999 V2000
   -5.9214   -0.5256   -0.0809 C   0  0  0  0  0  0  0  0  0  0  0  0
   -5.0529   -0.0695   -1.1656 N   0  0  0  0  0  0  0  0  0  0  0  0
   -5.6203   -0.1680   -2.5099 C   0  0  0  0  0  0  0  0  0  0  0  0
   -3.6657   -0.1271   -1.0013 C   0  0  0  0  0  0  0  0  0  0  0  0
   -3.0679   -0.2937    0.2597 C   0  0  0  0  0  0  0  0  0  0  0  0
   -1.6750   -0.3280    0.4351 C   0  0  0  0  0  0  0  0  0  0  0  0
   -0.8172   -0.1762   -0.6532 C   0  0  0  0  0  0  0  0  0  0  0  0
    0.6452   -0.2282   -0.5220 C   0  0  0  0  0  0  0  0  0  0  0  0
    1.3162    0.3620    0.4806 C   0  0  0  0  0  0  0  0  0  0  0  0
    2.7762    0.3265    0.6226 C   0  0  0  0  0  0  0  0  0  0  0  0
    3.6359    0.4288   -0.4702 C   0  0  0  0  0  0  0  0  0  0  0  0
    5.0118    0.4197   -0.2701 C   0  0  0  0  0  0  0  0  0  0  0  0
    5.5259    0.3265    0.9763 N   0  0  0  0  0  4  0  0  0  0  0  0
    6.9867    0.3064    1.1621 C   0  0  0  0  0  0  0  0  0  0  0  0
    4.7132    0.2335    2.0521 C   0  0  0  0  0  0  0  0  0  0  0  0
    3.3313    0.2410    1.8983 C   0  0  0  0  0  0  0  0  0  0  0  0
   -1.3826   -0.0149   -1.9168 C   0  0  0  0  0  0  0  0  0  0  0  0
   -2.7768    0.0193   -2.0799 C   0  0  0  0  0  0  0  0  0  0  0  0
   -5.7338   -1.5786    0.1564 H   0  0  0  0  0  0  0  0  0  0  0  0
   -6.9795   -0.4313   -0.3501 H   0  0  0  0  0  0  0  0  0  0  0  0
   -5.7856    0.0848    0.8183 H   0  0  0  0  0  0  0  0  0  0  0  0
   -6.7139   -0.1024   -2.4869 H   0  0  0  0  0  0  0  0  0  0  0  0
   -5.2841    0.6597   -3.1435 H   0  0  0  0  0  0  0  0  0  0  0  0
   -5.3562   -1.1223   -2.9789 H   0  0  0  0  0  0  0  0  0  0  0  0
   -3.6754   -0.4030    1.1531 H   0  0  0  0  0  0  0  0  0  0  0  0
   -1.2854   -0.4824    1.4376 H   0  0  0  0  0  0  0  0  0  0  0  0
    1.1562   -0.7763   -1.3094 H   0  0  0  0  0  0  0  0  0  0  0  0
    0.7752    0.9056    1.2540 H   0  0  0  0  0  0  0  0  0  0  0  0
    3.2459    0.5265   -1.4815 H   0  0  0  0  0  0  0  0  0  0  0  0
    5.7085    0.4904   -1.1007 H   0  0  0  0  0  0  0  0  0  0  0  0
    7.4564    0.8981    0.3721 H   0  0  0  0  0  0  0  0  0  0  0  0
    7.3084   -0.7368    1.1115 H   0  0  0  0  0  0  0  0  0  0  0  0
    7.2310    0.7429    2.1340 H   0  0  0  0  0  0  0  0  0  0  0  0
    5.1771    0.1538    3.0313 H   0  0  0  0  0  0  0  0  0  0  0  0
    2.6940    0.1687    2.7782 H   0  0  0  0  0  0  0  0  0  0  0  0
   -0.7548    0.1017   -2.7968 H   0  0  0  0  0  0  0  0  0  0  0  0
   -3.1465    0.1684   -3.0900 H   0  0  0  0  0  0  0  0  0  0  0  0
  1  2  1  0
  2  3  1  0
  2  4  1  0
  4  5  2  0
  5  6  1  0
  6  7  2  0
  7  8  1  0
  8  9  2  3
  9 10  1  0
 10 11  2  0
 11 12  1  0
 12 13  2  0
 13 14  1  0
 13 15  1  0
 15 16  2  0
  7 17  1  0
 17 18  2  0
 18  4  1  0
 16 10  1  0
  1 19  1  0
  1 20  1  0
  1 21  1  0
  3 22  1  0
  3 23  1  0
  3 24  1  0
  5 25  1  0
  6 26  1  0
  8 27  1  0
  9 28  1  0
 11 29  1  0
 12 30  1  0
 14 31  1  0
 14 32  1  0
 14 33  1  0
 15 34  1  0
 16 35  1  0
 17 36  1  0
 18 37  1  0
M  CHG  1  13   1
M  END
$$$$
