
     RDKit          3D

 57 60  0  0  0  0  0  0  0  0999 V2000
   -8.6224    0.7312    2.8611 C   0  0  0  0  0  0  0  0  0  0  0  0
   -8.1961    1.6123    1.6968 C   0  0  0  0  0  0  0  0  0  0  0  0
   -6.8777    1.1729    1.1147 C   0  0  0  0  0  0  0  0  0  0  0  0
   -6.8352    0.2503    0.0668 C   0  0  0  0  0  0  0  0  0  0  0  0
   -5.6083   -0.1680   -0.4604 C   0  0  0  0  0  0  0  0  0  0  0  0
   -4.3843    0.3100    0.0432 C   0  0  0  0  0  0  0  0  0  0  0  0
   -3.1013   -0.1543   -0.5294 C   0  0  0  0  0  0  0  0  0  0  0  0
   -1.9223   -0.2087    0.1927 C   0  0  0  0  0  0  0  0  0  0  0  0
   -0.7657   -0.6535   -0.4500 C   0  0  0  0  0  0  0  0  0  0  0  0
    0.4787   -0.6282    0.3528 C   0  0  0  0  0  0  0  0  0  0  0  0
    0.5015   -1.2591    1.4005 O   0  0  0  0  0  0  0  0  0  0  0  0
    1.4716    0.1726   -0.1779 N   0  0  0  0  0  0  0  0  0  0  0  0
    2.7638    0.3912    0.3402 C   0  0  0  0  0  0  0  0  0  0  0  0
    3.2419   -0.1943    1.5158 C   0  0  0  0  0  0  0  0  0  0  0  0
    4.5437    0.0629    1.9602 C   0  0  0  0  0  0  0  0  0  0  0  0
    5.3762    0.9012    1.2164 C   0  0  0  0  0  0  0  0  0  0  0  0
    7.0172    1.2469    1.7925 S   0  0  0  0  0  6  0  0  0  0  0  0
    7.4993    2.4576    1.1678 O   0  0  0  0  0  0  0  0  0  0  0  0
    7.0097    1.1098    3.2347 O   0  0  0  0  0  0  0  0  0  0  0  0
    7.8984   -0.0459    1.2364 N   0  0  0  0  0  0  0  0  0  0  0  0
    8.1306   -0.3455   -0.1097 C   0  0  0  0  0  0  0  0  0  0  0  0
    9.0365   -1.5245   -0.3239 C   0  0  0  0  0  0  0  0  0  0  0  0
    7.6254    0.2701   -1.0364 O   0  0  0  0  0  0  0  0  0  0  0  0
    4.9069    1.5077    0.0512 C   0  0  0  0  0  0  0  0  0  0  0  0
    3.6053    1.2465   -0.3854 C   0  0  0  0  0  0  0  0  0  0  0  0
   -0.7927   -1.0916   -1.7909 C   0  0  0  0  0  0  0  0  0  0  0  0
    0.3135   -1.6289   -2.5001 C   0  0  0  0  0  0  0  0  0  0  0  0
    0.1905   -2.0249   -3.8302 C   0  0  0  0  0  0  0  0  0  0  0  0
   -1.0348   -1.9000   -4.4677 C   0  0  0  0  0  0  0  0  0  0  0  0
   -2.1304   -1.3920   -3.7663 C   0  0  0  0  0  0  0  0  0  0  0  0
   -2.0354   -0.9940   -2.4394 C   0  0  0  0  0  0  0  0  0  0  0  0
   -3.1419   -0.5344   -1.8320 N   0  0  0  0  0  0  0  0  0  0  0  0
   -4.4476    1.2399    1.0965 C   0  0  0  0  0  0  0  0  0  0  0  0
   -5.6731    1.6622    1.6276 C   0  0  0  0  0  0  0  0  0  0  0  0
   -9.5846    1.0694    3.2589 H   0  0  0  0  0  0  0  0  0  0  0  0
   -8.7325   -0.3129    2.5498 H   0  0  0  0  0  0  0  0  0  0  0  0
   -7.8892    0.7638    3.6737 H   0  0  0  0  0  0  0  0  0  0  0  0
   -8.9680    1.5942    0.9181 H   0  0  0  0  0  0  0  0  0  0  0  0
   -8.1237    2.6554    2.0273 H   0  0  0  0  0  0  0  0  0  0  0  0
   -7.7548   -0.1531   -0.3506 H   0  0  0  0  0  0  0  0  0  0  0  0
   -5.6119   -0.8869   -1.2790 H   0  0  0  0  0  0  0  0  0  0  0  0
   -1.8826    0.0759    1.2393 H   0  0  0  0  0  0  0  0  0  0  0  0
    1.2477    0.6707   -1.0322 H   0  0  0  0  0  0  0  0  0  0  0  0
    2.6219   -0.8536    2.1166 H   0  0  0  0  0  0  0  0  0  0  0  0
    4.8901   -0.3917    2.8855 H   0  0  0  0  0  0  0  0  0  0  0  0
    8.2903   -0.6106    1.9827 H   0  0  0  0  0  0  0  0  0  0  0  0
    9.9900   -1.3570    0.1848 H   0  0  0  0  0  0  0  0  0  0  0  0
    8.5629   -2.4283    0.0679 H   0  0  0  0  0  0  0  0  0  0  0  0
    9.2253   -1.6554   -1.3928 H   0  0  0  0  0  0  0  0  0  0  0  0
    5.5487    2.1701   -0.5270 H   0  0  0  0  0  0  0  0  0  0  0  0
    3.2641    1.7208   -1.3025 H   0  0  0  0  0  0  0  0  0  0  0  0
    1.2784   -1.7633   -2.0145 H   0  0  0  0  0  0  0  0  0  0  0  0
    1.0455   -2.4363   -4.3611 H   0  0  0  0  0  0  0  0  0  0  0  0
   -1.1491   -2.2063   -5.5045 H   0  0  0  0  0  0  0  0  0  0  0  0
   -3.0919   -1.3101   -4.2693 H   0  0  0  0  0  0  0  0  0  0  0  0
   -3.5404    1.6672    1.5173 H   0  0  0  0  0  0  0  0  0  0  0  0
   -5.6777    2.3810    2.4440 H   0  0  0  0  0  0  0  0  0  0  0  0
  1  2  1  0
  2  3  1  0
  3  4  2  0
  4  5  1  0
  5  6  2  0
  6  7  1  0
  7  8  2  0
  8  9  1  0
  9 10  1  0
 10 11  2  0
 10 12  1  0
 12 13  1  0
 13 14  2  0
 14 15  1  0
 15 16  2  0
 16 17  1  0
 17 18  2  0
 17 19  2  0
 17 20  1  0
 20 21  1  0
 21 22  1  0
 21 23  2  0
 16 24  1  0
 24 25  2  0
  9 26  2  0
 26 27  1  0
 27 28  2  0
 28 29  1  0
 29 30  2  0
 30 31  1  0
 31 32  2  0
  6 33  1  0
 33 34  2  0
 34  3  1  0
 32  7  1  0
 25 13  1  0
 31 26  1  0
  1 35  1  0
  1 36  1  0
  1 37  1  0
  2 38  1  0
  2 39  1  0
  4 40  1  0
  5 41  1  0
  8 42  1  0
 12 43  1  0
 14 44  1  0
 15 45  1  0
 20 46  1  0
 22 47  1  0
 22 48  1  0
 22 49  1  0
 24 50  1  0
 25 51  1  0
 27 52  1  0
 28 53  1  0
 29 54  1  0
 30 55  1  0
 33 56  1  0
 34 57  1  0
M  END
$$$$
