
     RDKit          3D

 31 32  0  0  0  0  0  0  0  0999 V2000
    5.2210   -3.2547    0.5219 C   0  0  0  0  0  0  0  0  0  0  0  0
    3.8547   -3.1198    1.7071 S   0  0  0  0  0  0  0  0  0  0  0  0
    2.8158   -1.8869    0.9307 C   0  0  0  0  0  0  0  0  0  0  0  0
    3.3216   -0.8053    0.2066 C   0  0  0  0  0  0  0  0  0  0  0  0
    2.4524    0.1316   -0.3551 C   0  0  0  0  0  0  0  0  0  0  0  0
    1.0718   -0.0011   -0.1937 C   0  0  0  0  0  0  0  0  0  0  0  0
    0.5485   -1.0818    0.5135 C   0  0  0  0  0  0  0  0  0  0  0  0
   -0.8436   -1.2264    0.8005 N   0  0  0  0  0  0  0  0  0  0  0  0
   -2.0193   -0.8728   -0.3513 S   0  0  0  0  0  6  0  0  0  0  0  0
   -3.2380   -1.5016    0.1192 O   0  0  0  0  0  0  0  0  0  0  0  0
   -1.5118   -1.1257   -1.6836 O   0  0  0  0  0  0  0  0  0  0  0  0
   -2.4096    0.8281   -0.3389 C   0  0  0  0  0  0  0  0  0  0  0  0
   -3.4416    1.4199   -1.0436 C   0  0  0  0  0  0  0  0  0  0  0  0
   -3.3780    2.7435   -0.7159 N   0  0  0  0  0  0  0  0  0  0  0  0
   -4.2586    3.7748   -1.2024 C   0  0  0  0  0  0  0  0  0  0  0  0
   -2.3381    2.9157    0.1519 C   0  0  0  0  0  0  0  0  0  0  0  0
   -1.7235    1.7805    0.4006 N   0  0  0  0  0  0  0  0  0  0  0  0
    1.4288   -2.0003    1.1004 C   0  0  0  0  0  0  0  0  0  0  0  0
    5.8609   -2.3701    0.5772 H   0  0  0  0  0  0  0  0  0  0  0  0
    4.8496   -3.3781   -0.4995 H   0  0  0  0  0  0  0  0  0  0  0  0
    5.8280   -4.1288    0.7755 H   0  0  0  0  0  0  0  0  0  0  0  0
    4.3909   -0.6579    0.0841 H   0  0  0  0  0  0  0  0  0  0  0  0
    2.8504    0.9789   -0.9082 H   0  0  0  0  0  0  0  0  0  0  0  0
    0.4329    0.7626   -0.6250 H   0  0  0  0  0  0  0  0  0  0  0  0
   -1.1152   -2.0596    1.3185 H   0  0  0  0  0  0  0  0  0  0  0  0
   -4.1897    1.0045   -1.7057 H   0  0  0  0  0  0  0  0  0  0  0  0
   -4.1672    3.8188   -2.2911 H   0  0  0  0  0  0  0  0  0  0  0  0
   -5.2814    3.5232   -0.9147 H   0  0  0  0  0  0  0  0  0  0  0  0
   -3.9738    4.7350   -0.7646 H   0  0  0  0  0  0  0  0  0  0  0  0
   -2.0715    3.8781    0.5705 H   0  0  0  0  0  0  0  0  0  0  0  0
    1.0334   -2.8242    1.6900 H   0  0  0  0  0  0  0  0  0  0  0  0
  1  2  1  0
  2  3  1  0
  3  4  2  0
  4  5  1  0
  5  6  2  0
  6  7  1  0
  7  8  1  0
  8  9  1  0
  9 10  2  0
  9 11  2  0
  9 12  1  0
 12 13  2  0
 13 14  1  0
 14 15  1  0
 14 16  1  0
 16 17  2  0
  7 18  2  0
 18  3  1  0
 17 12  1  0
  1 19  1  0
  1 20  1  0
  1 21  1  0
  4 22  1  0
  5 23  1  0
  6 24  1  0
  8 25  1  0
 13 26  1  0
 15 27  1  0
 15 28  1  0
 15 29  1  0
 16 30  1  0
 18 31  1  0
M  END
$$$$
