
     RDKit          3D

 36 35  0  0  0  0  0  0  0  0999 V2000
    0.4778   -1.9658    0.2220 C   0  0  0  0  0  0  0  0  0  0  0  0
    1.5921   -1.9319   -0.8124 C   0  0  0  0  0  0  0  0  0  0  0  0
    2.4686   -0.7534   -0.6826 N   0  0  0  0  0  0  0  0  0  0  0  0
    3.5894   -0.9170    0.2608 C   0  0  0  0  0  0  0  0  0  0  0  0
    4.7888   -1.6149   -0.3664 C   0  0  0  0  0  0  0  0  0  0  0  0
    2.3064    0.4332   -1.4313 C   0  0  0  0  0  0  0  0  0  0  0  0
    3.4964    1.6172   -1.6287 S   0  0  0  0  0  0  0  0  0  0  0  0
    0.7417    0.6204   -2.2572 S   0  0  0  0  0  0  0  0  0  0  0  0
   -0.0211    2.3635   -1.4497 S   0  0  0  0  0  0  0  0  0  0  0  0
   -0.6679    1.8125    0.1078 C   0  0  0  0  0  0  0  0  0  0  0  0
    0.3453    1.9178    1.4566 S   0  0  0  0  0  0  0  0  0  0  0  0
   -2.0056    1.3578    0.1312 N   0  0  0  0  0  0  0  0  0  0  0  0
   -2.6165    0.8353    1.3682 C   0  0  0  0  0  0  0  0  0  0  0  0
   -3.2945    1.9252    2.1876 C   0  0  0  0  0  0  0  0  0  0  0  0
   -2.9280    1.4468   -1.0174 C   0  0  0  0  0  0  0  0  0  0  0  0
   -3.0886    0.1176   -1.7411 C   0  0  0  0  0  0  0  0  0  0  0  0
    0.8754   -1.9143    1.2402 H   0  0  0  0  0  0  0  0  0  0  0  0
   -0.0943   -2.8943    0.1275 H   0  0  0  0  0  0  0  0  0  0  0  0
   -0.2173   -1.1341    0.0913 H   0  0  0  0  0  0  0  0  0  0  0  0
    2.2090   -2.8315   -0.7062 H   0  0  0  0  0  0  0  0  0  0  0  0
    1.1690   -1.9831   -1.8199 H   0  0  0  0  0  0  0  0  0  0  0  0
    3.8937    0.0561    0.6582 H   0  0  0  0  0  0  0  0  0  0  0  0
    3.2340   -1.4959    1.1209 H   0  0  0  0  0  0  0  0  0  0  0  0
    5.5988   -1.7011    0.3647 H   0  0  0  0  0  0  0  0  0  0  0  0
    5.1694   -1.0662   -1.2326 H   0  0  0  0  0  0  0  0  0  0  0  0
    4.5307   -2.6237   -0.7032 H   0  0  0  0  0  0  0  0  0  0  0  0
   -1.8637    0.3276    1.9783 H   0  0  0  0  0  0  0  0  0  0  0  0
   -3.3512    0.0681    1.1003 H   0  0  0  0  0  0  0  0  0  0  0  0
   -2.5903    2.7104    2.4779 H   0  0  0  0  0  0  0  0  0  0  0  0
   -3.7241    1.4990    3.0995 H   0  0  0  0  0  0  0  0  0  0  0  0
   -4.1033    2.4000    1.6235 H   0  0  0  0  0  0  0  0  0  0  0  0
   -3.9044    1.7785   -0.6459 H   0  0  0  0  0  0  0  0  0  0  0  0
   -2.6089    2.2144   -1.7254 H   0  0  0  0  0  0  0  0  0  0  0  0
   -3.5099   -0.6477   -1.0821 H   0  0  0  0  0  0  0  0  0  0  0  0
   -2.1331   -0.2596   -2.1117 H   0  0  0  0  0  0  0  0  0  0  0  0
   -3.7637    0.2330   -2.5949 H   0  0  0  0  0  0  0  0  0  0  0  0
  1  2  1  0
  2  3  1  0
  3  4  1  0
  4  5  1  0
  3  6  1  0
  6  7  2  0
  6  8  1  0
  8  9  1  0
  9 10  1  0
 10 11  2  0
 10 12  1  0
 12 13  1  0
 13 14  1  0
 12 15  1  0
 15 16  1  0
  1 17  1  0
  1 18  1  0
  1 19  1  0
  2 20  1  0
  2 21  1  0
  4 22  1  0
  4 23  1  0
  5 24  1  0
  5 25  1  0
  5 26  1  0
 13 27  1  0
 13 28  1  0
 14 29  1  0
 14 30  1  0
 14 31  1  0
 15 32  1  0
 15 33  1  0
 16 34  1  0
 16 35  1  0
 16 36  1  0
M  END
$$$$
