
     RDKit          3D

 39 40  0  0  0  0  0  0  0  0999 V2000
    6.5148   -1.6058    3.3645 C   0  0  0  0  0  0  0  0  0  0  0  0
    5.3356   -1.1768    2.5418 C   0  0  0  0  0  0  0  0  0  0  0  0
    5.3025   -1.4301    1.1656 C   0  0  0  0  0  0  0  0  0  0  0  0
    4.2177   -1.0050    0.3940 C   0  0  0  0  0  0  0  0  0  0  0  0
    3.1569   -0.3088    0.9868 C   0  0  0  0  0  0  0  0  0  0  0  0
    2.0273    0.1226    0.1202 C   0  0  0  0  0  0  0  0  0  0  0  0
    1.9262   -0.1775   -1.0596 O   0  0  0  0  0  0  0  0  0  0  0  0
    1.1619    0.9048    0.8127 O   0  0  0  0  0  0  0  0  0  0  0  0
    0.0085    1.2866    0.0660 C   0  0  0  0  0  0  0  0  0  0  0  0
   -0.9910    0.1401   -0.1148 C   0  0  0  0  0  0  0  0  0  0  0  0
   -1.0612   -0.8171    0.6526 O   0  0  0  0  0  0  0  0  0  0  0  0
   -1.8271    0.2914   -1.2000 N   0  0  0  0  0  0  0  0  0  0  0  0
   -2.7855   -0.7394   -1.5594 C   0  0  0  0  0  0  0  0  0  0  0  0
   -3.6518   -0.3557   -2.7635 C   0  0  0  0  0  0  0  0  0  0  0  0
   -4.4757    0.8157   -2.5107 N   0  0  0  0  0  0  0  0  0  0  0  0
   -5.7693    0.7539   -2.0564 C   0  0  0  0  0  0  0  0  0  0  0  0
   -6.3487   -0.4656   -1.8777 O   0  0  0  0  0  0  0  0  0  0  0  0
   -6.3340    1.9446   -1.8239 C   0  0  0  0  0  0  0  0  0  0  0  0
   -5.2280    3.2429   -2.1614 S   0  0  0  0  0  0  0  0  0  0  0  0
   -3.9519    2.0951   -2.6023 C   0  0  0  0  0  0  0  0  0  0  0  0
   -2.8114    2.4188   -2.8981 O   0  0  0  0  0  0  0  0  0  0  0  0
    3.1929   -0.0448    2.3616 C   0  0  0  0  0  0  0  0  0  0  0  0
    4.2793   -0.4717    3.1313 C   0  0  0  0  0  0  0  0  0  0  0  0
    7.2713   -0.8152    3.3742 H   0  0  0  0  0  0  0  0  0  0  0  0
    6.9622   -2.5194    2.9592 H   0  0  0  0  0  0  0  0  0  0  0  0
    6.2142   -1.8214    4.3952 H   0  0  0  0  0  0  0  0  0  0  0  0
    6.1196   -1.9633    0.6842 H   0  0  0  0  0  0  0  0  0  0  0  0
    4.2049   -1.2185   -0.6732 H   0  0  0  0  0  0  0  0  0  0  0  0
    0.2995    1.7142   -0.9009 H   0  0  0  0  0  0  0  0  0  0  0  0
   -0.5004    2.0748    0.6312 H   0  0  0  0  0  0  0  0  0  0  0  0
   -1.6307    1.0289   -1.8754 H   0  0  0  0  0  0  0  0  0  0  0  0
   -3.4081   -0.9440   -0.6809 H   0  0  0  0  0  0  0  0  0  0  0  0
   -2.2192   -1.6498   -1.7861 H   0  0  0  0  0  0  0  0  0  0  0  0
   -4.2859   -1.1987   -3.0592 H   0  0  0  0  0  0  0  0  0  0  0  0
   -3.0006   -0.1283   -3.6169 H   0  0  0  0  0  0  0  0  0  0  0  0
   -7.2505   -0.3309   -1.5394 H   0  0  0  0  0  0  0  0  0  0  0  0
   -7.3371    2.1185   -1.4637 H   0  0  0  0  0  0  0  0  0  0  0  0
    2.3807    0.4882    2.8495 H   0  0  0  0  0  0  0  0  0  0  0  0
    4.2923   -0.2532    4.1972 H   0  0  0  0  0  0  0  0  0  0  0  0
  1  2  1  0
  2  3  2  0
  3  4  1  0
  4  5  2  0
  5  6  1  0
  6  7  2  0
  6  8  1  0
  8  9  1  0
  9 10  1  0
 10 11  2  0
 10 12  1  0
 12 13  1  0
 13 14  1  0
 14 15  1  0
 15 16  1  0
 16 17  1  0
 16 18  2  0
 18 19  1  0
 19 20  1  0
 20 21  2  0
  5 22  1  0
 22 23  2  0
 23  2  1  0
 20 15  1  0
  1 24  1  0
  1 25  1  0
  1 26  1  0
  3 27  1  0
  4 28  1  0
  9 29  1  0
  9 30  1  0
 12 31  1  0
 13 32  1  0
 13 33  1  0
 14 34  1  0
 14 35  1  0
 17 36  1  0
 18 37  1  0
 22 38  1  0
 23 39  1  0
M  END
$$$$
