
     RDKit          3D

 57 60  0  0  0  0  0  0  0  0999 V2000
   -1.9956    1.0407    3.5895 C   0  0  0  0  0  0  0  0  0  0  0  0
   -1.4110    0.0890    2.5504 C   0  0  0  0  0  0  0  0  0  0  0  0
   -0.7442    0.8488    1.3933 C   0  0  0  0  0  0  0  0  0  0  0  0
   -0.2804   -0.3172    0.0516 S   0  0  0  0  0  0  0  0  0  0  0  0
   -1.8865   -0.7314   -0.5233 C   0  0  0  0  0  0  0  0  0  0  0  0
   -2.5860    0.2757   -0.9556 N   0  0  0  0  0  0  0  0  0  0  0  0
   -3.8612   -0.0558   -1.4052 C   0  0  0  0  0  0  0  0  0  0  0  0
   -4.7813    0.8797   -1.9250 C   0  0  0  0  0  0  0  0  0  0  0  0
   -5.9649    0.2590   -2.2762 C   0  0  0  0  0  0  0  0  0  0  0  0
   -5.9227   -1.4361   -1.9706 S   0  0  0  0  0  0  0  0  0  0  0  0
   -4.3391   -1.3313   -1.3771 C   0  0  0  0  0  0  0  0  0  0  0  0
   -3.5722   -2.4376   -0.8874 C   0  0  0  0  0  0  0  0  0  0  0  0
   -3.9980   -3.5905   -0.8243 O   0  0  0  0  0  0  0  0  0  0  0  0
   -2.2863   -2.0694   -0.4666 N   0  0  0  0  0  0  0  0  0  0  0  0
   -1.4587   -3.1499    0.0813 C   0  0  0  0  0  0  0  0  0  0  0  0
   -0.5058   -3.7614   -0.9270 C   0  0  0  0  0  0  0  0  0  0  0  0
   -0.9880   -4.4880   -2.0267 C   0  0  0  0  0  0  0  0  0  0  0  0
   -0.1049   -5.0983   -2.9231 C   0  0  0  0  0  0  0  0  0  0  0  0
    1.2768   -4.9973   -2.7303 C   0  0  0  0  0  0  0  0  0  0  0  0
    2.1747   -5.6963   -3.6808 C   0  0  0  0  0  0  0  0  0  0  0  0
    1.8285   -6.3115   -4.6728 O   0  0  0  0  0  0  0  0  0  0  0  0
    3.4666   -5.6309   -3.3202 O   0  0  0  0  0  0  0  0  0  0  0  0
    1.7681   -4.2682   -1.6418 C   0  0  0  0  0  0  0  0  0  0  0  0
    0.8831   -3.6587   -0.7470 C   0  0  0  0  0  0  0  0  0  0  0  0
    0.5528    1.5446    1.8384 C   0  0  0  0  0  0  0  0  0  0  0  0
    1.2100    1.1348    2.7929 O   0  0  0  0  0  0  0  0  0  0  0  0
    0.8635    2.6448    1.0500 N   0  0  0  0  0  0  0  0  0  0  0  0
    1.9692    3.5128    1.1838 C   0  0  0  0  0  0  0  0  0  0  0  0
    3.0156    3.3058    2.0794 C   0  0  0  0  0  0  0  0  0  0  0  0
    4.0744    4.2187    2.1597 C   0  0  0  0  0  0  0  0  0  0  0  0
    4.1110    5.3604    1.3467 C   0  0  0  0  0  0  0  0  0  0  0  0
    5.2486    6.3296    1.5094 C   0  0  0  0  0  0  0  0  0  0  0  0
    3.0513    5.5717    0.4544 C   0  0  0  0  0  0  0  0  0  0  0  0
    2.9741    6.9736   -0.5516 Cl  0  0  0  0  0  0  0  0  0  0  0  0
    1.9991    4.6491    0.3650 C   0  0  0  0  0  0  0  0  0  0  0  0
   -2.5030    0.4738    4.3760 H   0  0  0  0  0  0  0  0  0  0  0  0
   -2.7267    1.7142    3.1313 H   0  0  0  0  0  0  0  0  0  0  0  0
   -1.2182    1.6475    4.0645 H   0  0  0  0  0  0  0  0  0  0  0  0
   -2.2342   -0.5330    2.1818 H   0  0  0  0  0  0  0  0  0  0  0  0
   -0.6995   -0.5822    3.0452 H   0  0  0  0  0  0  0  0  0  0  0  0
   -1.4337    1.6058    1.0020 H   0  0  0  0  0  0  0  0  0  0  0  0
   -4.6004    1.9417   -2.0383 H   0  0  0  0  0  0  0  0  0  0  0  0
   -6.8537    0.7108   -2.6968 H   0  0  0  0  0  0  0  0  0  0  0  0
   -2.0911   -3.9557    0.4752 H   0  0  0  0  0  0  0  0  0  0  0  0
   -0.9086   -2.7828    0.9548 H   0  0  0  0  0  0  0  0  0  0  0  0
   -2.0582   -4.6105   -2.1864 H   0  0  0  0  0  0  0  0  0  0  0  0
   -0.5021   -5.6704   -3.7608 H   0  0  0  0  0  0  0  0  0  0  0  0
    3.9282   -6.1559   -4.0081 H   0  0  0  0  0  0  0  0  0  0  0  0
    2.8386   -4.1777   -1.4722 H   0  0  0  0  0  0  0  0  0  0  0  0
    1.2942   -3.1118    0.1004 H   0  0  0  0  0  0  0  0  0  0  0  0
    0.2173    2.8624    0.3007 H   0  0  0  0  0  0  0  0  0  0  0  0
    3.0549    2.4297    2.7189 H   0  0  0  0  0  0  0  0  0  0  0  0
    4.8805    4.0199    2.8648 H   0  0  0  0  0  0  0  0  0  0  0  0
    4.9801    7.0905    2.2462 H   0  0  0  0  0  0  0  0  0  0  0  0
    6.1534    5.8137    1.8540 H   0  0  0  0  0  0  0  0  0  0  0  0
    5.5130    6.8155    0.5664 H   0  0  0  0  0  0  0  0  0  0  0  0
    1.1886    4.8455   -0.3327 H   0  0  0  0  0  0  0  0  0  0  0  0
  1  2  1  0
  2  3  1  0
  3  4  1  0
  4  5  1  0
  5  6  2  0
  6  7  1  0
  7  8  1  0
  8  9  2  0
  9 10  1  0
 10 11  1  0
 11 12  1  0
 12 13  2  0
 12 14  1  0
 14 15  1  0
 15 16  1  0
 16 17  2  0
 17 18  1  0
 18 19  2  0
 19 20  1  0
 20 21  2  0
 20 22  1  0
 19 23  1  0
 23 24  2  0
  3 25  1  0
 25 26  2  0
 25 27  1  0
 27 28  1  0
 28 29  2  0
 29 30  1  0
 30 31  2  0
 31 32  1  0
 31 33  1  0
 33 34  1  0
 33 35  2  0
 14  5  1  0
 24 16  1  0
 35 28  1  0
 11  7  2  0
  1 36  1  0
  1 37  1  0
  1 38  1  0
  2 39  1  0
  2 40  1  0
  3 41  1  0
  8 42  1  0
  9 43  1  0
 15 44  1  0
 15 45  1  0
 17 46  1  0
 18 47  1  0
 22 48  1  0
 23 49  1  0
 24 50  1  0
 27 51  1  0
 29 52  1  0
 30 53  1  0
 32 54  1  0
 32 55  1  0
 32 56  1  0
 35 57  1  0
M  END
$$$$
