
     RDKit          3D

 58 61  0  0  0  0  0  0  0  0999 V2000
   -4.6752    5.9371    0.0029 C   0  0  0  0  0  0  0  0  0  0  0  0
   -3.6517    4.9541   -0.0865 O   0  0  0  0  0  0  0  0  0  0  0  0
   -3.9796    3.6810    0.2931 C   0  0  0  0  0  0  0  0  0  0  0  0
   -5.2273    3.2539    0.7266 C   0  0  0  0  0  0  0  0  0  0  0  0
   -5.4378    1.9185    1.0892 C   0  0  0  0  0  0  0  0  0  0  0  0
   -4.3688    1.0055    1.0082 C   0  0  0  0  0  0  0  0  0  0  0  0
   -4.4092   -0.6664    1.4011 S   0  0  0  0  0  0  0  0  0  0  0  0
   -2.7605   -0.8867    1.0077 C   0  0  0  0  0  0  0  0  0  0  0  0
   -2.1879   -2.2333    1.1362 C   0  0  0  0  0  0  0  0  0  0  0  0
   -2.1299   -3.0501   -0.0052 C   0  0  0  0  0  0  0  0  0  0  0  0
   -1.5849   -4.3305    0.0667 C   0  0  0  0  0  0  0  0  0  0  0  0
   -1.0913   -4.8039    1.2786 C   0  0  0  0  0  0  0  0  0  0  0  0
   -1.1383   -3.9998    2.4214 C   0  0  0  0  0  0  0  0  0  0  0  0
   -1.6826   -2.7113    2.3631 C   0  0  0  0  0  0  0  0  0  0  0  0
   -1.7554   -1.8513    3.4304 O   0  0  0  0  0  0  0  0  0  0  0  0
   -1.2619   -2.3105    4.6807 C   0  0  0  0  0  0  0  0  0  0  0  0
   -2.1743    0.2914    0.5748 C   0  0  0  0  0  0  0  0  0  0  0  0
   -0.7758    0.3449    0.1645 C   0  0  0  0  0  0  0  0  0  0  0  0
   -0.4486    0.5168   -1.1847 C   0  0  0  0  0  0  0  0  0  0  0  0
    0.8910    0.5752   -1.5864 C   0  0  0  0  0  0  0  0  0  0  0  0
    1.9118    0.4634   -0.6414 C   0  0  0  0  0  0  0  0  0  0  0  0
    3.2541    0.5062   -0.8964 O   0  0  0  0  0  0  0  0  0  0  0  0
    3.6575    0.6121   -2.2624 C   0  0  0  0  0  0  0  0  0  0  0  0
    5.1970    0.6264   -2.3483 C   0  0  0  0  0  0  0  0  0  0  0  0
    5.8766   -0.6044   -1.8904 N   0  0  0  0  0  0  0  0  0  0  0  0
    7.3256   -0.3971   -1.8604 C   0  0  0  0  0  0  0  0  0  0  0  0
    5.5523   -1.7627   -2.7213 C   0  0  0  0  0  0  0  0  0  0  0  0
    1.5813    0.2979    0.7061 C   0  0  0  0  0  0  0  0  0  0  0  0
    0.2460    0.2404    1.1114 C   0  0  0  0  0  0  0  0  0  0  0  0
   -3.1030    1.4000    0.5731 C   0  0  0  0  0  0  0  0  0  0  0  0
   -2.9252    2.7630    0.2172 C   0  0  0  0  0  0  0  0  0  0  0  0
   -5.0196    6.0566    1.0354 H   0  0  0  0  0  0  0  0  0  0  0  0
   -5.5080    5.7011   -0.6678 H   0  0  0  0  0  0  0  0  0  0  0  0
   -4.2499    6.8927   -0.3186 H   0  0  0  0  0  0  0  0  0  0  0  0
   -6.0704    3.9331    0.7992 H   0  0  0  0  0  0  0  0  0  0  0  0
   -6.4161    1.5914    1.4304 H   0  0  0  0  0  0  0  0  0  0  0  0
   -2.5101   -2.6845   -0.9564 H   0  0  0  0  0  0  0  0  0  0  0  0
   -1.5434   -4.9547   -0.8219 H   0  0  0  0  0  0  0  0  0  0  0  0
   -0.6633   -5.8017    1.3363 H   0  0  0  0  0  0  0  0  0  0  0  0
   -0.7362   -4.4096    3.3417 H   0  0  0  0  0  0  0  0  0  0  0  0
   -0.1891   -2.5227    4.6277 H   0  0  0  0  0  0  0  0  0  0  0  0
   -1.8229   -3.1830    5.0311 H   0  0  0  0  0  0  0  0  0  0  0  0
   -1.4054   -1.5084    5.4112 H   0  0  0  0  0  0  0  0  0  0  0  0
   -1.2341    0.6041   -1.9318 H   0  0  0  0  0  0  0  0  0  0  0  0
    1.0995    0.7101   -2.6418 H   0  0  0  0  0  0  0  0  0  0  0  0
    3.2455   -0.2115   -2.8557 H   0  0  0  0  0  0  0  0  0  0  0  0
    3.2918    1.5617   -2.6731 H   0  0  0  0  0  0  0  0  0  0  0  0
    5.5415    1.4579   -1.7194 H   0  0  0  0  0  0  0  0  0  0  0  0
    5.4897    0.8549   -3.3812 H   0  0  0  0  0  0  0  0  0  0  0  0
    7.5843    0.4304   -1.1903 H   0  0  0  0  0  0  0  0  0  0  0  0
    7.8345   -1.2847   -1.4679 H   0  0  0  0  0  0  0  0  0  0  0  0
    7.7318   -0.1773   -2.8544 H   0  0  0  0  0  0  0  0  0  0  0  0
    6.1014   -2.6478   -2.3796 H   0  0  0  0  0  0  0  0  0  0  0  0
    5.7972   -1.5954   -3.7763 H   0  0  0  0  0  0  0  0  0  0  0  0
    4.4919   -2.0215   -2.6450 H   0  0  0  0  0  0  0  0  0  0  0  0
    2.3725    0.2108    1.4467 H   0  0  0  0  0  0  0  0  0  0  0  0
    0.0110    0.1123    2.1654 H   0  0  0  0  0  0  0  0  0  0  0  0
   -1.9483    3.1057   -0.1169 H   0  0  0  0  0  0  0  0  0  0  0  0
  1  2  1  0
  2  3  1  0
  3  4  2  0
  4  5  1  0
  5  6  2  0
  6  7  1  0
  7  8  1  0
  8  9  1  0
  9 10  2  0
 10 11  1  0
 11 12  2  0
 12 13  1  0
 13 14  2  0
 14 15  1  0
 15 16  1  0
  8 17  2  0
 17 18  1  0
 18 19  2  0
 19 20  1  0
 20 21  2  0
 21 22  1  0
 22 23  1  0
 23 24  1  0
 24 25  1  0
 25 26  1  0
 25 27  1  0
 21 28  1  0
 28 29  2  0
 17 30  1  0
 30 31  2  0
 31  3  1  0
 30  6  1  0
 14  9  1  0
 29 18  1  0
  1 32  1  0
  1 33  1  0
  1 34  1  0
  4 35  1  0
  5 36  1  0
 10 37  1  0
 11 38  1  0
 12 39  1  0
 13 40  1  0
 16 41  1  0
 16 42  1  0
 16 43  1  0
 19 44  1  0
 20 45  1  0
 23 46  1  0
 23 47  1  0
 24 48  1  0
 24 49  1  0
 26 50  1  0
 26 51  1  0
 26 52  1  0
 27 53  1  0
 27 54  1  0
 27 55  1  0
 28 56  1  0
 29 57  1  0
 31 58  1  0
M  END
$$$$
