
     RDKit          3D

 38 38  0  0  0  0  0  0  0  0999 V2000
    2.8679    0.2792    3.8802 C   0  0  0  0  0  0  0  0  0  0  0  0
    3.1977    0.2394    2.4979 O   0  0  0  0  0  0  0  0  0  0  0  0
    3.3452    1.5448    1.9220 C   0  0  0  0  0  0  0  0  0  0  0  0
    1.9932    2.0865    1.4477 C   0  0  0  0  0  0  0  0  0  0  0  0
    1.4169    1.2404    0.4149 N   0  0  0  0  0  0  0  0  0  0  0  0
    1.7579    1.4072   -0.9102 C   0  0  0  0  0  0  0  0  0  0  0  0
    2.4415    2.3420   -1.3134 O   0  0  0  0  0  0  0  0  0  0  0  0
    1.2877    0.3313   -1.8366 C   0  0  0  0  0  0  0  0  0  0  0  0
    2.2117   -0.0711   -2.8380 C   0  0  0  0  0  0  0  0  0  0  0  0
    2.9553   -0.4326   -3.6541 N   0  0  0  0  0  0  0  0  0  0  0  0
    0.0291   -0.1346   -1.6929 C   0  0  0  0  0  0  0  0  0  0  0  0
   -0.7241   -1.1547   -2.4331 C   0  0  0  0  0  0  0  0  0  0  0  0
   -0.1446   -1.7659   -3.6849 C   0  0  0  0  0  0  0  0  0  0  0  0
   -1.9499   -1.5658   -2.0386 C   0  0  0  0  0  0  0  0  0  0  0  0
   -2.6824   -1.1133   -0.8516 C   0  0  0  0  0  0  0  0  0  0  0  0
   -2.4846   -1.7475    0.3798 C   0  0  0  0  0  0  0  0  0  0  0  0
   -3.1693   -1.3057    1.5132 C   0  0  0  0  0  0  0  0  0  0  0  0
   -4.0518   -0.2299    1.4199 C   0  0  0  0  0  0  0  0  0  0  0  0
   -4.2521    0.4048    0.1943 C   0  0  0  0  0  0  0  0  0  0  0  0
   -3.5692   -0.0356   -0.9408 C   0  0  0  0  0  0  0  0  0  0  0  0
    3.6626    0.7719    4.4484 H   0  0  0  0  0  0  0  0  0  0  0  0
    1.9156    0.7912    4.0421 H   0  0  0  0  0  0  0  0  0  0  0  0
    2.7729   -0.7494    4.2386 H   0  0  0  0  0  0  0  0  0  0  0  0
    4.0249    1.4409    1.0694 H   0  0  0  0  0  0  0  0  0  0  0  0
    3.8139    2.2302    2.6374 H   0  0  0  0  0  0  0  0  0  0  0  0
    1.2690    2.1080    2.2670 H   0  0  0  0  0  0  0  0  0  0  0  0
    2.1123    3.1037    1.0606 H   0  0  0  0  0  0  0  0  0  0  0  0
    1.0767    0.3365    0.7218 H   0  0  0  0  0  0  0  0  0  0  0  0
   -0.5577    0.3289   -0.8976 H   0  0  0  0  0  0  0  0  0  0  0  0
   -0.8468   -2.4529   -4.1715 H   0  0  0  0  0  0  0  0  0  0  0  0
    0.0939   -0.9929   -4.4226 H   0  0  0  0  0  0  0  0  0  0  0  0
    0.7525   -2.3488   -3.4537 H   0  0  0  0  0  0  0  0  0  0  0  0
   -2.4893   -2.3168   -2.6142 H   0  0  0  0  0  0  0  0  0  0  0  0
   -1.7997   -2.5882    0.4619 H   0  0  0  0  0  0  0  0  0  0  0  0
   -3.0175   -1.8030    2.4677 H   0  0  0  0  0  0  0  0  0  0  0  0
   -4.5871    0.1122    2.3021 H   0  0  0  0  0  0  0  0  0  0  0  0
   -4.9415    1.2422    0.1217 H   0  0  0  0  0  0  0  0  0  0  0  0
   -3.7308    0.4674   -1.8914 H   0  0  0  0  0  0  0  0  0  0  0  0
  1  2  1  0
  2  3  1  0
  3  4  1  0
  4  5  1  0
  5  6  1  0
  6  7  2  0
  6  8  1  0
  8  9  1  0
  9 10  3  0
  8 11  2  3
 11 12  1  0
 12 13  1  0
 12 14  2  3
 14 15  1  0
 15 16  2  0
 16 17  1  0
 17 18  2  0
 18 19  1  0
 19 20  2  0
 20 15  1  0
  1 21  1  0
  1 22  1  0
  1 23  1  0
  3 24  1  0
  3 25  1  0
  4 26  1  0
  4 27  1  0
  5 28  1  0
 11 29  1  0
 13 30  1  0
 13 31  1  0
 13 32  1  0
 14 33  1  0
 16 34  1  0
 17 35  1  0
 18 36  1  0
 19 37  1  0
 20 38  1  0
M  END
$$$$
