
     RDKit          3D

 74 80  0  0  0  0  0  0  0  0999 V2000
    2.9771   -0.5734   -1.5878 O   0  0  0  0  0  0  0  0  0  0  0  0
    2.2477   -0.1046   -0.4414 C   0  0  0  0  0  0  0  0  0  0  0  0
    3.1039   -0.1963    0.8413 C   0  0  0  0  0  0  0  0  0  0  0  0
    4.0659    0.9028    0.9253 N   0  0  0  0  0  0  0  0  0  0  0  0
    5.2694    0.9279    0.2576 C   0  0  0  0  0  0  0  0  0  0  0  0
    5.4738    0.0988   -0.7325 N   0  0  0  0  0  0  0  0  0  0  0  0
    6.7048    0.1054   -1.4226 C   0  0  0  0  0  0  0  0  0  0  0  0
    6.8863   -0.8105   -2.4618 C   0  0  0  0  0  0  0  0  0  0  0  0
    8.0860   -0.8466   -3.1777 C   0  0  0  0  0  0  0  0  0  0  0  0
    9.1187    0.0379   -2.8598 C   0  0  0  0  0  0  0  0  0  0  0  0
    8.9597    0.9613   -1.8250 C   0  0  0  0  0  0  0  0  0  0  0  0
    7.7556    0.9841   -1.1156 C   0  0  0  0  0  0  0  0  0  0  0  0
    7.5128    1.8753   -0.0569 N   0  0  0  0  0  0  0  0  0  0  0  0
    8.3240    2.8494    0.4756 C   0  0  0  0  0  0  0  0  0  0  0  0
    7.6417    3.4622    1.5051 C   0  0  0  0  0  0  0  0  0  0  0  0
    6.3727    2.8419    1.5987 C   0  0  0  0  0  0  0  0  0  0  0  0
    6.3150    1.8622    0.6234 C   0  0  0  0  0  0  0  0  0  0  0  0
    0.9719   -0.9709   -0.3384 C   0  0  0  0  0  0  0  0  0  0  0  0
    0.0423   -0.6002    0.7428 N   0  0  0  0  0  0  0  0  0  0  0  0
   -0.6812    0.6633    0.4812 C   0  0  0  0  0  0  0  0  0  0  0  0
   -2.1174    0.4721   -0.0615 C   0  0  0  0  0  0  0  0  0  0  0  0
   -3.0060   -0.2833    0.8517 N   0  0  0  0  0  0  0  0  0  0  0  0
   -4.1516   -0.9055    0.1274 C   0  0  0  0  0  0  0  0  0  0  0  0
   -4.9512    0.1090   -0.7090 C   0  0  0  0  0  0  0  0  0  0  0  0
   -4.7283    0.0991   -2.1081 C   0  0  0  0  0  0  0  0  0  0  0  0
   -5.3588    1.0032   -2.9624 C   0  0  0  0  0  0  0  0  0  0  0  0
   -6.2340    1.9416   -2.4418 C   0  0  0  0  0  0  0  0  0  0  0  0
   -6.4845    1.9610   -1.0719 C   0  0  0  0  0  0  0  0  0  0  0  0
   -5.8599    1.0538   -0.1826 C   0  0  0  0  0  0  0  0  0  0  0  0
   -6.3114    1.1692    1.2627 C   0  0  0  0  0  0  0  0  0  0  0  0
   -5.6647    0.3299    2.3611 C   0  0  0  0  0  0  0  0  0  0  0  0
   -5.7832   -1.1486    2.0959 C   0  0  0  0  0  0  0  0  0  0  0  0
   -6.6080   -1.9479    2.9034 C   0  0  0  0  0  0  0  0  0  0  0  0
   -6.7475   -3.3121    2.6459 C   0  0  0  0  0  0  0  0  0  0  0  0
   -6.0711   -3.8911    1.5767 C   0  0  0  0  0  0  0  0  0  0  0  0
   -5.2481   -3.1074    0.7680 C   0  0  0  0  0  0  0  0  0  0  0  0
   -5.0854   -1.7310    1.0201 C   0  0  0  0  0  0  0  0  0  0  0  0
   -2.2174   -1.2378    1.6633 C   0  0  0  0  0  0  0  0  0  0  0  0
   -0.9102   -1.7057    0.9910 C   0  0  0  0  0  0  0  0  0  0  0  0
    3.9105   -0.2959   -1.4492 H   0  0  0  0  0  0  0  0  0  0  0  0
    1.9873    0.9396   -0.6458 H   0  0  0  0  0  0  0  0  0  0  0  0
    3.6317   -1.1562    0.8939 H   0  0  0  0  0  0  0  0  0  0  0  0
    2.4653   -0.1260    1.7281 H   0  0  0  0  0  0  0  0  0  0  0  0
    4.0527    1.3893    1.8127 H   0  0  0  0  0  0  0  0  0  0  0  0
    6.0851   -1.5020   -2.7138 H   0  0  0  0  0  0  0  0  0  0  0  0
    8.2125   -1.5646   -3.9849 H   0  0  0  0  0  0  0  0  0  0  0  0
   10.0483    0.0053   -3.4227 H   0  0  0  0  0  0  0  0  0  0  0  0
    9.7764    1.6381   -1.5964 H   0  0  0  0  0  0  0  0  0  0  0  0
    9.3164    3.0377    0.0913 H   0  0  0  0  0  0  0  0  0  0  0  0
    8.0179    4.2710    2.1184 H   0  0  0  0  0  0  0  0  0  0  0  0
    5.5873    3.0926    2.2999 H   0  0  0  0  0  0  0  0  0  0  0  0
    0.4546   -0.9757   -1.3071 H   0  0  0  0  0  0  0  0  0  0  0  0
    1.3048   -2.0073   -0.1859 H   0  0  0  0  0  0  0  0  0  0  0  0
   -0.1273    1.3171   -0.2007 H   0  0  0  0  0  0  0  0  0  0  0  0
   -0.7395    1.2130    1.4295 H   0  0  0  0  0  0  0  0  0  0  0  0
   -2.5495    1.4624   -0.2437 H   0  0  0  0  0  0  0  0  0  0  0  0
   -2.0302   -0.0360   -1.0305 H   0  0  0  0  0  0  0  0  0  0  0  0
   -3.7087   -1.6231   -0.5787 H   0  0  0  0  0  0  0  0  0  0  0  0
   -4.0408   -0.6216   -2.5460 H   0  0  0  0  0  0  0  0  0  0  0  0
   -5.1632    0.9723   -4.0298 H   0  0  0  0  0  0  0  0  0  0  0  0
   -6.7313    2.6518   -3.0972 H   0  0  0  0  0  0  0  0  0  0  0  0
   -7.1927    2.6943   -0.6881 H   0  0  0  0  0  0  0  0  0  0  0  0
   -6.2023    2.2231    1.5589 H   0  0  0  0  0  0  0  0  0  0  0  0
   -7.3908    0.9527    1.2701 H   0  0  0  0  0  0  0  0  0  0  0  0
   -6.1641    0.5691    3.3095 H   0  0  0  0  0  0  0  0  0  0  0  0
   -4.6211    0.6169    2.5202 H   0  0  0  0  0  0  0  0  0  0  0  0
   -7.1557   -1.5099    3.7351 H   0  0  0  0  0  0  0  0  0  0  0  0
   -7.3885   -3.9209    3.2773 H   0  0  0  0  0  0  0  0  0  0  0  0
   -6.1839   -4.9532    1.3733 H   0  0  0  0  0  0  0  0  0  0  0  0
   -4.7295   -3.5805   -0.0630 H   0  0  0  0  0  0  0  0  0  0  0  0
   -1.9609   -0.7291    2.6024 H   0  0  0  0  0  0  0  0  0  0  0  0
   -2.7883   -2.1185    1.9721 H   0  0  0  0  0  0  0  0  0  0  0  0
   -0.4207   -2.4440    1.6368 H   0  0  0  0  0  0  0  0  0  0  0  0
   -1.1710   -2.2201    0.0561 H   0  0  0  0  0  0  0  0  0  0  0  0
  1  2  1  0
  2  3  1  0
  3  4  1  0
  4  5  1  0
  5  6  2  0
  6  7  1  0
  7  8  2  0
  8  9  1  0
  9 10  2  0
 10 11  1  0
 11 12  2  0
 12 13  1  0
 13 14  1  0
 14 15  2  0
 15 16  1  0
 16 17  2  0
  2 18  1  0
 18 19  1  0
 19 20  1  0
 20 21  1  0
 21 22  1  0
 22 23  1  0
 23 24  1  0
 24 25  2  0
 25 26  1  0
 26 27  2  0
 27 28  1  0
 28 29  2  0
 29 30  1  0
 30 31  1  0
 31 32  1  0
 32 33  2  0
 33 34  1  0
 34 35  2  0
 35 36  1  0
 36 37  2  0
 22 38  1  0
 38 39  1  0
 17  5  1  0
 39 19  1  0
 12  7  1  0
 17 13  1  0
 37 23  1  0
 29 24  1  0
 37 32  1  0
  1 40  1  0
  2 41  1  0
  3 42  1  0
  3 43  1  0
  4 44  1  0
  8 45  1  0
  9 46  1  0
 10 47  1  0
 11 48  1  0
 14 49  1  0
 15 50  1  0
 16 51  1  0
 18 52  1  0
 18 53  1  0
 20 54  1  0
 20 55  1  0
 21 56  1  0
 21 57  1  0
 23 58  1  0
 25 59  1  0
 26 60  1  0
 27 61  1  0
 28 62  1  0
 30 63  1  0
 30 64  1  0
 31 65  1  0
 31 66  1  0
 33 67  1  0
 34 68  1  0
 35 69  1  0
 36 70  1  0
 38 71  1  0
 38 72  1  0
 39 73  1  0
 39 74  1  0
M  END
$$$$
