
     RDKit          3D

 36 38  0  0  0  0  0  0  0  0999 V2000
   -3.7226    0.7506   -2.6038 C   0  0  0  0  0  0  0  0  0  0  0  0
   -2.7846    0.3875   -1.4957 C   0  0  0  0  0  0  0  0  0  0  0  0
   -1.4648    0.5672   -1.7095 N   0  0  0  0  0  0  0  0  0  0  0  0
   -0.6426    0.2390   -0.6809 C   0  0  0  0  0  0  0  0  0  0  0  0
    1.1049    0.4892   -0.9799 S   0  0  0  0  0  6  0  0  0  0  0  0
    1.3252    1.9220   -1.1165 O   0  0  0  0  0  0  0  0  0  0  0  0
    1.5090   -0.4433   -2.0226 O   0  0  0  0  0  0  0  0  0  0  0  0
    1.8511   -0.0413    0.5559 C   0  0  0  0  0  0  0  0  0  0  0  0
    3.3513    0.1069    0.4691 C   0  0  0  0  0  0  0  0  0  0  0  0
    4.1447   -0.9472   -0.0087 C   0  0  0  0  0  0  0  0  0  0  0  0
    5.5322   -0.8086   -0.0916 C   0  0  0  0  0  0  0  0  0  0  0  0
    6.1340    0.3848    0.2999 C   0  0  0  0  0  0  0  0  0  0  0  0
    7.8433    0.5541    0.1997 Cl  0  0  0  0  0  0  0  0  0  0  0  0
    5.3598    1.4427    0.7699 C   0  0  0  0  0  0  0  0  0  0  0  0
    3.9723    1.3052    0.8532 C   0  0  0  0  0  0  0  0  0  0  0  0
   -0.9775   -0.2439    0.5353 N   0  0  0  0  0  0  0  0  0  0  0  0
   -2.2961   -0.4069    0.6751 C   0  0  0  0  0  0  0  0  0  0  0  0
   -3.2375   -0.1146   -0.2986 C   0  0  0  0  0  0  0  0  0  0  0  0
   -4.6220   -0.3709    0.1905 C   0  0  0  0  0  0  0  0  0  0  0  0
   -4.3460   -1.2779    1.4003 C   0  0  0  0  0  0  0  0  0  0  0  0
   -2.9618   -0.8863    1.9348 C   0  0  0  0  0  0  0  0  0  0  0  0
   -3.1750    1.1599   -3.4590 H   0  0  0  0  0  0  0  0  0  0  0  0
   -4.2690   -0.1348   -2.9428 H   0  0  0  0  0  0  0  0  0  0  0  0
   -4.4367    1.5077   -2.2650 H   0  0  0  0  0  0  0  0  0  0  0  0
    1.4539    0.5740    1.3695 H   0  0  0  0  0  0  0  0  0  0  0  0
    1.5812   -1.0871    0.7338 H   0  0  0  0  0  0  0  0  0  0  0  0
    3.6882   -1.8808   -0.3337 H   0  0  0  0  0  0  0  0  0  0  0  0
    6.1341   -1.6308   -0.4689 H   0  0  0  0  0  0  0  0  0  0  0  0
    5.8273    2.3781    1.0653 H   0  0  0  0  0  0  0  0  0  0  0  0
    3.3798    2.1472    1.2077 H   0  0  0  0  0  0  0  0  0  0  0  0
   -5.0944    0.5669    0.5000 H   0  0  0  0  0  0  0  0  0  0  0  0
   -5.2460   -0.8793   -0.5495 H   0  0  0  0  0  0  0  0  0  0  0  0
   -5.1260   -1.2047    2.1645 H   0  0  0  0  0  0  0  0  0  0  0  0
   -4.3190   -2.3245    1.0655 H   0  0  0  0  0  0  0  0  0  0  0  0
   -3.0308   -0.0641    2.6541 H   0  0  0  0  0  0  0  0  0  0  0  0
   -2.4399   -1.7360    2.3826 H   0  0  0  0  0  0  0  0  0  0  0  0
  1  2  1  0
  2  3  2  0
  3  4  1  0
  4  5  1  0
  5  6  2  0
  5  7  2  0
  5  8  1  0
  8  9  1  0
  9 10  2  0
 10 11  1  0
 11 12  2  0
 12 13  1  0
 12 14  1  0
 14 15  2  0
  4 16  2  0
 16 17  1  0
 17 18  2  0
 18 19  1  0
 19 20  1  0
 20 21  1  0
 18  2  1  0
 15  9  1  0
 21 17  1  0
  1 22  1  0
  1 23  1  0
  1 24  1  0
  8 25  1  0
  8 26  1  0
 10 27  1  0
 11 28  1  0
 14 29  1  0
 15 30  1  0
 19 31  1  0
 19 32  1  0
 20 33  1  0
 20 34  1  0
 21 35  1  0
 21 36  1  0
M  END
$$$$
