
     RDKit          3D

 46 49  0  0  0  0  0  0  0  0999 V2000
   -5.3275   -3.2830   -1.7097 C   0  0  0  0  0  0  0  0  0  0  0  0
   -4.5399   -2.1010   -1.6445 O   0  0  0  0  0  0  0  0  0  0  0  0
   -3.8067   -1.9104   -0.5049 C   0  0  0  0  0  0  0  0  0  0  0  0
   -3.8000   -2.7421    0.6152 C   0  0  0  0  0  0  0  0  0  0  0  0
   -2.9976   -2.4301    1.7162 C   0  0  0  0  0  0  0  0  0  0  0  0
   -2.2026   -1.2839    1.7057 C   0  0  0  0  0  0  0  0  0  0  0  0
   -2.2095   -0.4385    0.5928 C   0  0  0  0  0  0  0  0  0  0  0  0
   -1.3771    0.7573    0.5707 C   0  0  0  0  0  0  0  0  0  0  0  0
   -0.0297    0.8999    0.2677 C   0  0  0  0  0  0  0  0  0  0  0  0
    0.9446   -0.1275   -0.0938 C   0  0  0  0  0  0  0  0  0  0  0  0
    0.6737   -1.3227   -0.1319 O   0  0  0  0  0  0  0  0  0  0  0  0
    2.1919    0.4183   -0.3740 N   0  0  0  0  0  0  0  0  0  0  0  0
    3.2472   -0.3861   -0.6891 N   0  0  0  0  0  0  0  0  0  0  0  0
    4.4031    0.1418   -0.9745 C   0  0  0  0  0  0  0  0  0  0  0  0
    4.6440    1.6390   -1.0049 C   0  0  0  0  0  0  0  0  0  0  0  0
    5.5358   -0.7399   -1.2506 C   0  0  0  0  0  0  0  0  0  0  0  0
    6.8933   -0.4535   -1.2650 C   0  0  0  0  0  0  0  0  0  0  0  0
    7.6958   -1.5910   -1.5866 C   0  0  0  0  0  0  0  0  0  0  0  0
    6.9183   -2.6972   -1.7996 C   0  0  0  0  0  0  0  0  0  0  0  0
    7.4694   -4.2707   -2.2103 Cl  0  0  0  0  0  0  0  0  0  0  0  0
    5.2663   -2.4029   -1.6205 S   0  0  0  0  0  0  0  0  0  0  0  0
    0.3156    2.2255    0.3448 N   0  0  0  0  0  0  0  0  0  0  0  0
   -0.7554    2.9140    0.6923 N   0  0  0  0  0  0  0  0  0  0  0  0
   -1.8066    2.0546    0.8641 N   0  0  0  0  0  0  0  0  0  0  0  0
   -3.0816    2.5229    1.2737 C   0  0  0  0  0  0  0  0  0  0  0  0
   -4.1098    1.6896    1.4330 N   0  0  0  0  0  0  0  0  0  0  0  0
   -5.1628    2.5150    1.8198 O   0  0  0  0  0  0  0  0  0  0  0  0
   -4.7603    3.8443    1.8950 N   0  0  0  0  0  0  0  0  0  0  0  0
   -3.4695    3.8446    1.5653 C   0  0  0  0  0  0  0  0  0  0  0  0
   -2.6981    4.9481    1.5292 N   0  0  0  0  0  0  0  0  0  0  0  0
   -3.0086   -0.7624   -0.5110 C   0  0  0  0  0  0  0  0  0  0  0  0
   -6.1045   -3.2816   -0.9382 H   0  0  0  0  0  0  0  0  0  0  0  0
   -4.7026   -4.1797   -1.6413 H   0  0  0  0  0  0  0  0  0  0  0  0
   -5.8261   -3.2989   -2.6837 H   0  0  0  0  0  0  0  0  0  0  0  0
   -4.4021   -3.6430    0.6633 H   0  0  0  0  0  0  0  0  0  0  0  0
   -2.9875   -3.0871    2.5821 H   0  0  0  0  0  0  0  0  0  0  0  0
   -1.5763   -1.0651    2.5669 H   0  0  0  0  0  0  0  0  0  0  0  0
    2.3050    1.4218   -0.2806 H   0  0  0  0  0  0  0  0  0  0  0  0
    4.6684    2.0193    0.0205 H   0  0  0  0  0  0  0  0  0  0  0  0
    3.8416    2.1384   -1.5559 H   0  0  0  0  0  0  0  0  0  0  0  0
    5.5805    1.8986   -1.5026 H   0  0  0  0  0  0  0  0  0  0  0  0
    7.3114    0.5217   -1.0472 H   0  0  0  0  0  0  0  0  0  0  0  0
    8.7766   -1.5895   -1.6521 H   0  0  0  0  0  0  0  0  0  0  0  0
   -3.1432    5.8595    1.5600 H   0  0  0  0  0  0  0  0  0  0  0  0
   -1.7795    4.9380    1.0905 H   0  0  0  0  0  0  0  0  0  0  0  0
   -3.0173   -0.1245   -1.3915 H   0  0  0  0  0  0  0  0  0  0  0  0
  1  2  1  0
  2  3  1  0
  3  4  2  0
  4  5  1  0
  5  6  2  0
  6  7  1  0
  7  8  1  0
  8  9  2  0
  9 10  1  0
 10 11  2  0
 10 12  1  0
 12 13  1  0
 13 14  2  3
 14 15  1  0
 14 16  1  0
 16 17  2  0
 17 18  1  0
 18 19  2  0
 19 20  1  0
 19 21  1  0
  9 22  1  0
 22 23  2  0
 23 24  1  0
 24 25  1  0
 25 26  2  0
 26 27  1  0
 27 28  1  0
 28 29  2  0
 29 30  1  0
  7 31  2  0
 31  3  1  0
 24  8  1  0
 29 25  1  0
 21 16  1  0
  1 32  1  0
  1 33  1  0
  1 34  1  0
  4 35  1  0
  5 36  1  0
  6 37  1  0
 12 38  1  0
 15 39  1  0
 15 40  1  0
 15 41  1  0
 17 42  1  0
 18 43  1  0
 30 44  1  0
 30 45  1  0
 31 46  1  0
M  END
$$$$
