
     RDKit          3D

 31 33  0  0  0  0  0  0  0  0999 V2000
    4.9093    1.2326   -2.2495 C   0  0  0  0  0  0  0  0  0  0  0  0
    4.1848    1.5599   -1.0447 N   0  0  0  0  0  0  0  0  0  0  0  0
    4.6114    2.3547   -0.0240 C   0  0  0  0  0  0  0  0  0  0  0  0
    3.5901    2.3712    0.8952 C   0  0  0  0  0  0  0  0  0  0  0  0
    2.5740    1.5506    0.3433 C   0  0  0  0  0  0  0  0  0  0  0  0
    1.2584    1.2317    0.9316 C   0  0  0  0  0  0  0  0  0  0  0  0
    0.9225    1.6848    2.0183 O   0  0  0  0  0  0  0  0  0  0  0  0
    0.5380    0.3969    0.0970 N   0  0  0  0  0  0  0  0  0  0  0  0
   -0.7290   -0.1226    0.2914 C   0  0  0  0  0  0  0  0  0  0  0  0
   -1.6301    0.2408    1.7114 S   0  0  0  0  0  0  0  0  0  0  0  0
   -2.9062   -0.6959    1.1859 C   0  0  0  0  0  0  0  0  0  0  0  0
   -2.6993   -1.2865   -0.0283 C   0  0  0  0  0  0  0  0  0  0  0  0
   -1.4330   -0.9624   -0.5662 C   0  0  0  0  0  0  0  0  0  0  0  0
   -0.9351   -1.4301   -1.8229 C   0  0  0  0  0  0  0  0  0  0  0  0
   -0.5250   -1.8060   -2.8416 N   0  0  0  0  0  0  0  0  0  0  0  0
   -3.8739   -2.0988   -0.4338 C   0  0  0  0  0  0  0  0  0  0  0  0
   -4.6903   -2.1869    0.8948 C   0  0  0  0  0  0  0  0  0  0  0  0
   -4.2214   -1.0012    1.7940 C   0  0  0  0  0  0  0  0  0  0  0  0
    2.9506    1.0537   -0.8556 N   0  0  0  0  0  0  0  0  0  0  0  0
    5.0404    0.1484   -2.2883 H   0  0  0  0  0  0  0  0  0  0  0  0
    5.8839    1.7266   -2.2337 H   0  0  0  0  0  0  0  0  0  0  0  0
    4.3273    1.5814   -3.1062 H   0  0  0  0  0  0  0  0  0  0  0  0
    5.5811    2.8328   -0.0318 H   0  0  0  0  0  0  0  0  0  0  0  0
    3.5629    2.8970    1.8400 H   0  0  0  0  0  0  0  0  0  0  0  0
    1.0390    0.1578   -0.7584 H   0  0  0  0  0  0  0  0  0  0  0  0
   -3.5990   -3.0935   -0.7951 H   0  0  0  0  0  0  0  0  0  0  0  0
   -4.4522   -1.5779   -1.2042 H   0  0  0  0  0  0  0  0  0  0  0  0
   -5.7706   -2.1748    0.7203 H   0  0  0  0  0  0  0  0  0  0  0  0
   -4.4489   -3.1326    1.3982 H   0  0  0  0  0  0  0  0  0  0  0  0
   -4.9036   -0.1508    1.6946 H   0  0  0  0  0  0  0  0  0  0  0  0
   -4.1561   -1.3012    2.8433 H   0  0  0  0  0  0  0  0  0  0  0  0
  1  2  1  0
  2  3  1  0
  3  4  2  0
  4  5  1  0
  5  6  1  0
  6  7  2  0
  6  8  1  0
  8  9  1  0
  9 10  1  0
 10 11  1  0
 11 12  2  0
 12 13  1  0
 13 14  1  0
 14 15  3  0
 12 16  1  0
 16 17  1  0
 17 18  1  0
  5 19  2  0
 19  2  1  0
 13  9  2  0
 18 11  1  0
  1 20  1  0
  1 21  1  0
  1 22  1  0
  3 23  1  0
  4 24  1  0
  8 25  1  0
 16 26  1  0
 16 27  1  0
 17 28  1  0
 17 29  1  0
 18 30  1  0
 18 31  1  0
M  END
$$$$
