
     RDKit          3D

 42 44  0  0  0  0  0  0  0  0999 V2000
   -7.1882    0.0834    0.1989 C   0  0  0  0  0  0  0  0  0  0  0  0
   -6.0748   -0.1231   -0.6633 O   0  0  0  0  0  0  0  0  0  0  0  0
   -4.8495    0.2653   -0.1937 C   0  0  0  0  0  0  0  0  0  0  0  0
   -4.5968    0.8508    1.0417 C   0  0  0  0  0  0  0  0  0  0  0  0
   -3.2906    1.1935    1.3874 C   0  0  0  0  0  0  0  0  0  0  0  0
   -3.1369    1.7925    2.6133 O   0  0  0  0  0  0  0  0  0  0  0  0
   -2.2127    0.9343    0.5220 C   0  0  0  0  0  0  0  0  0  0  0  0
   -0.8492    1.2871    0.9987 C   0  0  0  0  0  0  0  0  0  0  0  0
   -0.7171    2.2600    1.7414 O   0  0  0  0  0  0  0  0  0  0  0  0
    0.2919    0.3931    0.6686 C   0  0  0  0  0  0  0  0  0  0  0  0
    1.5431    0.7687    0.9763 C   0  0  0  0  0  0  0  0  0  0  0  0
    2.7351   -0.0239    0.7010 C   0  0  0  0  0  0  0  0  0  0  0  0
    3.9305    0.6160    0.6405 C   0  0  0  0  0  0  0  0  0  0  0  0
    5.1690   -0.2049    0.4851 C   0  0  2  0  0  0  0  0  0  0  0  0
    6.2955    0.3889   -0.1448 O   0  0  0  0  0  0  0  0  0  0  0  0
    7.0421   -0.7847   -0.5539 C   0  0  0  0  0  0  0  0  0  0  0  0
    6.1955   -1.9612   -0.5087 O   0  0  0  0  0  0  0  0  0  0  0  0
    4.9054   -1.3718   -0.4494 C   0  0  1  0  0  0  0  0  0  0  0  0
    3.7804   -2.1845    0.0950 C   0  0  0  0  0  0  0  0  0  0  0  0
    2.7459   -1.5065    0.6359 C   0  0  0  0  0  0  0  0  0  0  0  0
   -2.4706    0.3835   -0.7463 C   0  0  0  0  0  0  0  0  0  0  0  0
   -1.4092    0.2336   -1.5998 O   0  0  0  0  0  0  0  0  0  0  0  0
   -1.6795   -0.1690   -2.9380 C   0  0  0  0  0  0  0  0  0  0  0  0
   -3.7892    0.0422   -1.0815 C   0  0  0  0  0  0  0  0  0  0  0  0
   -7.3349    1.1488    0.4049 H   0  0  0  0  0  0  0  0  0  0  0  0
   -7.0807   -0.4888    1.1264 H   0  0  0  0  0  0  0  0  0  0  0  0
   -8.0816   -0.2822   -0.3163 H   0  0  0  0  0  0  0  0  0  0  0  0
   -5.3863    1.0619    1.7550 H   0  0  0  0  0  0  0  0  0  0  0  0
   -2.2389    2.1952    2.6424 H   0  0  0  0  0  0  0  0  0  0  0  0
    0.0789   -0.5519    0.1862 H   0  0  0  0  0  0  0  0  0  0  0  0
    1.7051    1.7382    1.4483 H   0  0  0  0  0  0  0  0  0  0  0  0
    4.0331    1.6895    0.7509 H   0  0  0  0  0  0  0  0  0  0  0  0
    5.5020   -0.5282    1.4833 H   0  0  0  0  0  0  0  0  0  0  0  0
    7.4054   -0.6359   -1.5753 H   0  0  0  0  0  0  0  0  0  0  0  0
    7.8899   -0.9317    0.1221 H   0  0  0  0  0  0  0  0  0  0  0  0
    4.6542   -1.0517   -1.4719 H   0  0  0  0  0  0  0  0  0  0  0  0
    3.7925   -3.2637    0.0130 H   0  0  0  0  0  0  0  0  0  0  0  0
    1.8869   -2.0418    1.0305 H   0  0  0  0  0  0  0  0  0  0  0  0
   -2.3535    0.5356   -3.4363 H   0  0  0  0  0  0  0  0  0  0  0  0
   -2.0760   -1.1889   -2.9675 H   0  0  0  0  0  0  0  0  0  0  0  0
   -0.7314   -0.1655   -3.4844 H   0  0  0  0  0  0  0  0  0  0  0  0
   -4.0344   -0.4021   -2.0418 H   0  0  0  0  0  0  0  0  0  0  0  0
  1  2  1  0
  2  3  1  0
  3  4  2  0
  4  5  1  0
  5  6  1  0
  5  7  2  0
  7  8  1  0
  8  9  2  0
  8 10  1  0
 10 11  2  0
 11 12  1  0
 12 13  2  0
 13 14  1  0
 14 15  1  0
 15 16  1  0
 16 17  1  0
 17 18  1  0
 18 19  1  0
 19 20  2  0
  7 21  1  0
 21 22  1  0
 22 23  1  0
 21 24  2  0
 24  3  1  0
 20 12  1  0
 18 14  1  0
  1 25  1  0
  1 26  1  0
  1 27  1  0
  4 28  1  0
  6 29  1  0
 10 30  1  0
 11 31  1  0
 13 32  1  0
 14 33  1  1
 16 34  1  0
 16 35  1  0
 18 36  1  6
 19 37  1  0
 20 38  1  0
 23 39  1  0
 23 40  1  0
 23 41  1  0
 24 42  1  0
M  END
$$$$
