
     RDKit          3D

 27 27  0  0  0  0  0  0  0  0999 V2000
   -5.0488   -0.3428   -1.5853 C   0  0  0  0  0  0  0  0  0  0  0  0
   -5.2271   -0.0037   -0.2998 C   0  0  0  0  0  0  0  0  0  0  0  0
   -4.2050    0.0409    0.7957 C   0  0  0  0  0  0  0  0  0  0  0  0
   -2.8704    0.0540    0.2649 N   0  0  0  0  0  0  0  0  0  0  0  0
   -1.7875   -0.3133    1.0286 C   0  0  0  0  0  0  0  0  0  0  0  0
   -1.8242   -0.8144    2.1437 O   0  0  0  0  0  0  0  0  0  0  0  0
   -0.4278   -0.0277    0.3588 C   0  0  0  0  0  0  0  0  0  0  0  0
   -0.4043    0.5154   -0.7374 O   0  0  0  0  0  0  0  0  0  0  0  0
    0.6311   -0.4622    1.1370 N   0  0  0  0  0  0  0  0  0  0  0  0
    1.9590   -0.4931    0.7950 N   0  0  0  0  0  0  0  0  0  0  0  0
    2.4048    0.3139   -0.1160 C   0  0  0  0  0  0  0  0  0  0  0  0
    3.7874    0.2674   -0.5055 C   0  0  0  0  0  0  0  0  0  0  0  0
    4.8406   -0.5331   -0.1070 C   0  0  0  0  0  0  0  0  0  0  0  0
    5.9731   -0.1107   -0.8438 C   0  0  0  0  0  0  0  0  0  0  0  0
    5.5436    0.9201   -1.6454 C   0  0  0  0  0  0  0  0  0  0  0  0
    4.2213    1.1579   -1.4480 O   0  0  0  0  0  0  0  0  0  0  0  0
   -4.0859   -0.6516   -1.9793 H   0  0  0  0  0  0  0  0  0  0  0  0
   -5.8852   -0.3377   -2.2783 H   0  0  0  0  0  0  0  0  0  0  0  0
   -6.2342    0.2680    0.0140 H   0  0  0  0  0  0  0  0  0  0  0  0
   -4.3278    0.9626    1.3746 H   0  0  0  0  0  0  0  0  0  0  0  0
   -4.3363   -0.8069    1.4760 H   0  0  0  0  0  0  0  0  0  0  0  0
   -2.6657    0.6007   -0.5669 H   0  0  0  0  0  0  0  0  0  0  0  0
    0.3849   -1.0072    1.9648 H   0  0  0  0  0  0  0  0  0  0  0  0
    1.7925    1.0812   -0.6145 H   0  0  0  0  0  0  0  0  0  0  0  0
    4.7858   -1.3246    0.6281 H   0  0  0  0  0  0  0  0  0  0  0  0
    6.9772   -0.5081   -0.7971 H   0  0  0  0  0  0  0  0  0  0  0  0
    6.0287    1.5551   -2.3738 H   0  0  0  0  0  0  0  0  0  0  0  0
  1  2  2  0
  2  3  1  0
  3  4  1  0
  4  5  1  0
  5  6  2  0
  5  7  1  0
  7  8  2  0
  7  9  1  0
  9 10  1  0
 10 11  2  3
 11 12  1  0
 12 13  2  0
 13 14  1  0
 14 15  2  0
 15 16  1  0
 16 12  1  0
  1 17  1  0
  1 18  1  0
  2 19  1  0
  3 20  1  0
  3 21  1  0
  4 22  1  0
  9 23  1  0
 11 24  1  0
 13 25  1  0
 14 26  1  0
 15 27  1  0
M  END
$$$$
