
     RDKit          3D

 53 56  0  0  0  0  0  0  0  0999 V2000
   -9.6930    0.5181   -1.3793 C   0  0  0  0  0  0  0  0  0  0  0  0
   -8.6778   -0.4545   -1.1712 O   0  0  0  0  0  0  0  0  0  0  0  0
   -7.4873   -0.0111   -0.6652 C   0  0  0  0  0  0  0  0  0  0  0  0
   -7.1724    1.3102   -0.3495 C   0  0  0  0  0  0  0  0  0  0  0  0
   -5.9149    1.6264    0.1706 C   0  0  0  0  0  0  0  0  0  0  0  0
   -4.9635    0.6248    0.3760 C   0  0  0  0  0  0  0  0  0  0  0  0
   -5.2639   -0.7029    0.0533 C   0  0  0  0  0  0  0  0  0  0  0  0
   -4.2916   -1.8206    0.2556 C   0  0  0  0  0  0  0  0  0  0  0  0
   -4.6863   -2.9847    0.1788 O   0  0  0  0  0  0  0  0  0  0  0  0
   -2.8430   -1.5076    0.6011 C   0  0  0  0  0  0  0  0  0  0  0  0
   -2.2804   -0.6337   -0.3676 O   0  0  0  0  0  0  0  0  0  0  0  0
   -0.9826   -0.2510   -0.1835 C   0  0  0  0  0  0  0  0  0  0  0  0
   -0.4848    0.6153   -1.1573 C   0  0  0  0  0  0  0  0  0  0  0  0
    0.8328    1.0895   -1.0948 C   0  0  0  0  0  0  0  0  0  0  0  0
    1.6861    0.7092   -0.0510 C   0  0  0  0  0  0  0  0  0  0  0  0
    3.0884    1.1572    0.0753 C   0  0  0  0  0  0  0  0  0  0  0  0
    3.6036    2.0844   -0.9960 C   0  0  0  0  0  0  0  0  0  0  0  0
    3.8341    0.7078    1.1117 C   0  0  0  0  0  0  0  0  0  0  0  0
    5.2877    1.0632    1.3637 C   0  0  0  0  0  0  0  0  0  0  0  0
    6.2647    0.1261    0.6812 C   0  0  0  0  0  0  0  0  0  0  0  0
    6.5179   -1.1499    1.2072 C   0  0  0  0  0  0  0  0  0  0  0  0
    7.4076   -2.0188    0.5724 C   0  0  0  0  0  0  0  0  0  0  0  0
    8.0582   -1.6228   -0.5938 C   0  0  0  0  0  0  0  0  0  0  0  0
    7.8224   -0.3563   -1.1239 C   0  0  0  0  0  0  0  0  0  0  0  0
    6.9325    0.5136   -0.4902 C   0  0  0  0  0  0  0  0  0  0  0  0
    3.2459   -0.1734    2.1620 C   0  0  0  0  0  0  0  0  0  0  0  0
    3.8781   -0.5193    3.1551 O   0  0  0  0  0  0  0  0  0  0  0  0
    1.9378   -0.5896    1.9906 O   0  0  0  0  0  0  0  0  0  0  0  0
    1.1634   -0.1551    0.9055 C   0  0  0  0  0  0  0  0  0  0  0  0
   -0.1492   -0.6405    0.8578 C   0  0  0  0  0  0  0  0  0  0  0  0
   -6.5313   -1.0107   -0.4617 C   0  0  0  0  0  0  0  0  0  0  0  0
   -9.3855    1.2535   -2.1300 H   0  0  0  0  0  0  0  0  0  0  0  0
  -10.5783   -0.0000   -1.7618 H   0  0  0  0  0  0  0  0  0  0  0  0
   -9.9731    1.0053   -0.4398 H   0  0  0  0  0  0  0  0  0  0  0  0
   -7.8824    2.1178   -0.4943 H   0  0  0  0  0  0  0  0  0  0  0  0
   -5.6766    2.6586    0.4177 H   0  0  0  0  0  0  0  0  0  0  0  0
   -4.0001    0.9103    0.7874 H   0  0  0  0  0  0  0  0  0  0  0  0
   -2.2952   -2.4579    0.6019 H   0  0  0  0  0  0  0  0  0  0  0  0
   -2.8198   -1.0707    1.6063 H   0  0  0  0  0  0  0  0  0  0  0  0
   -1.1251    0.9230   -1.9816 H   0  0  0  0  0  0  0  0  0  0  0  0
    1.1648    1.7551   -1.8877 H   0  0  0  0  0  0  0  0  0  0  0  0
    4.6238    2.4302   -0.8277 H   0  0  0  0  0  0  0  0  0  0  0  0
    3.5956    1.5857   -1.9711 H   0  0  0  0  0  0  0  0  0  0  0  0
    2.9869    2.9878   -1.0541 H   0  0  0  0  0  0  0  0  0  0  0  0
    5.5143    1.0832    2.4380 H   0  0  0  0  0  0  0  0  0  0  0  0
    5.4906    2.0959    1.0557 H   0  0  0  0  0  0  0  0  0  0  0  0
    6.0283   -1.4783    2.1222 H   0  0  0  0  0  0  0  0  0  0  0  0
    7.5928   -3.0044    0.9918 H   0  0  0  0  0  0  0  0  0  0  0  0
    8.7512   -2.2996   -1.0867 H   0  0  0  0  0  0  0  0  0  0  0  0
    8.3342   -0.0440   -2.0305 H   0  0  0  0  0  0  0  0  0  0  0  0
    6.7729    1.4999   -0.9191 H   0  0  0  0  0  0  0  0  0  0  0  0
   -0.4747   -1.3171    1.6405 H   0  0  0  0  0  0  0  0  0  0  0  0
   -6.7838   -2.0406   -0.7102 H   0  0  0  0  0  0  0  0  0  0  0  0
  1  2  1  0
  2  3  1  0
  3  4  2  0
  4  5  1  0
  5  6  2  0
  6  7  1  0
  7  8  1  0
  8  9  2  0
  8 10  1  0
 10 11  1  0
 11 12  1  0
 12 13  2  0
 13 14  1  0
 14 15  2  0
 15 16  1  0
 16 17  1  0
 16 18  2  0
 18 19  1  0
 19 20  1  0
 20 21  2  0
 21 22  1  0
 22 23  2  0
 23 24  1  0
 24 25  2  0
 18 26  1  0
 26 27  2  0
 26 28  1  0
 28 29  1  0
 29 30  2  0
  7 31  2  0
 31  3  1  0
 30 12  1  0
 29 15  1  0
 25 20  1  0
  1 32  1  0
  1 33  1  0
  1 34  1  0
  4 35  1  0
  5 36  1  0
  6 37  1  0
 10 38  1  0
 10 39  1  0
 13 40  1  0
 14 41  1  0
 17 42  1  0
 17 43  1  0
 17 44  1  0
 19 45  1  0
 19 46  1  0
 21 47  1  0
 22 48  1  0
 23 49  1  0
 24 50  1  0
 25 51  1  0
 30 52  1  0
 31 53  1  0
M  END
$$$$
