
     RDKit          3D

 53 56  0  0  0  0  0  0  0  0999 V2000
   -7.3168    1.9968    2.3115 C   0  0  0  0  0  0  0  0  0  0  0  0
   -6.1554    1.4787    1.5163 C   0  0  0  0  0  0  0  0  0  0  0  0
   -5.4825    2.3104    0.6158 C   0  0  0  0  0  0  0  0  0  0  0  0
   -4.3768    1.8416   -0.1051 C   0  0  0  0  0  0  0  0  0  0  0  0
   -3.9278    0.5276    0.0630 C   0  0  0  0  0  0  0  0  0  0  0  0
   -2.8002    0.0045   -0.6434 N   0  0  0  0  0  0  0  0  0  0  0  0
   -2.1930   -1.1139   -0.1610 N   0  0  0  0  0  0  0  0  0  0  0  0
   -1.0749   -1.2417   -0.8764 C   0  0  0  0  0  0  0  0  0  0  0  0
   -0.0444   -2.2553   -0.6944 C   0  0  0  0  0  0  0  0  0  0  0  0
   -0.0680   -3.1040    0.1929 O   0  0  0  0  0  0  0  0  0  0  0  0
    0.9885   -2.1555   -1.6493 N   0  0  0  0  0  0  0  0  0  0  0  0
    2.0834   -3.1240   -1.5921 C   0  0  0  0  0  0  0  0  0  0  0  0
    3.2361   -2.6437   -0.7098 C   0  0  0  0  0  0  0  0  0  0  0  0
    4.0637   -3.4180   -0.2339 O   0  0  0  0  0  0  0  0  0  0  0  0
    3.3519   -1.2746   -0.6000 N   0  0  0  0  0  0  0  0  0  0  0  0
    4.4087   -0.6368    0.1582 C   0  0  0  0  0  0  0  0  0  0  0  0
    4.1434   -0.6709    1.6655 C   0  0  0  0  0  0  0  0  0  0  0  0
    5.2302    0.0248    2.4310 C   0  0  0  0  0  0  0  0  0  0  0  0
    6.3843   -0.5227    2.9553 C   0  0  0  0  0  0  0  0  0  0  0  0
    7.1882    0.4462    3.6217 C   0  0  0  0  0  0  0  0  0  0  0  0
    6.6201    1.6997    3.5857 C   0  0  0  0  0  0  0  0  0  0  0  0
    5.1271    1.7043    2.7526 S   0  0  0  0  0  0  0  0  0  0  0  0
    1.0809   -1.1653   -2.6385 N   0  0  0  0  0  0  0  0  0  0  0  0
    0.1445   -0.2670   -2.7799 C   0  0  0  0  0  0  0  0  0  0  0  0
    0.2982    0.7589   -3.8665 C   0  0  0  0  0  0  0  0  0  0  0  0
   -0.9915   -0.2837   -1.8919 C   0  0  0  0  0  0  0  0  0  0  0  0
   -2.1589    0.4570   -1.8043 C   0  0  0  0  0  0  0  0  0  0  0  0
   -2.7132    1.4751   -2.7341 C   0  0  0  0  0  0  0  0  0  0  0  0
   -4.5799   -0.2922    0.9993 C   0  0  0  0  0  0  0  0  0  0  0  0
   -5.6840    0.1789    1.7159 C   0  0  0  0  0  0  0  0  0  0  0  0
   -7.8726    2.7509    1.7443 H   0  0  0  0  0  0  0  0  0  0  0  0
   -8.0173    1.1897    2.5509 H   0  0  0  0  0  0  0  0  0  0  0  0
   -6.9616    2.4457    3.2441 H   0  0  0  0  0  0  0  0  0  0  0  0
   -5.8081    3.3397    0.4780 H   0  0  0  0  0  0  0  0  0  0  0  0
   -3.8696    2.5524   -0.7456 H   0  0  0  0  0  0  0  0  0  0  0  0
    2.4632   -3.2899   -2.6057 H   0  0  0  0  0  0  0  0  0  0  0  0
    1.7152   -4.0738   -1.1912 H   0  0  0  0  0  0  0  0  0  0  0  0
    2.6799   -0.7109   -1.1128 H   0  0  0  0  0  0  0  0  0  0  0  0
    4.4795    0.3953   -0.2025 H   0  0  0  0  0  0  0  0  0  0  0  0
    5.3558   -1.1372   -0.0763 H   0  0  0  0  0  0  0  0  0  0  0  0
    3.1690   -0.2145    1.8823 H   0  0  0  0  0  0  0  0  0  0  0  0
    4.0695   -1.7104    2.0093 H   0  0  0  0  0  0  0  0  0  0  0  0
    6.6396   -1.5725    2.8648 H   0  0  0  0  0  0  0  0  0  0  0  0
    8.1338    0.2331    4.1048 H   0  0  0  0  0  0  0  0  0  0  0  0
    7.0083    2.6150    4.0106 H   0  0  0  0  0  0  0  0  0  0  0  0
    1.3153    0.7357   -4.2692 H   0  0  0  0  0  0  0  0  0  0  0  0
    0.1034    1.7600   -3.4735 H   0  0  0  0  0  0  0  0  0  0  0  0
   -0.4003    0.5378   -4.6778 H   0  0  0  0  0  0  0  0  0  0  0  0
   -3.8066    1.4559   -2.7583 H   0  0  0  0  0  0  0  0  0  0  0  0
   -2.3686    2.4773   -2.4630 H   0  0  0  0  0  0  0  0  0  0  0  0
   -2.3964    1.2789   -3.7622 H   0  0  0  0  0  0  0  0  0  0  0  0
   -4.2445   -1.3130    1.1797 H   0  0  0  0  0  0  0  0  0  0  0  0
   -6.1690   -0.4802    2.4329 H   0  0  0  0  0  0  0  0  0  0  0  0
  1  2  1  0
  2  3  2  0
  3  4  1  0
  4  5  2  0
  5  6  1  0
  6  7  1  0
  7  8  2  0
  8  9  1  0
  9 10  2  0
  9 11  1  0
 11 12  1  0
 12 13  1  0
 13 14  2  0
 13 15  1  0
 15 16  1  0
 16 17  1  0
 17 18  1  0
 18 19  2  0
 19 20  1  0
 20 21  2  0
 21 22  1  0
 11 23  1  0
 23 24  2  0
 24 25  1  0
 24 26  1  0
 26 27  2  0
 27 28  1  0
  5 29  1  0
 29 30  2  0
 30  2  1  0
 27  6  1  0
 26  8  1  0
 22 18  1  0
  1 31  1  0
  1 32  1  0
  1 33  1  0
  3 34  1  0
  4 35  1  0
 12 36  1  0
 12 37  1  0
 15 38  1  0
 16 39  1  0
 16 40  1  0
 17 41  1  0
 17 42  1  0
 19 43  1  0
 20 44  1  0
 21 45  1  0
 25 46  1  0
 25 47  1  0
 25 48  1  0
 28 49  1  0
 28 50  1  0
 28 51  1  0
 29 52  1  0
 30 53  1  0
M  END
$$$$
