
     RDKit          3D

 49 52  0  0  0  0  0  0  0  0999 V2000
    2.3952    1.5977    1.2290 C   0  0  0  0  0  0  0  0  0  0  0  0
    3.5385    0.7896    0.6724 C   0  0  0  0  0  0  0  0  0  0  0  0
    4.6387    1.4902    0.1368 C   0  0  0  0  0  0  0  0  0  0  0  0
    5.7230    0.8060   -0.4070 C   0  0  0  0  0  0  0  0  0  0  0  0
    7.0655    1.6811   -1.0385 Cl  0  0  0  0  0  0  0  0  0  0  0  0
    5.7252   -0.5801   -0.4341 C   0  0  0  0  0  0  0  0  0  0  0  0
    4.6316   -1.2880    0.0784 C   0  0  0  0  0  0  0  0  0  0  0  0
    3.5265   -0.6228    0.6306 C   0  0  0  0  0  0  0  0  0  0  0  0
    2.4163   -1.3201    1.1694 N   0  0  0  0  0  0  0  0  0  0  0  0
    2.1669   -2.6835    1.1202 C   0  0  0  0  0  0  0  0  0  0  0  0
    2.8290   -3.5175    0.5047 O   0  0  0  0  0  0  0  0  0  0  0  0
    0.9435   -3.1085    1.9204 C   0  0  0  0  0  0  0  0  0  0  0  0
   -0.5453   -3.0474    0.8807 S   0  0  0  0  0  0  0  0  0  0  0  0
   -0.8889   -1.3558    0.9072 C   0  0  0  0  0  0  0  0  0  0  0  0
   -0.3430   -0.4844    1.7208 N   0  0  0  0  0  0  0  0  0  0  0  0
   -0.8736    0.7436    1.4304 N   0  0  0  0  0  0  0  0  0  0  0  0
   -1.7196    0.6059    0.4251 C   0  0  0  0  0  0  0  0  0  0  0  0
   -2.5008    1.7108   -0.2101 C   0  0  0  0  0  0  0  0  0  0  0  0
   -3.7633    2.0170    0.5468 C   0  0  0  0  0  0  0  0  0  0  0  0
   -3.8851    2.6456    1.7736 C   0  0  0  0  0  0  0  0  0  0  0  0
   -5.2420    2.7780    2.1828 C   0  0  0  0  0  0  0  0  0  0  0  0
   -6.1148    2.2483    1.2551 C   0  0  0  0  0  0  0  0  0  0  0  0
   -5.2967    1.6021   -0.0999 S   0  0  0  0  0  0  0  0  0  0  0  0
   -1.7586   -0.7242    0.0604 N   0  0  0  0  0  0  0  0  0  0  0  0
   -2.5708   -1.3232   -0.9812 C   0  0  0  0  0  0  0  0  0  0  0  0
   -1.8767   -1.2479   -2.2918 C   0  0  0  0  0  0  0  0  0  0  0  0
   -0.8191   -1.9344   -2.8548 C   0  0  0  0  0  0  0  0  0  0  0  0
   -0.6278   -1.3859   -4.1471 C   0  0  0  0  0  0  0  0  0  0  0  0
   -1.5855   -0.4110   -4.2959 C   0  0  0  0  0  0  0  0  0  0  0  0
   -2.3456   -0.3169   -3.1739 O   0  0  0  0  0  0  0  0  0  0  0  0
    2.6638    2.6544    1.3424 H   0  0  0  0  0  0  0  0  0  0  0  0
    1.5417    1.5401    0.5476 H   0  0  0  0  0  0  0  0  0  0  0  0
    2.1070    1.2356    2.2214 H   0  0  0  0  0  0  0  0  0  0  0  0
    4.6499    2.5782    0.1495 H   0  0  0  0  0  0  0  0  0  0  0  0
    6.5699   -1.1242   -0.8517 H   0  0  0  0  0  0  0  0  0  0  0  0
    4.6853   -2.3719    0.0371 H   0  0  0  0  0  0  0  0  0  0  0  0
    1.6688   -0.7483    1.5637 H   0  0  0  0  0  0  0  0  0  0  0  0
    1.0975   -4.1426    2.2479 H   0  0  0  0  0  0  0  0  0  0  0  0
    0.8383   -2.5047    2.8283 H   0  0  0  0  0  0  0  0  0  0  0  0
   -2.7098    1.4959   -1.2636 H   0  0  0  0  0  0  0  0  0  0  0  0
   -1.8730    2.6128   -0.2156 H   0  0  0  0  0  0  0  0  0  0  0  0
   -3.0325    2.9889    2.3540 H   0  0  0  0  0  0  0  0  0  0  0  0
   -5.5611    3.2382    3.1112 H   0  0  0  0  0  0  0  0  0  0  0  0
   -7.1976    2.2135    1.3039 H   0  0  0  0  0  0  0  0  0  0  0  0
   -2.7913   -2.3618   -0.7149 H   0  0  0  0  0  0  0  0  0  0  0  0
   -3.5313   -0.8017   -1.0073 H   0  0  0  0  0  0  0  0  0  0  0  0
   -0.2461   -2.7272   -2.3918 H   0  0  0  0  0  0  0  0  0  0  0  0
    0.1188   -1.6649   -4.8773 H   0  0  0  0  0  0  0  0  0  0  0  0
   -1.8411    0.2727   -5.0953 H   0  0  0  0  0  0  0  0  0  0  0  0
  1  2  1  0
  2  3  2  0
  3  4  1  0
  4  5  1  0
  4  6  2  0
  6  7  1  0
  7  8  2  0
  8  9  1  0
  9 10  1  0
 10 11  2  0
 10 12  1  0
 12 13  1  0
 13 14  1  0
 14 15  2  0
 15 16  1  0
 16 17  2  0
 17 18  1  0
 18 19  1  0
 19 20  2  0
 20 21  1  0
 21 22  2  0
 22 23  1  0
 17 24  1  0
 24 25  1  0
 25 26  1  0
 26 27  2  0
 27 28  1  0
 28 29  2  0
 29 30  1  0
  8  2  1  0
 24 14  1  0
 30 26  1  0
 23 19  1  0
  1 31  1  0
  1 32  1  0
  1 33  1  0
  3 34  1  0
  6 35  1  0
  7 36  1  0
  9 37  1  0
 12 38  1  0
 12 39  1  0
 18 40  1  0
 18 41  1  0
 20 42  1  0
 21 43  1  0
 22 44  1  0
 25 45  1  0
 25 46  1  0
 27 47  1  0
 28 48  1  0
 29 49  1  0
M  END
$$$$
