
     RDKit          3D

 52 54  0  0  0  0  0  0  0  0999 V2000
    1.7912   -3.8657    1.9476 C   0  0  0  0  0  0  0  0  0  0  0  0
    2.1868   -2.9893    0.7965 C   0  0  0  0  0  0  0  0  0  0  0  0
    2.5976   -1.6713    1.0231 C   0  0  0  0  0  0  0  0  0  0  0  0
    2.9823   -0.8566   -0.0436 C   0  0  0  0  0  0  0  0  0  0  0  0
    2.9795   -1.3501   -1.3553 C   0  0  0  0  0  0  0  0  0  0  0  0
    3.3390   -0.4470   -2.5087 C   0  0  0  0  0  0  0  0  0  0  0  0
    2.1904    0.3307   -2.8976 N   0  0  0  0  0  0  0  0  0  0  0  0
    1.9894    1.6044   -2.4141 C   0  0  0  0  0  0  0  0  0  0  0  0
    2.8299    2.3273   -1.9007 O   0  0  0  0  0  0  0  0  0  0  0  0
    0.5149    2.0606   -2.5210 C   0  0  0  0  0  0  0  0  0  0  0  0
   -0.2928    1.3867   -3.1481 O   0  0  0  0  0  0  0  0  0  0  0  0
    0.2131    3.1874   -1.7896 N   0  0  0  0  0  0  0  0  0  0  0  0
   -1.1637    3.5771   -1.5602 C   0  0  0  0  0  0  0  0  0  0  0  0
   -1.9658    2.6202   -0.6522 C   0  0  0  0  0  0  0  0  0  0  0  0
   -3.3645    2.9574   -0.7577 O   0  0  0  0  0  0  0  0  0  0  0  0
   -3.9403    2.6227    0.5060 C   0  0  0  0  0  0  0  0  0  0  0  0
   -2.8790    3.0299    1.5016 C   0  0  0  0  0  0  0  0  0  0  0  0
   -1.6252    2.7892    0.7745 N   0  0  0  0  0  0  0  0  0  0  0  0
   -0.4518    1.8134    1.4679 S   0  0  0  0  0  6  0  0  0  0  0  0
    0.7095    1.8117    0.6065 O   0  0  0  0  0  0  0  0  0  0  0  0
   -0.3353    2.1930    2.8606 O   0  0  0  0  0  0  0  0  0  0  0  0
   -1.1514    0.1743    1.4271 C   0  0  0  0  0  0  0  0  0  0  0  0
   -0.8832   -0.6669    0.3422 C   0  0  0  0  0  0  0  0  0  0  0  0
   -1.3806   -1.9710    0.3383 C   0  0  0  0  0  0  0  0  0  0  0  0
   -2.1224   -2.4328    1.4254 C   0  0  0  0  0  0  0  0  0  0  0  0
   -2.7686   -4.2085    1.4295 Br  0  0  0  0  0  0  0  0  0  0  0  0
   -2.3731   -1.6026    2.5188 C   0  0  0  0  0  0  0  0  0  0  0  0
   -1.8797   -0.2961    2.5256 C   0  0  0  0  0  0  0  0  0  0  0  0
    2.5790   -2.6738   -1.5787 C   0  0  0  0  0  0  0  0  0  0  0  0
    2.1946   -3.4884   -0.5106 C   0  0  0  0  0  0  0  0  0  0  0  0
    2.6822   -4.3058    2.4058 H   0  0  0  0  0  0  0  0  0  0  0  0
    1.2473   -3.2899    2.7036 H   0  0  0  0  0  0  0  0  0  0  0  0
    1.1299   -4.6744    1.6183 H   0  0  0  0  0  0  0  0  0  0  0  0
    2.6113   -1.2634    2.0316 H   0  0  0  0  0  0  0  0  0  0  0  0
    3.2720    0.1755    0.1536 H   0  0  0  0  0  0  0  0  0  0  0  0
    3.6466   -1.0383   -3.3777 H   0  0  0  0  0  0  0  0  0  0  0  0
    4.1775    0.2040   -2.2375 H   0  0  0  0  0  0  0  0  0  0  0  0
    1.3564   -0.1574   -3.2084 H   0  0  0  0  0  0  0  0  0  0  0  0
    0.9233    3.4469   -1.1042 H   0  0  0  0  0  0  0  0  0  0  0  0
   -1.1526    4.5887   -1.1393 H   0  0  0  0  0  0  0  0  0  0  0  0
   -1.6581    3.6428   -2.5371 H   0  0  0  0  0  0  0  0  0  0  0  0
   -1.8671    1.5820   -0.9774 H   0  0  0  0  0  0  0  0  0  0  0  0
   -4.8840    3.1559    0.6468 H   0  0  0  0  0  0  0  0  0  0  0  0
   -4.1294    1.5435    0.5297 H   0  0  0  0  0  0  0  0  0  0  0  0
   -2.9770    2.4877    2.4439 H   0  0  0  0  0  0  0  0  0  0  0  0
   -2.9392    4.1027    1.7160 H   0  0  0  0  0  0  0  0  0  0  0  0
   -0.2729   -0.3294   -0.4930 H   0  0  0  0  0  0  0  0  0  0  0  0
   -1.1623   -2.6234   -0.5042 H   0  0  0  0  0  0  0  0  0  0  0  0
   -2.9348   -1.9697    3.3749 H   0  0  0  0  0  0  0  0  0  0  0  0
   -2.0489    0.3354    3.3953 H   0  0  0  0  0  0  0  0  0  0  0  0
    2.5634   -3.0811   -2.5871 H   0  0  0  0  0  0  0  0  0  0  0  0
    1.8962   -4.5158   -0.7067 H   0  0  0  0  0  0  0  0  0  0  0  0
  1  2  1  0
  2  3  2  0
  3  4  1  0
  4  5  2  0
  5  6  1  0
  6  7  1  0
  7  8  1  0
  8  9  2  0
  8 10  1  0
 10 11  2  0
 10 12  1  0
 12 13  1  0
 13 14  1  0
 14 15  1  0
 15 16  1  0
 16 17  1  0
 17 18  1  0
 18 19  1  0
 19 20  2  0
 19 21  2  0
 19 22  1  0
 22 23  2  0
 23 24  1  0
 24 25  2  0
 25 26  1  0
 25 27  1  0
 27 28  2  0
  5 29  1  0
 29 30  2  0
 30  2  1  0
 18 14  1  0
 28 22  1  0
  1 31  1  0
  1 32  1  0
  1 33  1  0
  3 34  1  0
  4 35  1  0
  6 36  1  0
  6 37  1  0
  7 38  1  0
 12 39  1  0
 13 40  1  0
 13 41  1  0
 14 42  1  0
 16 43  1  0
 16 44  1  0
 17 45  1  0
 17 46  1  0
 23 47  1  0
 24 48  1  0
 27 49  1  0
 28 50  1  0
 29 51  1  0
 30 52  1  0
M  END
$$$$
