
     RDKit          3D

 60 63  0  0  0  0  0  0  0  0999 V2000
    8.8366   -2.5620   -1.8297 C   0  0  0  0  0  0  0  0  0  0  0  0
    7.5596   -2.3114   -1.0514 C   0  0  0  0  0  0  0  0  0  0  0  0
    7.5238   -0.9313   -0.6961 O   0  0  0  0  0  0  0  0  0  0  0  0
    6.4191   -0.4926   -0.0213 C   0  0  0  0  0  0  0  0  0  0  0  0
    6.3908    0.8820    0.2214 C   0  0  0  0  0  0  0  0  0  0  0  0
    5.3159    1.4652    0.8969 C   0  0  0  0  0  0  0  0  0  0  0  0
    4.2538    0.6752    1.3545 C   0  0  0  0  0  0  0  0  0  0  0  0
    3.0778    1.3118    2.0511 C   0  0  0  0  0  0  0  0  0  0  0  0
    2.0680    1.6947    1.0957 N   0  0  0  0  0  0  0  0  0  0  0  0
    2.0304    2.9527    0.5321 C   0  0  0  0  0  0  0  0  0  0  0  0
    2.7881    3.8607    0.8677 O   0  0  0  0  0  0  0  0  0  0  0  0
    1.0682    3.0957   -0.6484 C   0  0  0  0  0  0  0  0  0  0  0  0
   -0.0122    2.1108   -0.6131 N   0  0  0  0  0  0  0  0  0  0  0  0
    0.2654    0.8569   -1.1809 N   0  0  0  0  0  0  0  0  0  0  0  0
   -0.6417   -0.0811   -1.2121 C   0  0  0  0  0  0  0  0  0  0  0  0
   -0.2907   -1.3916   -1.8570 C   0  0  0  0  0  0  0  0  0  0  0  0
   -1.9340    0.1632   -0.6202 C   0  0  0  0  0  0  0  0  0  0  0  0
   -3.0693   -0.6078   -0.4276 C   0  0  0  0  0  0  0  0  0  0  0  0
   -3.2908   -2.0581   -0.6697 C   0  0  0  0  0  0  0  0  0  0  0  0
   -4.0187    0.2615    0.1277 N   0  0  0  0  0  0  0  0  0  0  0  0
   -5.4238    0.0978    0.3377 C   0  0  0  0  0  0  0  0  0  0  0  0
   -6.1776   -0.8720   -0.3318 C   0  0  0  0  0  0  0  0  0  0  0  0
   -7.5552   -0.9808   -0.1025 C   0  0  0  0  0  0  0  0  0  0  0  0
   -8.2062   -0.1107    0.7781 C   0  0  0  0  0  0  0  0  0  0  0  0
   -9.6763   -0.2475    1.0421 C   0  0  0  0  0  0  0  0  0  0  0  0
   -7.4564    0.8633    1.4428 C   0  0  0  0  0  0  0  0  0  0  0  0
   -6.0820    0.9766    1.2143 C   0  0  0  0  0  0  0  0  0  0  0  0
   -3.4385    1.4359    0.4974 N   0  0  0  0  0  0  0  0  0  0  0  0
   -2.2109    1.3980   -0.0238 C   0  0  0  0  0  0  0  0  0  0  0  0
   -1.2204    2.4658    0.0214 C   0  0  0  0  0  0  0  0  0  0  0  0
   -1.4140    3.5557    0.5523 O   0  0  0  0  0  0  0  0  0  0  0  0
    4.2831   -0.7041    1.1064 C   0  0  0  0  0  0  0  0  0  0  0  0
    5.3608   -1.2843    0.4253 C   0  0  0  0  0  0  0  0  0  0  0  0
    8.8702   -1.9360   -2.7280 H   0  0  0  0  0  0  0  0  0  0  0  0
    9.7122   -2.3035   -1.2278 H   0  0  0  0  0  0  0  0  0  0  0  0
    8.9093   -3.6118   -2.1271 H   0  0  0  0  0  0  0  0  0  0  0  0
    7.5609   -2.9375   -0.1519 H   0  0  0  0  0  0  0  0  0  0  0  0
    6.7017   -2.5639   -1.6850 H   0  0  0  0  0  0  0  0  0  0  0  0
    7.2103    1.5085   -0.1269 H   0  0  0  0  0  0  0  0  0  0  0  0
    5.3063    2.5440    1.0571 H   0  0  0  0  0  0  0  0  0  0  0  0
    3.3993    2.1819    2.6379 H   0  0  0  0  0  0  0  0  0  0  0  0
    2.6200    0.5996    2.7482 H   0  0  0  0  0  0  0  0  0  0  0  0
    1.6001    0.9662    0.5665 H   0  0  0  0  0  0  0  0  0  0  0  0
    1.6341    2.9654   -1.5776 H   0  0  0  0  0  0  0  0  0  0  0  0
    0.6491    4.1068   -0.6305 H   0  0  0  0  0  0  0  0  0  0  0  0
   -1.0792   -1.6937   -2.5495 H   0  0  0  0  0  0  0  0  0  0  0  0
   -0.1628   -2.1550   -1.0852 H   0  0  0  0  0  0  0  0  0  0  0  0
    0.6463   -1.3030   -2.4151 H   0  0  0  0  0  0  0  0  0  0  0  0
   -3.6512   -2.2322   -1.6879 H   0  0  0  0  0  0  0  0  0  0  0  0
   -2.3622   -2.6230   -0.5415 H   0  0  0  0  0  0  0  0  0  0  0  0
   -3.9952   -2.4909    0.0475 H   0  0  0  0  0  0  0  0  0  0  0  0
   -5.7482   -1.5333   -1.0745 H   0  0  0  0  0  0  0  0  0  0  0  0
   -8.1235   -1.7424   -0.6329 H   0  0  0  0  0  0  0  0  0  0  0  0
   -9.8421   -0.8865    1.9155 H   0  0  0  0  0  0  0  0  0  0  0  0
  -10.1912   -0.6873    0.1806 H   0  0  0  0  0  0  0  0  0  0  0  0
  -10.1291    0.7320    1.2260 H   0  0  0  0  0  0  0  0  0  0  0  0
   -7.9349    1.5484    2.1394 H   0  0  0  0  0  0  0  0  0  0  0  0
   -5.5319    1.7531    1.7452 H   0  0  0  0  0  0  0  0  0  0  0  0
    3.4664   -1.3382    1.4429 H   0  0  0  0  0  0  0  0  0  0  0  0
    5.3426   -2.3560    0.2611 H   0  0  0  0  0  0  0  0  0  0  0  0
  1  2  1  0
  2  3  1  0
  3  4  1  0
  4  5  2  0
  5  6  1  0
  6  7  2  0
  7  8  1  0
  8  9  1  0
  9 10  1  0
 10 11  2  0
 10 12  1  0
 12 13  1  0
 13 14  1  0
 14 15  2  0
 15 16  1  0
 15 17  1  0
 17 18  2  0
 18 19  1  0
 18 20  1  0
 20 21  1  0
 21 22  2  0
 22 23  1  0
 23 24  2  0
 24 25  1  0
 24 26  1  0
 26 27  2  0
 20 28  1  0
 28 29  2  0
 29 30  1  0
 30 31  2  0
  7 32  1  0
 32 33  2  0
 33  4  1  0
 30 13  1  0
 29 17  1  0
 27 21  1  0
  1 34  1  0
  1 35  1  0
  1 36  1  0
  2 37  1  0
  2 38  1  0
  5 39  1  0
  6 40  1  0
  8 41  1  0
  8 42  1  0
  9 43  1  0
 12 44  1  0
 12 45  1  0
 16 46  1  0
 16 47  1  0
 16 48  1  0
 19 49  1  0
 19 50  1  0
 19 51  1  0
 22 52  1  0
 23 53  1  0
 25 54  1  0
 25 55  1  0
 25 56  1  0
 26 57  1  0
 27 58  1  0
 32 59  1  0
 33 60  1  0
M  END
$$$$
