
     RDKit          3D

 52 54  0  0  0  0  0  0  0  0999 V2000
    9.1722   -0.9526    0.4481 C   0  0  0  0  0  0  0  0  0  0  0  0
    7.8662   -1.0137   -0.2872 C   0  0  0  0  0  0  0  0  0  0  0  0
    7.3754    0.1105   -0.9616 C   0  0  0  0  0  0  0  0  0  0  0  0
    6.1435    0.0612   -1.6193 C   0  0  0  0  0  0  0  0  0  0  0  0
    5.3795   -1.1134   -1.6105 C   0  0  0  0  0  0  0  0  0  0  0  0
    4.0420   -1.1704   -2.2951 C   0  0  0  0  0  0  0  0  0  0  0  0
    2.9752   -0.9458   -1.3556 N   0  0  0  0  0  0  0  0  0  0  0  0
    1.6815   -1.3085   -1.6346 C   0  0  0  0  0  0  0  0  0  0  0  0
    1.3055   -1.9761   -2.5893 O   0  0  0  0  0  0  0  0  0  0  0  0
    0.6562   -0.7996   -0.5957 C   0  0  0  0  0  0  0  0  0  0  0  0
    0.9848    0.0209    0.2478 O   0  0  0  0  0  0  0  0  0  0  0  0
   -0.5941   -1.3511   -0.7403 N   0  0  0  0  0  0  0  0  0  0  0  0
   -1.7328   -0.8969    0.0415 C   0  0  0  0  0  0  0  0  0  0  0  0
   -2.2995    0.4648   -0.4420 C   0  0  0  0  0  0  0  0  0  0  0  0
   -2.5895    0.3730   -1.8570 O   0  0  0  0  0  0  0  0  0  0  0  0
   -3.9480   -0.0633   -1.9530 C   0  0  0  0  0  0  0  0  0  0  0  0
   -4.6500    0.6189   -0.7995 C   0  0  0  0  0  0  0  0  0  0  0  0
   -3.5766    0.8803    0.1710 N   0  0  0  0  0  0  0  0  0  0  0  0
   -3.8345    0.5459    1.7885 S   0  0  0  0  0  6  0  0  0  0  0  0
   -4.2866   -0.8259    1.8763 O   0  0  0  0  0  0  0  0  0  0  0  0
   -2.6891    1.0099    2.5364 O   0  0  0  0  0  0  0  0  0  0  0  0
   -5.1964    1.6143    2.1871 C   0  0  0  0  0  0  0  0  0  0  0  0
   -6.4405    1.0731    2.5256 C   0  0  0  0  0  0  0  0  0  0  0  0
   -7.5003    1.9284    2.8329 C   0  0  0  0  0  0  0  0  0  0  0  0
   -7.3032    3.3108    2.8108 C   0  0  0  0  0  0  0  0  0  0  0  0
   -8.7397    4.4661    3.2317 Br  0  0  0  0  0  0  0  0  0  0  0  0
   -6.0584    3.8489    2.4787 C   0  0  0  0  0  0  0  0  0  0  0  0
   -4.9966    2.9985    2.1677 C   0  0  0  0  0  0  0  0  0  0  0  0
    5.8618   -2.2298   -0.9142 C   0  0  0  0  0  0  0  0  0  0  0  0
    7.0933   -2.1797   -0.2580 C   0  0  0  0  0  0  0  0  0  0  0  0
    9.8524   -0.2323   -0.0204 H   0  0  0  0  0  0  0  0  0  0  0  0
    9.0024   -0.6583    1.4877 H   0  0  0  0  0  0  0  0  0  0  0  0
    9.6738   -1.9267    0.4329 H   0  0  0  0  0  0  0  0  0  0  0  0
    7.9524    1.0334   -0.9790 H   0  0  0  0  0  0  0  0  0  0  0  0
    5.7856    0.9486   -2.1375 H   0  0  0  0  0  0  0  0  0  0  0  0
    3.9693   -0.4028   -3.0746 H   0  0  0  0  0  0  0  0  0  0  0  0
    3.9050   -2.1381   -2.7926 H   0  0  0  0  0  0  0  0  0  0  0  0
    3.1073   -0.2820   -0.5965 H   0  0  0  0  0  0  0  0  0  0  0  0
   -0.7497   -1.8816   -1.5945 H   0  0  0  0  0  0  0  0  0  0  0  0
   -1.4164   -0.8364    1.0872 H   0  0  0  0  0  0  0  0  0  0  0  0
   -2.4864   -1.6869   -0.0455 H   0  0  0  0  0  0  0  0  0  0  0  0
   -1.5545    1.2580   -0.3178 H   0  0  0  0  0  0  0  0  0  0  0  0
   -4.3670    0.2124   -2.9247 H   0  0  0  0  0  0  0  0  0  0  0  0
   -3.9749   -1.1541   -1.8576 H   0  0  0  0  0  0  0  0  0  0  0  0
   -5.4682    0.0037   -0.4150 H   0  0  0  0  0  0  0  0  0  0  0  0
   -5.0616    1.5839   -1.1151 H   0  0  0  0  0  0  0  0  0  0  0  0
   -6.5932   -0.0044    2.5583 H   0  0  0  0  0  0  0  0  0  0  0  0
   -8.4702    1.5120    3.0957 H   0  0  0  0  0  0  0  0  0  0  0  0
   -5.9041    4.9262    2.4707 H   0  0  0  0  0  0  0  0  0  0  0  0
   -4.0250    3.4139    1.9061 H   0  0  0  0  0  0  0  0  0  0  0  0
    5.2763   -3.1462   -0.8767 H   0  0  0  0  0  0  0  0  0  0  0  0
    7.4455   -3.0583    0.2777 H   0  0  0  0  0  0  0  0  0  0  0  0
  1  2  1  0
  2  3  2  0
  3  4  1  0
  4  5  2  0
  5  6  1  0
  6  7  1  0
  7  8  1  0
  8  9  2  0
  8 10  1  0
 10 11  2  0
 10 12  1  0
 12 13  1  0
 13 14  1  0
 14 15  1  0
 15 16  1  0
 16 17  1  0
 17 18  1  0
 18 19  1  0
 19 20  2  0
 19 21  2  0
 19 22  1  0
 22 23  2  0
 23 24  1  0
 24 25  2  0
 25 26  1  0
 25 27  1  0
 27 28  2  0
  5 29  1  0
 29 30  2  0
 30  2  1  0
 18 14  1  0
 28 22  1  0
  1 31  1  0
  1 32  1  0
  1 33  1  0
  3 34  1  0
  4 35  1  0
  6 36  1  0
  6 37  1  0
  7 38  1  0
 12 39  1  0
 13 40  1  0
 13 41  1  0
 14 42  1  0
 16 43  1  0
 16 44  1  0
 17 45  1  0
 17 46  1  0
 23 47  1  0
 24 48  1  0
 27 49  1  0
 28 50  1  0
 29 51  1  0
 30 52  1  0
M  END
$$$$
