
     RDKit          3D

 61 66  0  0  0  0  0  0  0  0999 V2000
   -3.6544    1.3663   -3.3789 C   0  0  0  0  0  0  0  0  0  0  0  0
   -2.4908    0.4299   -3.7065 C   0  0  0  0  0  0  0  0  0  0  0  0
   -1.1655    1.1940   -3.7213 C   0  0  0  0  0  0  0  0  0  0  0  0
   -2.5343   -0.8605   -2.8914 C   0  0  0  0  0  0  0  0  0  0  0  0
   -3.3152   -1.9017   -3.4428 C   0  0  0  0  0  0  0  0  0  0  0  0
   -3.3800   -3.1721   -2.8633 C   0  0  0  0  0  0  0  0  0  0  0  0
   -2.6591   -3.4476   -1.7103 C   0  0  0  0  0  0  0  0  0  0  0  0
   -1.8945   -2.4451   -1.1239 C   0  0  0  0  0  0  0  0  0  0  0  0
   -1.8514   -1.1560   -1.6952 C   0  0  0  0  0  0  0  0  0  0  0  0
   -1.1230   -0.1907   -0.9704 N   0  0  0  0  0  0  0  0  0  0  0  0
    0.2469   -0.1389   -0.8050 C   0  0  0  0  0  0  0  0  0  0  0  0
    1.3688   -1.2109   -1.5840 S   0  0  0  0  0  0  0  0  0  0  0  0
    2.8543   -0.9717   -0.5493 C   0  0  0  0  0  0  0  0  0  0  0  0
    2.7364   -1.5198    0.8585 C   0  0  0  0  0  0  0  0  0  0  0  0
    2.0384   -2.6385    1.1214 C   0  0  0  0  0  0  0  0  0  0  0  0
    1.6506   -3.0594    2.4697 C   0  0  0  0  0  0  0  0  0  0  0  0
    1.0937   -4.1342    2.6571 O   0  0  0  0  0  0  0  0  0  0  0  0
    1.8515   -2.1353    3.4702 O   0  0  0  0  0  0  0  0  0  0  0  0
    2.7105   -1.0383    3.2624 C   0  0  0  0  0  0  0  0  0  0  0  0
    2.9775   -0.2910    4.4037 C   0  0  0  0  0  0  0  0  0  0  0  0
    3.8919    0.7466    4.3321 C   0  0  0  0  0  0  0  0  0  0  0  0
    4.5963    0.9921    3.1493 C   0  0  0  0  0  0  0  0  0  0  0  0
    5.5728    2.0021    3.1495 C   0  0  0  0  0  0  0  0  0  0  0  0
    6.3593    2.2447    2.0289 C   0  0  0  0  0  0  0  0  0  0  0  0
    6.1923    1.4612    0.9003 C   0  0  0  0  0  0  0  0  0  0  0  0
    5.2137    0.4614    0.8834 C   0  0  0  0  0  0  0  0  0  0  0  0
    4.3458    0.2153    1.9803 C   0  0  0  0  0  0  0  0  0  0  0  0
    3.2979   -0.7660    2.0165 C   0  0  0  0  0  0  0  0  0  0  0  0
    0.5716    0.8732   -0.0388 N   0  0  0  0  0  0  0  0  0  0  0  0
   -0.5882    1.4760    0.3636 N   0  0  0  0  0  0  0  0  0  0  0  0
   -1.6195    0.8127   -0.1398 C   0  0  0  0  0  0  0  0  0  0  0  0
   -3.0145    1.1370    0.1704 C   0  0  0  0  0  0  0  0  0  0  0  0
   -3.3619    2.4649    0.4540 C   0  0  0  0  0  0  0  0  0  0  0  0
   -4.6812    2.8039    0.7515 C   0  0  0  0  0  0  0  0  0  0  0  0
   -5.6275    1.7969    0.7674 C   0  0  0  0  0  0  0  0  0  0  0  0
   -5.3386    0.5025    0.5244 N   0  0  0  0  0  0  0  0  0  0  0  0
   -4.0440    0.2041    0.2417 C   0  0  0  0  0  0  0  0  0  0  0  0
   -4.6087    0.8313   -3.3427 H   0  0  0  0  0  0  0  0  0  0  0  0
   -3.7384    2.1492   -4.1408 H   0  0  0  0  0  0  0  0  0  0  0  0
   -3.5112    1.8688   -2.4219 H   0  0  0  0  0  0  0  0  0  0  0  0
   -2.6307    0.1250   -4.7546 H   0  0  0  0  0  0  0  0  0  0  0  0
   -0.3209    0.5217   -3.9043 H   0  0  0  0  0  0  0  0  0  0  0  0
   -1.1714    1.9394   -4.5249 H   0  0  0  0  0  0  0  0  0  0  0  0
   -0.9876    1.7427   -2.7929 H   0  0  0  0  0  0  0  0  0  0  0  0
   -3.8809   -1.7322   -4.3588 H   0  0  0  0  0  0  0  0  0  0  0  0
   -3.9885   -3.9469   -3.3232 H   0  0  0  0  0  0  0  0  0  0  0  0
   -2.7034   -4.4375   -1.2621 H   0  0  0  0  0  0  0  0  0  0  0  0
   -1.3603   -2.6720   -0.2023 H   0  0  0  0  0  0  0  0  0  0  0  0
    3.6896   -1.4639   -1.0589 H   0  0  0  0  0  0  0  0  0  0  0  0
    3.0392    0.1052   -0.5555 H   0  0  0  0  0  0  0  0  0  0  0  0
    1.6296   -3.2703    0.3414 H   0  0  0  0  0  0  0  0  0  0  0  0
    2.4800   -0.5210    5.3412 H   0  0  0  0  0  0  0  0  0  0  0  0
    4.0855    1.3341    5.2269 H   0  0  0  0  0  0  0  0  0  0  0  0
    5.7409    2.6062    4.0394 H   0  0  0  0  0  0  0  0  0  0  0  0
    7.1144    3.0254    2.0499 H   0  0  0  0  0  0  0  0  0  0  0  0
    6.8267    1.6165    0.0315 H   0  0  0  0  0  0  0  0  0  0  0  0
    5.1783   -0.1534   -0.0086 H   0  0  0  0  0  0  0  0  0  0  0  0
   -2.6023    3.2445    0.4413 H   0  0  0  0  0  0  0  0  0  0  0  0
   -4.9595    3.8305    0.9620 H   0  0  0  0  0  0  0  0  0  0  0  0
   -6.6701    2.0076    0.9892 H   0  0  0  0  0  0  0  0  0  0  0  0
   -3.8770   -0.8579    0.0934 H   0  0  0  0  0  0  0  0  0  0  0  0
  1  2  1  0
  2  3  1  0
  2  4  1  0
  4  5  2  0
  5  6  1  0
  6  7  2  0
  7  8  1  0
  8  9  2  0
  9 10  1  0
 10 11  1  0
 11 12  1  0
 12 13  1  0
 13 14  1  0
 14 15  2  0
 15 16  1  0
 16 17  2  0
 16 18  1  0
 18 19  1  0
 19 20  2  0
 20 21  1  0
 21 22  2  0
 22 23  1  0
 23 24  2  0
 24 25  1  0
 25 26  2  0
 26 27  1  0
 27 28  2  0
 11 29  2  0
 29 30  1  0
 30 31  2  0
 31 32  1  0
 32 33  2  0
 33 34  1  0
 34 35  2  0
 35 36  1  0
 36 37  2  0
  9  4  1  0
 31 10  1  0
 37 32  1  0
 28 14  1  0
 28 19  1  0
 27 22  1  0
  1 38  1  0
  1 39  1  0
  1 40  1  0
  2 41  1  0
  3 42  1  0
  3 43  1  0
  3 44  1  0
  5 45  1  0
  6 46  1  0
  7 47  1  0
  8 48  1  0
 13 49  1  0
 13 50  1  0
 15 51  1  0
 20 52  1  0
 21 53  1  0
 23 54  1  0
 24 55  1  0
 25 56  1  0
 26 57  1  0
 33 58  1  0
 34 59  1  0
 35 60  1  0
 37 61  1  0
M  END
$$$$
