
     RDKit          3D

 51 55  0  0  0  0  0  0  0  0999 V2000
    8.9922    0.7812    2.0716 F   0  0  0  0  0  0  0  0  0  0  0  0
    7.8145    0.4361    1.5347 C   0  0  0  0  0  0  0  0  0  0  0  0
    6.9578   -0.3978    2.2431 C   0  0  0  0  0  0  0  0  0  0  0  0
    5.7301   -0.7576    1.6859 C   0  0  0  0  0  0  0  0  0  0  0  0
    5.3631   -0.2846    0.4165 C   0  0  0  0  0  0  0  0  0  0  0  0
    4.0254   -0.6565   -0.1811 C   0  0  0  0  0  0  0  0  0  0  0  0
    2.9234    0.3321    0.2380 C   0  0  0  0  0  0  0  0  0  0  0  0
    1.6236    0.0695   -0.4053 N   0  0  0  0  0  0  0  0  0  0  0  0
    1.0730   -1.2541   -0.0337 C   0  0  0  0  0  0  0  0  0  0  0  0
   -0.4495   -1.3836   -0.2615 C   0  0  0  0  0  0  0  0  0  0  0  0
   -1.2240   -0.3776    0.5042 N   0  0  0  0  0  0  0  0  0  0  0  0
   -2.5256   -0.1282    0.0632 C   0  0  0  0  0  0  0  0  0  0  0  0
   -2.8380    1.0722   -0.3573 N   0  0  0  0  0  0  0  0  0  0  0  0
   -4.1279    1.3482   -0.8510 C   0  0  0  0  0  0  0  0  0  0  0  0
   -4.4037    2.6418   -1.2983 C   0  0  0  0  0  0  0  0  0  0  0  0
   -5.6635    2.9672   -1.8085 C   0  0  0  0  0  0  0  0  0  0  0  0
   -6.6634    1.9964   -1.8767 C   0  0  0  0  0  0  0  0  0  0  0  0
   -6.4103    0.6971   -1.4353 C   0  0  0  0  0  0  0  0  0  0  0  0
   -5.1451    0.3866   -0.9280 C   0  0  0  0  0  0  0  0  0  0  0  0
   -4.8087   -0.8905   -0.4514 N   0  0  0  0  0  0  0  0  0  0  0  0
   -5.5804   -2.0256   -0.3700 C   0  0  0  0  0  0  0  0  0  0  0  0
   -4.8316   -3.0125    0.2335 C   0  0  0  0  0  0  0  0  0  0  0  0
   -3.5599   -2.4608    0.5136 C   0  0  0  0  0  0  0  0  0  0  0  0
   -3.5534   -1.1577    0.0486 C   0  0  0  0  0  0  0  0  0  0  0  0
   -0.4070    0.7711    0.9517 C   0  0  0  0  0  0  0  0  0  0  0  0
    0.6463    1.1480   -0.1077 C   0  0  0  0  0  0  0  0  0  0  0  0
    6.2399    0.5608   -0.2807 C   0  0  0  0  0  0  0  0  0  0  0  0
    7.4668    0.9189    0.2791 C   0  0  0  0  0  0  0  0  0  0  0  0
    7.2510   -0.7610    3.2227 H   0  0  0  0  0  0  0  0  0  0  0  0
    5.0627   -1.4092    2.2457 H   0  0  0  0  0  0  0  0  0  0  0  0
    4.1117   -0.6841   -1.2751 H   0  0  0  0  0  0  0  0  0  0  0  0
    3.7759   -1.6782    0.1301 H   0  0  0  0  0  0  0  0  0  0  0  0
    3.2562    1.3392   -0.0473 H   0  0  0  0  0  0  0  0  0  0  0  0
    2.8168    0.3366    1.3311 H   0  0  0  0  0  0  0  0  0  0  0  0
    1.2772   -1.4702    1.0238 H   0  0  0  0  0  0  0  0  0  0  0  0
    1.5746   -2.0275   -0.6265 H   0  0  0  0  0  0  0  0  0  0  0  0
   -0.7556   -2.3905    0.0369 H   0  0  0  0  0  0  0  0  0  0  0  0
   -0.6602   -1.2751   -1.3336 H   0  0  0  0  0  0  0  0  0  0  0  0
   -3.6262    3.3994   -1.2489 H   0  0  0  0  0  0  0  0  0  0  0  0
   -5.8617    3.9790   -2.1527 H   0  0  0  0  0  0  0  0  0  0  0  0
   -7.6422    2.2545   -2.2740 H   0  0  0  0  0  0  0  0  0  0  0  0
   -7.2040   -0.0399   -1.4959 H   0  0  0  0  0  0  0  0  0  0  0  0
   -6.6004   -2.0480   -0.7248 H   0  0  0  0  0  0  0  0  0  0  0  0
   -5.1706   -4.0157    0.4579 H   0  0  0  0  0  0  0  0  0  0  0  0
   -2.7389   -2.9607    1.0089 H   0  0  0  0  0  0  0  0  0  0  0  0
   -1.0259    1.6433    1.1925 H   0  0  0  0  0  0  0  0  0  0  0  0
    0.0914    0.4972    1.8902 H   0  0  0  0  0  0  0  0  0  0  0  0
    1.1517    2.0733    0.1945 H   0  0  0  0  0  0  0  0  0  0  0  0
    0.1307    1.3834   -1.0476 H   0  0  0  0  0  0  0  0  0  0  0  0
    5.9704    0.9438   -1.2629 H   0  0  0  0  0  0  0  0  0  0  0  0
    8.1512    1.5703   -0.2546 H   0  0  0  0  0  0  0  0  0  0  0  0
  1  2  1  0
  2  3  2  0
  3  4  1  0
  4  5  2  0
  5  6  1  0
  6  7  1  0
  7  8  1  0
  8  9  1  0
  9 10  1  0
 10 11  1  0
 11 12  1  0
 12 13  2  0
 13 14  1  0
 14 15  2  0
 15 16  1  0
 16 17  2  0
 17 18  1  0
 18 19  2  0
 19 20  1  0
 20 21  1  0
 21 22  2  0
 22 23  1  0
 23 24  2  0
 11 25  1  0
 25 26  1  0
  5 27  1  0
 27 28  2  0
 28  2  1  0
 26  8  1  0
 24 12  1  0
 19 14  1  0
 24 20  1  0
  3 29  1  0
  4 30  1  0
  6 31  1  0
  6 32  1  0
  7 33  1  0
  7 34  1  0
  9 35  1  0
  9 36  1  0
 10 37  1  0
 10 38  1  0
 15 39  1  0
 16 40  1  0
 17 41  1  0
 18 42  1  0
 21 43  1  0
 22 44  1  0
 23 45  1  0
 25 46  1  0
 25 47  1  0
 26 48  1  0
 26 49  1  0
 27 50  1  0
 28 51  1  0
M  END
$$$$
