
     RDKit          3D

 52 56  0  0  0  0  0  0  0  0999 V2000
    2.8061    0.7921    0.7078 C   0  0  0  0  0  0  0  0  0  0  0  0
    3.1143   -0.1603   -0.4328 C   0  0  0  0  0  0  0  0  0  0  0  0
    2.4939   -0.1651   -1.5806 N   0  0  0  0  0  0  0  0  0  0  0  0
    1.3987    0.6425   -1.7419 N   0  0  0  0  0  0  0  0  0  0  0  0
    0.2070    0.3901   -1.0601 C   0  0  0  0  0  0  0  0  0  0  0  0
    0.0977   -0.3345   -0.0746 O   0  0  0  0  0  0  0  0  0  0  0  0
   -0.9360    1.0797   -1.6560 C   0  0  0  0  0  0  0  0  0  0  0  0
   -0.8304    1.8016   -2.8132 N   0  0  0  0  0  0  0  0  0  0  0  0
   -2.0160    2.3104   -3.0932 N   0  0  0  0  0  0  0  0  0  0  0  0
   -2.9079    1.9419   -2.1247 N   0  0  0  0  0  0  0  0  0  0  0  0
   -4.2609    2.3658   -2.1771 C   0  0  0  0  0  0  0  0  0  0  0  0
   -5.1525    1.9591   -1.2734 N   0  0  0  0  0  0  0  0  0  0  0  0
   -6.3422    2.5671   -1.6694 O   0  0  0  0  0  0  0  0  0  0  0  0
   -6.1615    3.3286   -2.8184 N   0  0  0  0  0  0  0  0  0  0  0  0
   -4.8703    3.2108   -3.1252 C   0  0  0  0  0  0  0  0  0  0  0  0
   -4.2827    3.8145   -4.1747 N   0  0  0  0  0  0  0  0  0  0  0  0
   -2.2464    1.1339   -1.2017 C   0  0  0  0  0  0  0  0  0  0  0  0
   -2.8562    0.5217    0.0070 C   0  0  0  0  0  0  0  0  0  0  0  0
   -2.7686    1.6973    1.3992 S   0  0  0  0  0  0  0  0  0  0  0  0
   -3.3803    0.6399    2.6956 C   0  0  0  0  0  0  0  0  0  0  0  0
   -4.6254    0.9031    3.2732 C   0  0  0  0  0  0  0  0  0  0  0  0
   -5.1143    0.0838    4.2929 C   0  0  0  0  0  0  0  0  0  0  0  0
   -4.3575   -0.9970    4.7434 C   0  0  0  0  0  0  0  0  0  0  0  0
   -3.1098   -1.2573    4.1785 C   0  0  0  0  0  0  0  0  0  0  0  0
   -2.6200   -0.4387    3.1589 C   0  0  0  0  0  0  0  0  0  0  0  0
    4.2340   -1.1350   -0.2320 C   0  0  0  0  0  0  0  0  0  0  0  0
    4.6063   -1.5592    1.0630 C   0  0  0  0  0  0  0  0  0  0  0  0
    5.6509   -2.4737    1.2421 C   0  0  0  0  0  0  0  0  0  0  0  0
    6.2919   -2.9442    0.1171 C   0  0  0  0  0  0  0  0  0  0  0  0
    5.9270   -2.5417   -1.1458 C   0  0  0  0  0  0  0  0  0  0  0  0
    4.9025   -1.6434   -1.3562 C   0  0  0  0  0  0  0  0  0  0  0  0
    6.6825   -3.1262   -2.1139 O   0  0  0  0  0  0  0  0  0  0  0  0
    7.5600   -3.9478   -1.3162 C   0  0  0  0  0  0  0  0  0  0  0  0
    7.3209   -3.8324    0.1022 O   0  0  0  0  0  0  0  0  0  0  0  0
    2.1128    0.3209    1.4091 H   0  0  0  0  0  0  0  0  0  0  0  0
    3.7230    1.0615    1.2409 H   0  0  0  0  0  0  0  0  0  0  0  0
    2.3729    1.7251    0.3382 H   0  0  0  0  0  0  0  0  0  0  0  0
    1.2681    0.9722   -2.6968 H   0  0  0  0  0  0  0  0  0  0  0  0
   -4.8579    4.2519   -4.8866 H   0  0  0  0  0  0  0  0  0  0  0  0
   -3.3404    3.5695   -4.4738 H   0  0  0  0  0  0  0  0  0  0  0  0
   -2.3177   -0.3928    0.2720 H   0  0  0  0  0  0  0  0  0  0  0  0
   -3.8890    0.2065   -0.1584 H   0  0  0  0  0  0  0  0  0  0  0  0
   -5.2242    1.7448    2.9333 H   0  0  0  0  0  0  0  0  0  0  0  0
   -6.0846    0.2915    4.7367 H   0  0  0  0  0  0  0  0  0  0  0  0
   -4.7378   -1.6332    5.5386 H   0  0  0  0  0  0  0  0  0  0  0  0
   -2.5152   -2.0950    4.5338 H   0  0  0  0  0  0  0  0  0  0  0  0
   -1.6397   -0.6472    2.7349 H   0  0  0  0  0  0  0  0  0  0  0  0
    4.0782   -1.1998    1.9425 H   0  0  0  0  0  0  0  0  0  0  0  0
    5.9431   -2.8080    2.2315 H   0  0  0  0  0  0  0  0  0  0  0  0
    4.6328   -1.3445   -2.3635 H   0  0  0  0  0  0  0  0  0  0  0  0
    7.4244   -4.9949   -1.6107 H   0  0  0  0  0  0  0  0  0  0  0  0
    8.5964   -3.6559   -1.5216 H   0  0  0  0  0  0  0  0  0  0  0  0
  1  2  1  0
  2  3  2  3
  3  4  1  0
  4  5  1  0
  5  6  2  0
  5  7  1  0
  7  8  1  0
  8  9  2  0
  9 10  1  0
 10 11  1  0
 11 12  2  0
 12 13  1  0
 13 14  1  0
 14 15  2  0
 15 16  1  0
 10 17  1  0
 17 18  1  0
 18 19  1  0
 19 20  1  0
 20 21  2  0
 21 22  1  0
 22 23  2  0
 23 24  1  0
 24 25  2  0
  2 26  1  0
 26 27  2  0
 27 28  1  0
 28 29  2  0
 29 30  1  0
 30 31  2  0
 30 32  1  0
 32 33  1  0
 33 34  1  0
 17  7  2  0
 25 20  1  0
 31 26  1  0
 15 11  1  0
 34 29  1  0
  1 35  1  0
  1 36  1  0
  1 37  1  0
  4 38  1  0
 16 39  1  0
 16 40  1  0
 18 41  1  0
 18 42  1  0
 21 43  1  0
 22 44  1  0
 23 45  1  0
 24 46  1  0
 25 47  1  0
 27 48  1  0
 28 49  1  0
 31 50  1  0
 33 51  1  0
 33 52  1  0
M  END
$$$$
