
     RDKit          3D

 47 50  0  0  0  0  0  0  0  0999 V2000
   -6.1664    2.1549    0.8103 C   0  0  0  0  0  0  0  0  0  0  0  0
   -6.3377    0.6547    0.6138 C   0  0  0  0  0  0  0  0  0  0  0  0
   -5.1474    0.0267   -0.1079 C   0  0  0  0  0  0  0  0  0  0  0  0
   -3.9819    0.1740    0.7141 O   0  0  0  0  0  0  0  0  0  0  0  0
   -2.8313    0.0782   -0.0218 C   0  0  0  0  0  0  0  0  0  0  0  0
   -2.0272    1.2160   -0.0716 C   0  0  0  0  0  0  0  0  0  0  0  0
   -0.8483    1.2098   -0.8223 C   0  0  0  0  0  0  0  0  0  0  0  0
   -0.4548    0.0566   -1.5113 C   0  0  0  0  0  0  0  0  0  0  0  0
    0.7485    0.0333   -2.3482 C   0  0  0  0  0  0  0  0  0  0  0  0
    2.0142    0.2147   -1.9408 C   0  0  0  0  0  0  0  0  0  0  0  0
    3.3586    0.1497   -3.0851 S   0  0  0  0  0  0  0  0  0  0  0  0
    4.4575    0.4493   -1.8067 C   0  0  0  0  0  0  0  0  0  0  0  0
    5.7474    0.5858   -1.7079 N   0  0  0  0  0  0  0  0  0  0  0  0
    5.8979    0.8166   -0.3488 C   0  0  0  0  0  0  0  0  0  0  0  0
    7.2984    1.0568    0.3051 C   0  0  0  0  0  0  0  0  0  0  0  0
    7.5339    1.3058    1.6443 C   0  0  0  0  0  0  0  0  0  0  0  0
    8.9337    1.4641    1.7900 C   0  0  0  0  0  0  0  0  0  0  0  0
    9.4674    1.3000    0.5339 C   0  0  0  0  0  0  0  0  0  0  0  0
    8.4868    1.0547   -0.3722 O   0  0  0  0  0  0  0  0  0  0  0  0
    4.7511    0.8231    0.3638 N   0  0  0  0  0  0  0  0  0  0  0  0
    3.8550    0.5821   -0.6103 N   0  0  0  0  0  0  0  0  0  0  0  0
    2.4822    0.4688   -0.5369 C   0  0  0  0  0  0  0  0  0  0  0  0
    1.8606    0.5716    0.5030 O   0  0  0  0  0  0  0  0  0  0  0  0
   -1.2557   -1.0897   -1.4417 C   0  0  0  0  0  0  0  0  0  0  0  0
   -2.4208   -1.0899   -0.6704 C   0  0  0  0  0  0  0  0  0  0  0  0
   -3.1301   -2.2618   -0.6264 O   0  0  0  0  0  0  0  0  0  0  0  0
   -3.0577   -2.8518    0.6790 C   0  0  0  0  0  0  0  0  0  0  0  0
   -3.6002   -4.2656    0.5776 C   0  0  0  0  0  0  0  0  0  0  0  0
   -5.2887    2.3790    1.4247 H   0  0  0  0  0  0  0  0  0  0  0  0
   -6.0520    2.6633   -0.1522 H   0  0  0  0  0  0  0  0  0  0  0  0
   -7.0443    2.5734    1.3132 H   0  0  0  0  0  0  0  0  0  0  0  0
   -7.2518    0.4679    0.0397 H   0  0  0  0  0  0  0  0  0  0  0  0
   -6.4589    0.1872    1.5980 H   0  0  0  0  0  0  0  0  0  0  0  0
   -5.3536   -1.0373   -0.2607 H   0  0  0  0  0  0  0  0  0  0  0  0
   -5.0129    0.5081   -1.0857 H   0  0  0  0  0  0  0  0  0  0  0  0
   -2.3243    2.1122    0.4648 H   0  0  0  0  0  0  0  0  0  0  0  0
   -0.2453    2.1132   -0.8546 H   0  0  0  0  0  0  0  0  0  0  0  0
    0.5428   -0.1740   -3.3982 H   0  0  0  0  0  0  0  0  0  0  0  0
    6.7782    1.3667    2.4157 H   0  0  0  0  0  0  0  0  0  0  0  0
    9.4841    1.6708    2.6967 H   0  0  0  0  0  0  0  0  0  0  0  0
   10.4726    1.3265    0.1360 H   0  0  0  0  0  0  0  0  0  0  0  0
   -0.9734   -1.9976   -1.9689 H   0  0  0  0  0  0  0  0  0  0  0  0
   -2.0199   -2.8867    1.0334 H   0  0  0  0  0  0  0  0  0  0  0  0
   -3.6657   -2.2857    1.3918 H   0  0  0  0  0  0  0  0  0  0  0  0
   -4.6326   -4.2567    0.2127 H   0  0  0  0  0  0  0  0  0  0  0  0
   -3.5739   -4.7653    1.5502 H   0  0  0  0  0  0  0  0  0  0  0  0
   -3.0146   -4.8534   -0.1368 H   0  0  0  0  0  0  0  0  0  0  0  0
  1  2  1  0
  2  3  1  0
  3  4  1  0
  4  5  1  0
  5  6  2  0
  6  7  1  0
  7  8  2  0
  8  9  1  0
  9 10  2  3
 10 11  1  0
 11 12  1  0
 12 13  2  0
 13 14  1  0
 14 15  1  0
 15 16  2  0
 16 17  1  0
 17 18  2  0
 18 19  1  0
 14 20  2  0
 20 21  1  0
 21 22  1  0
 22 23  2  0
  8 24  1  0
 24 25  2  0
 25 26  1  0
 26 27  1  0
 27 28  1  0
 25  5  1  0
 22 10  1  0
 21 12  1  0
 19 15  1  0
  1 29  1  0
  1 30  1  0
  1 31  1  0
  2 32  1  0
  2 33  1  0
  3 34  1  0
  3 35  1  0
  6 36  1  0
  7 37  1  0
  9 38  1  0
 16 39  1  0
 17 40  1  0
 18 41  1  0
 24 42  1  0
 27 43  1  0
 27 44  1  0
 28 45  1  0
 28 46  1  0
 28 47  1  0
M  END
$$$$
