
     RDKit          3D

 48 51  0  0  0  0  0  0  0  0999 V2000
    1.9647   -0.4307    3.7058 C   0  0  0  0  0  0  0  0  0  0  0  0
    2.2182   -0.1598    2.2580 C   0  0  0  0  0  0  0  0  0  0  0  0
    1.3776   -0.3001    1.2193 C   0  0  0  0  0  0  0  0  0  0  0  0
    0.1041   -0.7698    1.0502 N   0  0  0  0  0  0  0  0  0  0  0  0
   -0.6939   -1.4893    1.9090 C   0  0  0  0  0  0  0  0  0  0  0  0
   -0.3370   -1.9165    3.0055 O   0  0  0  0  0  0  0  0  0  0  0  0
   -2.0688   -1.8564    1.3607 C   0  0  0  0  0  0  0  0  0  0  0  0
   -2.7116   -0.6244    0.1769 S   0  0  0  0  0  0  0  0  0  0  0  0
   -4.2576   -1.4022   -0.3112 C   0  0  0  0  0  0  0  0  0  0  0  0
   -4.5926   -2.5122    0.3755 N   0  0  0  0  0  0  0  0  0  0  0  0
   -5.7426   -3.0927    0.0264 C   0  0  0  0  0  0  0  0  0  0  0  0
   -6.5756   -2.6767   -0.9321 N   0  0  0  0  0  0  0  0  0  0  0  0
   -6.2273   -1.5749   -1.6044 C   0  0  0  0  0  0  0  0  0  0  0  0
   -7.0758   -1.1215   -2.6076 C   0  0  0  0  0  0  0  0  0  0  0  0
   -6.7900    0.0193   -3.3612 C   0  0  0  0  0  0  0  0  0  0  0  0
   -5.6272    0.7332   -3.1125 C   0  0  0  0  0  0  0  0  0  0  0  0
   -4.7607    0.3001   -2.1111 C   0  0  0  0  0  0  0  0  0  0  0  0
   -5.0491   -0.8621   -1.3425 C   0  0  0  0  0  0  0  0  0  0  0  0
    2.1112    0.2446    0.0303 C   0  0  0  0  0  0  0  0  0  0  0  0
    1.5885    0.3184   -1.0735 O   0  0  0  0  0  0  0  0  0  0  0  0
    3.3654    0.6550    0.4853 N   0  0  0  0  0  0  0  0  0  0  0  0
    4.1958    1.6243   -0.1349 C   0  0  0  0  0  0  0  0  0  0  0  0
    5.0820    2.4116    0.6165 C   0  0  0  0  0  0  0  0  0  0  0  0
    5.9035    3.3626    0.0025 C   0  0  0  0  0  0  0  0  0  0  0  0
    5.8493    3.5444   -1.3757 C   0  0  0  0  0  0  0  0  0  0  0  0
    4.9717    2.7790   -2.1375 C   0  0  0  0  0  0  0  0  0  0  0  0
    4.1503    1.8288   -1.5209 C   0  0  0  0  0  0  0  0  0  0  0  0
    3.4733    0.3583    1.8752 N   0  0  0  0  0  0  0  0  0  0  0  0
    4.6600   -0.4550    2.2055 C   0  0  0  0  0  0  0  0  0  0  0  0
    2.1418   -1.4844    3.9413 H   0  0  0  0  0  0  0  0  0  0  0  0
    0.9498   -0.1468    3.9970 H   0  0  0  0  0  0  0  0  0  0  0  0
    2.6318    0.1705    4.3345 H   0  0  0  0  0  0  0  0  0  0  0  0
   -0.2718   -0.6095    0.1156 H   0  0  0  0  0  0  0  0  0  0  0  0
   -2.7574   -1.9252    2.2091 H   0  0  0  0  0  0  0  0  0  0  0  0
   -1.9791   -2.8341    0.8758 H   0  0  0  0  0  0  0  0  0  0  0  0
   -6.0296   -3.9861    0.5707 H   0  0  0  0  0  0  0  0  0  0  0  0
   -7.9908   -1.6746   -2.8108 H   0  0  0  0  0  0  0  0  0  0  0  0
   -7.4773    0.3429   -4.1385 H   0  0  0  0  0  0  0  0  0  0  0  0
   -5.3929    1.6222   -3.6925 H   0  0  0  0  0  0  0  0  0  0  0  0
   -3.8543    0.8750   -1.9323 H   0  0  0  0  0  0  0  0  0  0  0  0
    5.1242    2.3201    1.6984 H   0  0  0  0  0  0  0  0  0  0  0  0
    6.5788    3.9642    0.6050 H   0  0  0  0  0  0  0  0  0  0  0  0
    6.4850    4.2843   -1.8550 H   0  0  0  0  0  0  0  0  0  0  0  0
    4.9219    2.9174   -3.2146 H   0  0  0  0  0  0  0  0  0  0  0  0
    3.4902    1.2411   -2.1537 H   0  0  0  0  0  0  0  0  0  0  0  0
    5.5831   -0.0023    1.8324 H   0  0  0  0  0  0  0  0  0  0  0  0
    4.7645   -0.5508    3.2911 H   0  0  0  0  0  0  0  0  0  0  0  0
    4.5762   -1.4591    1.7735 H   0  0  0  0  0  0  0  0  0  0  0  0
  1  2  1  0
  2  3  2  0
  3  4  1  0
  4  5  1  0
  5  6  2  0
  5  7  1  0
  7  8  1  0
  8  9  1  0
  9 10  2  0
 10 11  1  0
 11 12  2  0
 12 13  1  0
 13 14  2  0
 14 15  1  0
 15 16  2  0
 16 17  1  0
 17 18  2  0
  3 19  1  0
 19 20  2  0
 19 21  1  0
 21 22  1  0
 22 23  2  0
 23 24  1  0
 24 25  2  0
 25 26  1  0
 26 27  2  0
 21 28  1  0
 28 29  1  0
 28  2  1  0
 18  9  1  0
 27 22  1  0
 18 13  1  0
  1 30  1  0
  1 31  1  0
  1 32  1  0
  4 33  1  0
  7 34  1  0
  7 35  1  0
 11 36  1  0
 14 37  1  0
 15 38  1  0
 16 39  1  0
 17 40  1  0
 23 41  1  0
 24 42  1  0
 25 43  1  0
 26 44  1  0
 27 45  1  0
 29 46  1  0
 29 47  1  0
 29 48  1  0
M  END
$$$$
