
     RDKit          3D

 50 53  0  0  0  0  0  0  0  0999 V2000
   -5.1538   -1.9719    5.2173 C   0  0  0  0  0  0  0  0  0  0  0  0
   -4.2715   -1.6366    4.0516 C   0  0  0  0  0  0  0  0  0  0  0  0
   -3.1505   -2.4174    3.7646 C   0  0  0  0  0  0  0  0  0  0  0  0
   -2.3150   -2.0898    2.6926 C   0  0  0  0  0  0  0  0  0  0  0  0
   -2.5710   -0.9573    1.8981 C   0  0  0  0  0  0  0  0  0  0  0  0
   -1.6892   -0.6706    0.8082 N   0  0  0  0  0  0  0  0  0  0  0  0
   -0.8355   -1.6463    0.3936 N   0  0  0  0  0  0  0  0  0  0  0  0
   -0.2935   -1.1845   -0.7332 C   0  0  0  0  0  0  0  0  0  0  0  0
    0.6523   -1.8921   -1.5854 C   0  0  0  0  0  0  0  0  0  0  0  0
    1.0639   -3.0271   -1.3545 O   0  0  0  0  0  0  0  0  0  0  0  0
    1.0549   -1.1270   -2.6991 N   0  0  0  0  0  0  0  0  0  0  0  0
    2.0705   -1.6862   -3.5930 C   0  0  0  0  0  0  0  0  0  0  0  0
    3.4824   -1.2583   -3.1828 C   0  0  0  0  0  0  0  0  0  0  0  0
    4.4888   -1.8512   -3.5639 O   0  0  0  0  0  0  0  0  0  0  0  0
    3.5364   -0.0886   -2.4595 N   0  0  0  0  0  0  0  0  0  0  0  0
    4.7852    0.5629   -2.1668 C   0  0  0  0  0  0  0  0  0  0  0  0
    4.4920    1.7451   -1.2993 C   0  0  0  0  0  0  0  0  0  0  0  0
    4.3116    1.7799    0.0714 C   0  0  0  0  0  0  0  0  0  0  0  0
    4.0410    3.0956    0.5500 C   0  0  0  0  0  0  0  0  0  0  0  0
    4.0167    4.0215   -0.4707 C   0  0  0  0  0  0  0  0  0  0  0  0
    4.3066    3.3020   -1.9959 S   0  0  0  0  0  0  0  0  0  0  0  0
    0.6505    0.1920   -2.9614 N   0  0  0  0  0  0  0  0  0  0  0  0
   -0.1981    0.8030   -2.1802 C   0  0  0  0  0  0  0  0  0  0  0  0
   -0.5996    2.2076   -2.5295 C   0  0  0  0  0  0  0  0  0  0  0  0
   -0.7016    0.1233   -1.0123 C   0  0  0  0  0  0  0  0  0  0  0  0
   -1.5254    0.4906    0.0404 C   0  0  0  0  0  0  0  0  0  0  0  0
   -2.0933    1.8200    0.3852 C   0  0  0  0  0  0  0  0  0  0  0  0
   -3.7002   -0.1827    2.1816 C   0  0  0  0  0  0  0  0  0  0  0  0
   -4.5359   -0.5151    3.2567 C   0  0  0  0  0  0  0  0  0  0  0  0
   -4.7931   -1.4682    6.1183 H   0  0  0  0  0  0  0  0  0  0  0  0
   -5.1701   -3.0523    5.3963 H   0  0  0  0  0  0  0  0  0  0  0  0
   -6.1867   -1.6606    5.0276 H   0  0  0  0  0  0  0  0  0  0  0  0
   -2.9170   -3.2935    4.3680 H   0  0  0  0  0  0  0  0  0  0  0  0
   -1.4558   -2.7298    2.4960 H   0  0  0  0  0  0  0  0  0  0  0  0
    1.8771   -1.3311   -4.6107 H   0  0  0  0  0  0  0  0  0  0  0  0
    2.0220   -2.7794   -3.5805 H   0  0  0  0  0  0  0  0  0  0  0  0
    2.6807    0.4621   -2.4566 H   0  0  0  0  0  0  0  0  0  0  0  0
    5.2624    0.8449   -3.1135 H   0  0  0  0  0  0  0  0  0  0  0  0
    5.4490   -0.1488   -1.6586 H   0  0  0  0  0  0  0  0  0  0  0  0
    4.3753    0.8976    0.7020 H   0  0  0  0  0  0  0  0  0  0  0  0
    3.8780    3.3503    1.5917 H   0  0  0  0  0  0  0  0  0  0  0  0
    3.8456    5.0886   -0.3988 H   0  0  0  0  0  0  0  0  0  0  0  0
   -0.1134    2.9047   -1.8410 H   0  0  0  0  0  0  0  0  0  0  0  0
   -0.2861    2.4495   -3.5491 H   0  0  0  0  0  0  0  0  0  0  0  0
   -1.6850    2.3188   -2.4647 H   0  0  0  0  0  0  0  0  0  0  0  0
   -1.4545    2.6275    0.0175 H   0  0  0  0  0  0  0  0  0  0  0  0
   -3.0832    1.9477   -0.0630 H   0  0  0  0  0  0  0  0  0  0  0  0
   -2.1552    1.9698    1.4668 H   0  0  0  0  0  0  0  0  0  0  0  0
   -3.9996    0.6599    1.5696 H   0  0  0  0  0  0  0  0  0  0  0  0
   -5.4093    0.1015    3.4594 H   0  0  0  0  0  0  0  0  0  0  0  0
  1  2  1  0
  2  3  2  0
  3  4  1  0
  4  5  2  0
  5  6  1  0
  6  7  1  0
  7  8  2  0
  8  9  1  0
  9 10  2  0
  9 11  1  0
 11 12  1  0
 12 13  1  0
 13 14  2  0
 13 15  1  0
 15 16  1  0
 16 17  1  0
 17 18  2  0
 18 19  1  0
 19 20  2  0
 20 21  1  0
 11 22  1  0
 22 23  2  0
 23 24  1  0
 23 25  1  0
 25 26  2  0
 26 27  1  0
  5 28  1  0
 28 29  2  0
 29  2  1  0
 26  6  1  0
 25  8  1  0
 21 17  1  0
  1 30  1  0
  1 31  1  0
  1 32  1  0
  3 33  1  0
  4 34  1  0
 12 35  1  0
 12 36  1  0
 15 37  1  0
 16 38  1  0
 16 39  1  0
 18 40  1  0
 19 41  1  0
 20 42  1  0
 24 43  1  0
 24 44  1  0
 24 45  1  0
 27 46  1  0
 27 47  1  0
 27 48  1  0
 28 49  1  0
 29 50  1  0
M  END
$$$$
