
     RDKit          3D

 41 42  0  0  0  0  0  0  0  0999 V2000
    6.3831   -0.7440   -1.3467 C   0  0  0  0  0  0  0  0  0  0  0  0
    5.2188   -0.5468   -0.5434 O   0  0  0  0  0  0  0  0  0  0  0  0
    4.8473    0.7569   -0.4174 C   0  0  0  0  0  0  0  0  0  0  0  0
    5.4349    1.6951   -0.9404 O   0  0  0  0  0  0  0  0  0  0  0  0
    3.6954    0.8872    0.4584 C   0  0  0  0  0  0  0  0  0  0  0  0
    3.3218    2.0571    1.1023 C   0  0  0  0  0  0  0  0  0  0  0  0
    2.2228    1.7741    1.9319 C   0  0  0  0  0  0  0  0  0  0  0  0
    1.8899    0.4369    1.7760 C   0  0  0  0  0  0  0  0  0  0  0  0
    0.6126   -0.5055    2.5973 S   0  0  0  0  0  6  0  0  0  0  0  0
    1.1524   -1.8386    2.7251 O   0  0  0  0  0  0  0  0  0  0  0  0
    0.2324    0.2963    3.7362 O   0  0  0  0  0  0  0  0  0  0  0  0
   -0.6796   -0.5801    1.5368 N   0  0  0  0  0  0  0  0  0  0  0  0
   -1.3552    0.6826    1.2293 C   0  0  0  0  0  0  0  0  0  0  0  0
   -2.4914    0.4530    0.2623 C   0  0  0  0  0  0  0  0  0  0  0  0
   -3.6343   -0.2488    0.6707 C   0  0  0  0  0  0  0  0  0  0  0  0
   -4.6875   -0.4835   -0.2202 C   0  0  0  0  0  0  0  0  0  0  0  0
   -4.6099   -0.0215   -1.5333 C   0  0  0  0  0  0  0  0  0  0  0  0
   -5.5618   -0.1825   -2.5018 O   0  0  0  0  0  0  0  0  0  0  0  0
   -6.7518   -0.8643   -2.1256 C   0  0  0  0  0  0  0  0  0  0  0  0
   -3.4705    0.6736   -1.9451 C   0  0  0  0  0  0  0  0  0  0  0  0
   -2.4168    0.9097   -1.0585 C   0  0  0  0  0  0  0  0  0  0  0  0
    2.7581   -0.0747    0.8194 N   0  0  0  0  0  0  0  0  0  0  0  0
    2.6781   -1.4063    0.2481 C   0  0  0  0  0  0  0  0  0  0  0  0
    6.2070   -0.3961   -2.3694 H   0  0  0  0  0  0  0  0  0  0  0  0
    6.5940   -1.8165   -1.3784 H   0  0  0  0  0  0  0  0  0  0  0  0
    7.2454   -0.2349   -0.9050 H   0  0  0  0  0  0  0  0  0  0  0  0
    3.8380    3.0065    1.0112 H   0  0  0  0  0  0  0  0  0  0  0  0
    1.7227    2.4591    2.6068 H   0  0  0  0  0  0  0  0  0  0  0  0
   -0.5166   -1.1880    0.7381 H   0  0  0  0  0  0  0  0  0  0  0  0
   -0.6441    1.3881    0.7865 H   0  0  0  0  0  0  0  0  0  0  0  0
   -1.7555    1.1383    2.1418 H   0  0  0  0  0  0  0  0  0  0  0  0
   -3.7067   -0.6224    1.6912 H   0  0  0  0  0  0  0  0  0  0  0  0
   -5.5499   -1.0314    0.1447 H   0  0  0  0  0  0  0  0  0  0  0  0
   -7.2819   -0.3261   -1.3329 H   0  0  0  0  0  0  0  0  0  0  0  0
   -6.5380   -1.8965   -1.8292 H   0  0  0  0  0  0  0  0  0  0  0  0
   -7.4081   -0.8987   -3.0007 H   0  0  0  0  0  0  0  0  0  0  0  0
   -3.4049    1.0360   -2.9685 H   0  0  0  0  0  0  0  0  0  0  0  0
   -1.5442    1.4546   -1.4116 H   0  0  0  0  0  0  0  0  0  0  0  0
    2.9714   -1.3676   -0.8036 H   0  0  0  0  0  0  0  0  0  0  0  0
    3.3344   -2.0663    0.8195 H   0  0  0  0  0  0  0  0  0  0  0  0
    1.6486   -1.7643    0.2701 H   0  0  0  0  0  0  0  0  0  0  0  0
  1  2  1  0
  2  3  1  0
  3  4  2  0
  3  5  1  0
  5  6  2  0
  6  7  1  0
  7  8  2  0
  8  9  1  0
  9 10  2  0
  9 11  2  0
  9 12  1  0
 12 13  1  0
 13 14  1  0
 14 15  2  0
 15 16  1  0
 16 17  2  0
 17 18  1  0
 18 19  1  0
 17 20  1  0
 20 21  2  0
  8 22  1  0
 22 23  1  0
 22  5  1  0
 21 14  1  0
  1 24  1  0
  1 25  1  0
  1 26  1  0
  6 27  1  0
  7 28  1  0
 12 29  1  0
 13 30  1  0
 13 31  1  0
 15 32  1  0
 16 33  1  0
 19 34  1  0
 19 35  1  0
 19 36  1  0
 20 37  1  0
 21 38  1  0
 23 39  1  0
 23 40  1  0
 23 41  1  0
M  END
$$$$
