
     RDKit          3D

 57 60  0  0  0  0  0  0  0  0999 V2000
   -0.3563    2.0146    5.1756 C   0  0  0  0  0  0  0  0  0  0  0  0
   -0.7022    1.2086    4.0573 O   0  0  0  0  0  0  0  0  0  0  0  0
   -0.0440    1.4169    2.8804 C   0  0  0  0  0  0  0  0  0  0  0  0
    1.1078    2.2060    2.7624 C   0  0  0  0  0  0  0  0  0  0  0  0
    1.7697    2.3330    1.5346 C   0  0  0  0  0  0  0  0  0  0  0  0
    1.2962    1.6546    0.4086 C   0  0  0  0  0  0  0  0  0  0  0  0
    1.9638    1.7651   -0.9152 C   0  0  0  0  0  0  0  0  0  0  0  0
    1.2980    1.6799   -1.9402 O   0  0  0  0  0  0  0  0  0  0  0  0
    3.3311    1.9325   -0.8930 N   0  0  0  0  0  0  0  0  0  0  0  0
    4.1107    1.8891   -2.1105 C   0  0  0  0  0  0  0  0  0  0  0  0
    4.7385    0.5300   -2.2915 C   0  0  0  0  0  0  0  0  0  0  0  0
    6.0755    0.2978   -1.8927 C   0  0  0  0  0  0  0  0  0  0  0  0
    6.6579   -0.9663   -2.0317 C   0  0  0  0  0  0  0  0  0  0  0  0
    5.8835   -1.9746   -2.5624 C   0  0  0  0  0  0  0  0  0  0  0  0
    4.5813   -1.7616   -2.9472 C   0  0  0  0  0  0  0  0  0  0  0  0
    3.9803   -0.5271   -2.8235 C   0  0  0  0  0  0  0  0  0  0  0  0
    3.9955   -2.8853   -3.4399 O   0  0  0  0  0  0  0  0  0  0  0  0
    5.0775   -3.8310   -3.3180 C   0  0  0  0  0  0  0  0  0  0  0  0
    6.2816   -3.2589   -2.7651 O   0  0  0  0  0  0  0  0  0  0  0  0
    0.1444    0.8721    0.5096 C   0  0  0  0  0  0  0  0  0  0  0  0
   -0.5276    0.7648    1.7376 C   0  0  0  0  0  0  0  0  0  0  0  0
   -2.0079   -0.2254    1.8082 S   0  0  0  0  0  6  0  0  0  0  0  0
   -2.9625    0.3968    2.7009 O   0  0  0  0  0  0  0  0  0  0  0  0
   -1.5652   -1.5924    1.9897 O   0  0  0  0  0  0  0  0  0  0  0  0
   -2.6566   -0.0807    0.2366 N   0  0  0  0  0  0  0  0  0  0  0  0
   -3.2398    1.2334   -0.1027 C   0  0  0  0  0  0  0  0  0  0  0  0
   -3.4463   -1.2389   -0.2479 C   0  0  0  0  0  0  0  0  0  0  0  0
   -4.8855   -1.3084    0.2065 C   0  0  0  0  0  0  0  0  0  0  0  0
   -5.2125   -1.8141    1.4722 C   0  0  0  0  0  0  0  0  0  0  0  0
   -6.5425   -1.8708    1.8923 C   0  0  0  0  0  0  0  0  0  0  0  0
   -7.5606   -1.4255    1.0520 C   0  0  0  0  0  0  0  0  0  0  0  0
   -7.2504   -0.9219   -0.2092 C   0  0  0  0  0  0  0  0  0  0  0  0
   -5.9206   -0.8625   -0.6302 C   0  0  0  0  0  0  0  0  0  0  0  0
   -0.4534    3.0804    4.9434 H   0  0  0  0  0  0  0  0  0  0  0  0
    0.6513    1.7771    5.5314 H   0  0  0  0  0  0  0  0  0  0  0  0
   -1.0574    1.7842    5.9835 H   0  0  0  0  0  0  0  0  0  0  0  0
    1.5235    2.7351    3.6150 H   0  0  0  0  0  0  0  0  0  0  0  0
    2.6421    2.9784    1.4729 H   0  0  0  0  0  0  0  0  0  0  0  0
    3.8277    1.7540   -0.0317 H   0  0  0  0  0  0  0  0  0  0  0  0
    3.4955    2.1436   -2.9808 H   0  0  0  0  0  0  0  0  0  0  0  0
    4.8861    2.6583   -2.0251 H   0  0  0  0  0  0  0  0  0  0  0  0
    6.6692    1.1071   -1.4723 H   0  0  0  0  0  0  0  0  0  0  0  0
    7.6830   -1.1510   -1.7313 H   0  0  0  0  0  0  0  0  0  0  0  0
    2.9467   -0.3835   -3.1255 H   0  0  0  0  0  0  0  0  0  0  0  0
    4.7523   -4.6545   -2.6719 H   0  0  0  0  0  0  0  0  0  0  0  0
    5.3053   -4.2332   -4.3119 H   0  0  0  0  0  0  0  0  0  0  0  0
   -0.2204    0.3433   -0.3693 H   0  0  0  0  0  0  0  0  0  0  0  0
   -3.4782    1.2697   -1.1706 H   0  0  0  0  0  0  0  0  0  0  0  0
   -4.1523    1.4278    0.4677 H   0  0  0  0  0  0  0  0  0  0  0  0
   -2.5262    2.0388    0.0904 H   0  0  0  0  0  0  0  0  0  0  0  0
   -3.4186   -1.2143   -1.3461 H   0  0  0  0  0  0  0  0  0  0  0  0
   -2.9408   -2.1799    0.0000 H   0  0  0  0  0  0  0  0  0  0  0  0
   -4.4316   -2.1639    2.1453 H   0  0  0  0  0  0  0  0  0  0  0  0
   -6.7806   -2.2590    2.8792 H   0  0  0  0  0  0  0  0  0  0  0  0
   -8.5948   -1.4693    1.3823 H   0  0  0  0  0  0  0  0  0  0  0  0
   -8.0445   -0.5739   -0.8646 H   0  0  0  0  0  0  0  0  0  0  0  0
   -5.6972   -0.4652   -1.6178 H   0  0  0  0  0  0  0  0  0  0  0  0
  1  2  1  0
  2  3  1  0
  3  4  2  0
  4  5  1  0
  5  6  2  0
  6  7  1  0
  7  8  2  0
  7  9  1  0
  9 10  1  0
 10 11  1  0
 11 12  2  0
 12 13  1  0
 13 14  2  0
 14 15  1  0
 15 16  2  0
 15 17  1  0
 17 18  1  0
 18 19  1  0
  6 20  1  0
 20 21  2  0
 21 22  1  0
 22 23  2  0
 22 24  2  0
 22 25  1  0
 25 26  1  0
 25 27  1  0
 27 28  1  0
 28 29  2  0
 29 30  1  0
 30 31  2  0
 31 32  1  0
 32 33  2  0
 21  3  1  0
 33 28  1  0
 16 11  1  0
 19 14  1  0
  1 34  1  0
  1 35  1  0
  1 36  1  0
  4 37  1  0
  5 38  1  0
  9 39  1  0
 10 40  1  0
 10 41  1  0
 12 42  1  0
 13 43  1  0
 16 44  1  0
 18 45  1  0
 18 46  1  0
 20 47  1  0
 26 48  1  0
 26 49  1  0
 26 50  1  0
 27 51  1  0
 27 52  1  0
 29 53  1  0
 30 54  1  0
 31 55  1  0
 32 56  1  0
 33 57  1  0
M  END
$$$$
