
     RDKit          3D

 42 44  0  0  0  0  0  0  0  0999 V2000
   -5.9546    0.5341   -2.2995 C   0  0  0  0  0  0  0  0  0  0  0  0
   -5.0366    0.2134   -1.2628 O   0  0  0  0  0  0  0  0  0  0  0  0
   -5.5534   -0.1484   -0.0436 C   0  0  0  0  0  0  0  0  0  0  0  0
   -6.9213   -0.3059    0.2138 C   0  0  0  0  0  0  0  0  0  0  0  0
   -7.3696   -0.6548    1.4905 C   0  0  0  0  0  0  0  0  0  0  0  0
   -6.4581   -0.8470    2.5232 C   0  0  0  0  0  0  0  0  0  0  0  0
   -5.0936   -0.6974    2.2796 C   0  0  0  0  0  0  0  0  0  0  0  0
   -4.6257   -0.3618    0.9988 C   0  0  0  0  0  0  0  0  0  0  0  0
   -3.1693   -0.2118    0.8394 C   0  0  0  0  0  0  0  0  0  0  0  0
   -2.4737   -0.8262   -0.1280 C   0  0  0  0  0  0  0  0  0  0  0  0
   -1.0255   -0.6353   -0.2174 C   0  0  0  0  0  0  0  0  0  0  0  0
   -0.2233   -0.0014    0.5670 N   0  0  0  0  0  0  0  0  0  0  0  0
    0.9990   -0.1749   -0.0342 C   0  0  0  0  0  0  0  0  0  0  0  0
    2.1349    0.3366    0.4608 C   0  0  0  0  0  0  0  0  0  0  0  0
    3.4668    0.2192   -0.0943 C   0  0  0  0  0  0  0  0  0  0  0  0
    4.5452    0.7564    0.4994 C   0  0  0  0  0  0  0  0  0  0  0  0
    5.9138    0.6685   -0.0333 C   0  0  0  0  0  0  0  0  0  0  0  0
    6.7952    1.7351    0.1905 C   0  0  0  0  0  0  0  0  0  0  0  0
    8.1124    1.6816   -0.2729 C   0  0  0  0  0  0  0  0  0  0  0  0
    8.5663    0.5556   -0.9557 C   0  0  0  0  0  0  0  0  0  0  0  0
    7.7054   -0.5182   -1.1712 C   0  0  0  0  0  0  0  0  0  0  0  0
    6.3879   -0.4646   -0.7080 C   0  0  0  0  0  0  0  0  0  0  0  0
    0.8412   -0.9957   -1.2710 C   0  0  0  0  0  0  0  0  0  0  0  0
    1.6674   -1.3785   -2.0740 O   0  0  0  0  0  0  0  0  0  0  0  0
   -0.4976   -1.2430   -1.3044 O   0  0  0  0  0  0  0  0  0  0  0  0
   -6.5979    1.3732   -2.0146 H   0  0  0  0  0  0  0  0  0  0  0  0
   -5.3748    0.8426   -3.1748 H   0  0  0  0  0  0  0  0  0  0  0  0
   -6.5463   -0.3416   -2.5856 H   0  0  0  0  0  0  0  0  0  0  0  0
   -7.6693   -0.1617   -0.5587 H   0  0  0  0  0  0  0  0  0  0  0  0
   -8.4342   -0.7724    1.6779 H   0  0  0  0  0  0  0  0  0  0  0  0
   -6.8073   -1.1136    3.5174 H   0  0  0  0  0  0  0  0  0  0  0  0
   -4.3928   -0.8534    3.0974 H   0  0  0  0  0  0  0  0  0  0  0  0
   -2.6736    0.4159    1.5769 H   0  0  0  0  0  0  0  0  0  0  0  0
   -2.9444   -1.4655   -0.8657 H   0  0  0  0  0  0  0  0  0  0  0  0
    2.0512    0.9080    1.3844 H   0  0  0  0  0  0  0  0  0  0  0  0
    3.5798   -0.3142   -1.0352 H   0  0  0  0  0  0  0  0  0  0  0  0
    4.4424    1.3156    1.4268 H   0  0  0  0  0  0  0  0  0  0  0  0
    6.4608    2.6240    0.7206 H   0  0  0  0  0  0  0  0  0  0  0  0
    8.7827    2.5194   -0.0997 H   0  0  0  0  0  0  0  0  0  0  0  0
    9.5905    0.5129   -1.3164 H   0  0  0  0  0  0  0  0  0  0  0  0
    8.0583   -1.4016   -1.6970 H   0  0  0  0  0  0  0  0  0  0  0  0
    5.7419   -1.3234   -0.8745 H   0  0  0  0  0  0  0  0  0  0  0  0
  1  2  1  0
  2  3  1  0
  3  4  2  0
  4  5  1  0
  5  6  2  0
  6  7  1  0
  7  8  2  0
  8  9  1  0
  9 10  2  3
 10 11  1  0
 11 12  2  0
 12 13  1  0
 13 14  2  3
 14 15  1  0
 15 16  2  3
 16 17  1  0
 17 18  2  0
 18 19  1  0
 19 20  2  0
 20 21  1  0
 21 22  2  0
 13 23  1  0
 23 24  2  0
 23 25  1  0
  8  3  1  0
 25 11  1  0
 22 17  1  0
  1 26  1  0
  1 27  1  0
  1 28  1  0
  4 29  1  0
  5 30  1  0
  6 31  1  0
  7 32  1  0
  9 33  1  0
 10 34  1  0
 14 35  1  0
 15 36  1  0
 16 37  1  0
 18 38  1  0
 19 39  1  0
 20 40  1  0
 21 41  1  0
 22 42  1  0
M  END
$$$$
