
     RDKit          3D

 52 54  0  0  0  0  0  0  0  0999 V2000
   -2.1977    0.0379   -1.1215 C   0  0  0  0  0  0  0  0  0  0  0  0
   -3.1360   -0.7905   -0.3746 N   0  0  0  0  0  0  0  0  0  0  0  0
   -3.8757   -1.7882   -1.1443 C   0  0  0  0  0  0  0  0  0  0  0  0
   -4.9977   -1.1808   -1.9539 C   0  0  0  0  0  0  0  0  0  0  0  0
   -4.8456   -0.9428   -3.3269 C   0  0  0  0  0  0  0  0  0  0  0  0
   -5.8792   -0.3628   -4.0644 C   0  0  0  0  0  0  0  0  0  0  0  0
   -7.0749   -0.0161   -3.4380 C   0  0  0  0  0  0  0  0  0  0  0  0
   -7.2387   -0.2486   -2.0745 C   0  0  0  0  0  0  0  0  0  0  0  0
   -6.2054   -0.8259   -1.3353 C   0  0  0  0  0  0  0  0  0  0  0  0
   -3.4471   -0.6249    0.9697 C   0  0  0  0  0  0  0  0  0  0  0  0
   -4.3170   -1.2968    1.5315 O   0  0  0  0  0  0  0  0  0  0  0  0
   -2.6667    0.4124    1.7714 C   0  0  0  0  0  0  0  0  0  0  0  0
   -1.3302   -0.0615    1.9442 O   0  0  0  0  0  0  0  0  0  0  0  0
   -0.5009    0.8188    2.5706 C   0  0  0  0  0  0  0  0  0  0  0  0
   -0.8427    1.9073    3.0124 O   0  0  0  0  0  0  0  0  0  0  0  0
    0.8924    0.2372    2.7280 C   0  0  0  0  0  0  0  0  0  0  0  0
    1.2125   -0.8312    1.7594 N   0  0  0  0  0  0  0  0  0  0  0  0
    1.5714   -0.3552    0.1885 S   0  0  0  0  0  6  0  0  0  0  0  0
    0.9937    0.9506   -0.0355 O   0  0  0  0  0  0  0  0  0  0  0  0
    1.2499   -1.4803   -0.6601 O   0  0  0  0  0  0  0  0  0  0  0  0
    3.3340   -0.2025    0.2525 C   0  0  0  0  0  0  0  0  0  0  0  0
    4.1265   -1.3422    0.1133 C   0  0  0  0  0  0  0  0  0  0  0  0
    5.5162   -1.2189    0.1468 C   0  0  0  0  0  0  0  0  0  0  0  0
    6.1224    0.0390    0.3091 C   0  0  0  0  0  0  0  0  0  0  0  0
    7.5189    0.1771    0.3448 C   0  0  0  0  0  0  0  0  0  0  0  0
    8.1080    1.4332    0.4999 C   0  0  0  0  0  0  0  0  0  0  0  0
    7.3103    2.5669    0.6198 C   0  0  0  0  0  0  0  0  0  0  0  0
    5.9201    2.4484    0.5872 C   0  0  0  0  0  0  0  0  0  0  0  0
    5.3107    1.1925    0.4348 C   0  0  0  0  0  0  0  0  0  0  0  0
    3.9145    1.0606    0.4010 C   0  0  0  0  0  0  0  0  0  0  0  0
   -1.4737   -0.6138   -1.6210 H   0  0  0  0  0  0  0  0  0  0  0  0
   -2.7473    0.6140   -1.8701 H   0  0  0  0  0  0  0  0  0  0  0  0
   -1.6579    0.7435   -0.4926 H   0  0  0  0  0  0  0  0  0  0  0  0
   -4.2912   -2.5570   -0.4821 H   0  0  0  0  0  0  0  0  0  0  0  0
   -3.1663   -2.3109   -1.7973 H   0  0  0  0  0  0  0  0  0  0  0  0
   -3.9178   -1.2023   -3.8298 H   0  0  0  0  0  0  0  0  0  0  0  0
   -5.7512   -0.1795   -5.1278 H   0  0  0  0  0  0  0  0  0  0  0  0
   -7.8789    0.4351   -4.0130 H   0  0  0  0  0  0  0  0  0  0  0  0
   -8.1698    0.0203   -1.5837 H   0  0  0  0  0  0  0  0  0  0  0  0
   -6.3445   -1.0008   -0.2697 H   0  0  0  0  0  0  0  0  0  0  0  0
   -3.1469    0.5190    2.7511 H   0  0  0  0  0  0  0  0  0  0  0  0
   -2.6964    1.3793    1.2607 H   0  0  0  0  0  0  0  0  0  0  0  0
    1.6313    1.0405    2.6558 H   0  0  0  0  0  0  0  0  0  0  0  0
    0.9576   -0.1929    3.7332 H   0  0  0  0  0  0  0  0  0  0  0  0
    0.5856   -1.6381    1.7661 H   0  0  0  0  0  0  0  0  0  0  0  0
    3.6741   -2.3212   -0.0240 H   0  0  0  0  0  0  0  0  0  0  0  0
    6.1275   -2.1132    0.0395 H   0  0  0  0  0  0  0  0  0  0  0  0
    8.1612   -0.6956    0.2503 H   0  0  0  0  0  0  0  0  0  0  0  0
    9.1906    1.5251    0.5248 H   0  0  0  0  0  0  0  0  0  0  0  0
    7.7690    3.5453    0.7368 H   0  0  0  0  0  0  0  0  0  0  0  0
    5.3156    3.3479    0.6801 H   0  0  0  0  0  0  0  0  0  0  0  0
    3.2834    1.9431    0.4880 H   0  0  0  0  0  0  0  0  0  0  0  0
  1  2  1  0
  2  3  1  0
  3  4  1  0
  4  5  2  0
  5  6  1  0
  6  7  2  0
  7  8  1  0
  8  9  2  0
  2 10  1  0
 10 11  2  0
 10 12  1  0
 12 13  1  0
 13 14  1  0
 14 15  2  0
 14 16  1  0
 16 17  1  0
 17 18  1  0
 18 19  2  0
 18 20  2  0
 18 21  1  0
 21 22  2  0
 22 23  1  0
 23 24  2  0
 24 25  1  0
 25 26  2  0
 26 27  1  0
 27 28  2  0
 28 29  1  0
 29 30  2  0
  9  4  1  0
 30 21  1  0
 29 24  1  0
  1 31  1  0
  1 32  1  0
  1 33  1  0
  3 34  1  0
  3 35  1  0
  5 36  1  0
  6 37  1  0
  7 38  1  0
  8 39  1  0
  9 40  1  0
 12 41  1  0
 12 42  1  0
 16 43  1  0
 16 44  1  0
 17 45  1  0
 22 46  1  0
 23 47  1  0
 25 48  1  0
 26 49  1  0
 27 50  1  0
 28 51  1  0
 30 52  1  0
M  END
$$$$
