
     RDKit          3D

 33 33  0  0  0  0  0  0  0  0999 V2000
   -2.9355    0.1899    1.8630 C   0  0  0  0  0  0  0  0  0  0  0  0
   -3.2481   -0.7616    0.7063 C   0  0  0  0  0  0  0  0  0  0  0  0
   -4.6730   -0.5061    0.2064 C   0  0  0  0  0  0  0  0  0  0  0  0
   -2.3189   -0.5707   -0.4165 N   0  0  0  0  0  0  0  0  0  0  0  0
   -0.9952   -1.1448   -0.1591 C   0  0  0  0  0  0  0  0  0  0  0  0
   -0.0373   -0.8301   -1.3132 C   0  0  0  0  0  0  0  0  0  0  0  0
    0.3300    0.6529   -1.4008 C   0  0  0  0  0  0  0  0  0  0  0  0
    0.9876    1.1065   -0.2174 O   0  0  0  0  0  0  0  0  0  0  0  0
    2.3296    0.9062   -0.0514 C   0  0  0  0  0  0  0  0  0  0  0  0
    3.1786    0.3385   -1.0063 C   0  0  0  0  0  0  0  0  0  0  0  0
    4.5431    0.1794   -0.7383 C   0  0  0  0  0  0  0  0  0  0  0  0
    5.0663    0.5873    0.4858 C   0  0  0  0  0  0  0  0  0  0  0  0
    6.7443    0.3867    0.8063 Cl  0  0  0  0  0  0  0  0  0  0  0  0
    4.2399    1.1535    1.4496 C   0  0  0  0  0  0  0  0  0  0  0  0
    2.8775    1.3110    1.1791 C   0  0  0  0  0  0  0  0  0  0  0  0
    1.7946    2.0824    2.5401 Br  0  0  0  0  0  0  0  0  0  0  0  0
   -2.9315    1.2344    1.5314 H   0  0  0  0  0  0  0  0  0  0  0  0
   -1.9629   -0.0249    2.3161 H   0  0  0  0  0  0  0  0  0  0  0  0
   -3.6875    0.0943    2.6541 H   0  0  0  0  0  0  0  0  0  0  0  0
   -3.2019   -1.7982    1.0625 H   0  0  0  0  0  0  0  0  0  0  0  0
   -4.9376   -1.1984   -0.6007 H   0  0  0  0  0  0  0  0  0  0  0  0
   -4.7902    0.5161   -0.1713 H   0  0  0  0  0  0  0  0  0  0  0  0
   -5.3982   -0.6511    1.0146 H   0  0  0  0  0  0  0  0  0  0  0  0
   -2.7074   -1.0074   -1.2526 H   0  0  0  0  0  0  0  0  0  0  0  0
   -1.0848   -2.2337   -0.0655 H   0  0  0  0  0  0  0  0  0  0  0  0
   -0.5668   -0.7697    0.7755 H   0  0  0  0  0  0  0  0  0  0  0  0
    0.8697   -1.4271   -1.1648 H   0  0  0  0  0  0  0  0  0  0  0  0
   -0.4774   -1.1523   -2.2648 H   0  0  0  0  0  0  0  0  0  0  0  0
    0.9153    0.8738   -2.3000 H   0  0  0  0  0  0  0  0  0  0  0  0
   -0.5822    1.2524   -1.4991 H   0  0  0  0  0  0  0  0  0  0  0  0
    2.8166    0.0050   -1.9728 H   0  0  0  0  0  0  0  0  0  0  0  0
    5.1904   -0.2635   -1.4915 H   0  0  0  0  0  0  0  0  0  0  0  0
    4.6529    1.4691    2.4037 H   0  0  0  0  0  0  0  0  0  0  0  0
  1  2  1  0
  2  3  1  0
  2  4  1  0
  4  5  1  0
  5  6  1  0
  6  7  1  0
  7  8  1  0
  8  9  1  0
  9 10  2  0
 10 11  1  0
 11 12  2  0
 12 13  1  0
 12 14  1  0
 14 15  2  0
 15 16  1  0
 15  9  1  0
  1 17  1  0
  1 18  1  0
  1 19  1  0
  2 20  1  0
  3 21  1  0
  3 22  1  0
  3 23  1  0
  4 24  1  0
  5 25  1  0
  5 26  1  0
  6 27  1  0
  6 28  1  0
  7 29  1  0
  7 30  1  0
 10 31  1  0
 11 32  1  0
 14 33  1  0
M  END
$$$$
