
     RDKit          3D

 69 71  0  0  0  0  0  0  0  0999 V2000
   -2.8976    4.9411   -0.9989 C   0  0  0  0  0  0  0  0  0  0  0  0
   -2.1399    3.8446   -0.4971 O   0  0  0  0  0  0  0  0  0  0  0  0
   -2.3689    2.6007   -1.0305 C   0  0  0  0  0  0  0  0  0  0  0  0
   -3.3612    2.3532   -1.9930 C   0  0  0  0  0  0  0  0  0  0  0  0
   -3.5555    1.0704   -2.5188 C   0  0  0  0  0  0  0  0  0  0  0  0
   -2.7605    0.0115   -2.0912 C   0  0  0  0  0  0  0  0  0  0  0  0
   -1.7674    0.2188   -1.1144 C   0  0  0  0  0  0  0  0  0  0  0  0
   -0.8814   -0.9337   -0.6285 C   0  0  0  0  0  0  0  0  0  0  0  0
   -1.5220   -2.3412   -0.7969 C   0  0  0  0  0  0  0  0  0  0  0  0
   -1.1841   -3.1515   -1.6537 O   0  0  0  0  0  0  0  0  0  0  0  0
   -2.5291   -2.5889    0.1281 N   0  0  0  0  0  0  0  0  0  0  0  0
   -3.3466   -3.8076    0.1912 C   0  0  0  0  0  0  0  0  0  0  0  0
   -4.2547   -3.9130   -1.0382 C   0  0  0  0  0  0  0  0  0  0  0  0
   -4.2298   -3.7037    1.4468 C   0  0  0  0  0  0  0  0  0  0  0  0
   -2.4769   -5.0692    0.3176 C   0  0  0  0  0  0  0  0  0  0  0  0
    0.5219   -0.8737   -1.1063 N   0  0  0  0  0  0  0  0  0  0  0  0
    1.6169   -1.0838   -0.2602 C   0  0  0  0  0  0  0  0  0  0  0  0
    2.7782   -1.1350   -0.6787 O   0  0  0  0  0  0  0  0  0  0  0  0
    1.3404   -1.2852    1.2252 C   0  0  0  0  0  0  0  0  0  0  0  0
    2.6286   -1.4393    2.0263 C   0  0  0  0  0  0  0  0  0  0  0  0
    3.2280   -0.0700    2.3033 C   0  0  0  0  0  0  0  0  0  0  0  0
    2.5594    0.8149    2.8328 O   0  0  0  0  0  0  0  0  0  0  0  0
    4.5535    0.0258    1.9489 N   0  0  0  0  0  0  0  0  0  0  0  0
    5.3262    1.1573    2.0859 C   0  0  0  0  0  0  0  0  0  0  0  0
    4.9733    2.4280    2.5896 C   0  0  0  0  0  0  0  0  0  0  0  0
    6.1279    3.1646    2.5067 C   0  0  0  0  0  0  0  0  0  0  0  0
    6.4838    4.5493    2.8545 C   0  0  0  0  0  0  0  0  0  0  0  0
    7.1135    2.3865    1.9940 O   0  0  0  0  0  0  0  0  0  0  0  0
    6.6234    1.1175    1.7502 N   0  0  0  0  0  0  0  0  0  0  0  0
    0.7780   -0.9579   -2.5353 C   0  0  0  0  0  0  0  0  0  0  0  0
    0.2350   -0.0162   -3.5801 C   0  0  0  0  0  0  0  0  0  0  0  0
    1.6792    0.0699   -3.1961 C   0  0  0  0  0  0  0  0  0  0  0  0
   -1.5768    1.5232   -0.5756 C   0  0  0  0  0  0  0  0  0  0  0  0
   -0.6165    1.5648    0.4024 O   0  0  0  0  0  0  0  0  0  0  0  0
   -0.1833    2.8089    0.9436 C   0  0  0  0  0  0  0  0  0  0  0  0
   -2.7525    5.0633   -2.0811 H   0  0  0  0  0  0  0  0  0  0  0  0
   -3.9568    4.8246   -0.7455 H   0  0  0  0  0  0  0  0  0  0  0  0
   -2.5303    5.8504   -0.5069 H   0  0  0  0  0  0  0  0  0  0  0  0
   -4.0152    3.1444   -2.3623 H   0  0  0  0  0  0  0  0  0  0  0  0
   -4.3205    0.8976   -3.2740 H   0  0  0  0  0  0  0  0  0  0  0  0
   -2.9072   -0.9671   -2.5503 H   0  0  0  0  0  0  0  0  0  0  0  0
   -0.8670   -0.8179    0.4587 H   0  0  0  0  0  0  0  0  0  0  0  0
   -2.8913   -1.7804    0.6175 H   0  0  0  0  0  0  0  0  0  0  0  0
   -4.8835   -3.0208   -1.1399 H   0  0  0  0  0  0  0  0  0  0  0  0
   -3.6807   -4.0100   -1.9613 H   0  0  0  0  0  0  0  0  0  0  0  0
   -4.9145   -4.7801   -0.9653 H   0  0  0  0  0  0  0  0  0  0  0  0
   -3.6185   -3.5996    2.3507 H   0  0  0  0  0  0  0  0  0  0  0  0
   -4.8575   -4.5923    1.5717 H   0  0  0  0  0  0  0  0  0  0  0  0
   -4.8905   -2.8287    1.3935 H   0  0  0  0  0  0  0  0  0  0  0  0
   -1.7429   -4.9625    1.1240 H   0  0  0  0  0  0  0  0  0  0  0  0
   -1.9206   -5.2849   -0.6025 H   0  0  0  0  0  0  0  0  0  0  0  0
   -3.0889   -5.9507    0.5337 H   0  0  0  0  0  0  0  0  0  0  0  0
    0.7530   -2.2078    1.3300 H   0  0  0  0  0  0  0  0  0  0  0  0
    0.7689   -0.4393    1.6147 H   0  0  0  0  0  0  0  0  0  0  0  0
    2.3981   -1.8864    3.0024 H   0  0  0  0  0  0  0  0  0  0  0  0
    3.3412   -2.1084    1.5307 H   0  0  0  0  0  0  0  0  0  0  0  0
    5.0299   -0.7490    1.5049 H   0  0  0  0  0  0  0  0  0  0  0  0
    4.0192    2.7520    2.9704 H   0  0  0  0  0  0  0  0  0  0  0  0
    7.1563    4.9799    2.1088 H   0  0  0  0  0  0  0  0  0  0  0  0
    6.9774    4.5842    3.8261 H   0  0  0  0  0  0  0  0  0  0  0  0
    5.5919    5.1799    2.9050 H   0  0  0  0  0  0  0  0  0  0  0  0
    0.9717   -1.9892   -2.8394 H   0  0  0  0  0  0  0  0  0  0  0  0
   -0.3565    0.8559   -3.3253 H   0  0  0  0  0  0  0  0  0  0  0  0
   -0.0197   -0.4446   -4.5457 H   0  0  0  0  0  0  0  0  0  0  0  0
    2.0049    0.9191   -2.6034 H   0  0  0  0  0  0  0  0  0  0  0  0
    2.4219   -0.2587   -3.9146 H   0  0  0  0  0  0  0  0  0  0  0  0
    0.6595    2.6001    1.6199 H   0  0  0  0  0  0  0  0  0  0  0  0
   -0.9859    3.2653    1.5366 H   0  0  0  0  0  0  0  0  0  0  0  0
    0.1917    3.4807    0.1649 H   0  0  0  0  0  0  0  0  0  0  0  0
  1  2  1  0
  2  3  1  0
  3  4  2  0
  4  5  1  0
  5  6  2  0
  6  7  1  0
  7  8  1  0
  8  9  1  0
  9 10  2  0
  9 11  1  0
 11 12  1  0
 12 13  1  0
 12 14  1  0
 12 15  1  0
  8 16  1  0
 16 17  1  0
 17 18  2  0
 17 19  1  0
 19 20  1  0
 20 21  1  0
 21 22  2  0
 21 23  1  0
 23 24  1  0
 24 25  1  0
 25 26  2  0
 26 27  1  0
 26 28  1  0
 28 29  1  0
 16 30  1  0
 30 31  1  0
 31 32  1  0
  7 33  2  0
 33 34  1  0
 34 35  1  0
 33  3  1  0
 29 24  2  0
 32 30  1  0
  1 36  1  0
  1 37  1  0
  1 38  1  0
  4 39  1  0
  5 40  1  0
  6 41  1  0
  8 42  1  0
 11 43  1  0
 13 44  1  0
 13 45  1  0
 13 46  1  0
 14 47  1  0
 14 48  1  0
 14 49  1  0
 15 50  1  0
 15 51  1  0
 15 52  1  0
 19 53  1  0
 19 54  1  0
 20 55  1  0
 20 56  1  0
 23 57  1  0
 25 58  1  0
 27 59  1  0
 27 60  1  0
 27 61  1  0
 30 62  1  0
 31 63  1  0
 31 64  1  0
 32 65  1  0
 32 66  1  0
 35 67  1  0
 35 68  1  0
 35 69  1  0
M  END
$$$$
