
     RDKit          3D

 36 37  0  0  0  0  0  0  0  0999 V2000
   -2.8054   -1.9671    1.0806 C   0  0  0  0  0  0  0  0  0  0  0  0
   -1.9330   -1.2168    0.0782 C   0  0  0  0  0  0  0  0  0  0  0  0
   -2.0338    0.2475    0.2453 N   0  0  0  0  0  0  0  0  0  0  0  0
   -3.2894    0.7570   -0.3452 C   0  0  0  0  0  0  0  0  0  0  0  0
   -3.7105    2.1189    0.2270 C   0  0  0  0  0  0  0  0  0  0  0  0
   -4.9341    2.5296   -0.3788 O   0  0  0  0  0  0  0  0  0  0  0  0
   -0.8730    0.9174   -0.3784 C   0  0  0  0  0  0  0  0  0  0  0  0
    0.3513    0.7552    0.4874 C   0  0  0  0  0  0  0  0  0  0  0  0
    0.4128    1.1557    1.8099 C   0  0  0  0  0  0  0  0  0  0  0  0
    1.9233    0.8581    2.5288 S   0  0  0  0  0  0  0  0  0  0  0  0
    2.5617    0.1875    1.0797 C   0  0  0  0  0  0  0  0  0  0  0  0
    3.8655   -0.3174    0.8913 C   0  0  0  0  0  0  0  0  0  0  0  0
    4.2374   -0.8238   -0.3607 C   0  0  0  0  0  0  0  0  0  0  0  0
    5.6110   -1.3935   -0.5639 C   0  0  0  0  0  0  0  0  0  0  0  0
    3.3052   -0.8460   -1.3937 C   0  0  0  0  0  0  0  0  0  0  0  0
    2.0123   -0.3446   -1.2016 C   0  0  0  0  0  0  0  0  0  0  0  0
    1.6146    0.1889    0.0514 C   0  0  0  0  0  0  0  0  0  0  0  0
   -2.5665   -1.6700    2.1074 H   0  0  0  0  0  0  0  0  0  0  0  0
   -2.6263   -3.0442    0.9951 H   0  0  0  0  0  0  0  0  0  0  0  0
   -3.8728   -1.7991    0.9133 H   0  0  0  0  0  0  0  0  0  0  0  0
   -2.1856   -1.5174   -0.9466 H   0  0  0  0  0  0  0  0  0  0  0  0
   -0.9064   -1.5571    0.2574 H   0  0  0  0  0  0  0  0  0  0  0  0
   -3.2225    0.8106   -1.4404 H   0  0  0  0  0  0  0  0  0  0  0  0
   -4.1231    0.0729   -0.1478 H   0  0  0  0  0  0  0  0  0  0  0  0
   -3.8680    2.0470    1.3085 H   0  0  0  0  0  0  0  0  0  0  0  0
   -2.9656    2.8944    0.0300 H   0  0  0  0  0  0  0  0  0  0  0  0
   -5.1972    3.3590    0.0562 H   0  0  0  0  0  0  0  0  0  0  0  0
   -0.7094    0.5458   -1.3965 H   0  0  0  0  0  0  0  0  0  0  0  0
   -1.0412    1.9973   -0.4681 H   0  0  0  0  0  0  0  0  0  0  0  0
   -0.3820    1.6036    2.3911 H   0  0  0  0  0  0  0  0  0  0  0  0
    4.5730   -0.3088    1.7167 H   0  0  0  0  0  0  0  0  0  0  0  0
    5.9336   -1.2750   -1.6037 H   0  0  0  0  0  0  0  0  0  0  0  0
    5.6153   -2.4583   -0.3111 H   0  0  0  0  0  0  0  0  0  0  0  0
    6.3448   -0.8771    0.0639 H   0  0  0  0  0  0  0  0  0  0  0  0
    3.5726   -1.2547   -2.3660 H   0  0  0  0  0  0  0  0  0  0  0  0
    1.3114   -0.3754   -2.0314 H   0  0  0  0  0  0  0  0  0  0  0  0
  1  2  1  0
  2  3  1  0
  3  4  1  0
  4  5  1  0
  5  6  1  0
  3  7  1  0
  7  8  1  0
  8  9  2  0
  9 10  1  0
 10 11  1  0
 11 12  2  0
 12 13  1  0
 13 14  1  0
 13 15  2  0
 15 16  1  0
 16 17  2  0
 17  8  1  0
 17 11  1  0
  1 18  1  0
  1 19  1  0
  1 20  1  0
  2 21  1  0
  2 22  1  0
  4 23  1  0
  4 24  1  0
  5 25  1  0
  5 26  1  0
  6 27  1  0
  7 28  1  0
  7 29  1  0
  9 30  1  0
 12 31  1  0
 14 32  1  0
 14 33  1  0
 14 34  1  0
 15 35  1  0
 16 36  1  0
M  END
$$$$
