
     RDKit          3D

 56 61  0  0  0  0  0  0  0  0999 V2000
    6.4053    0.1656   -0.3777 C   0  0  0  0  0  0  0  0  0  0  0  0
    5.0144   -0.1516   -0.8378 C   0  0  0  0  0  0  0  0  0  0  0  0
    4.6875   -0.2119   -2.2055 C   0  0  0  0  0  0  0  0  0  0  0  0
    5.8798    0.0795   -3.4264 Cl  0  0  0  0  0  0  0  0  0  0  0  0
    3.3822   -0.5136   -2.6406 C   0  0  0  0  0  0  0  0  0  0  0  0
    2.3614   -0.7636   -1.7226 C   0  0  0  0  0  0  0  0  0  0  0  0
    2.6673   -0.7055   -0.3727 C   0  0  0  0  0  0  0  0  0  0  0  0
    3.9746   -0.4083    0.0489 C   0  0  0  0  0  0  0  0  0  0  0  0
    4.0341   -0.4300    1.4420 N   0  0  0  0  0  0  0  0  0  0  0  0
    2.7989   -0.7411    2.0052 C   0  0  0  0  0  0  0  0  0  0  0  0
    2.5847   -0.8952    3.1996 O   0  0  0  0  0  0  0  0  0  0  0  0
    1.7986   -0.9197    0.8355 C   0  0  0  0  0  0  0  0  0  0  0  0
    1.1117   -2.2589    0.9009 N   0  0  0  0  0  0  0  0  0  0  0  0
   -0.3848   -2.0616    0.7966 C   0  0  2  0  0  0  0  0  0  0  0  0
   -0.8964   -2.7592   -0.4754 C   0  0  0  0  0  0  0  0  0  0  0  0
   -2.4048   -2.8126   -0.5704 C   0  0  0  0  0  0  0  0  0  0  0  0
   -3.1462   -3.6215    0.3023 C   0  0  0  0  0  0  0  0  0  0  0  0
   -4.5396   -3.6447    0.2324 C   0  0  0  0  0  0  0  0  0  0  0  0
   -5.2043   -2.8649   -0.7118 C   0  0  0  0  0  0  0  0  0  0  0  0
   -4.4768   -2.0659   -1.5913 C   0  0  0  0  0  0  0  0  0  0  0  0
   -3.0833   -2.0418   -1.5245 C   0  0  0  0  0  0  0  0  0  0  0  0
   -0.5373   -0.5874    0.8129 C   0  0  0  0  0  0  0  0  0  0  0  0
    0.6996    0.0503    0.8215 C   0  0  0  0  0  0  0  0  0  0  0  0
    0.5054    1.4009    0.9167 C   0  0  0  0  0  0  0  0  0  0  0  0
    1.4237    2.3478    1.1033 O   0  0  0  0  0  0  0  0  0  0  0  0
   -0.8837    1.6243    0.8574 N   0  0  0  0  0  0  0  0  0  0  0  0
   -1.5226    2.9031    0.7611 C   0  0  0  0  0  0  0  0  0  0  0  0
   -2.7931    3.1158    1.3156 C   0  0  0  0  0  0  0  0  0  0  0  0
   -3.4054    4.3681    1.2132 C   0  0  0  0  0  0  0  0  0  0  0  0
   -2.7552    5.4007    0.5502 C   0  0  0  0  0  0  0  0  0  0  0  0
   -3.3457    6.5986    0.4516 F   0  0  0  0  0  0  0  0  0  0  0  0
   -1.5027    5.2060   -0.0177 C   0  0  0  0  0  0  0  0  0  0  0  0
   -0.8845    3.9572    0.0837 C   0  0  0  0  0  0  0  0  0  0  0  0
   -1.5207    0.3678    0.8862 C   0  0  0  0  0  0  0  0  0  0  0  0
   -2.8445    0.2392    0.9160 O   0  0  0  0  0  0  0  0  0  0  0  0
    7.1047   -0.6005   -0.7283 H   0  0  0  0  0  0  0  0  0  0  0  0
    6.4887    0.2050    0.7117 H   0  0  0  0  0  0  0  0  0  0  0  0
    6.7178    1.1446   -0.7562 H   0  0  0  0  0  0  0  0  0  0  0  0
    3.1596   -0.5529   -3.7048 H   0  0  0  0  0  0  0  0  0  0  0  0
    1.3570   -0.9899   -2.0628 H   0  0  0  0  0  0  0  0  0  0  0  0
    4.8535   -0.2702    2.0065 H   0  0  0  0  0  0  0  0  0  0  0  0
    1.2789   -2.5889    1.8555 H   0  0  0  0  0  0  0  0  0  0  0  0
   -0.8486   -2.4929    1.6920 H   0  0  0  0  0  0  0  0  0  0  0  0
   -0.4912   -2.2748   -1.3726 H   0  0  0  0  0  0  0  0  0  0  0  0
   -0.5298   -3.7946   -0.5042 H   0  0  0  0  0  0  0  0  0  0  0  0
   -2.6437   -4.2439    1.0401 H   0  0  0  0  0  0  0  0  0  0  0  0
   -5.1078   -4.2759    0.9113 H   0  0  0  0  0  0  0  0  0  0  0  0
   -6.2899   -2.8848   -0.7674 H   0  0  0  0  0  0  0  0  0  0  0  0
   -4.9948   -1.4595   -2.3303 H   0  0  0  0  0  0  0  0  0  0  0  0
   -2.5322   -1.4050   -2.2140 H   0  0  0  0  0  0  0  0  0  0  0  0
    0.9984    3.1135    1.5308 H   0  0  0  0  0  0  0  0  0  0  0  0
   -3.3155    2.3340    1.8607 H   0  0  0  0  0  0  0  0  0  0  0  0
   -4.3846    4.5408    1.6486 H   0  0  0  0  0  0  0  0  0  0  0  0
   -1.0224    6.0217   -0.5492 H   0  0  0  0  0  0  0  0  0  0  0  0
    0.0698    3.8154   -0.4202 H   0  0  0  0  0  0  0  0  0  0  0  0
   -3.0656   -0.7069    0.8295 H   0  0  0  0  0  0  0  0  0  0  0  0
  1  2  1  0
  2  3  2  0
  3  4  1  0
  3  5  1  0
  5  6  2  0
  6  7  1  0
  7  8  2  0
  8  9  1  0
  9 10  1  0
 10 11  2  0
 10 12  1  0
 12 13  1  0
 13 14  1  0
 14 15  1  0
 15 16  1  0
 16 17  2  0
 17 18  1  0
 18 19  2  0
 19 20  1  0
 20 21  2  0
 14 22  1  0
 22 23  1  0
 23 24  2  0
 24 25  1  0
 24 26  1  0
 26 27  1  0
 27 28  2  0
 28 29  1  0
 29 30  2  0
 30 31  1  0
 30 32  1  0
 32 33  2  0
 26 34  1  0
 34 35  1  0
  8  2  1  0
 23 12  1  0
 33 27  1  0
 12  7  1  0
 21 16  1  0
 34 22  2  0
  1 36  1  0
  1 37  1  0
  1 38  1  0
  5 39  1  0
  6 40  1  0
  9 41  1  0
 13 42  1  0
 14 43  1  1
 15 44  1  0
 15 45  1  0
 17 46  1  0
 18 47  1  0
 19 48  1  0
 20 49  1  0
 21 50  1  0
 25 51  1  0
 28 52  1  0
 29 53  1  0
 32 54  1  0
 33 55  1  0
 35 56  1  0
M  END
$$$$
