
     RDKit          3D

 63 66  0  0  0  0  0  0  0  0999 V2000
   -6.0905    3.1104    2.1174 C   0  0  0  0  0  0  0  0  0  0  0  0
   -5.5102    2.0436    1.1931 C   0  0  0  0  0  0  0  0  0  0  0  0
   -4.1714    1.5076    1.7289 C   0  0  0  0  0  0  0  0  0  0  0  0
   -3.2289    1.0121    0.6211 C   0  0  0  0  0  0  0  0  0  0  0  0
   -4.0004    0.4357   -0.4833 N   0  0  0  0  0  0  0  0  0  0  0  0
   -3.1689   -0.2870   -1.4528 C   0  0  0  0  0  0  0  0  0  0  0  0
   -2.7601   -1.6140   -0.9191 C   0  0  0  0  0  0  0  0  0  0  0  0
   -1.5397   -2.0444   -0.4176 C   0  0  0  0  0  0  0  0  0  0  0  0
   -0.2870   -1.3006   -0.2958 C   0  0  0  0  0  0  0  0  0  0  0  0
   -0.1925   -0.1197   -0.6171 O   0  0  0  0  0  0  0  0  0  0  0  0
    0.7519   -2.0897    0.1957 N   0  0  0  0  0  0  0  0  0  0  0  0
    2.0833   -1.7498    0.1828 N   0  0  0  0  0  0  0  0  0  0  0  0
    2.3955   -0.5221    0.4587 C   0  0  0  0  0  0  0  0  0  0  0  0
    3.7918   -0.0441    0.3986 C   0  0  0  0  0  0  0  0  0  0  0  0
    4.8378   -0.9069    0.0581 C   0  0  0  0  0  0  0  0  0  0  0  0
    6.1506   -0.4268   -0.0006 C   0  0  0  0  0  0  0  0  0  0  0  0
    6.4166    0.9170    0.2673 C   0  0  0  0  0  0  0  0  0  0  0  0
    7.6511    1.5016    0.2571 O   0  0  0  0  0  0  0  0  0  0  0  0
    8.6520    0.9341   -0.6021 C   0  0  0  0  0  0  0  0  0  0  0  0
    9.3769    2.1025   -1.2685 C   0  0  0  0  0  0  0  0  0  0  0  0
    9.6297    0.1146    0.2387 C   0  0  0  0  0  0  0  0  0  0  0  0
    5.3679    1.7696    0.6212 C   0  0  0  0  0  0  0  0  0  0  0  0
    4.0552    1.2962    0.6849 C   0  0  0  0  0  0  0  0  0  0  0  0
   -1.6533   -3.3463   -0.0107 N   0  0  0  0  0  0  0  0  0  0  0  0
   -2.8933   -3.7413   -0.2294 N   0  0  0  0  0  0  0  0  0  0  0  0
   -3.5952   -2.7255   -0.8215 N   0  0  0  0  0  0  0  0  0  0  0  0
   -4.9419   -2.9128   -1.2312 C   0  0  0  0  0  0  0  0  0  0  0  0
   -5.6078   -1.9708   -1.8999 N   0  0  0  0  0  0  0  0  0  0  0  0
   -6.8694   -2.5249   -2.1069 O   0  0  0  0  0  0  0  0  0  0  0  0
   -6.9519   -3.8090   -1.5783 N   0  0  0  0  0  0  0  0  0  0  0  0
   -5.7536   -4.0515   -1.0479 C   0  0  0  0  0  0  0  0  0  0  0  0
   -5.4153   -5.2066   -0.4445 N   0  0  0  0  0  0  0  0  0  0  0  0
   -4.7827    1.4829   -1.1682 C   0  0  0  0  0  0  0  0  0  0  0  0
   -5.3291    2.5702   -0.2305 C   0  0  0  0  0  0  0  0  0  0  0  0
   -5.4381    3.9886    2.1710 H   0  0  0  0  0  0  0  0  0  0  0  0
   -7.0716    3.4418    1.7590 H   0  0  0  0  0  0  0  0  0  0  0  0
   -6.2176    2.7167    3.1314 H   0  0  0  0  0  0  0  0  0  0  0  0
   -6.2245    1.2100    1.1587 H   0  0  0  0  0  0  0  0  0  0  0  0
   -3.6456    2.2767    2.3079 H   0  0  0  0  0  0  0  0  0  0  0  0
   -4.3826    0.6858    2.4252 H   0  0  0  0  0  0  0  0  0  0  0  0
   -2.5975    1.8365    0.2633 H   0  0  0  0  0  0  0  0  0  0  0  0
   -2.5563    0.2768    1.0761 H   0  0  0  0  0  0  0  0  0  0  0  0
   -2.3009    0.3164   -1.7391 H   0  0  0  0  0  0  0  0  0  0  0  0
   -3.7087   -0.4433   -2.3946 H   0  0  0  0  0  0  0  0  0  0  0  0
    0.5795   -3.0934    0.2168 H   0  0  0  0  0  0  0  0  0  0  0  0
    1.6462    0.2249    0.7769 H   0  0  0  0  0  0  0  0  0  0  0  0
    4.6397   -1.9547   -0.1553 H   0  0  0  0  0  0  0  0  0  0  0  0
    6.9426   -1.1274   -0.2406 H   0  0  0  0  0  0  0  0  0  0  0  0
    8.2184    0.3197   -1.4010 H   0  0  0  0  0  0  0  0  0  0  0  0
   10.1646    1.7495   -1.9443 H   0  0  0  0  0  0  0  0  0  0  0  0
    8.6685    2.7116   -1.8441 H   0  0  0  0  0  0  0  0  0  0  0  0
    9.8248    2.7678   -0.5203 H   0  0  0  0  0  0  0  0  0  0  0  0
   10.4423   -0.2878   -0.3785 H   0  0  0  0  0  0  0  0  0  0  0  0
    9.1208   -0.7212    0.7293 H   0  0  0  0  0  0  0  0  0  0  0  0
   10.0659    0.7239    1.0391 H   0  0  0  0  0  0  0  0  0  0  0  0
    5.5757    2.8143    0.8400 H   0  0  0  0  0  0  0  0  0  0  0  0
    3.2540    1.9793    0.9523 H   0  0  0  0  0  0  0  0  0  0  0  0
   -6.1400   -5.8737   -0.2031 H   0  0  0  0  0  0  0  0  0  0  0  0
   -4.5540   -5.2935    0.0925 H   0  0  0  0  0  0  0  0  0  0  0  0
   -5.6245    1.0023   -1.6783 H   0  0  0  0  0  0  0  0  0  0  0  0
   -4.1860    1.9821   -1.9421 H   0  0  0  0  0  0  0  0  0  0  0  0
   -4.6329    3.4189   -0.2167 H   0  0  0  0  0  0  0  0  0  0  0  0
   -6.2794    2.9471   -0.6260 H   0  0  0  0  0  0  0  0  0  0  0  0
  1  2  1  0
  2  3  1  0
  3  4  1  0
  4  5  1  0
  5  6  1  0
  6  7  1  0
  7  8  2  0
  8  9  1  0
  9 10  2  0
  9 11  1  0
 11 12  1  0
 12 13  2  3
 13 14  1  0
 14 15  2  0
 15 16  1  0
 16 17  2  0
 17 18  1  0
 18 19  1  0
 19 20  1  0
 19 21  1  0
 17 22  1  0
 22 23  2  0
  8 24  1  0
 24 25  2  0
 25 26  1  0
 26 27  1  0
 27 28  2  0
 28 29  1  0
 29 30  1  0
 30 31  2  0
 31 32  1  0
  5 33  1  0
 33 34  1  0
 34  2  1  0
 26  7  1  0
 31 27  1  0
 23 14  1  0
  1 35  1  0
  1 36  1  0
  1 37  1  0
  2 38  1  0
  3 39  1  0
  3 40  1  0
  4 41  1  0
  4 42  1  0
  6 43  1  0
  6 44  1  0
 11 45  1  0
 13 46  1  0
 15 47  1  0
 16 48  1  0
 19 49  1  0
 20 50  1  0
 20 51  1  0
 20 52  1  0
 21 53  1  0
 21 54  1  0
 21 55  1  0
 22 56  1  0
 23 57  1  0
 32 58  1  0
 32 59  1  0
 33 60  1  0
 33 61  1  0
 34 62  1  0
 34 63  1  0
M  END
$$$$
