
     RDKit          3D

 36 37  0  0  0  0  0  0  0  0999 V2000
   -2.6618   -1.6991    1.7834 C   0  0  0  0  0  0  0  0  0  0  0  0
   -2.9193   -0.9824    0.4607 C   0  0  0  0  0  0  0  0  0  0  0  0
   -1.6948   -0.3837   -0.0941 N   0  0  0  0  0  0  0  0  0  0  0  0
   -1.7946   -0.1945   -1.5589 C   0  0  0  0  0  0  0  0  0  0  0  0
   -2.8070    0.8346   -2.0984 C   0  0  0  0  0  0  0  0  0  0  0  0
   -4.1563    0.4449   -1.8628 O   0  0  0  0  0  0  0  0  0  0  0  0
   -1.3286    0.8447    0.6332 C   0  0  0  0  0  0  0  0  0  0  0  0
    0.0305    1.3480    0.2169 C   0  0  0  0  0  0  0  0  0  0  0  0
    0.2406    2.5648   -0.4042 C   0  0  0  0  0  0  0  0  0  0  0  0
    1.8811    2.8690   -0.7357 S   0  0  0  0  0  0  0  0  0  0  0  0
    2.3753    1.3767   -0.0383 C   0  0  0  0  0  0  0  0  0  0  0  0
    3.6957    0.8924    0.0703 C   0  0  0  0  0  0  0  0  0  0  0  0
    3.9274   -0.3573    0.6612 C   0  0  0  0  0  0  0  0  0  0  0  0
    5.3299   -0.8698    0.8115 C   0  0  0  0  0  0  0  0  0  0  0  0
    2.8527   -1.0917    1.1549 C   0  0  0  0  0  0  0  0  0  0  0  0
    1.5453   -0.6056    1.0451 C   0  0  0  0  0  0  0  0  0  0  0  0
    1.2826    0.6493    0.4399 C   0  0  0  0  0  0  0  0  0  0  0  0
   -2.3989   -1.0043    2.5859 H   0  0  0  0  0  0  0  0  0  0  0  0
   -1.8556   -2.4336    1.6830 H   0  0  0  0  0  0  0  0  0  0  0  0
   -3.5641   -2.2347    2.0971 H   0  0  0  0  0  0  0  0  0  0  0  0
   -3.7108   -0.2357    0.5952 H   0  0  0  0  0  0  0  0  0  0  0  0
   -3.3068   -1.7421   -0.2299 H   0  0  0  0  0  0  0  0  0  0  0  0
   -2.0220   -1.1710   -2.0070 H   0  0  0  0  0  0  0  0  0  0  0  0
   -0.8040    0.0642   -1.9517 H   0  0  0  0  0  0  0  0  0  0  0  0
   -2.6792    0.9349   -3.1817 H   0  0  0  0  0  0  0  0  0  0  0  0
   -2.6541    1.8258   -1.6640 H   0  0  0  0  0  0  0  0  0  0  0  0
   -4.2733   -0.4382   -2.2530 H   0  0  0  0  0  0  0  0  0  0  0  0
   -2.0873    1.6269    0.5089 H   0  0  0  0  0  0  0  0  0  0  0  0
   -1.2676    0.6505    1.7106 H   0  0  0  0  0  0  0  0  0  0  0  0
   -0.5038    3.2985   -0.6819 H   0  0  0  0  0  0  0  0  0  0  0  0
    4.5234    1.4883   -0.3057 H   0  0  0  0  0  0  0  0  0  0  0  0
    5.7544   -0.5251    1.7594 H   0  0  0  0  0  0  0  0  0  0  0  0
    5.3505   -1.9646    0.7915 H   0  0  0  0  0  0  0  0  0  0  0  0
    5.9641   -0.5188   -0.0094 H   0  0  0  0  0  0  0  0  0  0  0  0
    3.0163   -2.0569    1.6294 H   0  0  0  0  0  0  0  0  0  0  0  0
    0.7202   -1.2043    1.4238 H   0  0  0  0  0  0  0  0  0  0  0  0
  1  2  1  0
  2  3  1  0
  3  4  1  0
  4  5  1  0
  5  6  1  0
  3  7  1  0
  7  8  1  0
  8  9  2  0
  9 10  1  0
 10 11  1  0
 11 12  2  0
 12 13  1  0
 13 14  1  0
 13 15  2  0
 15 16  1  0
 16 17  2  0
 17  8  1  0
 17 11  1  0
  1 18  1  0
  1 19  1  0
  1 20  1  0
  2 21  1  0
  2 22  1  0
  4 23  1  0
  4 24  1  0
  5 25  1  0
  5 26  1  0
  6 27  1  0
  7 28  1  0
  7 29  1  0
  9 30  1  0
 12 31  1  0
 14 32  1  0
 14 33  1  0
 14 34  1  0
 15 35  1  0
 16 36  1  0
M  END
$$$$
