
     RDKit          3D

 46 48  0  0  0  0  0  0  0  0999 V2000
   -8.0621   -0.9889   -0.8124 C   0  0  0  0  0  0  0  0  0  0  0  0
   -7.5816    0.3102   -0.4879 O   0  0  0  0  0  0  0  0  0  0  0  0
   -6.3138    0.3910    0.0220 C   0  0  0  0  0  0  0  0  0  0  0  0
   -5.8464    1.6919    0.2072 C   0  0  0  0  0  0  0  0  0  0  0  0
   -4.5723    1.9225    0.7289 C   0  0  0  0  0  0  0  0  0  0  0  0
   -3.7441    0.8482    1.0680 C   0  0  0  0  0  0  0  0  0  0  0  0
   -2.4202    1.1427    1.6300 C   0  0  0  0  0  0  0  0  0  0  0  0
   -1.2415    0.9216    1.0299 C   0  0  0  0  0  0  0  0  0  0  0  0
    0.2711    1.3044    1.8171 S   0  0  0  0  0  0  0  0  0  0  0  0
    1.1734    0.7336    0.4542 C   0  0  0  0  0  0  0  0  0  0  0  0
    2.5101    0.7457    0.4100 C   0  0  0  0  0  0  0  0  0  0  0  0
    3.2659    0.2601   -0.7756 C   0  0  0  0  0  0  0  0  0  0  0  0
    2.7019   -0.0551   -1.8184 O   0  0  0  0  0  0  0  0  0  0  0  0
    4.7483    0.2018   -0.6822 C   0  0  0  0  0  0  0  0  0  0  0  0
    5.4907    0.4268   -1.8484 C   0  0  0  0  0  0  0  0  0  0  0  0
    6.8870    0.3876   -1.8144 C   0  0  0  0  0  0  0  0  0  0  0  0
    7.5574    0.1007   -0.6198 C   0  0  0  0  0  0  0  0  0  0  0  0
    9.0579    0.0878   -0.5725 C   0  0  0  0  0  0  0  0  0  0  0  0
    6.8116   -0.1310    0.5437 C   0  0  0  0  0  0  0  0  0  0  0  0
    5.4138   -0.0909    0.5137 C   0  0  0  0  0  0  0  0  0  0  0  0
    0.3560    0.2882   -0.5367 N   0  0  0  0  0  0  0  0  0  0  0  0
   -0.9992    0.3572   -0.3340 C   0  0  0  0  0  0  0  0  0  0  0  0
   -1.8347    0.0178   -1.1540 O   0  0  0  0  0  0  0  0  0  0  0  0
   -4.2110   -0.4639    0.8841 C   0  0  0  0  0  0  0  0  0  0  0  0
   -3.3833   -1.4840    1.2885 O   0  0  0  0  0  0  0  0  0  0  0  0
   -3.4163   -2.6414    0.4534 C   0  0  0  0  0  0  0  0  0  0  0  0
   -5.4978   -0.6865    0.3708 C   0  0  0  0  0  0  0  0  0  0  0  0
   -7.4116   -1.4825   -1.5428 H   0  0  0  0  0  0  0  0  0  0  0  0
   -9.0494   -0.8747   -1.2700 H   0  0  0  0  0  0  0  0  0  0  0  0
   -8.1815   -1.6000    0.0888 H   0  0  0  0  0  0  0  0  0  0  0  0
   -6.4812    2.5333   -0.0565 H   0  0  0  0  0  0  0  0  0  0  0  0
   -4.2329    2.9454    0.8622 H   0  0  0  0  0  0  0  0  0  0  0  0
   -2.4525    1.5759    2.6264 H   0  0  0  0  0  0  0  0  0  0  0  0
    3.0782    1.1401    1.2435 H   0  0  0  0  0  0  0  0  0  0  0  0
    4.9847    0.6397   -2.7887 H   0  0  0  0  0  0  0  0  0  0  0  0
    7.4463    0.5787   -2.7288 H   0  0  0  0  0  0  0  0  0  0  0  0
    9.4170   -0.6835    0.1178 H   0  0  0  0  0  0  0  0  0  0  0  0
    9.4819   -0.1363   -1.5581 H   0  0  0  0  0  0  0  0  0  0  0  0
    9.4294    1.0638   -0.2442 H   0  0  0  0  0  0  0  0  0  0  0  0
    7.3182   -0.3534    1.4816 H   0  0  0  0  0  0  0  0  0  0  0  0
    4.8696   -0.3123    1.4279 H   0  0  0  0  0  0  0  0  0  0  0  0
    0.7323   -0.0572   -1.4161 H   0  0  0  0  0  0  0  0  0  0  0  0
   -3.4043   -2.3806   -0.6112 H   0  0  0  0  0  0  0  0  0  0  0  0
   -4.2862   -3.2635    0.6951 H   0  0  0  0  0  0  0  0  0  0  0  0
   -2.5187   -3.2304    0.6638 H   0  0  0  0  0  0  0  0  0  0  0  0
   -5.8602   -1.7004    0.2702 H   0  0  0  0  0  0  0  0  0  0  0  0
  1  2  1  0
  2  3  1  0
  3  4  2  0
  4  5  1  0
  5  6  2  0
  6  7  1  0
  7  8  2  3
  8  9  1  0
  9 10  1  0
 10 11  2  3
 11 12  1  0
 12 13  2  0
 12 14  1  0
 14 15  2  0
 15 16  1  0
 16 17  2  0
 17 18  1  0
 17 19  1  0
 19 20  2  0
 10 21  1  0
 21 22  1  0
 22 23  2  0
  6 24  1  0
 24 25  1  0
 25 26  1  0
 24 27  2  0
 27  3  1  0
 22  8  1  0
 20 14  1  0
  1 28  1  0
  1 29  1  0
  1 30  1  0
  4 31  1  0
  5 32  1  0
  7 33  1  0
 11 34  1  0
 15 35  1  0
 16 36  1  0
 18 37  1  0
 18 38  1  0
 18 39  1  0
 19 40  1  0
 20 41  1  0
 21 42  1  0
 26 43  1  0
 26 44  1  0
 26 45  1  0
 27 46  1  0
M  END
$$$$
