
     RDKit          3D

 37 38  0  0  0  0  0  0  0  0999 V2000
    6.0352   -0.1458   -0.7675 C   0  0  0  0  0  0  0  0  0  0  0  0
    4.7122   -0.4322   -1.4545 C   0  0  0  0  0  0  0  0  0  0  0  0
    3.6060   -0.4671   -0.5178 N   0  0  0  0  0  0  0  0  0  0  0  0
    2.7421    0.5490   -0.2348 C   0  0  0  0  0  0  0  0  0  0  0  0
    1.8706    0.0645    0.7205 C   0  0  0  0  0  0  0  0  0  0  0  0
    0.7410    0.7728    1.3705 C   0  0  0  0  0  0  0  0  0  0  0  0
   -0.4675    0.4336    0.6570 N   0  0  0  0  0  0  0  0  0  0  0  0
   -1.6938    0.7974    1.1629 C   0  0  0  0  0  0  0  0  0  0  0  0
   -1.8411    1.3533    2.2443 O   0  0  0  0  0  0  0  0  0  0  0  0
   -2.8755    0.5118    0.3045 C   0  0  0  0  0  0  0  0  0  0  0  0
   -2.8842   -0.5529   -0.6091 C   0  0  0  0  0  0  0  0  0  0  0  0
   -4.0155   -0.8003   -1.3913 C   0  0  0  0  0  0  0  0  0  0  0  0
   -5.1459    0.0077   -1.2621 C   0  0  0  0  0  0  0  0  0  0  0  0
   -5.1408    1.0629   -0.3388 C   0  0  0  0  0  0  0  0  0  0  0  0
   -6.3317    1.9102   -0.2007 N   0  0  0  0  0  4  0  0  0  0  0  0
   -6.2486    2.9084    0.5276 O   0  0  0  0  0  0  0  0  0  0  0  0
   -7.3480    1.5793   -0.8279 O   0  0  0  0  0  1  0  0  0  0  0  0
   -4.0122    1.3174    0.4499 C   0  0  0  0  0  0  0  0  0  0  0  0
    2.2980   -1.2756    0.9355 C   0  0  0  0  0  0  0  0  0  0  0  0
    1.7182   -2.2793    1.8629 C   0  0  0  0  0  0  0  0  0  0  0  0
    3.3457   -1.5935    0.1657 N   0  0  0  0  0  0  0  0  0  0  0  0
    6.2708   -0.9161   -0.0256 H   0  0  0  0  0  0  0  0  0  0  0  0
    6.8467   -0.1190   -1.5012 H   0  0  0  0  0  0  0  0  0  0  0  0
    6.0096    0.8190   -0.2499 H   0  0  0  0  0  0  0  0  0  0  0  0
    4.4934    0.3395   -2.2006 H   0  0  0  0  0  0  0  0  0  0  0  0
    4.7414   -1.3985   -1.9699 H   0  0  0  0  0  0  0  0  0  0  0  0
    2.8211    1.5148   -0.7142 H   0  0  0  0  0  0  0  0  0  0  0  0
    0.6373    0.4885    2.4231 H   0  0  0  0  0  0  0  0  0  0  0  0
    0.8717    1.8596    1.3240 H   0  0  0  0  0  0  0  0  0  0  0  0
   -0.3772    0.2260   -0.3279 H   0  0  0  0  0  0  0  0  0  0  0  0
   -2.0286   -1.2177   -0.7031 H   0  0  0  0  0  0  0  0  0  0  0  0
   -4.0192   -1.6307   -2.0949 H   0  0  0  0  0  0  0  0  0  0  0  0
   -6.0194   -0.2000   -1.8779 H   0  0  0  0  0  0  0  0  0  0  0  0
   -4.0040    2.1310    1.1744 H   0  0  0  0  0  0  0  0  0  0  0  0
    0.6628   -2.4507    1.6280 H   0  0  0  0  0  0  0  0  0  0  0  0
    2.2396   -3.2396    1.7949 H   0  0  0  0  0  0  0  0  0  0  0  0
    1.7902   -1.9279    2.8971 H   0  0  0  0  0  0  0  0  0  0  0  0
  1  2  1  0
  2  3  1  0
  3  4  1  0
  4  5  2  0
  5  6  1  0
  6  7  1  0
  7  8  1  0
  8  9  2  0
  8 10  1  0
 10 11  2  0
 11 12  1  0
 12 13  2  0
 13 14  1  0
 14 15  1  0
 15 16  2  0
 15 17  1  0
 14 18  2  0
  5 19  1  0
 19 20  1  0
 19 21  2  0
 21  3  1  0
 18 10  1  0
  1 22  1  0
  1 23  1  0
  1 24  1  0
  2 25  1  0
  2 26  1  0
  4 27  1  0
  6 28  1  0
  6 29  1  0
  7 30  1  0
 11 31  1  0
 12 32  1  0
 13 33  1  0
 18 34  1  0
 20 35  1  0
 20 36  1  0
 20 37  1  0
M  CHG  2  15   1  17  -1
M  END
$$$$
