
     RDKit          3D

 36 37  0  0  0  0  0  0  0  0999 V2000
    1.1683   -0.3519   -2.9291 O   0  0  0  0  0  0  0  0  0  0  0  0
    0.7408    0.6185   -2.3120 C   0  0  0  0  0  0  0  0  0  0  0  0
   -0.5763    1.3098   -2.6736 C   0  0  0  0  0  0  0  0  0  0  0  0
   -1.6920    0.8012   -1.9370 O   0  0  0  0  0  0  0  0  0  0  0  0
   -1.7523    1.1916   -0.6417 C   0  0  0  0  0  0  0  0  0  0  0  0
   -0.9684    1.9322   -0.0729 O   0  0  0  0  0  0  0  0  0  0  0  0
   -2.9114    0.5420   -0.0018 C   0  0  0  0  0  0  0  0  0  0  0  0
   -4.1642    0.6304   -0.6284 C   0  0  0  0  0  0  0  0  0  0  0  0
   -5.2781    0.0487   -0.0274 C   0  0  0  0  0  0  0  0  0  0  0  0
   -6.8145    0.1594   -0.7909 Cl  0  0  0  0  0  0  0  0  0  0  0  0
   -5.1572   -0.6185    1.1901 C   0  0  0  0  0  0  0  0  0  0  0  0
   -3.9095   -0.7091    1.8129 C   0  0  0  0  0  0  0  0  0  0  0  0
   -2.7823   -0.1293    1.2206 C   0  0  0  0  0  0  0  0  0  0  0  0
   -1.2672   -0.3265    2.0278 Cl  0  0  0  0  0  0  0  0  0  0  0  0
    1.3827    1.1604   -1.2197 N   0  0  0  0  0  0  0  0  0  0  0  0
    2.5797    0.5645   -0.6562 C   0  0  0  0  0  0  0  0  0  0  0  0
    2.3129   -0.7984   -0.0013 C   0  0  0  0  0  0  0  0  0  0  0  0
    3.2881   -1.1184    1.0249 N   0  0  0  0  0  0  0  0  0  0  0  0
    3.2463   -0.6814    2.3292 C   0  0  0  0  0  0  0  0  0  0  0  0
    2.1872    0.0190    2.8238 O   0  0  0  0  0  0  0  0  0  0  0  0
    4.3264   -0.9849    3.0543 C   0  0  0  0  0  0  0  0  0  0  0  0
    5.4953   -1.8612    2.1213 S   0  0  0  0  0  0  0  0  0  0  0  0
    4.4725   -1.7622    0.6769 C   0  0  0  0  0  0  0  0  0  0  0  0
    4.8076   -2.1836   -0.4170 O   0  0  0  0  0  0  0  0  0  0  0  0
   -0.7699    1.1319   -3.7368 H   0  0  0  0  0  0  0  0  0  0  0  0
   -0.4880    2.3959   -2.5479 H   0  0  0  0  0  0  0  0  0  0  0  0
   -4.2708    1.1548   -1.5755 H   0  0  0  0  0  0  0  0  0  0  0  0
   -6.0278   -1.0725    1.6584 H   0  0  0  0  0  0  0  0  0  0  0  0
   -3.8243   -1.2386    2.7598 H   0  0  0  0  0  0  0  0  0  0  0  0
    0.8335    1.7825   -0.6236 H   0  0  0  0  0  0  0  0  0  0  0  0
    3.3277    0.4592   -1.4502 H   0  0  0  0  0  0  0  0  0  0  0  0
    2.9649    1.2850    0.0733 H   0  0  0  0  0  0  0  0  0  0  0  0
    1.3084   -0.8448    0.4293 H   0  0  0  0  0  0  0  0  0  0  0  0
    2.3431   -1.5786   -0.7719 H   0  0  0  0  0  0  0  0  0  0  0  0
    1.3949   -0.2069    2.3116 H   0  0  0  0  0  0  0  0  0  0  0  0
    4.4741   -0.7201    4.0916 H   0  0  0  0  0  0  0  0  0  0  0  0
  1  2  2  0
  2  3  1  0
  3  4  1  0
  4  5  1  0
  5  6  2  0
  5  7  1  0
  7  8  2  0
  8  9  1  0
  9 10  1  0
  9 11  2  0
 11 12  1  0
 12 13  2  0
 13 14  1  0
  2 15  1  0
 15 16  1  0
 16 17  1  0
 17 18  1  0
 18 19  1  0
 19 20  1  0
 19 21  2  0
 21 22  1  0
 22 23  1  0
 23 24  2  0
 13  7  1  0
 23 18  1  0
  3 25  1  0
  3 26  1  0
  8 27  1  0
 11 28  1  0
 12 29  1  0
 15 30  1  0
 16 31  1  0
 16 32  1  0
 17 33  1  0
 17 34  1  0
 20 35  1  0
 21 36  1  0
M  END
$$$$
