
     RDKit          3D

 31 33  0  0  0  0  0  0  0  0999 V2000
   -2.6021   -1.4990   -1.6938 C   0  0  0  0  0  0  0  0  0  0  0  0
   -3.0778   -0.6112   -0.5892 C   0  0  0  0  0  0  0  0  0  0  0  0
   -4.4605   -0.3083   -0.3606 C   0  0  0  0  0  0  0  0  0  0  0  0
   -4.6520    0.5345    0.7078 C   0  0  0  0  0  0  0  0  0  0  0  0
   -3.1818    0.9712    1.4462 S   0  0  0  0  0  0  0  0  0  0  0  0
   -2.2585    0.0255    0.3392 C   0  0  0  0  0  0  0  0  0  0  0  0
   -0.7406   -0.0417    0.4424 C   0  0  0  0  0  0  0  0  0  0  0  0
   -0.2565   -0.3711    1.8387 C   0  0  0  0  0  0  0  0  0  0  0  0
    0.9487   -1.2518    1.7894 C   0  0  0  0  0  0  0  0  0  0  0  0
    0.9793   -2.2920    2.4569 O   0  0  0  0  0  0  0  0  0  0  0  0
    2.0549   -0.9527    1.0715 N   0  0  0  0  0  0  0  0  0  0  0  0
    2.4544    0.0934    0.2170 C   0  0  0  0  0  0  0  0  0  0  0  0
    3.8132   -0.0026   -0.1655 C   0  0  0  0  0  0  0  0  0  0  0  0
    4.4259    0.9434   -0.9870 C   0  0  0  0  0  0  0  0  0  0  0  0
    3.6891    2.0165   -1.4515 C   0  0  0  0  0  0  0  0  0  0  0  0
    2.3449    2.1246   -1.0987 C   0  0  0  0  0  0  0  0  0  0  0  0
    1.6995    1.1705   -0.2763 C   0  0  0  0  0  0  0  0  0  0  0  0
   -0.0263    1.5565   -0.0507 S   0  0  0  0  0  0  0  0  0  0  0  0
   -1.9032   -0.9616   -2.3430 H   0  0  0  0  0  0  0  0  0  0  0  0
   -2.0960   -2.3792   -1.2844 H   0  0  0  0  0  0  0  0  0  0  0  0
   -3.4361   -1.8464   -2.3122 H   0  0  0  0  0  0  0  0  0  0  0  0
   -5.2788   -0.6919   -0.9586 H   0  0  0  0  0  0  0  0  0  0  0  0
   -5.5887    0.9172    1.0889 H   0  0  0  0  0  0  0  0  0  0  0  0
   -0.3942   -0.7939   -0.2765 H   0  0  0  0  0  0  0  0  0  0  0  0
   -0.0355    0.5029    2.4633 H   0  0  0  0  0  0  0  0  0  0  0  0
   -1.0206   -0.9480    2.3781 H   0  0  0  0  0  0  0  0  0  0  0  0
    2.7567   -1.6643    1.2502 H   0  0  0  0  0  0  0  0  0  0  0  0
    4.4309   -0.8265    0.1898 H   0  0  0  0  0  0  0  0  0  0  0  0
    5.4746    0.8405   -1.2536 H   0  0  0  0  0  0  0  0  0  0  0  0
    4.1486    2.7676   -2.0886 H   0  0  0  0  0  0  0  0  0  0  0  0
    1.7888    2.9778   -1.4890 H   0  0  0  0  0  0  0  0  0  0  0  0
  1  2  1  0
  2  3  1  0
  3  4  2  0
  4  5  1  0
  5  6  1  0
  6  7  1  0
  7  8  1  0
  8  9  1  0
  9 10  2  0
  9 11  1  0
 11 12  1  0
 12 13  2  0
 13 14  1  0
 14 15  2  0
 15 16  1  0
 16 17  2  0
 17 18  1  0
  6  2  2  0
 18  7  1  0
 17 12  1  0
  1 19  1  0
  1 20  1  0
  1 21  1  0
  3 22  1  0
  4 23  1  0
  7 24  1  0
  8 25  1  0
  8 26  1  0
 11 27  1  0
 13 28  1  0
 14 29  1  0
 15 30  1  0
 16 31  1  0
M  END
$$$$
