
     RDKit          3D

 51 55  0  0  0  0  0  0  0  0999 V2000
    4.0337   -2.3488   -0.1417 F   0  0  0  0  0  0  0  0  0  0  0  0
    4.8992   -1.4260    0.3046 C   0  0  0  0  0  0  0  0  0  0  0  0
    5.6465   -1.7086    1.4447 C   0  0  0  0  0  0  0  0  0  0  0  0
    6.5577   -0.7696    1.9238 C   0  0  0  0  0  0  0  0  0  0  0  0
    6.7149    0.4464    1.2584 C   0  0  0  0  0  0  0  0  0  0  0  0
    5.9620    0.7249    0.1144 C   0  0  0  0  0  0  0  0  0  0  0  0
    5.0440   -0.2140   -0.3772 C   0  0  0  0  0  0  0  0  0  0  0  0
    4.2149    0.0817   -1.6014 C   0  0  0  0  0  0  0  0  0  0  0  0
    3.0419    1.0489   -1.3443 C   0  0  0  0  0  0  0  0  0  0  0  0
    2.0873    0.6156   -0.3137 N   0  0  0  0  0  0  0  0  0  0  0  0
    1.2847   -0.5653   -0.6903 C   0  0  0  0  0  0  0  0  0  0  0  0
   -0.1375   -0.2642   -1.2164 C   0  0  0  0  0  0  0  0  0  0  0  0
   -0.9198    0.5550   -0.2784 N   0  0  0  0  0  0  0  0  0  0  0  0
   -2.2591    0.2859   -0.0096 C   0  0  0  0  0  0  0  0  0  0  0  0
   -2.6823    0.4474    1.2211 N   0  0  0  0  0  0  0  0  0  0  0  0
   -4.0121    0.1550    1.5755 C   0  0  0  0  0  0  0  0  0  0  0  0
   -4.3968    0.3283    2.9065 C   0  0  0  0  0  0  0  0  0  0  0  0
   -5.7018    0.0412    3.3158 C   0  0  0  0  0  0  0  0  0  0  0  0
   -6.6379   -0.4249    2.3923 C   0  0  0  0  0  0  0  0  0  0  0  0
   -6.2751   -0.6052    1.0570 C   0  0  0  0  0  0  0  0  0  0  0  0
   -4.9653   -0.3140    0.6631 C   0  0  0  0  0  0  0  0  0  0  0  0
   -4.5189   -0.4525   -0.6608 N   0  0  0  0  0  0  0  0  0  0  0  0
   -5.2149   -0.8564   -1.7757 C   0  0  0  0  0  0  0  0  0  0  0  0
   -4.3783   -0.7574   -2.8648 C   0  0  0  0  0  0  0  0  0  0  0  0
   -3.1294   -0.2933   -2.3907 C   0  0  0  0  0  0  0  0  0  0  0  0
   -3.2207   -0.1493   -1.0163 C   0  0  0  0  0  0  0  0  0  0  0  0
   -0.1195    1.2888    0.7190 C   0  0  0  0  0  0  0  0  0  0  0  0
    1.2213    1.7387    0.1069 C   0  0  0  0  0  0  0  0  0  0  0  0
    5.5102   -2.6583    1.9514 H   0  0  0  0  0  0  0  0  0  0  0  0
    7.1421   -0.9833    2.8148 H   0  0  0  0  0  0  0  0  0  0  0  0
    7.4230    1.1816    1.6330 H   0  0  0  0  0  0  0  0  0  0  0  0
    6.0934    1.6801   -0.3886 H   0  0  0  0  0  0  0  0  0  0  0  0
    4.8723    0.5250   -2.3614 H   0  0  0  0  0  0  0  0  0  0  0  0
    3.8580   -0.8523   -2.0501 H   0  0  0  0  0  0  0  0  0  0  0  0
    2.5188    1.2317   -2.2920 H   0  0  0  0  0  0  0  0  0  0  0  0
    3.4755    2.0109   -1.0384 H   0  0  0  0  0  0  0  0  0  0  0  0
    1.1860   -1.1818    0.2132 H   0  0  0  0  0  0  0  0  0  0  0  0
    1.8028   -1.1998   -1.4165 H   0  0  0  0  0  0  0  0  0  0  0  0
   -0.6316   -1.2258   -1.3962 H   0  0  0  0  0  0  0  0  0  0  0  0
   -0.0649    0.2649   -2.1734 H   0  0  0  0  0  0  0  0  0  0  0  0
   -3.6682    0.6883    3.6281 H   0  0  0  0  0  0  0  0  0  0  0  0
   -5.9845    0.1812    4.3560 H   0  0  0  0  0  0  0  0  0  0  0  0
   -7.6522   -0.6470    2.7148 H   0  0  0  0  0  0  0  0  0  0  0  0
   -7.0210   -0.9661    0.3571 H   0  0  0  0  0  0  0  0  0  0  0  0
   -6.2492   -1.1632   -1.7220 H   0  0  0  0  0  0  0  0  0  0  0  0
   -4.6438   -0.9832   -3.8896 H   0  0  0  0  0  0  0  0  0  0  0  0
   -2.2600   -0.0854   -2.9977 H   0  0  0  0  0  0  0  0  0  0  0  0
   -0.6651    2.1822    1.0459 H   0  0  0  0  0  0  0  0  0  0  0  0
    0.0570    0.6597    1.6005 H   0  0  0  0  0  0  0  0  0  0  0  0
    0.9964    2.3875   -0.7510 H   0  0  0  0  0  0  0  0  0  0  0  0
    1.7666    2.3448    0.8394 H   0  0  0  0  0  0  0  0  0  0  0  0
  1  2  1  0
  2  3  2  0
  3  4  1  0
  4  5  2  0
  5  6  1  0
  6  7  2  0
  7  8  1  0
  8  9  1  0
  9 10  1  0
 10 11  1  0
 11 12  1  0
 12 13  1  0
 13 14  1  0
 14 15  2  0
 15 16  1  0
 16 17  2  0
 17 18  1  0
 18 19  2  0
 19 20  1  0
 20 21  2  0
 21 22  1  0
 22 23  1  0
 23 24  2  0
 24 25  1  0
 25 26  2  0
 13 27  1  0
 27 28  1  0
  7  2  1  0
 28 10  1  0
 26 14  1  0
 21 16  1  0
 26 22  1  0
  3 29  1  0
  4 30  1  0
  5 31  1  0
  6 32  1  0
  8 33  1  0
  8 34  1  0
  9 35  1  0
  9 36  1  0
 11 37  1  0
 11 38  1  0
 12 39  1  0
 12 40  1  0
 17 41  1  0
 18 42  1  0
 19 43  1  0
 20 44  1  0
 23 45  1  0
 24 46  1  0
 25 47  1  0
 27 48  1  0
 27 49  1  0
 28 50  1  0
 28 51  1  0
M  END
$$$$
