
     RDKit          3D

 59 62  0  0  0  0  0  0  0  0999 V2000
    7.7795    1.4129   -0.8253 C   0  0  0  0  0  0  0  0  0  0  0  0
    6.5303    2.0699   -0.6499 O   0  0  0  0  0  0  0  0  0  0  0  0
    5.4452    1.2803   -0.3847 C   0  0  0  0  0  0  0  0  0  0  0  0
    5.4528   -0.1119   -0.2682 C   0  0  0  0  0  0  0  0  0  0  0  0
    4.2674   -0.8048    0.0080 C   0  0  0  0  0  0  0  0  0  0  0  0
    3.0689   -0.1078    0.1690 C   0  0  0  0  0  0  0  0  0  0  0  0
    1.8117   -0.7966    0.4531 C   0  0  0  0  0  0  0  0  0  0  0  0
    0.6592   -0.1133    0.5807 C   0  0  0  0  0  0  0  0  0  0  0  0
   -0.6586   -0.7655    0.8839 C   0  0  0  0  0  0  0  0  0  0  0  0
   -1.4564   -0.9513   -0.3586 N   0  0  0  0  0  0  0  0  0  0  0  0
   -0.9682   -2.0154   -1.2925 C   0  0  0  0  0  0  0  0  0  0  0  0
   -1.1405   -3.4453   -0.7648 C   0  0  0  0  0  0  0  0  0  0  0  0
   -1.0803   -4.4866   -1.8719 C   0  0  0  0  0  0  0  0  0  0  0  0
   -0.6930   -5.7231   -1.1010 C   0  0  0  0  0  0  0  0  0  0  0  0
    0.2843   -5.1702   -0.0859 C   0  0  0  0  0  0  0  0  0  0  0  0
   -0.0623   -3.7934    0.1324 O   0  0  0  0  0  0  0  0  0  0  0  0
   -3.1448   -0.9133   -0.1329 S   0  0  0  0  0  6  0  0  0  0  0  0
   -3.4456   -1.6488    1.0778 O   0  0  0  0  0  0  0  0  0  0  0  0
   -3.7827   -1.2571   -1.3867 O   0  0  0  0  0  0  0  0  0  0  0  0
   -3.4643    0.8088    0.1580 C   0  0  0  0  0  0  0  0  0  0  0  0
   -3.3505    1.7055   -0.9073 C   0  0  0  0  0  0  0  0  0  0  0  0
   -3.6029    3.0618   -0.6932 C   0  0  0  0  0  0  0  0  0  0  0  0
   -3.9698    3.5237    0.5797 C   0  0  0  0  0  0  0  0  0  0  0  0
   -4.2144    4.9857    0.7600 C   0  0  0  0  0  0  0  0  0  0  0  0
   -4.4143    5.5244    2.1524 C   0  0  0  0  0  0  0  0  0  0  0  0
   -4.2576    5.7274   -0.2197 O   0  0  0  0  0  0  0  0  0  0  0  0
   -4.1021    2.6104    1.6356 C   0  0  0  0  0  0  0  0  0  0  0  0
   -3.8545    1.2502    1.4248 C   0  0  0  0  0  0  0  0  0  0  0  0
    0.6702    1.3791    0.5112 C   0  0  0  0  0  0  0  0  0  0  0  0
   -0.3382    2.0470    0.7180 O   0  0  0  0  0  0  0  0  0  0  0  0
    1.8663    1.9821    0.2239 N   0  0  0  0  0  0  0  0  0  0  0  0
    3.0669    1.2847    0.0517 C   0  0  0  0  0  0  0  0  0  0  0  0
    4.2448    1.9778   -0.2230 C   0  0  0  0  0  0  0  0  0  0  0  0
    8.5343    2.1787   -1.0282 H   0  0  0  0  0  0  0  0  0  0  0  0
    7.7520    0.7361   -1.6857 H   0  0  0  0  0  0  0  0  0  0  0  0
    8.0783    0.8838    0.0857 H   0  0  0  0  0  0  0  0  0  0  0  0
    6.3637   -0.6899   -0.3862 H   0  0  0  0  0  0  0  0  0  0  0  0
    4.2938   -1.8883    0.0945 H   0  0  0  0  0  0  0  0  0  0  0  0
    1.8302   -1.8789    0.5381 H   0  0  0  0  0  0  0  0  0  0  0  0
   -1.1987   -0.1466    1.6088 H   0  0  0  0  0  0  0  0  0  0  0  0
   -0.5117   -1.7262    1.3873 H   0  0  0  0  0  0  0  0  0  0  0  0
   -1.5043   -1.8947   -2.2417 H   0  0  0  0  0  0  0  0  0  0  0  0
    0.0842   -1.8246   -1.5283 H   0  0  0  0  0  0  0  0  0  0  0  0
   -2.0741   -3.5636   -0.2050 H   0  0  0  0  0  0  0  0  0  0  0  0
   -2.0268   -4.5899   -2.4096 H   0  0  0  0  0  0  0  0  0  0  0  0
   -0.2939   -4.2435   -2.5970 H   0  0  0  0  0  0  0  0  0  0  0  0
   -1.5714   -6.1339   -0.5892 H   0  0  0  0  0  0  0  0  0  0  0  0
   -0.2617   -6.5126   -1.7219 H   0  0  0  0  0  0  0  0  0  0  0  0
    1.3101   -5.1958   -0.4678 H   0  0  0  0  0  0  0  0  0  0  0  0
    0.2526   -5.7121    0.8636 H   0  0  0  0  0  0  0  0  0  0  0  0
   -3.0560    1.3586   -1.8951 H   0  0  0  0  0  0  0  0  0  0  0  0
   -3.5009    3.7605   -1.5219 H   0  0  0  0  0  0  0  0  0  0  0  0
   -4.4192    6.6183    2.1165 H   0  0  0  0  0  0  0  0  0  0  0  0
   -5.3741    5.1872    2.5516 H   0  0  0  0  0  0  0  0  0  0  0  0
   -3.5913    5.2180    2.8035 H   0  0  0  0  0  0  0  0  0  0  0  0
   -4.3969    2.9307    2.6305 H   0  0  0  0  0  0  0  0  0  0  0  0
   -3.9592    0.5496    2.2501 H   0  0  0  0  0  0  0  0  0  0  0  0
    1.8505    2.9915    0.1692 H   0  0  0  0  0  0  0  0  0  0  0  0
    4.2438    3.0603   -0.3132 H   0  0  0  0  0  0  0  0  0  0  0  0
  1  2  1  0
  2  3  1  0
  3  4  2  0
  4  5  1  0
  5  6  2  0
  6  7  1  0
  7  8  2  0
  8  9  1  0
  9 10  1  0
 10 11  1  0
 11 12  1  0
 12 13  1  0
 13 14  1  0
 14 15  1  0
 15 16  1  0
 10 17  1  0
 17 18  2  0
 17 19  2  0
 17 20  1  0
 20 21  2  0
 21 22  1  0
 22 23  2  0
 23 24  1  0
 24 25  1  0
 24 26  2  0
 23 27  1  0
 27 28  2  0
  8 29  1  0
 29 30  2  0
 29 31  1  0
 31 32  1  0
 32 33  2  0
 33  3  1  0
 32  6  1  0
 16 12  1  0
 28 20  1  0
  1 34  1  0
  1 35  1  0
  1 36  1  0
  4 37  1  0
  5 38  1  0
  7 39  1  0
  9 40  1  0
  9 41  1  0
 11 42  1  0
 11 43  1  0
 12 44  1  0
 13 45  1  0
 13 46  1  0
 14 47  1  0
 14 48  1  0
 15 49  1  0
 15 50  1  0
 21 51  1  0
 22 52  1  0
 25 53  1  0
 25 54  1  0
 25 55  1  0
 27 56  1  0
 28 57  1  0
 31 58  1  0
 33 59  1  0
M  END
$$$$
