
     RDKit          3D

 53 55  0  0  0  0  0  0  0  0999 V2000
   -4.9317   -2.0431    3.1496 C   0  0  0  0  0  0  0  0  0  0  0  0
   -4.8646   -1.8277    1.7456 O   0  0  0  0  0  0  0  0  0  0  0  0
   -5.8559   -1.0723    1.1750 C   0  0  0  0  0  0  0  0  0  0  0  0
   -6.9533   -0.5458    1.8645 C   0  0  0  0  0  0  0  0  0  0  0  0
   -7.9049    0.2289    1.1962 C   0  0  0  0  0  0  0  0  0  0  0  0
   -7.7669    0.4871   -0.1637 C   0  0  0  0  0  0  0  0  0  0  0  0
   -6.6791   -0.0346   -0.8606 C   0  0  0  0  0  0  0  0  0  0  0  0
   -5.7212   -0.8270   -0.2049 C   0  0  0  0  0  0  0  0  0  0  0  0
   -4.5484   -1.3601   -0.9871 C   0  0  0  0  0  0  0  0  0  0  0  0
   -3.3850   -0.5305   -0.8095 N   0  0  0  0  0  0  0  0  0  0  0  0
   -2.2895   -0.6515   -1.6281 C   0  0  0  0  0  0  0  0  0  0  0  0
   -2.2297   -1.2895   -2.6700 O   0  0  0  0  0  0  0  0  0  0  0  0
   -1.0435    0.1027   -1.1101 C   0  0  0  0  0  0  0  0  0  0  0  0
   -1.0400    0.6033    0.0050 O   0  0  0  0  0  0  0  0  0  0  0  0
    0.0081    0.1097   -1.9964 N   0  0  0  0  0  0  0  0  0  0  0  0
    1.3219    0.5994   -1.6154 C   0  0  0  0  0  0  0  0  0  0  0  0
    2.0504   -0.3101   -0.6069 C   0  0  0  0  0  0  0  0  0  0  0  0
    2.1590   -1.6374   -1.1651 O   0  0  0  0  0  0  0  0  0  0  0  0
    3.2992   -2.2077   -0.5220 C   0  0  0  0  0  0  0  0  0  0  0  0
    4.2935   -1.0690   -0.5015 C   0  0  0  0  0  0  0  0  0  0  0  0
    3.4482    0.1399   -0.3921 N   0  0  0  0  0  0  0  0  0  0  0  0
    3.6395    1.0952    0.9872 S   0  0  0  0  0  6  0  0  0  0  0  0
    3.5957    0.2103    2.1317 O   0  0  0  0  0  0  0  0  0  0  0  0
    2.7598    2.2359    0.8734 O   0  0  0  0  0  0  0  0  0  0  0  0
    5.3017    1.6953    0.8029 C   0  0  0  0  0  0  0  0  0  0  0  0
    5.5991    2.5443   -0.2687 C   0  0  0  0  0  0  0  0  0  0  0  0
    6.9009    3.0227   -0.4254 C   0  0  0  0  0  0  0  0  0  0  0  0
    7.8884    2.6535    0.4895 C   0  0  0  0  0  0  0  0  0  0  0  0
    9.6514    3.3017    0.2746 Br  0  0  0  0  0  0  0  0  0  0  0  0
    7.5882    1.8126    1.5631 C   0  0  0  0  0  0  0  0  0  0  0  0
    6.2875    1.3311    1.7249 C   0  0  0  0  0  0  0  0  0  0  0  0
   -5.8238   -2.6185    3.4174 H   0  0  0  0  0  0  0  0  0  0  0  0
   -4.8898   -1.0963    3.6978 H   0  0  0  0  0  0  0  0  0  0  0  0
   -4.0567   -2.6332    3.4386 H   0  0  0  0  0  0  0  0  0  0  0  0
   -7.0982   -0.7165    2.9260 H   0  0  0  0  0  0  0  0  0  0  0  0
   -8.7527    0.6356    1.7418 H   0  0  0  0  0  0  0  0  0  0  0  0
   -8.5032    1.0967   -0.6811 H   0  0  0  0  0  0  0  0  0  0  0  0
   -6.5762    0.1812   -1.9223 H   0  0  0  0  0  0  0  0  0  0  0  0
   -4.2976   -2.3805   -0.6747 H   0  0  0  0  0  0  0  0  0  0  0  0
   -4.7870   -1.4192   -2.0560 H   0  0  0  0  0  0  0  0  0  0  0  0
   -3.2165   -0.1211    0.1057 H   0  0  0  0  0  0  0  0  0  0  0  0
   -0.0786   -0.5210   -2.7898 H   0  0  0  0  0  0  0  0  0  0  0  0
    1.2055    1.6085   -1.2071 H   0  0  0  0  0  0  0  0  0  0  0  0
    1.8988    0.6728   -2.5442 H   0  0  0  0  0  0  0  0  0  0  0  0
    1.4934   -0.3976    0.3333 H   0  0  0  0  0  0  0  0  0  0  0  0
    3.0161   -2.5224    0.4888 H   0  0  0  0  0  0  0  0  0  0  0  0
    3.6574   -3.0753   -1.0820 H   0  0  0  0  0  0  0  0  0  0  0  0
    4.8324   -1.0073   -1.4535 H   0  0  0  0  0  0  0  0  0  0  0  0
    5.0287   -1.1880    0.2975 H   0  0  0  0  0  0  0  0  0  0  0  0
    4.8239    2.8358   -0.9744 H   0  0  0  0  0  0  0  0  0  0  0  0
    7.1339    3.6833   -1.2569 H   0  0  0  0  0  0  0  0  0  0  0  0
    8.3573    1.5324    2.2790 H   0  0  0  0  0  0  0  0  0  0  0  0
    6.0539    0.6832    2.5671 H   0  0  0  0  0  0  0  0  0  0  0  0
  1  2  1  0
  2  3  1  0
  3  4  2  0
  4  5  1  0
  5  6  2  0
  6  7  1  0
  7  8  2  0
  8  9  1  0
  9 10  1  0
 10 11  1  0
 11 12  2  0
 11 13  1  0
 13 14  2  0
 13 15  1  0
 15 16  1  0
 16 17  1  0
 17 18  1  0
 18 19  1  0
 19 20  1  0
 20 21  1  0
 21 22  1  0
 22 23  2  0
 22 24  2  0
 22 25  1  0
 25 26  2  0
 26 27  1  0
 27 28  2  0
 28 29  1  0
 28 30  1  0
 30 31  2  0
  8  3  1  0
 21 17  1  0
 31 25  1  0
  1 32  1  0
  1 33  1  0
  1 34  1  0
  4 35  1  0
  5 36  1  0
  6 37  1  0
  7 38  1  0
  9 39  1  0
  9 40  1  0
 10 41  1  0
 15 42  1  0
 16 43  1  0
 16 44  1  0
 17 45  1  0
 19 46  1  0
 19 47  1  0
 20 48  1  0
 20 49  1  0
 26 50  1  0
 27 51  1  0
 30 52  1  0
 31 53  1  0
M  END
$$$$
