
     RDKit          3D

 44 46  0  0  0  0  0  0  0  0999 V2000
   -7.3146    0.1065   -0.4526 C   0  0  0  0  0  0  0  0  0  0  0  0
   -5.8181    0.1573   -0.3541 C   0  0  0  0  0  0  0  0  0  0  0  0
   -5.0581    0.6969   -1.3990 C   0  0  0  0  0  0  0  0  0  0  0  0
   -3.6614    0.7801   -1.3079 C   0  0  0  0  0  0  0  0  0  0  0  0
   -2.8810    1.3590   -2.4534 C   0  0  0  0  0  0  0  0  0  0  0  0
   -3.0306    0.2802   -0.1583 C   0  0  0  0  0  0  0  0  0  0  0  0
   -1.6626    0.3384   -0.0629 O   0  0  0  0  0  0  0  0  0  0  0  0
   -1.0792   -0.8715   -0.5650 C   0  0  0  0  0  0  0  0  0  0  0  0
    0.4461   -0.8212   -0.4557 C   0  0  0  0  0  0  0  0  0  0  0  0
    1.1280   -1.7687   -0.8363 O   0  0  0  0  0  0  0  0  0  0  0  0
    0.8969    0.3581    0.0923 N   0  0  0  0  0  0  0  0  0  0  0  0
    2.2165    0.6333    0.2899 C   0  0  0  0  0  0  0  0  0  0  0  0
    3.2630   -0.1013    0.0249 N   0  0  0  0  0  0  0  0  0  0  0  0
    4.4168    0.5811    0.3933 C   0  0  0  0  0  0  0  0  0  0  0  0
    5.7474    0.0047    0.2145 C   0  0  0  0  0  0  0  0  0  0  0  0
    5.8948   -1.2646   -0.3388 C   0  0  0  0  0  0  0  0  0  0  0  0
    7.1770   -1.7847   -0.4956 C   0  0  0  0  0  0  0  0  0  0  0  0
    8.2711   -1.0267   -0.0974 C   0  0  0  0  0  0  0  0  0  0  0  0
    8.0371    0.2266    0.4439 C   0  0  0  0  0  0  0  0  0  0  0  0
    6.8065    0.7598    0.6094 N   0  0  0  0  0  0  0  0  0  0  0  0
    4.1956    1.8351    0.9358 C   0  0  0  0  0  0  0  0  0  0  0  0
    2.5124    2.1636    0.9845 S   0  0  0  0  0  0  0  0  0  0  0  0
   -3.7754   -0.2015    0.9293 C   0  0  0  0  0  0  0  0  0  0  0  0
   -3.1173   -0.6795    2.1922 C   0  0  0  0  0  0  0  0  0  0  0  0
   -5.1706   -0.2726    0.8106 C   0  0  0  0  0  0  0  0  0  0  0  0
   -7.7466    1.0351   -0.0672 H   0  0  0  0  0  0  0  0  0  0  0  0
   -7.7154   -0.7358    0.1211 H   0  0  0  0  0  0  0  0  0  0  0  0
   -7.6333   -0.0283   -1.4916 H   0  0  0  0  0  0  0  0  0  0  0  0
   -5.5615    1.0608   -2.2932 H   0  0  0  0  0  0  0  0  0  0  0  0
   -2.0133    1.9223   -2.0950 H   0  0  0  0  0  0  0  0  0  0  0  0
   -2.5413    0.5602   -3.1193 H   0  0  0  0  0  0  0  0  0  0  0  0
   -3.4945    2.0569   -3.0334 H   0  0  0  0  0  0  0  0  0  0  0  0
   -1.4198   -1.7350    0.0176 H   0  0  0  0  0  0  0  0  0  0  0  0
   -1.3262   -1.0076   -1.6240 H   0  0  0  0  0  0  0  0  0  0  0  0
    0.2180    1.0584    0.3634 H   0  0  0  0  0  0  0  0  0  0  0  0
    5.0256   -1.8413   -0.6439 H   0  0  0  0  0  0  0  0  0  0  0  0
    7.3158   -2.7728   -0.9249 H   0  0  0  0  0  0  0  0  0  0  0  0
    9.2819   -1.4033   -0.2062 H   0  0  0  0  0  0  0  0  0  0  0  0
    8.8608    0.8557    0.7695 H   0  0  0  0  0  0  0  0  0  0  0  0
    4.9244    2.5489    1.2938 H   0  0  0  0  0  0  0  0  0  0  0  0
   -3.8043   -0.6121    3.0427 H   0  0  0  0  0  0  0  0  0  0  0  0
   -2.8035   -1.7218    2.0820 H   0  0  0  0  0  0  0  0  0  0  0  0
   -2.2454   -0.0653    2.4396 H   0  0  0  0  0  0  0  0  0  0  0  0
   -5.7616   -0.6637    1.6371 H   0  0  0  0  0  0  0  0  0  0  0  0
  1  2  1  0
  2  3  2  0
  3  4  1  0
  4  5  1  0
  4  6  2  0
  6  7  1  0
  7  8  1  0
  8  9  1  0
  9 10  2  0
  9 11  1  0
 11 12  1  0
 12 13  2  0
 13 14  1  0
 14 15  1  0
 15 16  2  0
 16 17  1  0
 17 18  2  0
 18 19  1  0
 19 20  2  0
 14 21  2  0
 21 22  1  0
  6 23  1  0
 23 24  1  0
 23 25  2  0
 25  2  1  0
 22 12  1  0
 20 15  1  0
  1 26  1  0
  1 27  1  0
  1 28  1  0
  3 29  1  0
  5 30  1  0
  5 31  1  0
  5 32  1  0
  8 33  1  0
  8 34  1  0
 11 35  1  0
 16 36  1  0
 17 37  1  0
 18 38  1  0
 19 39  1  0
 21 40  1  0
 24 41  1  0
 24 42  1  0
 24 43  1  0
 25 44  1  0
M  END
$$$$
