
     RDKit          3D

 51 54  0  0  0  0  0  0  0  0999 V2000
    5.9398   -0.7897   -1.5812 C   0  0  0  0  0  0  0  0  0  0  0  0
    5.4704    0.5926   -2.0080 C   0  0  0  0  0  0  0  0  0  0  0  0
    4.0804    0.8908   -1.5097 C   0  0  0  0  0  0  0  0  0  0  0  0
    2.9627    0.5909   -2.2910 C   0  0  0  0  0  0  0  0  0  0  0  0
    1.6702    0.8541   -1.8189 C   0  0  0  0  0  0  0  0  0  0  0  0
    1.4520    1.4183   -0.5513 C   0  0  0  0  0  0  0  0  0  0  0  0
    0.1140    1.6877   -0.0562 N   0  0  0  0  0  0  0  0  0  0  0  0
   -0.0793    2.8142    0.7526 C   0  0  0  0  0  0  0  0  0  0  0  0
    0.7574    3.6872    0.9865 O   0  0  0  0  0  0  0  0  0  0  0  0
   -1.4150    3.0085    1.3384 C   0  0  0  0  0  0  0  0  0  0  0  0
   -1.6169    4.0464    2.2655 C   0  0  0  0  0  0  0  0  0  0  0  0
   -2.8738    4.2554    2.8238 C   0  0  0  0  0  0  0  0  0  0  0  0
   -3.9273    3.4283    2.4567 C   0  0  0  0  0  0  0  0  0  0  0  0
   -3.7242    2.3998    1.5296 C   0  0  0  0  0  0  0  0  0  0  0  0
   -2.4622    2.1799    0.9531 C   0  0  0  0  0  0  0  0  0  0  0  0
   -2.2151    1.1508    0.0121 N   0  0  0  0  0  0  0  0  0  0  0  0
   -3.3059    0.2877   -0.4556 C   0  0  0  0  0  0  0  0  0  0  0  0
   -3.5122   -0.8970    0.4877 C   0  0  0  0  0  0  0  0  0  0  0  0
   -4.3979   -0.9116    1.3392 O   0  0  0  0  0  0  0  0  0  0  0  0
   -2.6057   -1.9185    0.3212 N   0  0  0  0  0  0  0  0  0  0  0  0
   -2.5454   -3.0052    1.2678 C   0  0  0  0  0  0  0  0  0  0  0  0
   -1.6200   -4.0364    0.7473 C   0  0  0  0  0  0  0  0  0  0  0  0
   -1.8052   -5.2582    0.1342 C   0  0  0  0  0  0  0  0  0  0  0  0
   -0.5128   -5.7660   -0.1422 C   0  0  0  0  0  0  0  0  0  0  0  0
    0.3761   -4.8226    0.3157 C   0  0  0  0  0  0  0  0  0  0  0  0
   -0.2860   -3.7698    0.8594 O   0  0  0  0  0  0  0  0  0  0  0  0
   -0.9287    0.8258   -0.4199 C   0  0  0  0  0  0  0  0  0  0  0  0
   -0.7707   -0.2246   -1.0542 O   0  0  0  0  0  0  0  0  0  0  0  0
    2.5871    1.7097    0.2233 C   0  0  0  0  0  0  0  0  0  0  0  0
    3.8810    1.4486   -0.2452 C   0  0  0  0  0  0  0  0  0  0  0  0
    6.9488   -0.9807   -1.9601 H   0  0  0  0  0  0  0  0  0  0  0  0
    5.9645   -0.8815   -0.4902 H   0  0  0  0  0  0  0  0  0  0  0  0
    5.2778   -1.5713   -1.9688 H   0  0  0  0  0  0  0  0  0  0  0  0
    5.4960    0.6701   -3.1016 H   0  0  0  0  0  0  0  0  0  0  0  0
    6.1664    1.3531   -1.6339 H   0  0  0  0  0  0  0  0  0  0  0  0
    3.0844    0.1518   -3.2788 H   0  0  0  0  0  0  0  0  0  0  0  0
    0.8428    0.6298   -2.4871 H   0  0  0  0  0  0  0  0  0  0  0  0
   -0.7916    4.6953    2.5543 H   0  0  0  0  0  0  0  0  0  0  0  0
   -3.0276    5.0557    3.5432 H   0  0  0  0  0  0  0  0  0  0  0  0
   -4.9122    3.5743    2.8953 H   0  0  0  0  0  0  0  0  0  0  0  0
   -4.5825    1.7733    1.3031 H   0  0  0  0  0  0  0  0  0  0  0  0
   -4.2386    0.8476   -0.5734 H   0  0  0  0  0  0  0  0  0  0  0  0
   -3.0788   -0.1002   -1.4567 H   0  0  0  0  0  0  0  0  0  0  0  0
   -1.7542   -1.7082   -0.2024 H   0  0  0  0  0  0  0  0  0  0  0  0
   -3.5518   -3.4105    1.4164 H   0  0  0  0  0  0  0  0  0  0  0  0
   -2.1928   -2.6084    2.2258 H   0  0  0  0  0  0  0  0  0  0  0  0
   -2.7567   -5.7201   -0.0895 H   0  0  0  0  0  0  0  0  0  0  0  0
   -0.2590   -6.7011   -0.6207 H   0  0  0  0  0  0  0  0  0  0  0  0
    1.4547   -4.7519    0.3283 H   0  0  0  0  0  0  0  0  0  0  0  0
    2.4933    2.1223    1.2252 H   0  0  0  0  0  0  0  0  0  0  0  0
    4.7304    1.6835    0.3927 H   0  0  0  0  0  0  0  0  0  0  0  0
  1  2  1  0
  2  3  1  0
  3  4  2  0
  4  5  1  0
  5  6  2  0
  6  7  1  0
  7  8  1  0
  8  9  2  0
  8 10  1  0
 10 11  2  0
 11 12  1  0
 12 13  2  0
 13 14  1  0
 14 15  2  0
 15 16  1  0
 16 17  1  0
 17 18  1  0
 18 19  2  0
 18 20  1  0
 20 21  1  0
 21 22  1  0
 22 23  2  0
 23 24  1  0
 24 25  2  0
 25 26  1  0
 16 27  1  0
 27 28  2  0
  6 29  1  0
 29 30  2  0
 30  3  1  0
 27  7  1  0
 15 10  1  0
 26 22  1  0
  1 31  1  0
  1 32  1  0
  1 33  1  0
  2 34  1  0
  2 35  1  0
  4 36  1  0
  5 37  1  0
 11 38  1  0
 12 39  1  0
 13 40  1  0
 14 41  1  0
 17 42  1  0
 17 43  1  0
 20 44  1  0
 21 45  1  0
 21 46  1  0
 23 47  1  0
 24 48  1  0
 25 49  1  0
 29 50  1  0
 30 51  1  0
M  END
$$$$
