
     RDKit          3D

 59 62  0  0  0  0  0  0  0  0999 V2000
   -7.0208   -1.6396   -2.3066 C   0  0  0  0  0  0  0  0  0  0  0  0
   -5.9528   -0.6537   -2.7452 C   0  0  0  0  0  0  0  0  0  0  0  0
   -5.0185   -0.3385   -1.6750 N   0  0  0  0  0  0  0  0  0  0  0  0
   -5.1771    0.6979   -0.7739 C   0  0  0  0  0  0  0  0  0  0  0  0
   -6.2074    1.6412   -0.6181 C   0  0  0  0  0  0  0  0  0  0  0  0
   -6.0862    2.5903    0.4012 C   0  0  0  0  0  0  0  0  0  0  0  0
   -4.9768    2.6015    1.2397 C   0  0  0  0  0  0  0  0  0  0  0  0
   -3.9581    1.6576    1.0796 C   0  0  0  0  0  0  0  0  0  0  0  0
   -4.0561    0.6879    0.0583 C   0  0  0  0  0  0  0  0  0  0  0  0
   -3.2170   -0.3913   -0.3595 C   0  0  0  0  0  0  0  0  0  0  0  0
   -1.9724   -0.8877    0.0896 C   0  0  0  0  0  0  0  0  0  0  0  0
   -1.3841   -2.0008   -0.5313 C   0  0  0  0  0  0  0  0  0  0  0  0
   -0.1374   -2.4227   -0.0274 N   0  0  0  0  0  0  0  0  0  0  0  0
    0.6559   -3.4738   -0.4696 C   0  0  0  0  0  0  0  0  0  0  0  0
    0.3829   -4.2566   -1.3738 O   0  0  0  0  0  0  0  0  0  0  0  0
    1.9442   -3.5996    0.3638 C   0  0  0  0  0  0  0  0  0  0  0  0
    2.9289   -4.5729   -0.2693 C   0  0  0  0  0  0  0  0  0  0  0  0
    2.5454   -2.2932    0.4433 O   0  0  0  0  0  0  0  0  0  0  0  0
    3.2967   -2.0507    1.5424 C   0  0  0  0  0  0  0  0  0  0  0  0
    3.4630   -2.8163    2.4771 O   0  0  0  0  0  0  0  0  0  0  0  0
    3.8866   -0.6866    1.4801 C   0  0  0  0  0  0  0  0  0  0  0  0
    4.6216   -0.2313    2.5797 C   0  0  0  0  0  0  0  0  0  0  0  0
    5.1901    1.0475    2.5689 C   0  0  0  0  0  0  0  0  0  0  0  0
    5.0363    1.8911    1.4608 C   0  0  0  0  0  0  0  0  0  0  0  0
    5.6409    3.1644    1.5345 N   0  0  0  0  0  0  0  0  0  0  0  0
    5.6337    4.1605    0.5616 C   0  0  0  0  0  0  0  0  0  0  0  0
    5.0822    4.0861   -0.5295 O   0  0  0  0  0  0  0  0  0  0  0  0
    6.3769    5.3999    1.0168 C   0  0  0  0  0  0  0  0  0  0  0  0
    6.6554    6.3225   -0.0851 C   0  0  0  0  0  0  0  0  0  0  0  0
    6.9198    7.0946   -0.9107 N   0  0  0  0  0  0  0  0  0  0  0  0
    4.3046    1.4314    0.3641 C   0  0  0  0  0  0  0  0  0  0  0  0
    3.7328    0.1518    0.3709 C   0  0  0  0  0  0  0  0  0  0  0  0
   -2.0437   -2.6171   -1.5907 C   0  0  0  0  0  0  0  0  0  0  0  0
   -3.2772   -2.1432   -2.0588 C   0  0  0  0  0  0  0  0  0  0  0  0
   -3.8439   -1.0240   -1.4318 C   0  0  0  0  0  0  0  0  0  0  0  0
   -7.6080   -1.2436   -1.4714 H   0  0  0  0  0  0  0  0  0  0  0  0
   -6.5769   -2.5865   -1.9824 H   0  0  0  0  0  0  0  0  0  0  0  0
   -7.7048   -1.8502   -3.1346 H   0  0  0  0  0  0  0  0  0  0  0  0
   -5.3826   -1.0530   -3.5904 H   0  0  0  0  0  0  0  0  0  0  0  0
   -6.4064    0.2816   -3.0884 H   0  0  0  0  0  0  0  0  0  0  0  0
   -7.0799    1.6432   -1.2631 H   0  0  0  0  0  0  0  0  0  0  0  0
   -6.8705    3.3305    0.5382 H   0  0  0  0  0  0  0  0  0  0  0  0
   -4.9000    3.3475    2.0265 H   0  0  0  0  0  0  0  0  0  0  0  0
   -3.0969    1.6721    1.7406 H   0  0  0  0  0  0  0  0  0  0  0  0
   -1.4853   -0.3908    0.9222 H   0  0  0  0  0  0  0  0  0  0  0  0
    0.2538   -1.8634    0.7208 H   0  0  0  0  0  0  0  0  0  0  0  0
    1.6418   -3.9564    1.3564 H   0  0  0  0  0  0  0  0  0  0  0  0
    3.2220   -4.2352   -1.2692 H   0  0  0  0  0  0  0  0  0  0  0  0
    2.4975   -5.5749   -0.3590 H   0  0  0  0  0  0  0  0  0  0  0  0
    3.8463   -4.6421    0.3232 H   0  0  0  0  0  0  0  0  0  0  0  0
    4.7576   -0.8695    3.4515 H   0  0  0  0  0  0  0  0  0  0  0  0
    5.7536    1.3667    3.4423 H   0  0  0  0  0  0  0  0  0  0  0  0
    6.1416    3.3570    2.3942 H   0  0  0  0  0  0  0  0  0  0  0  0
    7.3224    5.0979    1.4817 H   0  0  0  0  0  0  0  0  0  0  0  0
    5.7685    5.8976    1.7808 H   0  0  0  0  0  0  0  0  0  0  0  0
    4.1541    2.0404   -0.5225 H   0  0  0  0  0  0  0  0  0  0  0  0
    3.1747   -0.1692   -0.5061 H   0  0  0  0  0  0  0  0  0  0  0  0
   -1.6233   -3.4833   -2.0925 H   0  0  0  0  0  0  0  0  0  0  0  0
   -3.7676   -2.6434   -2.8880 H   0  0  0  0  0  0  0  0  0  0  0  0
  1  2  1  0
  2  3  1  0
  3  4  1  0
  4  5  2  0
  5  6  1  0
  6  7  2  0
  7  8  1  0
  8  9  2  0
  9 10  1  0
 10 11  2  0
 11 12  1  0
 12 13  1  0
 13 14  1  0
 14 15  2  0
 14 16  1  0
 16 17  1  0
 16 18  1  0
 18 19  1  0
 19 20  2  0
 19 21  1  0
 21 22  2  0
 22 23  1  0
 23 24  2  0
 24 25  1  0
 25 26  1  0
 26 27  2  0
 26 28  1  0
 28 29  1  0
 29 30  3  0
 24 31  1  0
 31 32  2  0
 12 33  2  0
 33 34  1  0
 34 35  2  0
 35  3  1  0
  9  4  1  0
 35 10  1  0
 32 21  1  0
  1 36  1  0
  1 37  1  0
  1 38  1  0
  2 39  1  0
  2 40  1  0
  5 41  1  0
  6 42  1  0
  7 43  1  0
  8 44  1  0
 11 45  1  0
 13 46  1  0
 16 47  1  0
 17 48  1  0
 17 49  1  0
 17 50  1  0
 22 51  1  0
 23 52  1  0
 25 53  1  0
 28 54  1  0
 28 55  1  0
 31 56  1  0
 32 57  1  0
 33 58  1  0
 34 59  1  0
M  END
$$$$
