
     RDKit          3D

 56 61  0  0  0  0  0  0  0  0999 V2000
   -4.8920   -2.2910    2.3887 C   0  0  0  0  0  0  0  0  0  0  0  0
   -3.9577   -2.1941    1.2207 C   0  0  0  0  0  0  0  0  0  0  0  0
   -4.3039   -2.7038   -0.0458 C   0  0  0  0  0  0  0  0  0  0  0  0
   -5.8357   -3.4640   -0.3175 Cl  0  0  0  0  0  0  0  0  0  0  0  0
   -3.4215   -2.6266   -1.1420 C   0  0  0  0  0  0  0  0  0  0  0  0
   -2.1656   -2.0350   -1.0076 C   0  0  0  0  0  0  0  0  0  0  0  0
   -1.8163   -1.5245    0.2318 C   0  0  0  0  0  0  0  0  0  0  0  0
   -2.6970   -1.6175    1.3208 C   0  0  0  0  0  0  0  0  0  0  0  0
   -2.0950   -1.0750    2.4563 N   0  0  0  0  0  0  0  0  0  0  0  0
   -0.8083   -0.6083    2.1857 C   0  0  0  0  0  0  0  0  0  0  0  0
   -0.0381   -0.1512    3.0185 O   0  0  0  0  0  0  0  0  0  0  0  0
   -0.5541   -0.8448    0.6758 C   0  0  0  0  0  0  0  0  0  0  0  0
    0.6927   -1.6356    0.4251 N   0  0  0  0  0  0  0  0  0  0  0  0
    1.7411   -0.7369   -0.1818 C   0  0  2  0  0  0  0  0  0  0  0  0
    2.8612   -0.3419    0.8043 C   0  0  0  0  0  0  0  0  0  0  0  0
    3.6400   -1.5146    1.3545 C   0  0  0  0  0  0  0  0  0  0  0  0
    3.5022   -1.8856    2.6996 C   0  0  0  0  0  0  0  0  0  0  0  0
    4.2117   -2.9739    3.2087 C   0  0  0  0  0  0  0  0  0  0  0  0
    5.0658   -3.6995    2.3804 C   0  0  0  0  0  0  0  0  0  0  0  0
    5.2125   -3.3366    1.0427 C   0  0  0  0  0  0  0  0  0  0  0  0
    4.5039   -2.2486    0.5309 C   0  0  0  0  0  0  0  0  0  0  0  0
    0.9427    0.4348   -0.6057 C   0  0  0  0  0  0  0  0  0  0  0  0
   -0.3522    0.3879   -0.0978 C   0  0  0  0  0  0  0  0  0  0  0  0
   -1.0270    1.5093   -0.5016 C   0  0  0  0  0  0  0  0  0  0  0  0
   -2.3072    1.8167   -0.2982 O   0  0  0  0  0  0  0  0  0  0  0  0
   -0.1255    2.2765   -1.2640 N   0  0  0  0  0  0  0  0  0  0  0  0
   -0.4078    3.5303   -1.8799 C   0  0  0  0  0  0  0  0  0  0  0  0
    0.0936    3.8123   -3.1577 C   0  0  0  0  0  0  0  0  0  0  0  0
   -0.1863    5.0404   -3.7592 C   0  0  0  0  0  0  0  0  0  0  0  0
   -0.9601    5.9875   -3.0894 C   0  0  0  0  0  0  0  0  0  0  0  0
   -1.4582    5.7104   -1.8169 C   0  0  0  0  0  0  0  0  0  0  0  0
   -1.1861    4.4834   -1.2096 C   0  0  0  0  0  0  0  0  0  0  0  0
    1.1069    1.5973   -1.3070 C   0  0  0  0  0  0  0  0  0  0  0  0
    2.2222    2.0712   -1.8603 O   0  0  0  0  0  0  0  0  0  0  0  0
   -4.5114   -1.7729    3.2732 H   0  0  0  0  0  0  0  0  0  0  0  0
   -5.0464   -3.3395    2.6634 H   0  0  0  0  0  0  0  0  0  0  0  0
   -5.8564   -1.8322    2.1469 H   0  0  0  0  0  0  0  0  0  0  0  0
   -3.7150   -3.0338   -2.1070 H   0  0  0  0  0  0  0  0  0  0  0  0
   -1.4794   -1.9773   -1.8471 H   0  0  0  0  0  0  0  0  0  0  0  0
   -2.4948   -1.0350    3.3805 H   0  0  0  0  0  0  0  0  0  0  0  0
    1.0381   -1.9862    1.3173 H   0  0  0  0  0  0  0  0  0  0  0  0
    2.1591   -1.2513   -1.0543 H   0  0  0  0  0  0  0  0  0  0  0  0
    3.5694    0.3346    0.3062 H   0  0  0  0  0  0  0  0  0  0  0  0
    2.4453    0.2438    1.6356 H   0  0  0  0  0  0  0  0  0  0  0  0
    2.8391   -1.3282    3.3597 H   0  0  0  0  0  0  0  0  0  0  0  0
    4.0982   -3.2542    4.2526 H   0  0  0  0  0  0  0  0  0  0  0  0
    5.6182   -4.5467    2.7776 H   0  0  0  0  0  0  0  0  0  0  0  0
    5.8797   -3.9013    0.3969 H   0  0  0  0  0  0  0  0  0  0  0  0
    4.6309   -1.9768   -0.5146 H   0  0  0  0  0  0  0  0  0  0  0  0
   -2.6014    2.4286   -0.9964 H   0  0  0  0  0  0  0  0  0  0  0  0
    0.6636    3.0740   -3.7194 H   0  0  0  0  0  0  0  0  0  0  0  0
    0.1910    5.2560   -4.7563 H   0  0  0  0  0  0  0  0  0  0  0  0
   -1.1750    6.9441   -3.5601 H   0  0  0  0  0  0  0  0  0  0  0  0
   -2.0507    6.4567   -1.2925 H   0  0  0  0  0  0  0  0  0  0  0  0
   -1.5488    4.3105   -0.1977 H   0  0  0  0  0  0  0  0  0  0  0  0
    2.1458    3.0380   -1.9505 H   0  0  0  0  0  0  0  0  0  0  0  0
  1  2  1  0
  2  3  2  0
  3  4  1  0
  3  5  1  0
  5  6  2  0
  6  7  1  0
  7  8  2  0
  8  9  1  0
  9 10  1  0
 10 11  2  0
 10 12  1  0
 12 13  1  0
 13 14  1  0
 14 15  1  0
 15 16  1  0
 16 17  2  0
 17 18  1  0
 18 19  2  0
 19 20  1  0
 20 21  2  0
 14 22  1  0
 22 23  1  0
 23 24  2  0
 24 25  1  0
 24 26  1  0
 26 27  1  0
 27 28  2  0
 28 29  1  0
 29 30  2  0
 30 31  1  0
 31 32  2  0
 26 33  1  0
 33 34  1  0
  8  2  1  0
 23 12  1  0
 32 27  1  0
 12  7  1  0
 21 16  1  0
 33 22  2  0
  1 35  1  0
  1 36  1  0
  1 37  1  0
  5 38  1  0
  6 39  1  0
  9 40  1  0
 13 41  1  0
 14 42  1  6
 15 43  1  0
 15 44  1  0
 17 45  1  0
 18 46  1  0
 19 47  1  0
 20 48  1  0
 21 49  1  0
 25 50  1  0
 28 51  1  0
 29 52  1  0
 30 53  1  0
 31 54  1  0
 32 55  1  0
 34 56  1  0
M  END
$$$$
