
     RDKit          3D

 57 62  0  0  0  0  0  0  0  0999 V2000
    8.8453   -1.0716   -0.8633 C   0  0  0  0  0  0  0  0  0  0  0  0
    8.0402    0.1001   -0.9030 O   0  0  0  0  0  0  0  0  0  0  0  0
    6.6861   -0.0729   -0.9025 C   0  0  0  0  0  0  0  0  0  0  0  0
    6.0105   -1.2907   -0.9466 C   0  0  0  0  0  0  0  0  0  0  0  0
    4.6091   -1.3231   -0.9430 C   0  0  0  0  0  0  0  0  0  0  0  0
    3.8742   -0.1380   -0.8903 C   0  0  0  0  0  0  0  0  0  0  0  0
    2.3037   -0.1630   -0.8784 C   0  0  0  0  0  0  0  0  0  0  0  0
    1.4604    0.9420   -0.9081 C   0  0  0  0  0  0  0  0  0  0  0  0
    0.1378    0.5027   -0.9106 N   0  0  0  0  0  4  0  0  0  0  0  0
   -1.0752    1.3385   -0.8403 C   0  0  0  0  0  0  0  0  0  0  0  0
   -1.6446    1.3154    0.5963 C   0  0  0  0  0  0  0  0  0  0  0  0
   -0.8469    1.3123    1.5363 O   0  0  0  0  0  0  0  0  0  0  0  0
   -3.0354    1.1325    0.6903 N   0  0  0  0  0  0  0  0  0  0  0  0
   -3.6311    0.3995    1.7871 C   0  0  0  0  0  0  0  0  0  0  0  0
   -3.0350    0.3745    3.0616 C   0  0  0  0  0  0  0  0  0  0  0  0
   -3.5946   -0.3460    4.1221 C   0  0  0  0  0  0  0  0  0  0  0  0
   -4.7634   -1.0682    3.9328 C   0  0  0  0  0  0  0  0  0  0  0  0
   -5.3731   -1.0678    2.6824 C   0  0  0  0  0  0  0  0  0  0  0  0
   -4.8187   -0.3403    1.6173 C   0  0  0  0  0  0  0  0  0  0  0  0
   -5.6239   -0.4821    0.0374 S   0  0  0  0  0  0  0  0  0  0  0  0
   -5.1441    1.0798   -0.6418 C   0  0  0  0  0  0  0  0  0  0  0  0
   -5.9887    1.6730   -1.5914 C   0  0  0  0  0  0  0  0  0  0  0  0
   -5.6642    2.9028   -2.1593 C   0  0  0  0  0  0  0  0  0  0  0  0
   -4.4968    3.5508   -1.7766 C   0  0  0  0  0  0  0  0  0  0  0  0
   -3.6463    2.9583   -0.8396 C   0  0  0  0  0  0  0  0  0  0  0  0
   -3.9404    1.7015   -0.2751 C   0  0  0  0  0  0  0  0  0  0  0  0
    0.1615   -0.8224   -0.8369 C   0  0  0  0  0  0  0  0  0  0  0  0
    1.4258   -1.2317   -0.8287 N   0  0  0  0  0  0  0  0  0  0  0  0
    1.5269   -2.6786   -0.7042 C   0  0  0  0  0  0  0  0  0  0  0  0
    0.0832   -3.1138   -0.3284 C   0  0  0  0  0  0  0  0  0  0  0  0
   -0.8143   -1.9324   -0.7475 C   0  0  0  0  0  0  0  0  0  0  0  0
    4.5511    1.0848   -0.8554 C   0  0  0  0  0  0  0  0  0  0  0  0
    5.9486    1.1114   -0.8619 C   0  0  0  0  0  0  0  0  0  0  0  0
    9.8917   -0.7570   -0.8338 H   0  0  0  0  0  0  0  0  0  0  0  0
    8.7021   -1.6780   -1.7629 H   0  0  0  0  0  0  0  0  0  0  0  0
    8.6477   -1.6543    0.0426 H   0  0  0  0  0  0  0  0  0  0  0  0
    6.5467   -2.2337   -0.9919 H   0  0  0  0  0  0  0  0  0  0  0  0
    4.1313   -2.2925   -0.9990 H   0  0  0  0  0  0  0  0  0  0  0  0
    1.6373    2.0034   -0.9277 H   0  0  0  0  0  0  0  0  0  0  0  0
   -0.8127    2.3651   -1.1115 H   0  0  0  0  0  0  0  0  0  0  0  0
   -1.7764    0.9278   -1.5716 H   0  0  0  0  0  0  0  0  0  0  0  0
   -2.1455    0.9528    3.2918 H   0  0  0  0  0  0  0  0  0  0  0  0
   -3.1178   -0.3300    5.1012 H   0  0  0  0  0  0  0  0  0  0  0  0
   -5.2017   -1.6286    4.7555 H   0  0  0  0  0  0  0  0  0  0  0  0
   -6.2852   -1.6459    2.5421 H   0  0  0  0  0  0  0  0  0  0  0  0
   -6.9202    1.1881   -1.8824 H   0  0  0  0  0  0  0  0  0  0  0  0
   -6.3374    3.3641   -2.8792 H   0  0  0  0  0  0  0  0  0  0  0  0
   -4.2667    4.5336   -2.1824 H   0  0  0  0  0  0  0  0  0  0  0  0
   -2.7865    3.5405   -0.5122 H   0  0  0  0  0  0  0  0  0  0  0  0
    1.8260   -3.0958   -1.6706 H   0  0  0  0  0  0  0  0  0  0  0  0
    2.2351   -2.9584    0.0787 H   0  0  0  0  0  0  0  0  0  0  0  0
   -0.2095   -4.0583   -0.7935 H   0  0  0  0  0  0  0  0  0  0  0  0
    0.0233   -3.2405    0.7592 H   0  0  0  0  0  0  0  0  0  0  0  0
   -1.5776   -1.6853   -0.0090 H   0  0  0  0  0  0  0  0  0  0  0  0
   -1.2355   -2.0567   -1.7470 H   0  0  0  0  0  0  0  0  0  0  0  0
    4.0306    2.0362   -0.8142 H   0  0  0  0  0  0  0  0  0  0  0  0
    6.4731    2.0662   -0.8315 H   0  0  0  0  0  0  0  0  0  0  0  0
  1  2  1  0
  2  3  1  0
  3  4  2  0
  4  5  1  0
  5  6  2  0
  6  7  1  0
  7  8  2  0
  8  9  1  0
  9 10  1  0
 10 11  1  0
 11 12  2  0
 11 13  1  0
 13 14  1  0
 14 15  2  0
 15 16  1  0
 16 17  2  0
 17 18  1  0
 18 19  2  0
 19 20  1  0
 20 21  1  0
 21 22  2  0
 22 23  1  0
 23 24  2  0
 24 25  1  0
 25 26  2  0
  9 27  2  0
 27 28  1  0
 28 29  1  0
 29 30  1  0
 30 31  1  0
  6 32  1  0
 32 33  2  0
 33  3  1  0
 28  7  1  0
 26 13  1  0
 31 27  1  0
 19 14  1  0
 26 21  1  0
  1 34  1  0
  1 35  1  0
  1 36  1  0
  4 37  1  0
  5 38  1  0
  8 39  1  0
 10 40  1  0
 10 41  1  0
 15 42  1  0
 16 43  1  0
 17 44  1  0
 18 45  1  0
 22 46  1  0
 23 47  1  0
 24 48  1  0
 25 49  1  0
 29 50  1  0
 29 51  1  0
 30 52  1  0
 30 53  1  0
 31 54  1  0
 31 55  1  0
 32 56  1  0
 33 57  1  0
M  CHG  1   9   1
M  END
$$$$
