
     RDKit          3D

 53 56  0  0  0  0  0  0  0  0999 V2000
    8.2269   -3.5113   -0.8218 C   0  0  0  0  0  0  0  0  0  0  0  0
    8.5280   -2.0250   -0.9241 C   0  0  0  0  0  0  0  0  0  0  0  0
    7.5974   -1.3771   -1.7898 O   0  0  0  0  0  0  0  0  0  0  0  0
    6.4218   -0.9107   -1.2743 C   0  0  0  0  0  0  0  0  0  0  0  0
    5.9796   -1.0462    0.0423 C   0  0  0  0  0  0  0  0  0  0  0  0
    4.7419   -0.5169    0.4291 C   0  0  0  0  0  0  0  0  0  0  0  0
    3.9434    0.1492   -0.5036 C   0  0  0  0  0  0  0  0  0  0  0  0
    2.6389    0.6918   -0.0679 C   0  0  0  0  0  0  0  0  0  0  0  0
    1.8389    1.2780   -0.9017 N   0  0  0  0  0  0  0  0  0  0  0  0
    0.6191    1.7182   -0.4546 N   0  0  0  0  0  0  0  0  0  0  0  0
   -0.1578    1.1569    0.5547 C   0  0  0  0  0  0  0  0  0  0  0  0
    0.1917    0.2665    1.3224 O   0  0  0  0  0  0  0  0  0  0  0  0
   -1.4909    1.7571    0.6182 C   0  0  0  0  0  0  0  0  0  0  0  0
   -1.8468    2.8280   -0.1545 N   0  0  0  0  0  0  0  0  0  0  0  0
   -3.1007    3.1351    0.1192 N   0  0  0  0  0  0  0  0  0  0  0  0
   -3.5699    2.3013    1.0953 N   0  0  0  0  0  0  0  0  0  0  0  0
   -4.8710    2.4764    1.6329 C   0  0  0  0  0  0  0  0  0  0  0  0
   -5.3155    1.7256    2.6405 N   0  0  0  0  0  0  0  0  0  0  0  0
   -6.6064    2.1952    2.8740 O   0  0  0  0  0  0  0  0  0  0  0  0
   -6.9266    3.2382    2.0141 N   0  0  0  0  0  0  0  0  0  0  0  0
   -5.8481    3.4182    1.2532 C   0  0  0  0  0  0  0  0  0  0  0  0
   -5.7479    4.3529    0.2911 N   0  0  0  0  0  0  0  0  0  0  0  0
   -2.5768    1.3710    1.3927 C   0  0  0  0  0  0  0  0  0  0  0  0
   -2.7088    0.2034    2.3033 C   0  0  0  0  0  0  0  0  0  0  0  0
   -2.6528   -0.9868    1.5029 O   0  0  0  0  0  0  0  0  0  0  0  0
   -3.7987   -1.3250    0.8391 C   0  0  0  0  0  0  0  0  0  0  0  0
   -5.0555   -1.3976    1.4412 C   0  0  0  0  0  0  0  0  0  0  0  0
   -6.1661   -1.7715    0.6815 C   0  0  0  0  0  0  0  0  0  0  0  0
   -6.0051   -2.0935   -0.6624 C   0  0  0  0  0  0  0  0  0  0  0  0
   -7.0724   -2.4572   -1.3849 F   0  0  0  0  0  0  0  0  0  0  0  0
   -4.7528   -2.0563   -1.2613 C   0  0  0  0  0  0  0  0  0  0  0  0
   -3.6442   -1.6787   -0.5041 C   0  0  0  0  0  0  0  0  0  0  0  0
    4.3779    0.2867   -1.8226 C   0  0  0  0  0  0  0  0  0  0  0  0
    5.6146   -0.2419   -2.1999 C   0  0  0  0  0  0  0  0  0  0  0  0
    8.1862   -3.9628   -1.8185 H   0  0  0  0  0  0  0  0  0  0  0  0
    8.9958   -4.0215   -0.2345 H   0  0  0  0  0  0  0  0  0  0  0  0
    7.2555   -3.6907   -0.3522 H   0  0  0  0  0  0  0  0  0  0  0  0
    9.5136   -1.9050   -1.3889 H   0  0  0  0  0  0  0  0  0  0  0  0
    8.5981   -1.5420    0.0570 H   0  0  0  0  0  0  0  0  0  0  0  0
    6.5648   -1.5647    0.7938 H   0  0  0  0  0  0  0  0  0  0  0  0
    4.4122   -0.6342    1.4592 H   0  0  0  0  0  0  0  0  0  0  0  0
    2.4171    0.5848    1.0065 H   0  0  0  0  0  0  0  0  0  0  0  0
    0.1384    2.3327   -1.1084 H   0  0  0  0  0  0  0  0  0  0  0  0
   -4.9758    4.3557   -0.3733 H   0  0  0  0  0  0  0  0  0  0  0  0
   -6.5797    4.8426   -0.0201 H   0  0  0  0  0  0  0  0  0  0  0  0
   -3.5653    0.2042    2.9739 H   0  0  0  0  0  0  0  0  0  0  0  0
   -1.8377    0.1729    2.9691 H   0  0  0  0  0  0  0  0  0  0  0  0
   -5.1916   -1.1869    2.4976 H   0  0  0  0  0  0  0  0  0  0  0  0
   -7.1524   -1.8271    1.1333 H   0  0  0  0  0  0  0  0  0  0  0  0
   -4.6456   -2.3259   -2.3073 H   0  0  0  0  0  0  0  0  0  0  0  0
   -2.6576   -1.6544   -0.9606 H   0  0  0  0  0  0  0  0  0  0  0  0
    3.7651    0.7995   -2.5588 H   0  0  0  0  0  0  0  0  0  0  0  0
    5.9536   -0.1311   -3.2273 H   0  0  0  0  0  0  0  0  0  0  0  0
  1  2  1  0
  2  3  1  0
  3  4  1  0
  4  5  2  0
  5  6  1  0
  6  7  2  0
  7  8  1  0
  8  9  2  3
  9 10  1  0
 10 11  1  0
 11 12  2  0
 11 13  1  0
 13 14  1  0
 14 15  2  0
 15 16  1  0
 16 17  1  0
 17 18  2  0
 18 19  1  0
 19 20  1  0
 20 21  2  0
 21 22  1  0
 16 23  1  0
 23 24  1  0
 24 25  1  0
 25 26  1  0
 26 27  2  0
 27 28  1  0
 28 29  2  0
 29 30  1  0
 29 31  1  0
 31 32  2  0
  7 33  1  0
 33 34  2  0
 34  4  1  0
 23 13  2  0
 32 26  1  0
 21 17  1  0
  1 35  1  0
  1 36  1  0
  1 37  1  0
  2 38  1  0
  2 39  1  0
  5 40  1  0
  6 41  1  0
  8 42  1  0
 10 43  1  0
 22 44  1  0
 22 45  1  0
 24 46  1  0
 24 47  1  0
 27 48  1  0
 28 49  1  0
 31 50  1  0
 32 51  1  0
 33 52  1  0
 34 53  1  0
M  END
$$$$
