
     RDKit          3D

 34 35  0  0  0  0  0  0  0  0999 V2000
    2.2090   -0.6536    1.4542 C   0  0  0  0  0  0  0  0  0  0  0  0
    2.2616    0.8027    1.0260 C   0  0  0  0  0  0  0  0  0  0  0  0
    1.2210    1.5868    0.9439 N   0  0  0  0  0  0  0  0  0  0  0  0
   -0.0403    1.0708    1.1024 N   0  0  0  0  0  0  0  0  0  0  0  0
   -0.5499    0.1449    0.1789 C   0  0  0  0  0  0  0  0  0  0  0  0
    0.1319   -0.4657   -0.6360 O   0  0  0  0  0  0  0  0  0  0  0  0
   -2.0422   -0.0402    0.3640 C   0  0  0  0  0  0  0  0  0  0  0  0
   -2.7242   -0.9730   -0.6345 C   0  0  0  0  0  0  0  0  0  0  0  0
   -2.1666   -2.3948   -0.6550 C   0  0  0  0  0  0  0  0  0  0  0  0
   -4.1119   -1.0859   -0.2233 O   0  0  0  0  0  0  0  0  0  0  0  0
   -4.8605   -0.4124   -1.2362 C   0  0  0  0  0  0  0  0  0  0  0  0
   -4.0063   -0.5548   -2.4635 C   0  0  0  0  0  0  0  0  0  0  0  0
   -2.6860   -0.3993   -1.9505 O   0  0  0  0  0  0  0  0  0  0  0  0
    3.5858    1.3464    0.7175 C   0  0  0  0  0  0  0  0  0  0  0  0
    4.7853    0.6725    0.5555 C   0  0  0  0  0  0  0  0  0  0  0  0
    5.8757    1.5434    0.2620 C   0  0  0  0  0  0  0  0  0  0  0  0
    5.4803    2.8591    0.2055 C   0  0  0  0  0  0  0  0  0  0  0  0
    3.8083    3.0380    0.5020 S   0  0  0  0  0  0  0  0  0  0  0  0
    2.3428   -1.2978    0.5805 H   0  0  0  0  0  0  0  0  0  0  0  0
    1.2697   -0.9053    1.9508 H   0  0  0  0  0  0  0  0  0  0  0  0
    3.0119   -0.8611    2.1689 H   0  0  0  0  0  0  0  0  0  0  0  0
   -0.7040    1.7824    1.3980 H   0  0  0  0  0  0  0  0  0  0  0  0
   -2.5087    0.9517    0.2959 H   0  0  0  0  0  0  0  0  0  0  0  0
   -2.2149   -0.4028    1.3856 H   0  0  0  0  0  0  0  0  0  0  0  0
   -2.8213   -3.0536   -1.2381 H   0  0  0  0  0  0  0  0  0  0  0  0
   -2.1164   -2.8140    0.3554 H   0  0  0  0  0  0  0  0  0  0  0  0
   -1.1796   -2.4518   -1.1204 H   0  0  0  0  0  0  0  0  0  0  0  0
   -5.8533   -0.8560   -1.3429 H   0  0  0  0  0  0  0  0  0  0  0  0
   -4.9627    0.6364   -0.9375 H   0  0  0  0  0  0  0  0  0  0  0  0
   -4.0913   -1.5536   -2.9050 H   0  0  0  0  0  0  0  0  0  0  0  0
   -4.2166    0.1972   -3.2278 H   0  0  0  0  0  0  0  0  0  0  0  0
    4.8865   -0.4033    0.6328 H   0  0  0  0  0  0  0  0  0  0  0  0
    6.8958    1.2191    0.0963 H   0  0  0  0  0  0  0  0  0  0  0  0
    6.0911    3.7274    0.0000 H   0  0  0  0  0  0  0  0  0  0  0  0
  1  2  1  0
  2  3  2  3
  3  4  1  0
  4  5  1  0
  5  6  2  0
  5  7  1  0
  7  8  1  0
  8  9  1  0
  8 10  1  0
 10 11  1  0
 11 12  1  0
 12 13  1  0
  2 14  1  0
 14 15  2  0
 15 16  1  0
 16 17  2  0
 17 18  1  0
 13  8  1  0
 18 14  1  0
  1 19  1  0
  1 20  1  0
  1 21  1  0
  4 22  1  0
  7 23  1  0
  7 24  1  0
  9 25  1  0
  9 26  1  0
  9 27  1  0
 11 28  1  0
 11 29  1  0
 12 30  1  0
 12 31  1  0
 15 32  1  0
 16 33  1  0
 17 34  1  0
M  END
$$$$
