
     RDKit          3D

 34 36  0  0  0  0  0  0  0  0999 V2000
    4.7988    1.8489   -0.5306 C   0  0  0  0  0  0  0  0  0  0  0  0
    4.5548    0.5718    0.1052 N   0  0  0  0  0  0  0  0  0  0  0  0
    5.6123   -0.2176    0.3920 N   0  0  0  0  0  0  0  0  0  0  0  0
    5.0590   -1.2856    0.9645 C   0  0  0  0  0  0  0  0  0  0  0  0
    3.6589   -1.1901    1.0279 C   0  0  0  0  0  0  0  0  0  0  0  0
    2.6576   -2.3619    1.7347 Cl  0  0  0  0  0  0  0  0  0  0  0  0
    3.3345    0.0213    0.4422 C   0  0  0  0  0  0  0  0  0  0  0  0
    2.0628    0.6839    0.2161 C   0  0  0  0  0  0  0  0  0  0  0  0
    2.0165    1.8967    0.0419 O   0  0  0  0  0  0  0  0  0  0  0  0
    0.9779   -0.1707    0.1663 N   0  0  0  0  0  0  0  0  0  0  0  0
   -0.3631    0.1632    0.0145 C   0  0  0  0  0  0  0  0  0  0  0  0
   -0.8857    1.7934    0.1073 S   0  0  0  0  0  0  0  0  0  0  0  0
   -2.4727    1.3302   -0.0799 C   0  0  0  0  0  0  0  0  0  0  0  0
   -2.6509   -0.0179   -0.2224 C   0  0  0  0  0  0  0  0  0  0  0  0
   -1.4173   -0.7377   -0.1895 C   0  0  0  0  0  0  0  0  0  0  0  0
   -1.1915   -2.1750   -0.3265 C   0  0  0  0  0  0  0  0  0  0  0  0
   -2.2491   -2.9330   -0.7371 N   0  0  0  0  0  0  0  0  0  0  0  0
   -0.1010   -2.7042   -0.1285 O   0  0  0  0  0  0  0  0  0  0  0  0
   -4.0993   -0.3324   -0.3574 C   0  0  0  0  0  0  0  0  0  0  0  0
   -4.7822    1.0000    0.0806 C   0  0  0  0  0  0  0  0  0  0  0  0
   -3.7222    2.1244   -0.1023 C   0  0  0  0  0  0  0  0  0  0  0  0
    5.8565    1.9239   -0.7981 H   0  0  0  0  0  0  0  0  0  0  0  0
    4.5428    2.6407    0.1771 H   0  0  0  0  0  0  0  0  0  0  0  0
    4.1927    1.9118   -1.4375 H   0  0  0  0  0  0  0  0  0  0  0  0
    5.6984   -2.0849    1.3162 H   0  0  0  0  0  0  0  0  0  0  0  0
    1.1598   -1.1739    0.1990 H   0  0  0  0  0  0  0  0  0  0  0  0
   -3.0588   -2.5201   -1.1708 H   0  0  0  0  0  0  0  0  0  0  0  0
   -2.0413   -3.8984   -0.9548 H   0  0  0  0  0  0  0  0  0  0  0  0
   -4.3459   -0.5591   -1.4000 H   0  0  0  0  0  0  0  0  0  0  0  0
   -4.4164   -1.1604    0.2825 H   0  0  0  0  0  0  0  0  0  0  0  0
   -5.0494    0.9303    1.1435 H   0  0  0  0  0  0  0  0  0  0  0  0
   -5.7025    1.1991   -0.4770 H   0  0  0  0  0  0  0  0  0  0  0  0
   -3.8504    2.6208   -1.0696 H   0  0  0  0  0  0  0  0  0  0  0  0
   -3.7837    2.8627    0.7018 H   0  0  0  0  0  0  0  0  0  0  0  0
  1  2  1  0
  2  3  1  0
  3  4  2  0
  4  5  1  0
  5  6  1  0
  5  7  2  0
  7  8  1  0
  8  9  2  0
  8 10  1  0
 10 11  1  0
 11 12  1  0
 12 13  1  0
 13 14  2  0
 14 15  1  0
 15 16  1  0
 16 17  1  0
 16 18  2  0
 14 19  1  0
 19 20  1  0
 20 21  1  0
  7  2  1  0
 15 11  2  0
 21 13  1  0
  1 22  1  0
  1 23  1  0
  1 24  1  0
  4 25  1  0
 10 26  1  0
 17 27  1  0
 17 28  1  0
 19 29  1  0
 19 30  1  0
 20 31  1  0
 20 32  1  0
 21 33  1  0
 21 34  1  0
M  END
$$$$
