
     RDKit          3D

 34 35  0  0  0  0  0  0  0  0999 V2000
    2.6450    3.0791    2.1388 C   0  0  0  0  0  0  0  0  0  0  0  0
    2.1995    1.9380    1.2481 C   0  0  0  0  0  0  0  0  0  0  0  0
    0.9326    1.8920    0.9535 N   0  0  0  0  0  0  0  0  0  0  0  0
    0.4421    0.8535    0.2223 N   0  0  0  0  0  0  0  0  0  0  0  0
   -0.9143    0.7933   -0.0859 C   0  0  0  0  0  0  0  0  0  0  0  0
   -1.7443    1.6209    0.2711 O   0  0  0  0  0  0  0  0  0  0  0  0
   -1.2194   -0.4037   -0.9617 C   0  0  0  0  0  0  0  0  0  0  0  0
   -2.6991   -0.6997   -1.1936 C   0  0  0  0  0  0  0  0  0  0  0  0
   -3.4854    0.4401   -1.8380 C   0  0  0  0  0  0  0  0  0  0  0  0
   -2.7617   -1.8134   -2.1248 O   0  0  0  0  0  0  0  0  0  0  0  0
   -3.2750   -2.9098   -1.3674 C   0  0  0  0  0  0  0  0  0  0  0  0
   -4.0969   -2.2506   -0.2969 C   0  0  0  0  0  0  0  0  0  0  0  0
   -3.3189   -1.1052    0.0380 O   0  0  0  0  0  0  0  0  0  0  0  0
    3.2296    0.9848    0.8575 C   0  0  0  0  0  0  0  0  0  0  0  0
    4.2292    0.4479    1.6487 C   0  0  0  0  0  0  0  0  0  0  0  0
    5.0885   -0.4297    0.9252 C   0  0  0  0  0  0  0  0  0  0  0  0
    4.7325   -0.5196   -0.4009 C   0  0  0  0  0  0  0  0  0  0  0  0
    3.3759    0.4523   -0.7660 S   0  0  0  0  0  0  0  0  0  0  0  0
    1.9104    3.8895    2.1154 H   0  0  0  0  0  0  0  0  0  0  0  0
    2.7389    2.7202    3.1679 H   0  0  0  0  0  0  0  0  0  0  0  0
    3.6098    3.4707    1.8034 H   0  0  0  0  0  0  0  0  0  0  0  0
    1.0846    0.1478   -0.1228 H   0  0  0  0  0  0  0  0  0  0  0  0
   -0.7168   -0.2516   -1.9256 H   0  0  0  0  0  0  0  0  0  0  0  0
   -0.7525   -1.2831   -0.4974 H   0  0  0  0  0  0  0  0  0  0  0  0
   -2.9723    0.8206   -2.7275 H   0  0  0  0  0  0  0  0  0  0  0  0
   -3.6724    1.2646   -1.1457 H   0  0  0  0  0  0  0  0  0  0  0  0
   -4.4695    0.0868   -2.1687 H   0  0  0  0  0  0  0  0  0  0  0  0
   -3.8513   -3.5843   -2.0053 H   0  0  0  0  0  0  0  0  0  0  0  0
   -2.4238   -3.4526   -0.9428 H   0  0  0  0  0  0  0  0  0  0  0  0
   -4.2536   -2.8832    0.5802 H   0  0  0  0  0  0  0  0  0  0  0  0
   -5.0667   -1.9128   -0.6777 H   0  0  0  0  0  0  0  0  0  0  0  0
    4.3369    0.6629    2.7058 H   0  0  0  0  0  0  0  0  0  0  0  0
    5.9282   -0.9628    1.3551 H   0  0  0  0  0  0  0  0  0  0  0  0
    5.2102   -1.1033   -1.1767 H   0  0  0  0  0  0  0  0  0  0  0  0
  1  2  1  0
  2  3  2  3
  3  4  1  0
  4  5  1  0
  5  6  2  0
  5  7  1  0
  7  8  1  0
  8  9  1  0
  8 10  1  0
 10 11  1  0
 11 12  1  0
 12 13  1  0
  2 14  1  0
 14 15  2  0
 15 16  1  0
 16 17  2  0
 17 18  1  0
 13  8  1  0
 18 14  1  0
  1 19  1  0
  1 20  1  0
  1 21  1  0
  4 22  1  0
  7 23  1  0
  7 24  1  0
  9 25  1  0
  9 26  1  0
  9 27  1  0
 11 28  1  0
 11 29  1  0
 12 30  1  0
 12 31  1  0
 15 32  1  0
 16 33  1  0
 17 34  1  0
M  END
$$$$
