
     RDKit          3D

 61 65  0  0  0  0  0  0  0  0999 V2000
   -8.0785    3.0816   -3.3157 C   0  0  0  0  0  0  0  0  0  0  0  0
   -7.1449    2.1026   -2.6690 C   0  0  0  0  0  0  0  0  0  0  0  0
   -7.5877    0.8287   -2.3084 C   0  0  0  0  0  0  0  0  0  0  0  0
   -6.7206   -0.0709   -1.6778 C   0  0  0  0  0  0  0  0  0  0  0  0
   -5.3883    0.2702   -1.3811 C   0  0  0  0  0  0  0  0  0  0  0  0
   -4.4901   -0.7031   -0.7219 C   0  0  0  0  0  0  0  0  0  0  0  0
   -3.1176   -0.7081   -0.8969 C   0  0  0  0  0  0  0  0  0  0  0  0
   -2.3614   -1.6660   -0.2194 C   0  0  0  0  0  0  0  0  0  0  0  0
   -0.8929   -1.5783   -0.3913 C   0  0  0  0  0  0  0  0  0  0  0  0
   -0.4429   -1.6286   -1.5273 O   0  0  0  0  0  0  0  0  0  0  0  0
   -0.2007   -1.3855    0.7892 N   0  0  0  0  0  0  0  0  0  0  0  0
    1.1945   -1.2722    0.9541 C   0  0  0  0  0  0  0  0  0  0  0  0
    1.6675   -1.0586    2.2571 C   0  0  0  0  0  0  0  0  0  0  0  0
    3.0373   -0.9412    2.5103 C   0  0  0  0  0  0  0  0  0  0  0  0
    3.9422   -1.0286    1.4509 C   0  0  0  0  0  0  0  0  0  0  0  0
    5.6844   -0.9194    1.7722 S   0  0  0  0  0  6  0  0  0  0  0  0
    6.4097   -1.5243    0.6779 O   0  0  0  0  0  0  0  0  0  0  0  0
    5.8989   -1.3668    3.1345 O   0  0  0  0  0  0  0  0  0  0  0  0
    5.9391    0.7393    1.8041 N   0  0  0  0  0  0  0  0  0  0  0  0
    6.2800    1.3664    0.5437 C   0  0  0  0  0  0  0  0  0  0  0  0
    5.7829    1.0103   -0.6698 O   0  0  0  0  0  0  0  0  0  0  0  0
    6.2873    1.8466   -1.6453 N   0  0  0  0  0  0  0  0  0  0  0  0
    7.0889    2.7052   -1.0062 C   0  0  0  0  0  0  0  0  0  0  0  0
    7.8079    3.7533   -1.7686 C   0  0  0  0  0  0  0  0  0  0  0  0
    7.1133    2.4545    0.3953 C   0  0  0  0  0  0  0  0  0  0  0  0
    7.8638    3.1857    1.4401 C   0  0  0  0  0  0  0  0  0  0  0  0
    3.4872   -1.2571    0.1518 C   0  0  0  0  0  0  0  0  0  0  0  0
    2.1141   -1.3728   -0.0931 C   0  0  0  0  0  0  0  0  0  0  0  0
   -2.9734   -2.6488    0.5869 C   0  0  0  0  0  0  0  0  0  0  0  0
   -2.2944   -3.7058    1.2478 C   0  0  0  0  0  0  0  0  0  0  0  0
   -2.9872   -4.6246    2.0335 C   0  0  0  0  0  0  0  0  0  0  0  0
   -4.3631   -4.5088    2.1639 C   0  0  0  0  0  0  0  0  0  0  0  0
   -5.0368   -3.4830    1.4973 C   0  0  0  0  0  0  0  0  0  0  0  0
   -4.3708   -2.5573    0.7051 C   0  0  0  0  0  0  0  0  0  0  0  0
   -5.0963   -1.6135    0.0820 N   0  0  0  0  0  0  0  0  0  0  0  0
   -4.9685    1.5663   -1.7309 C   0  0  0  0  0  0  0  0  0  0  0  0
   -5.8330    2.4701   -2.3618 C   0  0  0  0  0  0  0  0  0  0  0  0
   -8.5590    3.7012   -2.5521 H   0  0  0  0  0  0  0  0  0  0  0  0
   -7.5388    3.7313   -4.0129 H   0  0  0  0  0  0  0  0  0  0  0  0
   -8.8545    2.5637   -3.8893 H   0  0  0  0  0  0  0  0  0  0  0  0
   -8.6100    0.5206   -2.5145 H   0  0  0  0  0  0  0  0  0  0  0  0
   -7.0960   -1.0594   -1.4164 H   0  0  0  0  0  0  0  0  0  0  0  0
   -2.6254    0.0043   -1.5512 H   0  0  0  0  0  0  0  0  0  0  0  0
   -0.7561   -1.2963    1.6323 H   0  0  0  0  0  0  0  0  0  0  0  0
    0.9776   -0.9856    3.0943 H   0  0  0  0  0  0  0  0  0  0  0  0
    3.3859   -0.7872    3.5288 H   0  0  0  0  0  0  0  0  0  0  0  0
    6.4100    1.0485    2.6495 H   0  0  0  0  0  0  0  0  0  0  0  0
    7.6235    3.6699   -2.8450 H   0  0  0  0  0  0  0  0  0  0  0  0
    8.8876    3.6716   -1.6048 H   0  0  0  0  0  0  0  0  0  0  0  0
    7.4834    4.7480   -1.4462 H   0  0  0  0  0  0  0  0  0  0  0  0
    8.3369    4.0880    1.0413 H   0  0  0  0  0  0  0  0  0  0  0  0
    7.1964    3.4916    2.2523 H   0  0  0  0  0  0  0  0  0  0  0  0
    8.6495    2.5496    1.8601 H   0  0  0  0  0  0  0  0  0  0  0  0
    4.1859   -1.3459   -0.6784 H   0  0  0  0  0  0  0  0  0  0  0  0
    1.7970   -1.5467   -1.1174 H   0  0  0  0  0  0  0  0  0  0  0  0
   -1.2193   -3.8366    1.1368 H   0  0  0  0  0  0  0  0  0  0  0  0
   -2.4551   -5.4318    2.5312 H   0  0  0  0  0  0  0  0  0  0  0  0
   -4.9196   -5.2194    2.7699 H   0  0  0  0  0  0  0  0  0  0  0  0
   -6.1183   -3.4078    1.5927 H   0  0  0  0  0  0  0  0  0  0  0  0
   -3.9608    1.9053   -1.5028 H   0  0  0  0  0  0  0  0  0  0  0  0
   -5.4710    3.4659   -2.6088 H   0  0  0  0  0  0  0  0  0  0  0  0
  1  2  1  0
  2  3  2  0
  3  4  1  0
  4  5  2  0
  5  6  1  0
  6  7  2  0
  7  8  1  0
  8  9  1  0
  9 10  2  0
  9 11  1  0
 11 12  1  0
 12 13  2  0
 13 14  1  0
 14 15  2  0
 15 16  1  0
 16 17  2  0
 16 18  2  0
 16 19  1  0
 19 20  1  0
 20 21  1  0
 21 22  1  0
 22 23  2  0
 23 24  1  0
 23 25  1  0
 25 26  1  0
 15 27  1  0
 27 28  2  0
  8 29  2  0
 29 30  1  0
 30 31  2  0
 31 32  1  0
 32 33  2  0
 33 34  1  0
 34 35  2  0
  5 36  1  0
 36 37  2  0
 37  2  1  0
 35  6  1  0
 28 12  1  0
 34 29  1  0
 25 20  2  0
  1 38  1  0
  1 39  1  0
  1 40  1  0
  3 41  1  0
  4 42  1  0
  7 43  1  0
 11 44  1  0
 13 45  1  0
 14 46  1  0
 19 47  1  0
 24 48  1  0
 24 49  1  0
 24 50  1  0
 26 51  1  0
 26 52  1  0
 26 53  1  0
 27 54  1  0
 28 55  1  0
 30 56  1  0
 31 57  1  0
 32 58  1  0
 33 59  1  0
 36 60  1  0
 37 61  1  0
M  END
$$$$
