
     RDKit          3D

 38 40  0  0  0  0  0  0  0  0999 V2000
   -7.8088    0.2536    0.3071 C   0  0  0  0  0  0  0  0  0  0  0  0
   -6.3344    0.3064    0.6665 C   0  0  0  0  0  0  0  0  0  0  0  0
   -5.6233    1.1583   -0.2326 O   0  0  0  0  0  0  0  0  0  0  0  0
   -5.2129    0.5088   -1.4410 C   0  0  0  0  0  0  0  0  0  0  0  0
   -3.9244   -0.2064   -1.2014 C   0  0  0  0  0  0  0  0  0  0  0  0
   -3.7885   -1.5175   -1.1704 N   0  0  0  0  0  0  0  0  0  0  0  0
   -2.4820   -1.8990   -0.9250 N   0  0  0  0  0  0  0  0  0  0  0  0
   -1.6924   -0.8639   -0.7832 C   0  0  0  0  0  0  0  0  0  0  0  0
   -0.3541   -0.7989   -0.5291 N   0  0  0  0  0  0  0  0  0  0  0  0
    0.4293   -1.9176   -0.3689 C   0  0  0  0  0  0  0  0  0  0  0  0
    0.0609   -3.0864   -0.4331 O   0  0  0  0  0  0  0  0  0  0  0  0
    1.8953   -1.5802   -0.0863 C   0  0  0  0  0  0  0  0  0  0  0  0
    2.1010   -0.1676   -0.0572 O   0  0  0  0  0  0  0  0  0  0  0  0
    3.3768    0.2642    0.1901 C   0  0  0  0  0  0  0  0  0  0  0  0
    3.5216    1.6668    0.2128 C   0  0  0  0  0  0  0  0  0  0  0  0
    4.7642    2.2619    0.4527 C   0  0  0  0  0  0  0  0  0  0  0  0
    5.8378    1.4279    0.6653 C   0  0  0  0  0  0  0  0  0  0  0  0
    5.7022    0.0603    0.6442 C   0  0  0  0  0  0  0  0  0  0  0  0
    4.4878   -0.5547    0.4099 C   0  0  0  0  0  0  0  0  0  0  0  0
    6.8803   -0.5799    0.8764 O   0  0  0  0  0  0  0  0  0  0  0  0
    7.7715    0.5427    1.0462 C   0  0  0  0  0  0  0  0  0  0  0  0
    7.1150    1.8205    0.9128 O   0  0  0  0  0  0  0  0  0  0  0  0
   -2.4549    0.6545   -0.9453 S   0  0  0  0  0  0  0  0  0  0  0  0
   -7.9641   -0.2031   -0.6748 H   0  0  0  0  0  0  0  0  0  0  0  0
   -8.3661   -0.3259    1.0488 H   0  0  0  0  0  0  0  0  0  0  0  0
   -8.2291    1.2635    0.2595 H   0  0  0  0  0  0  0  0  0  0  0  0
   -5.8967   -0.6971    0.6997 H   0  0  0  0  0  0  0  0  0  0  0  0
   -6.2300    0.7416    1.6658 H   0  0  0  0  0  0  0  0  0  0  0  0
   -5.0726    1.2845   -2.2015 H   0  0  0  0  0  0  0  0  0  0  0  0
   -5.9846   -0.1745   -1.8102 H   0  0  0  0  0  0  0  0  0  0  0  0
    0.0762    0.1133   -0.4499 H   0  0  0  0  0  0  0  0  0  0  0  0
    2.4892   -2.0315   -0.8894 H   0  0  0  0  0  0  0  0  0  0  0  0
    2.1437   -2.0181    0.8873 H   0  0  0  0  0  0  0  0  0  0  0  0
    2.6545    2.3007    0.0414 H   0  0  0  0  0  0  0  0  0  0  0  0
    4.8793    3.3396    0.4711 H   0  0  0  0  0  0  0  0  0  0  0  0
    4.4421   -1.6362    0.4051 H   0  0  0  0  0  0  0  0  0  0  0  0
    8.2243    0.4832    2.0426 H   0  0  0  0  0  0  0  0  0  0  0  0
    8.5660    0.4763    0.2940 H   0  0  0  0  0  0  0  0  0  0  0  0
  1  2  1  0
  2  3  1  0
  3  4  1  0
  4  5  1  0
  5  6  2  0
  6  7  1  0
  7  8  2  0
  8  9  1  0
  9 10  1  0
 10 11  2  0
 10 12  1  0
 12 13  1  0
 13 14  1  0
 14 15  2  0
 15 16  1  0
 16 17  2  0
 17 18  1  0
 18 19  2  0
 18 20  1  0
 20 21  1  0
 21 22  1  0
  8 23  1  0
 23  5  1  0
 19 14  1  0
 22 17  1  0
  1 24  1  0
  1 25  1  0
  1 26  1  0
  2 27  1  0
  2 28  1  0
  4 29  1  0
  4 30  1  0
  9 31  1  0
 12 32  1  0
 12 33  1  0
 15 34  1  0
 16 35  1  0
 19 36  1  0
 21 37  1  0
 21 38  1  0
M  END
$$$$
