
     RDKit          3D

 59 62  0  0  0  0  0  0  0  0999 V2000
   -9.0295   -0.9385   -2.9838 C   0  0  0  0  0  0  0  0  0  0  0  0
   -8.6152    0.1167   -2.1218 O   0  0  0  0  0  0  0  0  0  0  0  0
   -7.2684    0.2887   -1.9573 C   0  0  0  0  0  0  0  0  0  0  0  0
   -6.9156    1.3764   -1.1541 C   0  0  0  0  0  0  0  0  0  0  0  0
   -5.5737    1.6660   -0.8949 C   0  0  0  0  0  0  0  0  0  0  0  0
   -4.5681    0.8562   -1.4264 C   0  0  0  0  0  0  0  0  0  0  0  0
   -3.1715    1.1390   -1.1417 C   0  0  0  0  0  0  0  0  0  0  0  0
   -2.2993    2.0041   -1.7747 C   0  0  0  0  0  0  0  0  0  0  0  0
   -1.0560    1.9638   -1.2052 N   0  0  0  0  0  0  0  0  0  0  0  0
   -1.1571    1.1088   -0.2171 C   0  0  0  0  0  0  0  0  0  0  0  0
    0.1536    0.6620    0.8233 S   0  0  0  0  0  0  0  0  0  0  0  0
    1.2930    2.0420    0.5132 C   0  0  0  0  0  0  0  0  0  0  0  0
    2.6168    1.7707    1.2077 C   0  0  0  0  0  0  0  0  0  0  0  0
    2.9056    2.3404    2.2569 O   0  0  0  0  0  0  0  0  0  0  0  0
    3.3927    0.8660    0.5127 N   0  0  0  0  0  0  0  0  0  0  0  0
    4.6488    0.4255    0.8315 C   0  0  0  0  0  0  0  0  0  0  0  0
    5.2592   -0.4577    0.0772 N   0  0  0  0  0  0  0  0  0  0  0  0
    6.5242   -0.7424    0.5879 C   0  0  0  0  0  0  0  0  0  0  0  0
    7.3985   -1.7276   -0.1732 C   0  0  0  0  0  0  0  0  0  0  0  0
    8.7103   -2.0477    0.5716 C   0  0  0  0  0  0  0  0  0  0  0  0
    7.7600   -1.1330   -1.5511 C   0  0  0  0  0  0  0  0  0  0  0  0
    6.6378   -3.0512   -0.3868 C   0  0  0  0  0  0  0  0  0  0  0  0
    6.8253   -0.0485    1.7479 C   0  0  0  0  0  0  0  0  0  0  0  0
    5.5198    0.9712    2.1838 S   0  0  0  0  0  0  0  0  0  0  0  0
   -2.4209    0.5752   -0.1241 N   0  0  0  0  0  0  0  0  0  0  0  0
   -2.8771   -0.4333    0.8243 C   0  0  0  0  0  0  0  0  0  0  0  0
   -3.1246    0.1460    2.1690 C   0  0  0  0  0  0  0  0  0  0  0  0
   -3.8864    1.1972    2.6392 C   0  0  0  0  0  0  0  0  0  0  0  0
   -3.6928    1.2357    4.0402 C   0  0  0  0  0  0  0  0  0  0  0  0
   -2.8343    0.2037    4.3383 C   0  0  0  0  0  0  0  0  0  0  0  0
   -2.4943   -0.4705    3.2125 O   0  0  0  0  0  0  0  0  0  0  0  0
   -4.9177   -0.2259   -2.2419 C   0  0  0  0  0  0  0  0  0  0  0  0
   -6.2633   -0.5076   -2.5081 C   0  0  0  0  0  0  0  0  0  0  0  0
  -10.1247   -0.9497   -2.9922 H   0  0  0  0  0  0  0  0  0  0  0  0
   -8.6902   -1.9129   -2.6126 H   0  0  0  0  0  0  0  0  0  0  0  0
   -8.6866   -0.7604   -4.0115 H   0  0  0  0  0  0  0  0  0  0  0  0
   -7.6950    2.0108   -0.7333 H   0  0  0  0  0  0  0  0  0  0  0  0
   -5.3236    2.5259   -0.2783 H   0  0  0  0  0  0  0  0  0  0  0  0
   -2.5062    2.6428   -2.6238 H   0  0  0  0  0  0  0  0  0  0  0  0
    0.8714    2.9751    0.9030 H   0  0  0  0  0  0  0  0  0  0  0  0
    1.4752    2.1689   -0.5598 H   0  0  0  0  0  0  0  0  0  0  0  0
    3.0138    0.4178   -0.3105 H   0  0  0  0  0  0  0  0  0  0  0  0
    9.3101   -2.7805    0.0201 H   0  0  0  0  0  0  0  0  0  0  0  0
    9.3283   -1.1522    0.7013 H   0  0  0  0  0  0  0  0  0  0  0  0
    8.5138   -2.4669    1.5662 H   0  0  0  0  0  0  0  0  0  0  0  0
    6.8628   -0.9337   -2.1483 H   0  0  0  0  0  0  0  0  0  0  0  0
    8.2973   -0.1827   -1.4426 H   0  0  0  0  0  0  0  0  0  0  0  0
    8.3972   -1.8169   -2.1252 H   0  0  0  0  0  0  0  0  0  0  0  0
    6.3611   -3.5098    0.5712 H   0  0  0  0  0  0  0  0  0  0  0  0
    5.7140   -2.8976   -0.9569 H   0  0  0  0  0  0  0  0  0  0  0  0
    7.2477   -3.7761   -0.9381 H   0  0  0  0  0  0  0  0  0  0  0  0
    7.7243   -0.0774    2.3477 H   0  0  0  0  0  0  0  0  0  0  0  0
   -3.7952   -0.8897    0.4433 H   0  0  0  0  0  0  0  0  0  0  0  0
   -2.1232   -1.2272    0.8549 H   0  0  0  0  0  0  0  0  0  0  0  0
   -4.4986    1.8627    2.0449 H   0  0  0  0  0  0  0  0  0  0  0  0
   -4.1227    1.9337    4.7484 H   0  0  0  0  0  0  0  0  0  0  0  0
   -2.3955   -0.1657    5.2554 H   0  0  0  0  0  0  0  0  0  0  0  0
   -4.1453   -0.8560   -2.6823 H   0  0  0  0  0  0  0  0  0  0  0  0
   -6.4901   -1.3538   -3.1458 H   0  0  0  0  0  0  0  0  0  0  0  0
  1  2  1  0
  2  3  1  0
  3  4  2  0
  4  5  1  0
  5  6  2  0
  6  7  1  0
  7  8  2  0
  8  9  1  0
  9 10  2  0
 10 11  1  0
 11 12  1  0
 12 13  1  0
 13 14  2  0
 13 15  1  0
 15 16  1  0
 16 17  2  0
 17 18  1  0
 18 19  1  0
 19 20  1  0
 19 21  1  0
 19 22  1  0
 18 23  2  0
 23 24  1  0
 10 25  1  0
 25 26  1  0
 26 27  1  0
 27 28  2  0
 28 29  1  0
 29 30  2  0
 30 31  1  0
  6 32  1  0
 32 33  2  0
 33  3  1  0
 25  7  1  0
 31 27  1  0
 24 16  1  0
  1 34  1  0
  1 35  1  0
  1 36  1  0
  4 37  1  0
  5 38  1  0
  8 39  1  0
 12 40  1  0
 12 41  1  0
 15 42  1  0
 20 43  1  0
 20 44  1  0
 20 45  1  0
 21 46  1  0
 21 47  1  0
 21 48  1  0
 22 49  1  0
 22 50  1  0
 22 51  1  0
 23 52  1  0
 26 53  1  0
 26 54  1  0
 28 55  1  0
 29 56  1  0
 30 57  1  0
 32 58  1  0
 33 59  1  0
M  END
$$$$
