
     RDKit          3D

 41 42  0  0  0  0  0  0  0  0999 V2000
    1.5127    2.1691    2.7012 C   0  0  0  0  0  0  0  0  0  0  0  0
    2.2048    2.2757    1.3555 C   0  0  0  0  0  0  0  0  0  0  0  0
    1.7730    1.2110    0.4969 O   0  0  0  0  0  0  0  0  0  0  0  0
    0.6380    1.4328   -0.2240 C   0  0  0  0  0  0  0  0  0  0  0  0
   -0.0148    2.4740   -0.1719 O   0  0  0  0  0  0  0  0  0  0  0  0
    0.2300    0.2217   -1.0916 C   0  0  0  0  0  0  0  0  0  0  0  0
   -1.2341    0.0282   -0.8810 N   0  0  0  0  0  0  0  0  0  0  0  0
   -1.7468   -0.3697    0.3325 C   0  0  0  0  0  0  0  0  0  0  0  0
   -1.0322   -0.7501    1.2540 O   0  0  0  0  0  0  0  0  0  0  0  0
   -3.2218   -0.2841    0.4992 C   0  0  0  0  0  0  0  0  0  0  0  0
   -3.7372   -0.1366    1.7943 C   0  0  0  0  0  0  0  0  0  0  0  0
   -5.1157   -0.0536    1.9976 C   0  0  0  0  0  0  0  0  0  0  0  0
   -5.9837   -0.1266    0.9086 C   0  0  0  0  0  0  0  0  0  0  0  0
   -5.4700   -0.2893   -0.3776 C   0  0  0  0  0  0  0  0  0  0  0  0
   -6.5460   -0.3954   -1.7166 Cl  0  0  0  0  0  0  0  0  0  0  0  0
   -4.0942   -0.3721   -0.5918 C   0  0  0  0  0  0  0  0  0  0  0  0
    0.8263   -1.0713   -0.7015 N   0  0  0  0  0  0  0  0  0  0  0  0
    2.1398   -1.3192   -0.9019 C   0  0  0  0  0  0  0  0  0  0  0  0
    2.9276   -0.7156   -1.7620 N   0  0  0  0  0  0  0  0  0  0  0  0
    4.2252   -1.1794   -1.7225 N   0  0  0  0  0  0  0  0  0  0  0  0
    4.3782   -2.1359   -0.8337 C   0  0  0  0  0  0  0  0  0  0  0  0
    5.6514   -2.8450   -0.5569 C   0  0  0  0  0  0  0  0  0  0  0  0
    2.9467   -2.5271    0.0262 S   0  0  0  0  0  0  0  0  0  0  0  0
    0.5073    0.7106   -2.5487 C   0  0  0  0  0  0  0  0  0  0  0  0
   -0.4976    1.5474   -2.9485 F   0  0  0  0  0  0  0  0  0  0  0  0
    1.6574    1.3985   -2.7019 F   0  0  0  0  0  0  0  0  0  0  0  0
    0.5000   -0.3098   -3.4427 F   0  0  0  0  0  0  0  0  0  0  0  0
    0.4285    2.2764    2.5954 H   0  0  0  0  0  0  0  0  0  0  0  0
    1.6924    1.1860    3.1487 H   0  0  0  0  0  0  0  0  0  0  0  0
    1.8752    2.9407    3.3863 H   0  0  0  0  0  0  0  0  0  0  0  0
    3.2859    2.1627    1.4867 H   0  0  0  0  0  0  0  0  0  0  0  0
    2.0365    3.2546    0.8925 H   0  0  0  0  0  0  0  0  0  0  0  0
   -1.8102    0.6556   -1.4326 H   0  0  0  0  0  0  0  0  0  0  0  0
   -3.0649   -0.0824    2.6492 H   0  0  0  0  0  0  0  0  0  0  0  0
   -5.5113    0.0655    3.0037 H   0  0  0  0  0  0  0  0  0  0  0  0
   -7.0572   -0.0634    1.0693 H   0  0  0  0  0  0  0  0  0  0  0  0
   -3.7215   -0.5303   -1.5994 H   0  0  0  0  0  0  0  0  0  0  0  0
    0.4622   -1.3716    0.2047 H   0  0  0  0  0  0  0  0  0  0  0  0
    5.5498   -3.9179   -0.7484 H   0  0  0  0  0  0  0  0  0  0  0  0
    6.4506   -2.4629   -1.2000 H   0  0  0  0  0  0  0  0  0  0  0  0
    5.9594   -2.7014    0.4836 H   0  0  0  0  0  0  0  0  0  0  0  0
  1  2  1  0
  2  3  1  0
  3  4  1  0
  4  5  2  0
  4  6  1  0
  6  7  1  0
  7  8  1  0
  8  9  2  0
  8 10  1  0
 10 11  2  0
 11 12  1  0
 12 13  2  0
 13 14  1  0
 14 15  1  0
 14 16  2  0
  6 17  1  0
 17 18  1  0
 18 19  2  0
 19 20  1  0
 20 21  2  0
 21 22  1  0
 21 23  1  0
  6 24  1  0
 24 25  1  0
 24 26  1  0
 24 27  1  0
 16 10  1  0
 23 18  1  0
  1 28  1  0
  1 29  1  0
  1 30  1  0
  2 31  1  0
  2 32  1  0
  7 33  1  0
 11 34  1  0
 12 35  1  0
 13 36  1  0
 16 37  1  0
 17 38  1  0
 22 39  1  0
 22 40  1  0
 22 41  1  0
M  END
$$$$
