
     RDKit          3D

 57 62  0  0  0  0  0  0  0  0999 V2000
    3.4650   -1.5674   -4.8980 C   0  0  0  0  0  0  0  0  0  0  0  0
    2.4387   -1.2523   -3.9654 O   0  0  0  0  0  0  0  0  0  0  0  0
    2.7424   -1.3820   -2.6372 C   0  0  0  0  0  0  0  0  0  0  0  0
    3.9774   -1.8112   -2.1154 C   0  0  0  0  0  0  0  0  0  0  0  0
    4.1803   -1.9073   -0.7331 C   0  0  0  0  0  0  0  0  0  0  0  0
    3.1299   -1.5679    0.0913 C   0  0  0  0  0  0  0  0  0  0  0  0
    1.8968   -1.1396   -0.4040 C   0  0  0  0  0  0  0  0  0  0  0  0
    1.6931   -1.0444   -1.7728 C   0  0  0  0  0  0  0  0  0  0  0  0
    0.9814   -0.8599    0.7510 C   0  0  0  0  0  0  0  0  0  0  0  0
   -0.2819   -1.6583    0.7659 N   0  0  0  0  0  0  0  0  0  0  0  0
   -1.3971   -0.7618    1.2464 C   0  0  2  0  0  0  0  0  0  0  0  0
   -2.7189   -1.0176    0.4965 C   0  0  0  0  0  0  0  0  0  0  0  0
   -3.2741   -2.4138    0.6619 C   0  0  0  0  0  0  0  0  0  0  0  0
   -3.6775   -2.8808    1.9207 C   0  0  0  0  0  0  0  0  0  0  0  0
   -4.1966   -4.1685    2.0657 C   0  0  0  0  0  0  0  0  0  0  0  0
   -4.3227   -5.0002    0.9552 C   0  0  0  0  0  0  0  0  0  0  0  0
   -3.9311   -4.5450   -0.3018 C   0  0  0  0  0  0  0  0  0  0  0  0
   -3.4109   -3.2579   -0.4492 C   0  0  0  0  0  0  0  0  0  0  0  0
   -0.8399    0.5959    1.0073 C   0  0  0  0  0  0  0  0  0  0  0  0
    0.5176    0.5354    0.7008 C   0  0  0  0  0  0  0  0  0  0  0  0
    0.9802    1.8069    0.4783 C   0  0  0  0  0  0  0  0  0  0  0  0
    2.2143    2.2238    0.2026 O   0  0  0  0  0  0  0  0  0  0  0  0
   -0.1088    2.6912    0.6525 N   0  0  0  0  0  0  0  0  0  0  0  0
   -0.0762    4.1222    0.4977 C   0  0  0  0  0  0  0  0  0  0  0  0
    0.8877    4.7343   -0.3177 C   0  0  0  0  0  0  0  0  0  0  0  0
    0.9180    6.1247   -0.4720 C   0  0  0  0  0  0  0  0  0  0  0  0
   -0.0120    6.9229    0.1862 C   0  0  0  0  0  0  0  0  0  0  0  0
   -0.9737    6.3311    0.9989 C   0  0  0  0  0  0  0  0  0  0  0  0
   -1.0074    4.9407    1.1536 C   0  0  0  0  0  0  0  0  0  0  0  0
   -1.2327    1.9094    1.0093 C   0  0  0  0  0  0  0  0  0  0  0  0
   -2.4339    2.4339    1.2385 O   0  0  0  0  0  0  0  0  0  0  0  0
    1.8782   -1.1803    1.9844 C   0  0  0  0  0  0  0  0  0  0  0  0
    1.6066   -1.1032    3.1732 O   0  0  0  0  0  0  0  0  0  0  0  0
    3.1184   -1.5838    1.4786 N   0  0  0  0  0  0  0  0  0  0  0  0
    3.7582   -2.6195   -4.8210 H   0  0  0  0  0  0  0  0  0  0  0  0
    3.0640   -1.4063   -5.9033 H   0  0  0  0  0  0  0  0  0  0  0  0
    4.3281   -0.9052   -4.7737 H   0  0  0  0  0  0  0  0  0  0  0  0
    4.8031   -2.0803   -2.7672 H   0  0  0  0  0  0  0  0  0  0  0  0
    5.1327   -2.2404   -0.3356 H   0  0  0  0  0  0  0  0  0  0  0  0
    0.7422   -0.7065   -2.1751 H   0  0  0  0  0  0  0  0  0  0  0  0
   -0.4920   -1.9126   -0.1965 H   0  0  0  0  0  0  0  0  0  0  0  0
   -1.5208   -0.9198    2.3245 H   0  0  0  0  0  0  0  0  0  0  0  0
   -3.4874   -0.3149    0.8435 H   0  0  0  0  0  0  0  0  0  0  0  0
   -2.5879   -0.7959   -0.5719 H   0  0  0  0  0  0  0  0  0  0  0  0
   -3.5885   -2.2486    2.8011 H   0  0  0  0  0  0  0  0  0  0  0  0
   -4.5007   -4.5232    3.0470 H   0  0  0  0  0  0  0  0  0  0  0  0
   -4.7255   -6.0030    1.0699 H   0  0  0  0  0  0  0  0  0  0  0  0
   -4.0302   -5.1930   -1.1686 H   0  0  0  0  0  0  0  0  0  0  0  0
   -3.1132   -2.9217   -1.4397 H   0  0  0  0  0  0  0  0  0  0  0  0
    2.7936    1.4453    0.1325 H   0  0  0  0  0  0  0  0  0  0  0  0
    1.6125    4.1535   -0.8794 H   0  0  0  0  0  0  0  0  0  0  0  0
    1.6683    6.5796   -1.1132 H   0  0  0  0  0  0  0  0  0  0  0  0
    0.0129    8.0024    0.0670 H   0  0  0  0  0  0  0  0  0  0  0  0
   -1.6986    6.9491    1.5224 H   0  0  0  0  0  0  0  0  0  0  0  0
   -1.7538    4.5318    1.8269 H   0  0  0  0  0  0  0  0  0  0  0  0
   -3.0259    1.7254    1.5405 H   0  0  0  0  0  0  0  0  0  0  0  0
    3.8788   -1.8653    2.0791 H   0  0  0  0  0  0  0  0  0  0  0  0
  1  2  1  0
  2  3  1  0
  3  4  2  0
  4  5  1  0
  5  6  2  0
  6  7  1  0
  7  8  2  0
  7  9  1  0
  9 10  1  0
 10 11  1  0
 11 12  1  0
 12 13  1  0
 13 14  2  0
 14 15  1  0
 15 16  2  0
 16 17  1  0
 17 18  2  0
 11 19  1  0
 19 20  1  0
 20 21  2  0
 21 22  1  0
 21 23  1  0
 23 24  1  0
 24 25  2  0
 25 26  1  0
 26 27  2  0
 27 28  1  0
 28 29  2  0
 23 30  1  0
 30 31  1  0
  9 32  1  0
 32 33  2  0
 32 34  1  0
  8  3  1  0
 20  9  1  0
 29 24  1  0
 34  6  1  0
 18 13  1  0
 30 19  2  0
  1 35  1  0
  1 36  1  0
  1 37  1  0
  4 38  1  0
  5 39  1  0
  8 40  1  0
 10 41  1  0
 11 42  1  1
 12 43  1  0
 12 44  1  0
 14 45  1  0
 15 46  1  0
 16 47  1  0
 17 48  1  0
 18 49  1  0
 22 50  1  0
 25 51  1  0
 26 52  1  0
 27 53  1  0
 28 54  1  0
 29 55  1  0
 31 56  1  0
 34 57  1  0
M  END
$$$$
