
     RDKit          3D

 41 44  0  0  0  0  0  0  0  0999 V2000
   -0.5653   -0.1246   -3.2412 O   0  0  0  0  0  0  0  0  0  0  0  0
   -1.6528   -0.7074   -2.4860 S   0  0  0  0  0  6  0  0  0  0  0  0
   -2.5533   -1.6642   -3.0960 O   0  0  0  0  0  0  0  0  0  0  0  0
   -1.0445   -1.4641   -1.1042 N   0  0  0  0  0  0  0  0  0  0  0  0
    0.1154   -0.9059   -0.4822 C   0  0  0  0  0  0  0  0  0  0  0  0
   -0.0934    0.0835    0.4801 C   0  0  0  0  0  0  0  0  0  0  0  0
    0.9889    0.6953    1.1087 C   0  0  0  0  0  0  0  0  0  0  0  0
    0.6663    1.9798    2.3078 S   0  0  0  0  0  0  0  0  0  0  0  0
    0.7512    1.0867    3.8050 C   0  0  0  0  0  0  0  0  0  0  0  0
    0.6260   -0.2771    3.8985 N   0  0  0  0  0  0  0  0  0  0  0  0
    0.7362   -0.4992    5.1861 C   0  0  0  0  0  0  0  0  0  0  0  0
    0.9007    0.6814    5.8357 N   0  0  0  0  0  0  0  0  0  0  0  0
    0.8935    1.7131    4.9798 N   0  0  0  0  0  0  0  0  0  0  0  0
    2.2889    0.3096    0.7504 C   0  0  0  0  0  0  0  0  0  0  0  0
    3.3403    0.9701    1.3442 O   0  0  0  0  0  0  0  0  0  0  0  0
    2.5314   -0.7130   -0.2012 C   0  0  0  0  0  0  0  0  0  0  0  0
    3.8327   -1.1647   -0.5277 C   0  0  0  0  0  0  0  0  0  0  0  0
    4.0471   -2.1560   -1.4855 C   0  0  0  0  0  0  0  0  0  0  0  0
    2.9661   -2.7247   -2.1395 C   0  0  0  0  0  0  0  0  0  0  0  0
    1.6715   -2.3148   -1.8210 C   0  0  0  0  0  0  0  0  0  0  0  0
    1.4226   -1.3193   -0.8456 C   0  0  0  0  0  0  0  0  0  0  0  0
   -2.6446    0.5976   -1.8072 C   0  0  0  0  0  0  0  0  0  0  0  0
   -2.1658    1.9111   -1.8164 C   0  0  0  0  0  0  0  0  0  0  0  0
   -2.9523    2.9304   -1.2805 C   0  0  0  0  0  0  0  0  0  0  0  0
   -4.2111    2.6376   -0.7523 C   0  0  0  0  0  0  0  0  0  0  0  0
   -4.6913    1.3266   -0.7608 C   0  0  0  0  0  0  0  0  0  0  0  0
   -3.9103    0.3007   -1.2925 C   0  0  0  0  0  0  0  0  0  0  0  0
   -1.1079   -2.4788   -1.1660 H   0  0  0  0  0  0  0  0  0  0  0  0
   -1.1066    0.3674    0.7539 H   0  0  0  0  0  0  0  0  0  0  0  0
    0.7044   -1.4567    5.6853 H   0  0  0  0  0  0  0  0  0  0  0  0
    1.0148    0.8586    6.8271 H   0  0  0  0  0  0  0  0  0  0  0  0
    4.0206    1.1110    0.6660 H   0  0  0  0  0  0  0  0  0  0  0  0
    4.7058   -0.7616   -0.0200 H   0  0  0  0  0  0  0  0  0  0  0  0
    5.0581   -2.4810   -1.7175 H   0  0  0  0  0  0  0  0  0  0  0  0
    3.1239   -3.4895   -2.8957 H   0  0  0  0  0  0  0  0  0  0  0  0
    0.8504   -2.7811   -2.3606 H   0  0  0  0  0  0  0  0  0  0  0  0
   -1.1865    2.1455   -2.2280 H   0  0  0  0  0  0  0  0  0  0  0  0
   -2.5853    3.9541   -1.2749 H   0  0  0  0  0  0  0  0  0  0  0  0
   -4.8219    3.4356   -0.3363 H   0  0  0  0  0  0  0  0  0  0  0  0
   -5.6755    1.1065   -0.3545 H   0  0  0  0  0  0  0  0  0  0  0  0
   -4.2887   -0.7187   -1.3018 H   0  0  0  0  0  0  0  0  0  0  0  0
  1  2  2  0
  2  3  2  0
  2  4  1  0
  4  5  1  0
  5  6  2  0
  6  7  1  0
  7  8  1  0
  8  9  1  0
  9 10  1  0
 10 11  2  0
 11 12  1  0
 12 13  1  0
  7 14  2  0
 14 15  1  0
 14 16  1  0
 16 17  2  0
 17 18  1  0
 18 19  2  0
 19 20  1  0
 20 21  2  0
  2 22  1  0
 22 23  2  0
 23 24  1  0
 24 25  2  0
 25 26  1  0
 26 27  2  0
 21  5  1  0
 27 22  1  0
 13  9  2  0
 21 16  1  0
  4 28  1  0
  6 29  1  0
 11 30  1  0
 12 31  1  0
 15 32  1  0
 17 33  1  0
 18 34  1  0
 19 35  1  0
 20 36  1  0
 23 37  1  0
 24 38  1  0
 25 39  1  0
 26 40  1  0
 27 41  1  0
M  END
$$$$
