
     RDKit          3D

 53 58  0  0  0  0  0  0  0  0999 V2000
    0.9591   -0.9004   -1.9293 O   0  0  0  0  0  0  0  0  0  0  0  0
    1.4493   -0.9148   -0.7961 C   0  0  0  0  0  0  0  0  0  0  0  0
    0.6348   -1.5833    0.3342 C   0  0  0  0  0  0  0  0  0  0  0  0
   -0.7827   -1.1901    0.2298 N   0  0  0  0  0  4  0  0  0  0  0  0
   -1.4103   -0.1510    0.9162 C   0  0  0  0  0  0  0  0  0  0  0  0
   -2.7220   -0.0435    0.4705 C   0  0  0  0  0  0  0  0  0  0  0  0
   -3.8044    0.9736    0.9864 C   0  0  0  0  0  0  0  0  0  0  0  0
   -5.1245    0.8996    0.5299 C   0  0  0  0  0  0  0  0  0  0  0  0
   -6.0800    1.8082    0.9961 C   0  0  0  0  0  0  0  0  0  0  0  0
   -5.7137    2.7843    1.9140 C   0  0  0  0  0  0  0  0  0  0  0  0
   -6.6304    3.6530    2.3561 F   0  0  0  0  0  0  0  0  0  0  0  0
   -4.4077    2.8679    2.3794 C   0  0  0  0  0  0  0  0  0  0  0  0
   -3.4493    1.9597    1.9198 C   0  0  0  0  0  0  0  0  0  0  0  0
   -2.8074   -1.0217   -0.5032 N   0  0  0  0  0  0  0  0  0  0  0  0
   -1.6615   -1.6855   -0.6355 C   0  0  0  0  0  0  0  0  0  0  0  0
   -1.7151   -2.7373   -1.6776 C   0  0  0  0  0  0  0  0  0  0  0  0
   -2.9918   -2.3524   -2.4496 C   0  0  0  0  0  0  0  0  0  0  0  0
   -3.8074   -1.4764   -1.4595 C   0  0  0  0  0  0  0  0  0  0  0  0
    2.6206   -0.2533   -0.3883 N   0  0  0  0  0  0  0  0  0  0  0  0
    3.4398   -0.7609    0.6823 C   0  0  0  0  0  0  0  0  0  0  0  0
    3.5802   -2.1553    0.8421 C   0  0  0  0  0  0  0  0  0  0  0  0
    4.3556   -2.6928    1.8717 C   0  0  0  0  0  0  0  0  0  0  0  0
    5.0151   -1.8472    2.7561 C   0  0  0  0  0  0  0  0  0  0  0  0
    4.9177   -0.4670    2.5940 C   0  0  0  0  0  0  0  0  0  0  0  0
    4.1499    0.0782    1.5542 C   0  0  0  0  0  0  0  0  0  0  0  0
    4.0684    1.8407    1.4151 S   0  0  0  0  0  0  0  0  0  0  0  0
    3.7624    1.9590   -0.3325 C   0  0  0  0  0  0  0  0  0  0  0  0
    4.1703    3.1418   -0.9708 C   0  0  0  0  0  0  0  0  0  0  0  0
    3.9072    3.3444   -2.3218 C   0  0  0  0  0  0  0  0  0  0  0  0
    3.2314    2.3673   -3.0389 C   0  0  0  0  0  0  0  0  0  0  0  0
    2.8158    1.1904   -2.4045 C   0  0  0  0  0  0  0  0  0  0  0  0
    3.0714    0.9554   -1.0406 C   0  0  0  0  0  0  0  0  0  0  0  0
    0.7003   -2.6709    0.2353 H   0  0  0  0  0  0  0  0  0  0  0  0
    0.9765   -1.2865    1.3305 H   0  0  0  0  0  0  0  0  0  0  0  0
   -0.8351    0.3862    1.6512 H   0  0  0  0  0  0  0  0  0  0  0  0
   -5.4512    0.1417   -0.1712 H   0  0  0  0  0  0  0  0  0  0  0  0
   -7.1103    1.7598    0.6534 H   0  0  0  0  0  0  0  0  0  0  0  0
   -4.1468    3.6408    3.0981 H   0  0  0  0  0  0  0  0  0  0  0  0
   -2.4376    2.0568    2.3026 H   0  0  0  0  0  0  0  0  0  0  0  0
   -0.8140   -2.7075   -2.2882 H   0  0  0  0  0  0  0  0  0  0  0  0
   -1.8183   -3.6880   -1.1514 H   0  0  0  0  0  0  0  0  0  0  0  0
   -2.7140   -1.7389   -3.3159 H   0  0  0  0  0  0  0  0  0  0  0  0
   -3.5520   -3.2183   -2.8154 H   0  0  0  0  0  0  0  0  0  0  0  0
   -4.2724   -0.6332   -1.9744 H   0  0  0  0  0  0  0  0  0  0  0  0
   -4.5556   -2.0726   -0.9289 H   0  0  0  0  0  0  0  0  0  0  0  0
    3.1448   -2.8534    0.1314 H   0  0  0  0  0  0  0  0  0  0  0  0
    4.4678   -3.7704    1.9694 H   0  0  0  0  0  0  0  0  0  0  0  0
    5.6285   -2.2588    3.5544 H   0  0  0  0  0  0  0  0  0  0  0  0
    5.4597    0.1823    3.2784 H   0  0  0  0  0  0  0  0  0  0  0  0
    4.6941    3.9177   -0.4167 H   0  0  0  0  0  0  0  0  0  0  0  0
    4.2319    4.2597   -2.8120 H   0  0  0  0  0  0  0  0  0  0  0  0
    3.0318    2.5122   -4.0980 H   0  0  0  0  0  0  0  0  0  0  0  0
    2.3314    0.4506   -3.0325 H   0  0  0  0  0  0  0  0  0  0  0  0
  1  2  2  0
  2  3  1  0
  3  4  1  0
  4  5  1  0
  5  6  2  0
  6  7  1  0
  7  8  2  0
  8  9  1  0
  9 10  2  0
 10 11  1  0
 10 12  1  0
 12 13  2  0
  6 14  1  0
 14 15  1  0
 15 16  1  0
 16 17  1  0
 17 18  1  0
  2 19  1  0
 19 20  1  0
 20 21  2  0
 21 22  1  0
 22 23  2  0
 23 24  1  0
 24 25  2  0
 25 26  1  0
 26 27  1  0
 27 28  2  0
 28 29  1  0
 29 30  2  0
 30 31  1  0
 31 32  2  0
 15  4  2  0
 32 19  1  0
 13  7  1  0
 18 14  1  0
 25 20  1  0
 32 27  1  0
  3 33  1  0
  3 34  1  0
  5 35  1  0
  8 36  1  0
  9 37  1  0
 12 38  1  0
 13 39  1  0
 16 40  1  0
 16 41  1  0
 17 42  1  0
 17 43  1  0
 18 44  1  0
 18 45  1  0
 21 46  1  0
 22 47  1  0
 23 48  1  0
 24 49  1  0
 28 50  1  0
 29 51  1  0
 30 52  1  0
 31 53  1  0
M  CHG  1   4   1
M  END
$$$$
