
     RDKit          3D

 44 46  0  0  0  0  0  0  0  0999 V2000
   -3.8826    0.2255    2.2934 C   0  0  0  0  0  0  0  0  0  0  0  0
   -2.9932   -0.5890    1.3929 C   0  0  0  0  0  0  0  0  0  0  0  0
   -1.9428   -1.3337    1.9570 C   0  0  0  0  0  0  0  0  0  0  0  0
   -1.0713   -2.1137    1.1741 C   0  0  0  0  0  0  0  0  0  0  0  0
    0.0064   -2.8850    1.8804 C   0  0  0  0  0  0  0  0  0  0  0  0
   -1.2721   -2.1277   -0.2147 C   0  0  0  0  0  0  0  0  0  0  0  0
   -0.2370   -3.0315   -1.3643 S   0  0  0  0  0  6  0  0  0  0  0  0
    0.6481   -3.9250   -0.6508 O   0  0  0  0  0  0  0  0  0  0  0  0
   -1.1037   -3.5346   -2.4114 O   0  0  0  0  0  0  0  0  0  0  0  0
    0.6845   -1.8020   -2.0809 N   0  0  0  0  0  0  0  0  0  0  0  0
    1.4721   -0.9647   -1.2429 C   0  0  0  0  0  0  0  0  0  0  0  0
    2.6317   -1.4619   -0.6511 C   0  0  0  0  0  0  0  0  0  0  0  0
    3.3807   -0.6536    0.2045 C   0  0  0  0  0  0  0  0  0  0  0  0
    2.9585    0.6501    0.4688 C   0  0  0  0  0  0  0  0  0  0  0  0
    3.6905    1.4350    1.3179 O   0  0  0  0  0  0  0  0  0  0  0  0
    1.7919    1.1591   -0.1204 C   0  0  0  0  0  0  0  0  0  0  0  0
    1.1999    2.8112    0.2122 S   0  0  0  0  0  0  0  0  0  0  0  0
    2.1233    3.7641   -0.9230 C   0  0  0  0  0  0  0  0  0  0  0  0
    2.4060    5.0883   -0.7015 N   0  0  0  0  0  0  0  0  0  0  0  0
    3.0736    5.4365   -1.7748 C   0  0  0  0  0  0  0  0  0  0  0  0
    3.1694    4.3723   -2.6114 N   0  0  0  0  0  0  0  0  0  0  0  0
    2.5506    3.2961   -2.1040 N   0  0  0  0  0  0  0  0  0  0  0  0
    1.0478    0.3373   -0.9770 C   0  0  0  0  0  0  0  0  0  0  0  0
   -2.3389   -1.4075   -0.7850 C   0  0  0  0  0  0  0  0  0  0  0  0
   -3.2022   -0.6363    0.0051 C   0  0  0  0  0  0  0  0  0  0  0  0
   -4.3195    0.1287   -0.6496 C   0  0  0  0  0  0  0  0  0  0  0  0
   -3.5298    0.2090    3.3301 H   0  0  0  0  0  0  0  0  0  0  0  0
   -4.9011   -0.1751    2.2819 H   0  0  0  0  0  0  0  0  0  0  0  0
   -3.8970    1.2717    1.9717 H   0  0  0  0  0  0  0  0  0  0  0  0
   -1.8006   -1.3029    3.0375 H   0  0  0  0  0  0  0  0  0  0  0  0
    0.9958   -2.5979    1.5173 H   0  0  0  0  0  0  0  0  0  0  0  0
   -0.1503   -3.9608    1.7579 H   0  0  0  0  0  0  0  0  0  0  0  0
    0.0015   -2.6855    2.9581 H   0  0  0  0  0  0  0  0  0  0  0  0
    0.1797   -1.3560   -2.8452 H   0  0  0  0  0  0  0  0  0  0  0  0
    2.9569   -2.4803   -0.8525 H   0  0  0  0  0  0  0  0  0  0  0  0
    4.2809   -1.0584    0.6568 H   0  0  0  0  0  0  0  0  0  0  0  0
    4.4643    0.9389    1.6287 H   0  0  0  0  0  0  0  0  0  0  0  0
    3.4930    6.4083   -1.9918 H   0  0  0  0  0  0  0  0  0  0  0  0
    3.6185    4.3076   -3.5178 H   0  0  0  0  0  0  0  0  0  0  0  0
    0.1375    0.7200   -1.4299 H   0  0  0  0  0  0  0  0  0  0  0  0
   -2.5001   -1.4486   -1.8617 H   0  0  0  0  0  0  0  0  0  0  0  0
   -4.1623    1.2052   -0.5294 H   0  0  0  0  0  0  0  0  0  0  0  0
   -5.2829   -0.1516   -0.2121 H   0  0  0  0  0  0  0  0  0  0  0  0
   -4.3757   -0.0814   -1.7231 H   0  0  0  0  0  0  0  0  0  0  0  0
  1  2  1  0
  2  3  2  0
  3  4  1  0
  4  5  1  0
  4  6  2  0
  6  7  1  0
  7  8  2  0
  7  9  2  0
  7 10  1  0
 10 11  1  0
 11 12  2  0
 12 13  1  0
 13 14  2  0
 14 15  1  0
 14 16  1  0
 16 17  1  0
 17 18  1  0
 18 19  1  0
 19 20  2  0
 20 21  1  0
 21 22  1  0
 16 23  2  0
  6 24  1  0
 24 25  2  0
 25 26  1  0
 25  2  1  0
 23 11  1  0
 22 18  2  0
  1 27  1  0
  1 28  1  0
  1 29  1  0
  3 30  1  0
  5 31  1  0
  5 32  1  0
  5 33  1  0
 10 34  1  0
 12 35  1  0
 13 36  1  0
 15 37  1  0
 20 38  1  0
 21 39  1  0
 23 40  1  0
 24 41  1  0
 26 42  1  0
 26 43  1  0
 26 44  1  0
M  END
$$$$
