
     RDKit          3D

 45 47  0  0  0  0  0  0  0  0999 V2000
   -7.8388   -0.9766   -0.5958 C   0  0  0  0  0  0  0  0  0  0  0  0
   -6.5230   -0.3163   -0.2202 C   0  0  0  0  0  0  0  0  0  0  0  0
   -5.8854   -1.1398    0.7619 O   0  0  0  0  0  0  0  0  0  0  0  0
   -4.5151   -1.0600    0.7352 C   0  0  0  0  0  0  0  0  0  0  0  0
   -3.8560   -2.2913    0.6716 C   0  0  0  0  0  0  0  0  0  0  0  0
   -2.4634   -2.3446    0.6633 C   0  0  0  0  0  0  0  0  0  0  0  0
   -1.7202   -1.1640    0.7299 C   0  0  0  0  0  0  0  0  0  0  0  0
   -0.2559   -1.2424    0.7422 C   0  0  0  0  0  0  0  0  0  0  0  0
    0.5716   -0.7614   -0.1973 C   0  0  0  0  0  0  0  0  0  0  0  0
    0.1617    0.0599   -1.6582 S   0  0  0  0  0  0  0  0  0  0  0  0
    1.8468    0.2738   -2.1329 C   0  0  0  0  0  0  0  0  0  0  0  0
    2.3157    1.0085   -3.5557 S   0  0  0  0  0  0  0  0  0  0  0  0
    2.6487   -0.2951   -1.1652 N   0  0  0  0  0  0  0  0  0  0  0  0
    4.0542   -0.1834   -1.1847 N   0  0  0  0  0  0  0  0  0  0  0  0
    4.5800    0.9116   -0.5186 C   0  0  0  0  0  0  0  0  0  0  0  0
    3.8969    1.8456   -0.1097 O   0  0  0  0  0  0  0  0  0  0  0  0
    6.0444    0.8887   -0.2720 C   0  0  0  0  0  0  0  0  0  0  0  0
    6.9247    0.1900   -1.0998 C   0  0  0  0  0  0  0  0  0  0  0  0
    8.2719    0.2317   -0.7864 C   0  0  0  0  0  0  0  0  0  0  0  0
    8.7771    0.9077    0.2675 N   0  0  0  0  0  0  0  0  0  0  0  0
    7.9041    1.5918    1.0368 C   0  0  0  0  0  0  0  0  0  0  0  0
    6.5415    1.6163    0.8094 C   0  0  0  0  0  0  0  0  0  0  0  0
    2.0487   -0.9017   -0.0760 C   0  0  0  0  0  0  0  0  0  0  0  0
    2.6230   -1.4875    0.8335 O   0  0  0  0  0  0  0  0  0  0  0  0
   -2.3834    0.0703    0.8308 C   0  0  0  0  0  0  0  0  0  0  0  0
   -3.7835    0.1340    0.8473 C   0  0  0  0  0  0  0  0  0  0  0  0
   -4.4981    1.2945    0.9800 O   0  0  0  0  0  0  0  0  0  0  0  0
   -3.7893    2.4648    1.3660 C   0  0  0  0  0  0  0  0  0  0  0  0
   -8.4828   -1.0797    0.2849 H   0  0  0  0  0  0  0  0  0  0  0  0
   -7.6692   -1.9857   -0.9870 H   0  0  0  0  0  0  0  0  0  0  0  0
   -8.3675   -0.3914   -1.3539 H   0  0  0  0  0  0  0  0  0  0  0  0
   -6.7325    0.6696    0.2058 H   0  0  0  0  0  0  0  0  0  0  0  0
   -5.9065   -0.2084   -1.1212 H   0  0  0  0  0  0  0  0  0  0  0  0
   -4.4344   -3.2110    0.6274 H   0  0  0  0  0  0  0  0  0  0  0  0
   -1.9692   -3.3113    0.6015 H   0  0  0  0  0  0  0  0  0  0  0  0
    0.1569   -1.7635    1.6057 H   0  0  0  0  0  0  0  0  0  0  0  0
    4.5460   -1.0699   -1.1287 H   0  0  0  0  0  0  0  0  0  0  0  0
    6.5967   -0.3506   -1.9797 H   0  0  0  0  0  0  0  0  0  0  0  0
    9.0072   -0.2892   -1.3933 H   0  0  0  0  0  0  0  0  0  0  0  0
    8.3442    2.1359    1.8677 H   0  0  0  0  0  0  0  0  0  0  0  0
    5.8851    2.1854    1.4596 H   0  0  0  0  0  0  0  0  0  0  0  0
   -1.7858    0.9737    0.8998 H   0  0  0  0  0  0  0  0  0  0  0  0
   -3.2418    2.3111    2.3015 H   0  0  0  0  0  0  0  0  0  0  0  0
   -4.5242    3.2566    1.5388 H   0  0  0  0  0  0  0  0  0  0  0  0
   -3.1209    2.8033    0.5672 H   0  0  0  0  0  0  0  0  0  0  0  0
  1  2  1  0
  2  3  1  0
  3  4  1  0
  4  5  2  0
  5  6  1  0
  6  7  2  0
  7  8  1  0
  8  9  2  3
  9 10  1  0
 10 11  1  0
 11 12  2  0
 11 13  1  0
 13 14  1  0
 14 15  1  0
 15 16  2  0
 15 17  1  0
 17 18  2  0
 18 19  1  0
 19 20  2  0
 20 21  1  0
 21 22  2  0
 13 23  1  0
 23 24  2  0
  7 25  1  0
 25 26  2  0
 26 27  1  0
 27 28  1  0
 26  4  1  0
 23  9  1  0
 22 17  1  0
  1 29  1  0
  1 30  1  0
  1 31  1  0
  2 32  1  0
  2 33  1  0
  5 34  1  0
  6 35  1  0
  8 36  1  0
 14 37  1  0
 18 38  1  0
 19 39  1  0
 21 40  1  0
 22 41  1  0
 25 42  1  0
 28 43  1  0
 28 44  1  0
 28 45  1  0
M  END
$$$$
