
     RDKit          3D

 54 56  0  0  0  0  0  0  0  0999 V2000
    8.8472    1.7157   -1.5897 C   0  0  0  0  0  0  0  0  0  0  0  0
    8.0610    1.8515   -0.4130 O   0  0  0  0  0  0  0  0  0  0  0  0
    6.9254    1.0916   -0.3366 C   0  0  0  0  0  0  0  0  0  0  0  0
    6.1941    1.2513    0.8414 C   0  0  0  0  0  0  0  0  0  0  0  0
    5.0100    0.5390    1.0496 C   0  0  0  0  0  0  0  0  0  0  0  0
    4.5370   -0.3462    0.0744 C   0  0  0  0  0  0  0  0  0  0  0  0
    3.2484   -1.1007    0.2838 C   0  0  0  0  0  0  0  0  0  0  0  0
    2.0770   -0.5481   -0.5404 C   0  0  0  0  0  0  0  0  0  0  0  0
    1.6496    0.8758   -0.1718 C   0  0  0  0  0  0  0  0  0  0  0  0
    1.1248    0.9743    1.2100 C   0  0  0  0  0  0  0  0  0  0  0  0
    1.6567    1.5444    2.2681 N   0  0  0  0  0  0  0  0  0  0  0  0
    0.7679    1.3426    3.3031 N   0  0  0  0  0  0  0  0  0  0  0  0
   -0.2399    0.6561    2.8101 C   0  0  0  0  0  0  0  0  0  0  0  0
   -1.6156    0.1467    3.7326 S   0  0  0  0  0  0  0  0  0  0  0  0
   -1.9461   -1.4662    2.9755 C   0  0  0  0  0  0  0  0  0  0  0  0
   -3.2389   -1.4476    2.1762 C   0  0  0  0  0  0  0  0  0  0  0  0
   -4.1654   -2.1928    2.4858 O   0  0  0  0  0  0  0  0  0  0  0  0
   -3.2131   -0.5864    1.0925 N   0  0  0  0  0  0  0  0  0  0  0  0
   -4.2231   -0.3697    0.1231 C   0  0  0  0  0  0  0  0  0  0  0  0
   -5.4160   -1.0980    0.0835 C   0  0  0  0  0  0  0  0  0  0  0  0
   -6.3928   -0.8619   -0.9048 C   0  0  0  0  0  0  0  0  0  0  0  0
   -7.6602   -1.6764   -0.8895 C   0  0  0  0  0  0  0  0  0  0  0  0
   -6.1753    0.1346   -1.8743 C   0  0  0  0  0  0  0  0  0  0  0  0
   -7.1895    0.4237   -2.9469 C   0  0  0  0  0  0  0  0  0  0  0  0
   -4.9809    0.8659   -1.8406 C   0  0  0  0  0  0  0  0  0  0  0  0
   -4.0196    0.6165   -0.8559 C   0  0  0  0  0  0  0  0  0  0  0  0
   -2.4346    1.6683   -0.8925 Br  0  0  0  0  0  0  0  0  0  0  0  0
   -0.0834    0.3845    1.4739 O   0  0  0  0  0  0  0  0  0  0  0  0
    5.2735   -0.5059   -1.1059 C   0  0  0  0  0  0  0  0  0  0  0  0
    6.4606    0.2074   -1.3103 C   0  0  0  0  0  0  0  0  0  0  0  0
    9.7071    2.3865   -1.4967 H   0  0  0  0  0  0  0  0  0  0  0  0
    8.2840    2.0190   -2.4786 H   0  0  0  0  0  0  0  0  0  0  0  0
    9.2301    0.6948   -1.6924 H   0  0  0  0  0  0  0  0  0  0  0  0
    6.5481    1.9396    1.6063 H   0  0  0  0  0  0  0  0  0  0  0  0
    4.4610    0.6904    1.9772 H   0  0  0  0  0  0  0  0  0  0  0  0
    3.4153   -2.1492    0.0028 H   0  0  0  0  0  0  0  0  0  0  0  0
    2.9912   -1.1233    1.3500 H   0  0  0  0  0  0  0  0  0  0  0  0
    2.3384   -0.5656   -1.6060 H   0  0  0  0  0  0  0  0  0  0  0  0
    1.2220   -1.2265   -0.4214 H   0  0  0  0  0  0  0  0  0  0  0  0
    2.4817    1.5763   -0.3021 H   0  0  0  0  0  0  0  0  0  0  0  0
    0.8671    1.1992   -0.8683 H   0  0  0  0  0  0  0  0  0  0  0  0
   -1.1296   -1.8160    2.3357 H   0  0  0  0  0  0  0  0  0  0  0  0
   -2.0558   -2.1960    3.7845 H   0  0  0  0  0  0  0  0  0  0  0  0
   -2.4010    0.0164    0.9998 H   0  0  0  0  0  0  0  0  0  0  0  0
   -5.6183   -1.8725    0.8181 H   0  0  0  0  0  0  0  0  0  0  0  0
   -7.6309   -2.4537   -0.1181 H   0  0  0  0  0  0  0  0  0  0  0  0
   -7.8075   -2.1795   -1.8529 H   0  0  0  0  0  0  0  0  0  0  0  0
   -8.5198   -1.0295   -0.6784 H   0  0  0  0  0  0  0  0  0  0  0  0
   -6.8802    1.2644   -3.5775 H   0  0  0  0  0  0  0  0  0  0  0  0
   -8.1533    0.6879   -2.5006 H   0  0  0  0  0  0  0  0  0  0  0  0
   -7.3123   -0.4490   -3.5967 H   0  0  0  0  0  0  0  0  0  0  0  0
   -4.8007    1.6369   -2.5873 H   0  0  0  0  0  0  0  0  0  0  0  0
    4.9289   -1.1899   -1.8788 H   0  0  0  0  0  0  0  0  0  0  0  0
    6.9955    0.0494   -2.2401 H   0  0  0  0  0  0  0  0  0  0  0  0
  1  2  1  0
  2  3  1  0
  3  4  2  0
  4  5  1  0
  5  6  2  0
  6  7  1  0
  7  8  1  0
  8  9  1  0
  9 10  1  0
 10 11  2  0
 11 12  1  0
 12 13  2  0
 13 14  1  0
 14 15  1  0
 15 16  1  0
 16 17  2  0
 16 18  1  0
 18 19  1  0
 19 20  2  0
 20 21  1  0
 21 22  1  0
 21 23  2  0
 23 24  1  0
 23 25  1  0
 25 26  2  0
 26 27  1  0
 13 28  1  0
  6 29  1  0
 29 30  2  0
 30  3  1  0
 28 10  1  0
 26 19  1  0
  1 31  1  0
  1 32  1  0
  1 33  1  0
  4 34  1  0
  5 35  1  0
  7 36  1  0
  7 37  1  0
  8 38  1  0
  8 39  1  0
  9 40  1  0
  9 41  1  0
 15 42  1  0
 15 43  1  0
 18 44  1  0
 20 45  1  0
 22 46  1  0
 22 47  1  0
 22 48  1  0
 24 49  1  0
 24 50  1  0
 24 51  1  0
 25 52  1  0
 29 53  1  0
 30 54  1  0
M  END
$$$$
