
     RDKit          3D

 33 34  0  0  0  0  0  0  0  0999 V2000
   -3.2779    0.6855   -1.6552 C   0  0  0  0  0  0  0  0  0  0  0  0
   -2.2500    1.5189   -0.9008 C   0  0  0  0  0  0  0  0  0  0  0  0
   -1.4132    0.6785   -0.0301 N   0  0  0  0  0  0  0  0  0  0  0  0
   -1.9570    0.4410    1.3170 C   0  0  0  0  0  0  0  0  0  0  0  0
   -1.6070    1.5773    2.2698 C   0  0  0  0  0  0  0  0  0  0  0  0
   -0.1800    0.1372   -0.4535 C   0  0  0  0  0  0  0  0  0  0  0  0
    0.1136    0.1433   -1.8399 C   0  0  0  0  0  0  0  0  0  0  0  0
    1.2890   -0.3766   -2.3620 C   0  0  0  0  0  0  0  0  0  0  0  0
    2.2138   -0.9260   -1.4869 C   0  0  0  0  0  0  0  0  0  0  0  0
    3.4197   -1.4697   -2.0830 N   0  0  0  0  0  4  0  0  0  0  0  0
    4.1661   -0.6725   -2.6664 O   0  0  0  0  0  0  0  0  0  0  0  0
    3.6029   -2.6901   -1.9845 O   0  0  0  0  0  1  0  0  0  0  0  0
    2.0142   -0.9607   -0.0908 C   0  0  0  0  0  0  0  0  0  0  0  0
    2.9709   -1.4896    0.8154 C   0  0  0  0  0  0  0  0  0  0  0  0
    2.7412   -1.4935    2.1800 C   0  0  0  0  0  0  0  0  0  0  0  0
    1.5562   -0.9619    2.6124 C   0  0  0  0  0  0  0  0  0  0  0  0
    0.6265   -0.4475    1.7812 N   0  0  0  0  0  0  0  0  0  0  0  0
    0.8056   -0.4260    0.4362 C   0  0  0  0  0  0  0  0  0  0  0  0
   -2.8079   -0.0778   -2.2819 H   0  0  0  0  0  0  0  0  0  0  0  0
   -3.9539    0.1718   -0.9640 H   0  0  0  0  0  0  0  0  0  0  0  0
   -3.8833    1.3293   -2.3009 H   0  0  0  0  0  0  0  0  0  0  0  0
   -2.7899    2.2561   -0.2933 H   0  0  0  0  0  0  0  0  0  0  0  0
   -1.6472    2.1206   -1.5904 H   0  0  0  0  0  0  0  0  0  0  0  0
   -3.0521    0.3895    1.2557 H   0  0  0  0  0  0  0  0  0  0  0  0
   -1.6787   -0.5387    1.7162 H   0  0  0  0  0  0  0  0  0  0  0  0
   -0.5315    1.7673    2.3181 H   0  0  0  0  0  0  0  0  0  0  0  0
   -1.9611    1.3445    3.2790 H   0  0  0  0  0  0  0  0  0  0  0  0
   -2.0850    2.5115    1.9572 H   0  0  0  0  0  0  0  0  0  0  0  0
   -0.5916    0.5433   -2.5618 H   0  0  0  0  0  0  0  0  0  0  0  0
    1.4646   -0.3535   -3.4349 H   0  0  0  0  0  0  0  0  0  0  0  0
    3.9142   -1.9076    0.4680 H   0  0  0  0  0  0  0  0  0  0  0  0
    3.4657   -1.8973    2.8770 H   0  0  0  0  0  0  0  0  0  0  0  0
    1.3033   -0.9267    3.6679 H   0  0  0  0  0  0  0  0  0  0  0  0
  1  2  1  0
  2  3  1  0
  3  4  1  0
  4  5  1  0
  3  6  1  0
  6  7  2  0
  7  8  1  0
  8  9  2  0
  9 10  1  0
 10 11  2  0
 10 12  1  0
  9 13  1  0
 13 14  2  0
 14 15  1  0
 15 16  2  0
 16 17  1  0
 17 18  2  0
 18  6  1  0
 18 13  1  0
  1 19  1  0
  1 20  1  0
  1 21  1  0
  2 22  1  0
  2 23  1  0
  4 24  1  0
  4 25  1  0
  5 26  1  0
  5 27  1  0
  5 28  1  0
  7 29  1  0
  8 30  1  0
 14 31  1  0
 15 32  1  0
 16 33  1  0
M  CHG  2  10   1  12  -1
M  END
$$$$
