
     RDKit          3D

 41 43  0  0  0  0  0  0  0  0999 V2000
    8.0178    0.1517    1.4307 C   0  0  0  0  0  0  0  0  0  0  0  0
    6.6846    0.1977    1.2862 C   0  0  0  0  0  0  0  0  0  0  0  0
    5.9319    1.3422    1.7835 C   0  0  0  0  0  0  0  0  0  0  0  0
    4.5955    1.3916    1.6383 C   0  0  0  0  0  0  0  0  0  0  0  0
    3.8520    0.2971    0.9752 C   0  0  0  0  0  0  0  0  0  0  0  0
    2.5045    0.3413    0.8222 C   0  0  0  0  0  0  0  0  0  0  0  0
    1.7532   -0.6317    0.2196 N   0  0  0  0  0  0  0  0  0  0  0  0
    0.3966   -0.4556    0.1338 C   0  0  0  0  0  0  0  0  0  0  0  0
   -0.3552   -1.2632   -0.3856 O   0  0  0  0  0  0  0  0  0  0  0  0
    0.0380    0.8464    0.7606 C   0  0  0  0  0  0  0  0  0  0  0  0
   -1.1796    1.3920    0.9034 C   0  0  0  0  0  0  0  0  0  0  0  0
   -2.4591    0.8345    0.4547 C   0  0  0  0  0  0  0  0  0  0  0  0
   -3.4816    0.6375    1.3862 C   0  0  0  0  0  0  0  0  0  0  0  0
   -4.7252    0.1493    0.9749 C   0  0  0  0  0  0  0  0  0  0  0  0
   -4.9744   -0.1459   -0.3697 C   0  0  0  0  0  0  0  0  0  0  0  0
   -6.2399   -0.6131   -0.6032 O   0  0  0  0  0  0  0  0  0  0  0  0
   -6.7580   -0.4328   -1.9148 C   0  0  0  0  0  0  0  0  0  0  0  0
   -3.9381    0.0166   -1.2962 C   0  0  0  0  0  0  0  0  0  0  0  0
   -4.1066   -0.3082   -2.6181 O   0  0  0  0  0  0  0  0  0  0  0  0
   -3.3093   -1.4451   -2.9611 C   0  0  0  0  0  0  0  0  0  0  0  0
   -2.7041    0.5452   -0.8907 C   0  0  0  0  0  0  0  0  0  0  0  0
    1.4671    1.6411    1.3598 S   0  0  0  0  0  0  0  0  0  0  0  0
    4.6424   -0.8536    0.4834 C   0  0  0  0  0  0  0  0  0  0  0  0
    5.9789   -0.8971    0.6318 C   0  0  0  0  0  0  0  0  0  0  0  0
    8.6044   -0.6878    1.0708 H   0  0  0  0  0  0  0  0  0  0  0  0
    8.5687    0.9525    1.9142 H   0  0  0  0  0  0  0  0  0  0  0  0
    6.4600    2.1547    2.2725 H   0  0  0  0  0  0  0  0  0  0  0  0
    4.0658    2.2577    2.0200 H   0  0  0  0  0  0  0  0  0  0  0  0
    2.1381   -1.4793   -0.1650 H   0  0  0  0  0  0  0  0  0  0  0  0
   -1.2789    2.3465    1.4182 H   0  0  0  0  0  0  0  0  0  0  0  0
   -3.3243    0.8601    2.4390 H   0  0  0  0  0  0  0  0  0  0  0  0
   -5.5134    0.0031    1.7099 H   0  0  0  0  0  0  0  0  0  0  0  0
   -6.5426    0.5653   -2.3113 H   0  0  0  0  0  0  0  0  0  0  0  0
   -6.3990   -1.2204   -2.5834 H   0  0  0  0  0  0  0  0  0  0  0  0
   -7.8466   -0.5309   -1.8550 H   0  0  0  0  0  0  0  0  0  0  0  0
   -2.2594   -1.1616   -3.0872 H   0  0  0  0  0  0  0  0  0  0  0  0
   -3.6713   -1.8266   -3.9206 H   0  0  0  0  0  0  0  0  0  0  0  0
   -3.4055   -2.2480   -2.2208 H   0  0  0  0  0  0  0  0  0  0  0  0
   -1.9284    0.7124   -1.6333 H   0  0  0  0  0  0  0  0  0  0  0  0
    4.1563   -1.6873   -0.0071 H   0  0  0  0  0  0  0  0  0  0  0  0
    6.5448   -1.7482    0.2660 H   0  0  0  0  0  0  0  0  0  0  0  0
  1  2  2  0
  2  3  1  0
  3  4  2  0
  4  5  1  0
  5  6  2  3
  6  7  1  0
  7  8  1  0
  8  9  2  0
  8 10  1  0
 10 11  2  3
 11 12  1  0
 12 13  2  0
 13 14  1  0
 14 15  2  0
 15 16  1  0
 16 17  1  0
 15 18  1  0
 18 19  1  0
 19 20  1  0
 18 21  2  0
 10 22  1  0
  5 23  1  0
 23 24  2  0
 24  2  1  0
 22  6  1  0
 21 12  1  0
  1 25  1  0
  1 26  1  0
  3 27  1  0
  4 28  1  0
  7 29  1  0
 11 30  1  0
 13 31  1  0
 14 32  1  0
 17 33  1  0
 17 34  1  0
 17 35  1  0
 20 36  1  0
 20 37  1  0
 20 38  1  0
 21 39  1  0
 23 40  1  0
 24 41  1  0
M  END
$$$$
