
     RDKit          3D

 53 55  0  0  0  0  0  0  0  0999 V2000
   -7.0995   -5.3350    1.4993 C   0  0  0  0  0  0  0  0  0  0  0  0
   -6.7733   -4.5036    2.6068 O   0  0  0  0  0  0  0  0  0  0  0  0
   -5.9800   -3.4186    2.3543 C   0  0  0  0  0  0  0  0  0  0  0  0
   -5.7448   -2.5999    3.4650 C   0  0  0  0  0  0  0  0  0  0  0  0
   -4.9482   -1.4584    3.3560 C   0  0  0  0  0  0  0  0  0  0  0  0
   -4.3806   -1.1417    2.1219 C   0  0  0  0  0  0  0  0  0  0  0  0
   -3.3489    0.2902    1.9520 S   0  0  0  0  0  6  0  0  0  0  0  0
   -3.1879    0.9087    3.2507 O   0  0  0  0  0  0  0  0  0  0  0  0
   -3.8293    1.0437    0.8141 O   0  0  0  0  0  0  0  0  0  0  0  0
   -1.8595   -0.3840    1.5337 N   0  0  0  0  0  0  0  0  0  0  0  0
   -1.1720   -1.2021    2.5541 C   0  0  0  0  0  0  0  0  0  0  0  0
    0.0667   -0.4002    2.8790 C   0  0  0  0  0  0  0  0  0  0  0  0
    0.3923    0.2258    1.6374 O   0  0  0  0  0  0  0  0  0  0  0  0
   -0.8705    0.6168    1.0687 C   0  0  0  0  0  0  0  0  0  0  0  0
   -0.7890    0.6233   -0.4721 C   0  0  0  0  0  0  0  0  0  0  0  0
    0.1436    1.6091   -0.9902 N   0  0  0  0  0  0  0  0  0  0  0  0
    1.4571    1.3026   -1.2637 C   0  0  0  0  0  0  0  0  0  0  0  0
    1.9595    0.1883   -1.2808 O   0  0  0  0  0  0  0  0  0  0  0  0
    2.3235    2.5432   -1.5770 C   0  0  0  0  0  0  0  0  0  0  0  0
    1.8550    3.6662   -1.4528 O   0  0  0  0  0  0  0  0  0  0  0  0
    3.6039    2.2367   -1.9703 N   0  0  0  0  0  0  0  0  0  0  0  0
    4.6053    3.2561   -2.1265 C   0  0  0  0  0  0  0  0  0  0  0  0
    5.8113    2.7169   -2.8473 C   0  0  0  0  0  0  0  0  0  0  0  0
    6.9021    2.2019   -2.1292 C   0  0  0  0  0  0  0  0  0  0  0  0
    8.0077    1.6815   -2.8040 C   0  0  0  0  0  0  0  0  0  0  0  0
    8.0199    1.6685   -4.1935 C   0  0  0  0  0  0  0  0  0  0  0  0
    9.0813    1.1679   -4.8391 F   0  0  0  0  0  0  0  0  0  0  0  0
    6.9458    2.1627   -4.9230 C   0  0  0  0  0  0  0  0  0  0  0  0
    5.8390    2.6831   -4.2509 C   0  0  0  0  0  0  0  0  0  0  0  0
   -4.6123   -1.9457    1.0024 C   0  0  0  0  0  0  0  0  0  0  0  0
   -5.4125   -3.0862    1.1217 C   0  0  0  0  0  0  0  0  0  0  0  0
   -7.7574   -6.1312    1.8613 H   0  0  0  0  0  0  0  0  0  0  0  0
   -6.2026   -5.8072    1.0844 H   0  0  0  0  0  0  0  0  0  0  0  0
   -7.6441   -4.7755    0.7314 H   0  0  0  0  0  0  0  0  0  0  0  0
   -6.1901   -2.8565    4.4247 H   0  0  0  0  0  0  0  0  0  0  0  0
   -4.7814   -0.8325    4.2293 H   0  0  0  0  0  0  0  0  0  0  0  0
   -0.9062   -2.1561    2.0854 H   0  0  0  0  0  0  0  0  0  0  0  0
   -1.7668   -1.4170    3.4452 H   0  0  0  0  0  0  0  0  0  0  0  0
   -0.1334    0.3782    3.6236 H   0  0  0  0  0  0  0  0  0  0  0  0
    0.8981   -1.0208    3.2222 H   0  0  0  0  0  0  0  0  0  0  0  0
   -1.0931    1.6230    1.4452 H   0  0  0  0  0  0  0  0  0  0  0  0
   -1.7654    0.8543   -0.9087 H   0  0  0  0  0  0  0  0  0  0  0  0
   -0.4834   -0.3668   -0.8312 H   0  0  0  0  0  0  0  0  0  0  0  0
   -0.0913    2.5986   -0.9642 H   0  0  0  0  0  0  0  0  0  0  0  0
    3.8763    1.2596   -1.8951 H   0  0  0  0  0  0  0  0  0  0  0  0
    4.8782    3.6196   -1.1286 H   0  0  0  0  0  0  0  0  0  0  0  0
    4.1791    4.1091   -2.6680 H   0  0  0  0  0  0  0  0  0  0  0  0
    6.8958    2.2035   -1.0411 H   0  0  0  0  0  0  0  0  0  0  0  0
    8.8563    1.2843   -2.2566 H   0  0  0  0  0  0  0  0  0  0  0  0
    6.9749    2.1365   -6.0076 H   0  0  0  0  0  0  0  0  0  0  0  0
    4.9952    3.0608   -4.8249 H   0  0  0  0  0  0  0  0  0  0  0  0
   -4.1742   -1.6904    0.0396 H   0  0  0  0  0  0  0  0  0  0  0  0
   -5.5701   -3.6934    0.2368 H   0  0  0  0  0  0  0  0  0  0  0  0
  1  2  1  0
  2  3  1  0
  3  4  2  0
  4  5  1  0
  5  6  2  0
  6  7  1  0
  7  8  2  0
  7  9  2  0
  7 10  1  0
 10 11  1  0
 11 12  1  0
 12 13  1  0
 13 14  1  0
 14 15  1  0
 15 16  1  0
 16 17  1  0
 17 18  2  0
 17 19  1  0
 19 20  2  0
 19 21  1  0
 21 22  1  0
 22 23  1  0
 23 24  2  0
 24 25  1  0
 25 26  2  0
 26 27  1  0
 26 28  1  0
 28 29  2  0
  6 30  1  0
 30 31  2  0
 31  3  1  0
 14 10  1  0
 29 23  1  0
  1 32  1  0
  1 33  1  0
  1 34  1  0
  4 35  1  0
  5 36  1  0
 11 37  1  0
 11 38  1  0
 12 39  1  0
 12 40  1  0
 14 41  1  0
 15 42  1  0
 15 43  1  0
 16 44  1  0
 21 45  1  0
 22 46  1  0
 22 47  1  0
 24 48  1  0
 25 49  1  0
 28 50  1  0
 29 51  1  0
 30 52  1  0
 31 53  1  0
M  END
$$$$
