
     RDKit          3D

 56 58  0  0  0  0  0  0  0  0999 V2000
    5.5449   -1.5630    0.2013 C   0  0  0  0  0  0  0  0  0  0  0  0
    5.5382   -1.5102   -1.2212 O   0  0  0  0  0  0  0  0  0  0  0  0
    4.5811   -0.7241   -1.8037 C   0  0  0  0  0  0  0  0  0  0  0  0
    4.5763   -0.7546   -3.1992 C   0  0  0  0  0  0  0  0  0  0  0  0
    3.6468   -0.0100   -3.9287 C   0  0  0  0  0  0  0  0  0  0  0  0
    2.7069    0.7750   -3.2600 C   0  0  0  0  0  0  0  0  0  0  0  0
    1.7436    1.5442   -3.8719 O   0  0  0  0  0  0  0  0  0  0  0  0
    1.6463    1.4499   -5.2880 C   0  0  0  0  0  0  0  0  0  0  0  0
    2.7104    0.8177   -1.8492 C   0  0  0  0  0  0  0  0  0  0  0  0
    1.7173    1.6171   -1.2383 N   0  0  0  0  0  0  0  0  0  0  0  0
    1.4392    1.7625    0.1051 C   0  0  0  0  0  0  0  0  0  0  0  0
    2.0932    1.3117    1.0431 O   0  0  0  0  0  0  0  0  0  0  0  0
    0.2066    2.6099    0.3763 C   0  0  0  0  0  0  0  0  0  0  0  0
   -1.3159    1.8815   -0.2959 S   0  0  0  0  0  0  0  0  0  0  0  0
   -1.1435    0.2583    0.3394 C   0  0  0  0  0  0  0  0  0  0  0  0
   -0.4508   -0.5537   -0.3852 N   0  0  0  0  0  0  0  0  0  0  0  0
   -0.2332   -1.8494    0.0842 C   0  0  0  0  0  0  0  0  0  0  0  0
    0.5884   -2.7060   -0.6514 C   0  0  0  0  0  0  0  0  0  0  0  0
    0.8289   -4.0101   -0.2113 C   0  0  0  0  0  0  0  0  0  0  0  0
    0.2460   -4.4674    0.9706 C   0  0  0  0  0  0  0  0  0  0  0  0
   -0.5729   -3.6183    1.7146 C   0  0  0  0  0  0  0  0  0  0  0  0
   -0.8017   -2.3125    1.2659 C   0  0  0  0  0  0  0  0  0  0  0  0
   -1.6482   -1.3770    2.0256 C   0  0  0  0  0  0  0  0  0  0  0  0
   -2.2406   -1.7750    3.0270 O   0  0  0  0  0  0  0  0  0  0  0  0
   -1.7392   -0.0715    1.5420 N   0  0  0  0  0  0  0  0  0  0  0  0
   -2.5948    0.8347    2.3144 C   0  0  0  0  0  0  0  0  0  0  0  0
   -4.0687    0.7228    1.9089 C   0  0  0  0  0  0  0  0  0  0  0  0
   -4.9260    1.5471    2.7455 N   0  0  0  0  0  0  0  0  0  0  0  0
   -6.1114    2.0517    2.2563 C   0  0  0  0  0  0  0  0  0  0  0  0
   -6.9622    2.7301    3.2961 C   0  0  0  0  0  0  0  0  0  0  0  0
   -6.4641    1.9583    1.0859 O   0  0  0  0  0  0  0  0  0  0  0  0
    3.6500    0.0695   -1.1313 C   0  0  0  0  0  0  0  0  0  0  0  0
    4.5993   -1.9578    0.5871 H   0  0  0  0  0  0  0  0  0  0  0  0
    5.7716   -0.5816    0.6305 H   0  0  0  0  0  0  0  0  0  0  0  0
    6.3402   -2.2504    0.5055 H   0  0  0  0  0  0  0  0  0  0  0  0
    5.3065   -1.3672   -3.7242 H   0  0  0  0  0  0  0  0  0  0  0  0
    3.6867   -0.0688   -5.0106 H   0  0  0  0  0  0  0  0  0  0  0  0
    2.5562    1.8226   -5.7706 H   0  0  0  0  0  0  0  0  0  0  0  0
    1.4196    0.4255   -5.6029 H   0  0  0  0  0  0  0  0  0  0  0  0
    0.8170    2.0876   -5.6083 H   0  0  0  0  0  0  0  0  0  0  0  0
    1.0536    2.0099   -1.9019 H   0  0  0  0  0  0  0  0  0  0  0  0
    0.0941    2.7328    1.4585 H   0  0  0  0  0  0  0  0  0  0  0  0
    0.3552    3.6039   -0.0573 H   0  0  0  0  0  0  0  0  0  0  0  0
    1.0473   -2.3494   -1.5706 H   0  0  0  0  0  0  0  0  0  0  0  0
    1.4727   -4.6660   -0.7925 H   0  0  0  0  0  0  0  0  0  0  0  0
    0.4319   -5.4826    1.3129 H   0  0  0  0  0  0  0  0  0  0  0  0
   -1.0252   -3.9703    2.6388 H   0  0  0  0  0  0  0  0  0  0  0  0
   -2.2551    1.8701    2.2167 H   0  0  0  0  0  0  0  0  0  0  0  0
   -2.4936    0.5961    3.3810 H   0  0  0  0  0  0  0  0  0  0  0  0
   -4.1968    1.0035    0.8577 H   0  0  0  0  0  0  0  0  0  0  0  0
   -4.4243   -0.3088    2.0107 H   0  0  0  0  0  0  0  0  0  0  0  0
   -4.8672    1.4069    3.7475 H   0  0  0  0  0  0  0  0  0  0  0  0
   -7.7607    2.0510    3.6057 H   0  0  0  0  0  0  0  0  0  0  0  0
   -6.3723    3.0147    4.1720 H   0  0  0  0  0  0  0  0  0  0  0  0
   -7.3954    3.6384    2.8677 H   0  0  0  0  0  0  0  0  0  0  0  0
    3.6475    0.1006   -0.0501 H   0  0  0  0  0  0  0  0  0  0  0  0
  1  2  1  0
  2  3  1  0
  3  4  2  0
  4  5  1  0
  5  6  2  0
  6  7  1  0
  7  8  1  0
  6  9  1  0
  9 10  1  0
 10 11  1  0
 11 12  2  0
 11 13  1  0
 13 14  1  0
 14 15  1  0
 15 16  2  0
 16 17  1  0
 17 18  2  0
 18 19  1  0
 19 20  2  0
 20 21  1  0
 21 22  2  0
 22 23  1  0
 23 24  2  0
 23 25  1  0
 25 26  1  0
 26 27  1  0
 27 28  1  0
 28 29  1  0
 29 30  1  0
 29 31  2  0
  9 32  2  0
 32  3  1  0
 25 15  1  0
 22 17  1  0
  1 33  1  0
  1 34  1  0
  1 35  1  0
  4 36  1  0
  5 37  1  0
  8 38  1  0
  8 39  1  0
  8 40  1  0
 10 41  1  0
 13 42  1  0
 13 43  1  0
 18 44  1  0
 19 45  1  0
 20 46  1  0
 21 47  1  0
 26 48  1  0
 26 49  1  0
 27 50  1  0
 27 51  1  0
 28 52  1  0
 30 53  1  0
 30 54  1  0
 30 55  1  0
 32 56  1  0
M  END
$$$$
