
     RDKit          3D

 32 32  0  0  0  0  0  0  0  0999 V2000
   -4.4571   -0.0778   -4.1077 C   0  0  0  0  0  0  0  0  0  0  0  0
   -3.7699    0.1363   -3.1458 C   0  0  0  0  0  0  0  0  0  0  0  0
   -2.9306    0.4048   -1.9657 C   0  0  0  0  0  0  0  0  0  0  0  0
   -2.4567   -0.8394   -1.3444 N   0  0  0  0  0  0  0  0  0  0  0  0
   -1.4525   -1.5125   -2.1678 C   0  0  0  0  0  0  0  0  0  0  0  0
   -2.0033   -0.6377    0.0388 C   0  0  0  0  0  0  0  0  0  0  0  0
   -0.8004    0.2904    0.2375 C   0  0  0  0  0  0  0  0  0  0  0  0
   -0.4443    0.4087    1.7190 C   0  0  0  0  0  0  0  0  0  0  0  0
    0.6523    1.3043    1.8969 O   0  0  0  0  0  0  0  0  0  0  0  0
    1.9312    0.8169    1.9112 C   0  0  0  0  0  0  0  0  0  0  0  0
    2.2919   -0.4899    1.5674 C   0  0  0  0  0  0  0  0  0  0  0  0
    3.6332   -0.8879    1.6054 C   0  0  0  0  0  0  0  0  0  0  0  0
    4.6205    0.0190    1.9827 C   0  0  0  0  0  0  0  0  0  0  0  0
    6.2659   -0.4801    2.0254 Cl  0  0  0  0  0  0  0  0  0  0  0  0
    4.2840    1.3244    2.3211 C   0  0  0  0  0  0  0  0  0  0  0  0
    2.9445    1.7200    2.2824 C   0  0  0  0  0  0  0  0  0  0  0  0
    2.5769    3.3563    2.7105 Cl  0  0  0  0  0  0  0  0  0  0  0  0
   -5.0687   -0.2748   -4.9574 H   0  0  0  0  0  0  0  0  0  0  0  0
   -3.5471    0.9639   -1.2503 H   0  0  0  0  0  0  0  0  0  0  0  0
   -2.0941    1.0577   -2.2429 H   0  0  0  0  0  0  0  0  0  0  0  0
   -1.0989   -2.4257   -1.6757 H   0  0  0  0  0  0  0  0  0  0  0  0
   -0.5849   -0.8773   -2.3768 H   0  0  0  0  0  0  0  0  0  0  0  0
   -1.8773   -1.8301   -3.1261 H   0  0  0  0  0  0  0  0  0  0  0  0
   -1.7731   -1.6195    0.4734 H   0  0  0  0  0  0  0  0  0  0  0  0
   -2.8493   -0.2604    0.6285 H   0  0  0  0  0  0  0  0  0  0  0  0
   -1.0100    1.2934   -0.1530 H   0  0  0  0  0  0  0  0  0  0  0  0
    0.0682   -0.0741   -0.3206 H   0  0  0  0  0  0  0  0  0  0  0  0
   -1.2926    0.8554    2.2513 H   0  0  0  0  0  0  0  0  0  0  0  0
   -0.2721   -0.5625    2.1967 H   0  0  0  0  0  0  0  0  0  0  0  0
    1.5594   -1.2261    1.2539 H   0  0  0  0  0  0  0  0  0  0  0  0
    3.8992   -1.9073    1.3355 H   0  0  0  0  0  0  0  0  0  0  0  0
    5.0557    2.0314    2.6124 H   0  0  0  0  0  0  0  0  0  0  0  0
  1  2  3  0
  2  3  1  0
  3  4  1  0
  4  5  1  0
  4  6  1  0
  6  7  1  0
  7  8  1  0
  8  9  1  0
  9 10  1  0
 10 11  2  0
 11 12  1  0
 12 13  2  0
 13 14  1  0
 13 15  1  0
 15 16  2  0
 16 17  1  0
 16 10  1  0
  1 18  1  0
  3 19  1  0
  3 20  1  0
  5 21  1  0
  5 22  1  0
  5 23  1  0
  6 24  1  0
  6 25  1  0
  7 26  1  0
  7 27  1  0
  8 28  1  0
  8 29  1  0
 11 30  1  0
 12 31  1  0
 15 32  1  0
M  END
$$$$
