
     RDKit          3D

 53 58  0  0  0  0  0  0  0  0999 V2000
    1.3589   -1.7075   -0.8673 O   0  0  0  0  0  0  0  0  0  0  0  0
    1.6829   -0.6403   -0.3450 C   0  0  0  0  0  0  0  0  0  0  0  0
    1.0579    0.6895   -0.8000 C   0  0  0  0  0  0  0  0  0  0  0  0
   -0.3871    0.5560   -1.0434 N   0  0  0  0  0  4  0  0  0  0  0  0
   -1.4178    1.0659   -0.2557 C   0  0  0  0  0  0  0  0  0  0  0  0
   -2.6372    0.6947   -0.8093 C   0  0  0  0  0  0  0  0  0  0  0  0
   -4.0624    1.0680   -0.2579 C   0  0  0  0  0  0  0  0  0  0  0  0
   -5.2181    0.6733   -0.9390 C   0  0  0  0  0  0  0  0  0  0  0  0
   -6.4786    1.0131   -0.4377 C   0  0  0  0  0  0  0  0  0  0  0  0
   -6.5793    1.7457    0.7375 C   0  0  0  0  0  0  0  0  0  0  0  0
   -7.7869    2.0693    1.2138 F   0  0  0  0  0  0  0  0  0  0  0  0
   -5.4411    2.1481    1.4230 C   0  0  0  0  0  0  0  0  0  0  0  0
   -4.1786    1.8112    0.9267 C   0  0  0  0  0  0  0  0  0  0  0  0
   -2.2690   -0.0440   -1.9191 N   0  0  0  0  0  0  0  0  0  0  0  0
   -0.9459   -0.0943   -2.0613 C   0  0  0  0  0  0  0  0  0  0  0  0
   -0.5210   -0.8089   -3.2886 C   0  0  0  0  0  0  0  0  0  0  0  0
   -1.8177   -1.5274   -3.7077 C   0  0  0  0  0  0  0  0  0  0  0  0
   -2.9561   -0.7535   -2.9906 C   0  0  0  0  0  0  0  0  0  0  0  0
    2.6619   -0.4815    0.6393 N   0  0  0  0  0  0  0  0  0  0  0  0
    2.2677   -0.0677    1.9610 C   0  0  0  0  0  0  0  0  0  0  0  0
    0.9163   -0.2106    2.3500 C   0  0  0  0  0  0  0  0  0  0  0  0
    0.4692    0.1814    3.6144 C   0  0  0  0  0  0  0  0  0  0  0  0
    1.3653    0.7213    4.5242 C   0  0  0  0  0  0  0  0  0  0  0  0
    2.7067    0.8473    4.1730 C   0  0  0  0  0  0  0  0  0  0  0  0
    3.1656    0.4442    2.9071 C   0  0  0  0  0  0  0  0  0  0  0  0
    4.8878    0.6596    2.5786 S   0  0  0  0  0  0  0  0  0  0  0  0
    5.0933   -0.4419    1.2044 C   0  0  0  0  0  0  0  0  0  0  0  0
    6.4152   -0.8208    0.9084 C   0  0  0  0  0  0  0  0  0  0  0  0
    6.7027   -1.6043   -0.2041 C   0  0  0  0  0  0  0  0  0  0  0  0
    5.6705   -2.0041   -1.0379 C   0  0  0  0  0  0  0  0  0  0  0  0
    4.3537   -1.6280   -0.7516 C   0  0  0  0  0  0  0  0  0  0  0  0
    4.0291   -0.8552    0.3833 C   0  0  0  0  0  0  0  0  0  0  0  0
    1.5366    0.9846   -1.7401 H   0  0  0  0  0  0  0  0  0  0  0  0
    1.2247    1.4911   -0.0744 H   0  0  0  0  0  0  0  0  0  0  0  0
   -1.1488    1.6446    0.6120 H   0  0  0  0  0  0  0  0  0  0  0  0
   -5.1813    0.1103   -1.8624 H   0  0  0  0  0  0  0  0  0  0  0  0
   -7.3852    0.7134   -0.9563 H   0  0  0  0  0  0  0  0  0  0  0  0
   -5.5471    2.7223    2.3395 H   0  0  0  0  0  0  0  0  0  0  0  0
   -3.3115    2.1429    1.4902 H   0  0  0  0  0  0  0  0  0  0  0  0
   -0.2219   -0.0395   -4.0040 H   0  0  0  0  0  0  0  0  0  0  0  0
    0.2957   -1.4931   -3.0695 H   0  0  0  0  0  0  0  0  0  0  0  0
   -1.9512   -1.5710   -4.7919 H   0  0  0  0  0  0  0  0  0  0  0  0
   -1.7955   -2.5563   -3.3290 H   0  0  0  0  0  0  0  0  0  0  0  0
   -3.4176   -0.0207   -3.6589 H   0  0  0  0  0  0  0  0  0  0  0  0
   -3.7032   -1.4412   -2.5881 H   0  0  0  0  0  0  0  0  0  0  0  0
    0.1888   -0.6934    1.7012 H   0  0  0  0  0  0  0  0  0  0  0  0
   -0.5704    0.0378    3.9005 H   0  0  0  0  0  0  0  0  0  0  0  0
    1.0322    1.0216    5.5155 H   0  0  0  0  0  0  0  0  0  0  0  0
    3.4021    1.2558    4.9058 H   0  0  0  0  0  0  0  0  0  0  0  0
    7.2382   -0.4963    1.5440 H   0  0  0  0  0  0  0  0  0  0  0  0
    7.7286   -1.8944   -0.4190 H   0  0  0  0  0  0  0  0  0  0  0  0
    5.8845   -2.6189   -1.9098 H   0  0  0  0  0  0  0  0  0  0  0  0
    3.5942   -1.9981   -1.4342 H   0  0  0  0  0  0  0  0  0  0  0  0
  1  2  2  0
  2  3  1  0
  3  4  1  0
  4  5  1  0
  5  6  2  0
  6  7  1  0
  7  8  2  0
  8  9  1  0
  9 10  2  0
 10 11  1  0
 10 12  1  0
 12 13  2  0
  6 14  1  0
 14 15  1  0
 15 16  1  0
 16 17  1  0
 17 18  1  0
  2 19  1  0
 19 20  1  0
 20 21  2  0
 21 22  1  0
 22 23  2  0
 23 24  1  0
 24 25  2  0
 25 26  1  0
 26 27  1  0
 27 28  2  0
 28 29  1  0
 29 30  2  0
 30 31  1  0
 31 32  2  0
 15  4  2  0
 32 19  1  0
 13  7  1  0
 18 14  1  0
 25 20  1  0
 32 27  1  0
  3 33  1  0
  3 34  1  0
  5 35  1  0
  8 36  1  0
  9 37  1  0
 12 38  1  0
 13 39  1  0
 16 40  1  0
 16 41  1  0
 17 42  1  0
 17 43  1  0
 18 44  1  0
 18 45  1  0
 21 46  1  0
 22 47  1  0
 23 48  1  0
 24 49  1  0
 28 50  1  0
 29 51  1  0
 30 52  1  0
 31 53  1  0
M  CHG  1   4   1
M  END
$$$$
