
     RDKit          3D

 34 34  0  0  0  0  0  0  0  0999 V2000
    6.0129   -0.1780   -0.2442 C   0  0  0  0  0  0  0  0  0  0  0  0
    5.2702    0.6520    0.7914 C   0  0  0  0  0  0  0  0  0  0  0  0
    3.7571    0.4431    0.7641 C   0  0  0  0  0  0  0  0  0  0  0  0
    3.0970    0.9348   -0.5214 C   0  0  0  0  0  0  0  0  0  0  0  0
    1.6682    0.8260   -0.4085 O   0  0  0  0  0  0  0  0  0  0  0  0
    1.1389   -0.3745   -0.7507 C   0  0  0  0  0  0  0  0  0  0  0  0
    1.7621   -1.3515   -1.1353 O   0  0  0  0  0  0  0  0  0  0  0  0
   -0.3408   -0.3595   -0.5923 C   0  0  0  0  0  0  0  0  0  0  0  0
   -1.0414    0.7658   -0.1451 C   0  0  0  0  0  0  0  0  0  0  0  0
   -2.4363    0.7270   -0.0127 C   0  0  0  0  0  0  0  0  0  0  0  0
   -3.1491   -0.4323   -0.3244 C   0  0  0  0  0  0  0  0  0  0  0  0
   -4.5498   -0.5510   -0.2171 N   0  0  0  0  0  0  0  0  0  0  0  0
   -5.4488    0.4195    0.1878 C   0  0  0  0  0  0  0  0  0  0  0  0
   -6.8726   -0.0790    0.1714 C   0  0  0  0  0  0  0  0  0  0  0  0
   -5.1931    1.5741    0.5098 O   0  0  0  0  0  0  0  0  0  0  0  0
   -2.4450   -1.5576   -0.7712 C   0  0  0  0  0  0  0  0  0  0  0  0
   -1.0525   -1.5231   -0.9047 C   0  0  0  0  0  0  0  0  0  0  0  0
    5.7642    0.1346   -1.2625 H   0  0  0  0  0  0  0  0  0  0  0  0
    5.7748   -1.2412   -0.1401 H   0  0  0  0  0  0  0  0  0  0  0  0
    7.0936   -0.0588   -0.1160 H   0  0  0  0  0  0  0  0  0  0  0  0
    5.6411    0.3802    1.7869 H   0  0  0  0  0  0  0  0  0  0  0  0
    5.5038    1.7129    0.6451 H   0  0  0  0  0  0  0  0  0  0  0  0
    3.3085    0.9721    1.6146 H   0  0  0  0  0  0  0  0  0  0  0  0
    3.5230   -0.6166    0.9228 H   0  0  0  0  0  0  0  0  0  0  0  0
    3.3209    1.9959   -0.6756 H   0  0  0  0  0  0  0  0  0  0  0  0
    3.4560    0.3990   -1.4070 H   0  0  0  0  0  0  0  0  0  0  0  0
   -0.5211    1.6868    0.1074 H   0  0  0  0  0  0  0  0  0  0  0  0
   -2.9341    1.6258    0.3391 H   0  0  0  0  0  0  0  0  0  0  0  0
   -4.9387   -1.4494   -0.4746 H   0  0  0  0  0  0  0  0  0  0  0  0
   -6.9263   -1.1211    0.4997 H   0  0  0  0  0  0  0  0  0  0  0  0
   -7.2754    0.0094   -0.8409 H   0  0  0  0  0  0  0  0  0  0  0  0
   -7.4761    0.5231    0.8567 H   0  0  0  0  0  0  0  0  0  0  0  0
   -2.9649   -2.4786   -1.0229 H   0  0  0  0  0  0  0  0  0  0  0  0
   -0.5264   -2.4099   -1.2539 H   0  0  0  0  0  0  0  0  0  0  0  0
  1  2  1  0
  2  3  1  0
  3  4  1  0
  4  5  1  0
  5  6  1  0
  6  7  2  0
  6  8  1  0
  8  9  2  0
  9 10  1  0
 10 11  2  0
 11 12  1  0
 12 13  1  0
 13 14  1  0
 13 15  2  0
 11 16  1  0
 16 17  2  0
 17  8  1  0
  1 18  1  0
  1 19  1  0
  1 20  1  0
  2 21  1  0
  2 22  1  0
  3 23  1  0
  3 24  1  0
  4 25  1  0
  4 26  1  0
  9 27  1  0
 10 28  1  0
 12 29  1  0
 14 30  1  0
 14 31  1  0
 14 32  1  0
 16 33  1  0
 17 34  1  0
M  END
$$$$
