
     RDKit          3D

 53 55  0  0  0  0  0  0  0  0999 V2000
    8.9277    1.6312    0.6054 C   0  0  0  0  0  0  0  0  0  0  0  0
    8.2590    0.6743   -0.2055 O   0  0  0  0  0  0  0  0  0  0  0  0
    7.2109    0.0064    0.3648 C   0  0  0  0  0  0  0  0  0  0  0  0
    6.5687   -0.9018   -0.4791 C   0  0  0  0  0  0  0  0  0  0  0  0
    5.4827   -1.6531   -0.0243 C   0  0  0  0  0  0  0  0  0  0  0  0
    5.0263   -1.5127    1.2918 C   0  0  0  0  0  0  0  0  0  0  0  0
    3.8400   -2.3046    1.7748 C   0  0  0  0  0  0  0  0  0  0  0  0
    2.6123   -1.6029    1.5087 N   0  0  0  0  0  0  0  0  0  0  0  0
    1.8646   -1.8295    0.3783 C   0  0  0  0  0  0  0  0  0  0  0  0
    2.0417   -2.7152   -0.4464 O   0  0  0  0  0  0  0  0  0  0  0  0
    0.7045   -0.8228    0.2009 C   0  0  0  0  0  0  0  0  0  0  0  0
    0.4843    0.0205    1.0584 O   0  0  0  0  0  0  0  0  0  0  0  0
   -0.0151   -1.0001   -0.9564 N   0  0  0  0  0  0  0  0  0  0  0  0
   -1.2486   -0.2741   -1.2070 C   0  0  0  0  0  0  0  0  0  0  0  0
   -2.4210   -0.7297   -0.3170 C   0  0  0  0  0  0  0  0  0  0  0  0
   -2.6345   -2.1448   -0.5113 O   0  0  0  0  0  0  0  0  0  0  0  0
   -4.0108   -2.3506   -0.1909 C   0  0  0  0  0  0  0  0  0  0  0  0
   -4.6978   -1.1575   -0.8154 C   0  0  0  0  0  0  0  0  0  0  0  0
   -3.6891   -0.0801   -0.7284 N   0  0  0  0  0  0  0  0  0  0  0  0
   -4.0824    1.2723    0.2048 S   0  0  0  0  0  6  0  0  0  0  0  0
   -4.5658    0.7853    1.4792 O   0  0  0  0  0  0  0  0  0  0  0  0
   -2.9874    2.2115    0.1186 O   0  0  0  0  0  0  0  0  0  0  0  0
   -5.4476    1.9672   -0.6911 C   0  0  0  0  0  0  0  0  0  0  0  0
   -5.2207    2.4967   -1.9653 C   0  0  0  0  0  0  0  0  0  0  0  0
   -6.2854    3.0459   -2.6783 C   0  0  0  0  0  0  0  0  0  0  0  0
   -7.5639    3.0672   -2.1171 C   0  0  0  0  0  0  0  0  0  0  0  0
   -7.7825    2.5446   -0.8407 C   0  0  0  0  0  0  0  0  0  0  0  0
   -6.7227    1.9938   -0.1202 C   0  0  0  0  0  0  0  0  0  0  0  0
    5.6663   -0.5931    2.1331 C   0  0  0  0  0  0  0  0  0  0  0  0
    6.7539    0.1591    1.6737 C   0  0  0  0  0  0  0  0  0  0  0  0
    8.2504    2.4381    0.9042 H   0  0  0  0  0  0  0  0  0  0  0  0
    9.3880    1.1573    1.4786 H   0  0  0  0  0  0  0  0  0  0  0  0
    9.7295    2.0742    0.0064 H   0  0  0  0  0  0  0  0  0  0  0  0
    6.9141   -1.0230   -1.5029 H   0  0  0  0  0  0  0  0  0  0  0  0
    4.9910   -2.3458   -0.7052 H   0  0  0  0  0  0  0  0  0  0  0  0
    3.9031   -2.4614    2.8571 H   0  0  0  0  0  0  0  0  0  0  0  0
    3.8236   -3.2939    1.3030 H   0  0  0  0  0  0  0  0  0  0  0  0
    2.3948   -0.7563    2.0263 H   0  0  0  0  0  0  0  0  0  0  0  0
    0.1758   -1.8548   -1.4739 H   0  0  0  0  0  0  0  0  0  0  0  0
   -1.4882   -0.4388   -2.2636 H   0  0  0  0  0  0  0  0  0  0  0  0
   -1.0524    0.7938   -1.0654 H   0  0  0  0  0  0  0  0  0  0  0  0
   -2.2018   -0.5777    0.7465 H   0  0  0  0  0  0  0  0  0  0  0  0
   -4.1241   -2.3642    0.8993 H   0  0  0  0  0  0  0  0  0  0  0  0
   -4.3575   -3.3033   -0.6001 H   0  0  0  0  0  0  0  0  0  0  0  0
   -5.6486   -0.9362   -0.3255 H   0  0  0  0  0  0  0  0  0  0  0  0
   -4.8957   -1.3363   -1.8778 H   0  0  0  0  0  0  0  0  0  0  0  0
   -4.2226    2.4877   -2.3983 H   0  0  0  0  0  0  0  0  0  0  0  0
   -6.1198    3.4627   -3.6690 H   0  0  0  0  0  0  0  0  0  0  0  0
   -8.3918    3.5004   -2.6737 H   0  0  0  0  0  0  0  0  0  0  0  0
   -8.7787    2.5740   -0.4063 H   0  0  0  0  0  0  0  0  0  0  0  0
   -6.8976    1.5981    0.8777 H   0  0  0  0  0  0  0  0  0  0  0  0
    5.3224   -0.4540    3.1558 H   0  0  0  0  0  0  0  0  0  0  0  0
    7.2185    0.8559    2.3629 H   0  0  0  0  0  0  0  0  0  0  0  0
  1  2  1  0
  2  3  1  0
  3  4  2  0
  4  5  1  0
  5  6  2  0
  6  7  1  0
  7  8  1  0
  8  9  1  0
  9 10  2  0
  9 11  1  0
 11 12  2  0
 11 13  1  0
 13 14  1  0
 14 15  1  0
 15 16  1  0
 16 17  1  0
 17 18  1  0
 18 19  1  0
 19 20  1  0
 20 21  2  0
 20 22  2  0
 20 23  1  0
 23 24  2  0
 24 25  1  0
 25 26  2  0
 26 27  1  0
 27 28  2  0
  6 29  1  0
 29 30  2  0
 30  3  1  0
 19 15  1  0
 28 23  1  0
  1 31  1  0
  1 32  1  0
  1 33  1  0
  4 34  1  0
  5 35  1  0
  7 36  1  0
  7 37  1  0
  8 38  1  0
 13 39  1  0
 14 40  1  0
 14 41  1  0
 15 42  1  0
 17 43  1  0
 17 44  1  0
 18 45  1  0
 18 46  1  0
 24 47  1  0
 25 48  1  0
 26 49  1  0
 27 50  1  0
 28 51  1  0
 29 52  1  0
 30 53  1  0
M  END
$$$$
