
     RDKit          3D

 37 39  0  0  0  0  0  0  0  0999 V2000
   -3.9940   -1.7066    1.9777 C   0  0  0  0  0  0  0  0  0  0  0  0
   -4.4682   -1.5692    0.5415 C   0  0  0  0  0  0  0  0  0  0  0  0
   -4.2079   -0.2481   -0.0081 N   0  0  0  0  0  0  0  0  0  0  0  0
   -5.2379    0.6288   -0.0638 N   0  0  0  0  0  0  0  0  0  0  0  0
   -4.7023    1.7159   -0.6165 C   0  0  0  0  0  0  0  0  0  0  0  0
   -3.3399    1.5435   -0.8830 C   0  0  0  0  0  0  0  0  0  0  0  0
   -2.2910    2.8555   -1.7110 Br  0  0  0  0  0  0  0  0  0  0  0  0
   -3.0085    0.2712   -0.4586 C   0  0  0  0  0  0  0  0  0  0  0  0
   -1.7532   -0.4573   -0.4655 C   0  0  0  0  0  0  0  0  0  0  0  0
   -1.7375   -1.6803   -0.5377 O   0  0  0  0  0  0  0  0  0  0  0  0
   -0.6413    0.3519   -0.3349 N   0  0  0  0  0  0  0  0  0  0  0  0
    0.6953   -0.0265   -0.3100 C   0  0  0  0  0  0  0  0  0  0  0  0
    1.1675   -1.6480   -0.6017 S   0  0  0  0  0  0  0  0  0  0  0  0
    2.7706   -1.2539   -0.3923 C   0  0  0  0  0  0  0  0  0  0  0  0
    2.9923    0.0675   -0.1207 C   0  0  0  0  0  0  0  0  0  0  0  0
    1.7834    0.8261   -0.0814 C   0  0  0  0  0  0  0  0  0  0  0  0
    1.6095    2.2532    0.1777 C   0  0  0  0  0  0  0  0  0  0  0  0
    2.7263    3.0334    0.1025 N   0  0  0  0  0  0  0  0  0  0  0  0
    0.5177    2.7630    0.4158 O   0  0  0  0  0  0  0  0  0  0  0  0
    4.4462    0.3158    0.0763 C   0  0  0  0  0  0  0  0  0  0  0  0
    5.0217   -1.1263    0.2291 C   0  0  0  0  0  0  0  0  0  0  0  0
    3.9929   -2.0887   -0.4329 C   0  0  0  0  0  0  0  0  0  0  0  0
   -4.4781   -0.9659    2.6230 H   0  0  0  0  0  0  0  0  0  0  0  0
   -4.2339   -2.7028    2.3620 H   0  0  0  0  0  0  0  0  0  0  0  0
   -2.9122   -1.5626    2.0607 H   0  0  0  0  0  0  0  0  0  0  0  0
   -5.5506   -1.7385    0.4929 H   0  0  0  0  0  0  0  0  0  0  0  0
   -4.0068   -2.3135   -0.1127 H   0  0  0  0  0  0  0  0  0  0  0  0
   -5.3323    2.5762   -0.8016 H   0  0  0  0  0  0  0  0  0  0  0  0
   -0.8000    1.3445   -0.1664 H   0  0  0  0  0  0  0  0  0  0  0  0
    2.5716    4.0318    0.1472 H   0  0  0  0  0  0  0  0  0  0  0  0
    3.5628    2.7100   -0.3570 H   0  0  0  0  0  0  0  0  0  0  0  0
    4.6588    0.9169    0.9646 H   0  0  0  0  0  0  0  0  0  0  0  0
    4.8743    0.8022   -0.8066 H   0  0  0  0  0  0  0  0  0  0  0  0
    5.0998   -1.3669    1.2977 H   0  0  0  0  0  0  0  0  0  0  0  0
    6.0223   -1.2233   -0.2034 H   0  0  0  0  0  0  0  0  0  0  0  0
    4.2803   -2.3079   -1.4663 H   0  0  0  0  0  0  0  0  0  0  0  0
    3.9025   -3.0214    0.1304 H   0  0  0  0  0  0  0  0  0  0  0  0
  1  2  1  0
  2  3  1  0
  3  4  1  0
  4  5  2  0
  5  6  1  0
  6  7  1  0
  6  8  2  0
  8  9  1  0
  9 10  2  0
  9 11  1  0
 11 12  1  0
 12 13  1  0
 13 14  1  0
 14 15  2  0
 15 16  1  0
 16 17  1  0
 17 18  1  0
 17 19  2  0
 15 20  1  0
 20 21  1  0
 21 22  1  0
  8  3  1  0
 16 12  2  0
 22 14  1  0
  1 23  1  0
  1 24  1  0
  1 25  1  0
  2 26  1  0
  2 27  1  0
  5 28  1  0
 11 29  1  0
 18 30  1  0
 18 31  1  0
 20 32  1  0
 20 33  1  0
 21 34  1  0
 21 35  1  0
 22 36  1  0
 22 37  1  0
M  END
$$$$
