
     RDKit          3D

 56 61  0  0  0  0  0  0  0  0999 V2000
   -4.9547   -2.9865    1.3255 C   0  0  0  0  0  0  0  0  0  0  0  0
   -3.5693   -2.4415    1.5050 C   0  0  0  0  0  0  0  0  0  0  0  0
   -3.0387   -2.1854    2.7842 C   0  0  0  0  0  0  0  0  0  0  0  0
   -3.9654   -2.4842    4.2149 Cl  0  0  0  0  0  0  0  0  0  0  0  0
   -1.7360   -1.6765    2.9560 C   0  0  0  0  0  0  0  0  0  0  0  0
   -0.9208   -1.4100    1.8561 C   0  0  0  0  0  0  0  0  0  0  0  0
   -1.4328   -1.6585    0.5921 C   0  0  0  0  0  0  0  0  0  0  0  0
   -2.7309   -2.1665    0.4314 C   0  0  0  0  0  0  0  0  0  0  0  0
   -3.0026   -2.3280   -0.9253 N   0  0  0  0  0  0  0  0  0  0  0  0
   -1.9183   -1.9572   -1.7257 C   0  0  0  0  0  0  0  0  0  0  0  0
   -1.9098   -2.0100   -2.9462 O   0  0  0  0  0  0  0  0  0  0  0  0
   -0.7991   -1.4846   -0.7612 C   0  0  0  0  0  0  0  0  0  0  0  0
    0.4690   -2.2602   -0.9591 N   0  0  0  0  0  0  0  0  0  0  0  0
    1.4688   -1.3595   -1.6411 C   0  0  2  0  0  0  0  0  0  0  0  0
    2.9120   -1.5418   -1.1213 C   0  0  0  0  0  0  0  0  0  0  0  0
    3.0998   -1.4464    0.3802 C   0  0  0  0  0  0  0  0  0  0  0  0
    3.1724   -2.6115    1.1589 C   0  0  0  0  0  0  0  0  0  0  0  0
    3.3139   -2.5316    2.5450 C   0  0  0  0  0  0  0  0  0  0  0  0
    3.3899   -1.2881    3.1679 C   0  0  0  0  0  0  0  0  0  0  0  0
    3.3295   -0.1243    2.4048 C   0  0  0  0  0  0  0  0  0  0  0  0
    3.1884   -0.2020    1.0182 C   0  0  0  0  0  0  0  0  0  0  0  0
    0.8889   -0.0076   -1.4527 C   0  0  0  0  0  0  0  0  0  0  0  0
   -0.4047   -0.0789   -0.9450 C   0  0  0  0  0  0  0  0  0  0  0  0
   -0.8891    1.1949   -0.7852 C   0  0  0  0  0  0  0  0  0  0  0  0
   -2.0470    1.6033   -0.2705 O   0  0  0  0  0  0  0  0  0  0  0  0
    0.1155    2.0884   -1.2217 N   0  0  0  0  0  0  0  0  0  0  0  0
    0.0445    3.5256   -1.2151 C   0  0  0  0  0  0  0  0  0  0  0  0
    1.2132    4.3015   -1.1841 C   0  0  0  0  0  0  0  0  0  0  0  0
    1.1452    5.6990   -1.1728 C   0  0  0  0  0  0  0  0  0  0  0  0
   -0.0892    6.3404   -1.1940 C   0  0  0  0  0  0  0  0  0  0  0  0
   -1.2570    5.5846   -1.2259 C   0  0  0  0  0  0  0  0  0  0  0  0
   -1.1921    4.1870   -1.2354 C   0  0  0  0  0  0  0  0  0  0  0  0
    1.2050    1.3077   -1.6701 C   0  0  0  0  0  0  0  0  0  0  0  0
    2.2866    1.8349   -2.2387 O   0  0  0  0  0  0  0  0  0  0  0  0
   -5.6907   -2.3095    1.7714 H   0  0  0  0  0  0  0  0  0  0  0  0
   -5.2261   -3.1029    0.2727 H   0  0  0  0  0  0  0  0  0  0  0  0
   -5.0374   -3.9735    1.7921 H   0  0  0  0  0  0  0  0  0  0  0  0
   -1.3534   -1.4869    3.9573 H   0  0  0  0  0  0  0  0  0  0  0  0
    0.0825   -1.0152    1.9938 H   0  0  0  0  0  0  0  0  0  0  0  0
   -3.8540   -2.6891   -1.3287 H   0  0  0  0  0  0  0  0  0  0  0  0
    0.8288   -2.4476   -0.0252 H   0  0  0  0  0  0  0  0  0  0  0  0
    1.4520   -1.5961   -2.7127 H   0  0  0  0  0  0  0  0  0  0  0  0
    3.5772   -0.8104   -1.5983 H   0  0  0  0  0  0  0  0  0  0  0  0
    3.2777   -2.5232   -1.4528 H   0  0  0  0  0  0  0  0  0  0  0  0
    3.1163   -3.5923    0.6901 H   0  0  0  0  0  0  0  0  0  0  0  0
    3.3691   -3.4406    3.1387 H   0  0  0  0  0  0  0  0  0  0  0  0
    3.5040   -1.2253    4.2470 H   0  0  0  0  0  0  0  0  0  0  0  0
    3.3951    0.8475    2.8881 H   0  0  0  0  0  0  0  0  0  0  0  0
    3.1482    0.7212    0.4441 H   0  0  0  0  0  0  0  0  0  0  0  0
   -2.5405    0.8236    0.0371 H   0  0  0  0  0  0  0  0  0  0  0  0
    2.1983    3.8486   -1.1328 H   0  0  0  0  0  0  0  0  0  0  0  0
    2.0611    6.2833   -1.1425 H   0  0  0  0  0  0  0  0  0  0  0  0
   -0.1412    7.4255   -1.1869 H   0  0  0  0  0  0  0  0  0  0  0  0
   -2.2245    6.0793   -1.2508 H   0  0  0  0  0  0  0  0  0  0  0  0
   -2.1299    3.6439   -1.2973 H   0  0  0  0  0  0  0  0  0  0  0  0
    2.8023    1.1135   -2.6370 H   0  0  0  0  0  0  0  0  0  0  0  0
  1  2  1  0
  2  3  2  0
  3  4  1  0
  3  5  1  0
  5  6  2  0
  6  7  1  0
  7  8  2  0
  8  9  1  0
  9 10  1  0
 10 11  2  0
 10 12  1  0
 12 13  1  0
 13 14  1  0
 14 15  1  0
 15 16  1  0
 16 17  2  0
 17 18  1  0
 18 19  2  0
 19 20  1  0
 20 21  2  0
 14 22  1  0
 22 23  1  0
 23 24  2  0
 24 25  1  0
 24 26  1  0
 26 27  1  0
 27 28  2  0
 28 29  1  0
 29 30  2  0
 30 31  1  0
 31 32  2  0
 26 33  1  0
 33 34  1  0
  8  2  1  0
 23 12  1  0
 32 27  1  0
 12  7  1  0
 21 16  1  0
 33 22  2  0
  1 35  1  0
  1 36  1  0
  1 37  1  0
  5 38  1  0
  6 39  1  0
  9 40  1  0
 13 41  1  0
 14 42  1  6
 15 43  1  0
 15 44  1  0
 17 45  1  0
 18 46  1  0
 19 47  1  0
 20 48  1  0
 21 49  1  0
 25 50  1  0
 28 51  1  0
 29 52  1  0
 30 53  1  0
 31 54  1  0
 32 55  1  0
 34 56  1  0
M  END
$$$$
