
     RDKit          3D

 44 44  0  0  0  0  0  0  0  0999 V2000
   -4.5823    0.2295    2.1166 C   0  0  0  0  0  0  0  0  0  0  0  0
   -4.4578   -0.5737    0.8295 C   0  0  0  0  0  0  0  0  0  0  0  0
   -3.9521    0.2641   -0.2661 N   0  0  0  0  0  0  0  0  0  0  0  0
   -4.9730    0.9021   -1.1069 C   0  0  0  0  0  0  0  0  0  0  0  0
   -5.3452    0.0163   -2.2875 C   0  0  0  0  0  0  0  0  0  0  0  0
   -2.5899    0.4041   -0.5176 C   0  0  0  0  0  0  0  0  0  0  0  0
   -2.1002    1.0688   -1.6550 C   0  0  0  0  0  0  0  0  0  0  0  0
   -0.7300    1.2030   -1.9164 C   0  0  0  0  0  0  0  0  0  0  0  0
    0.2081    0.6832   -1.0327 C   0  0  0  0  0  0  0  0  0  0  0  0
   -0.2291    0.0394    0.1168 C   0  0  0  0  0  0  0  0  0  0  0  0
    0.5836   -0.5206    1.0659 O   0  0  0  0  0  0  0  0  0  0  0  0
    1.8640    0.0713    1.2386 C   0  0  0  0  0  0  0  0  0  0  0  0
    2.9993   -0.5476    0.4065 C   0  0  0  0  0  0  0  0  0  0  0  0
    2.8077   -1.5028   -0.3487 O   0  0  0  0  0  0  0  0  0  0  0  0
    4.2695    0.0192    0.5282 N   0  0  0  0  0  0  0  0  0  0  0  0
    4.6460    1.0295    1.5084 C   0  0  0  0  0  0  0  0  0  0  0  0
    5.3524   -0.5477   -0.2838 C   0  0  0  0  0  0  0  0  0  0  0  0
    5.9151   -1.8432    0.3011 C   0  0  0  0  0  0  0  0  0  0  0  0
    7.0646   -2.2998   -0.4860 C   0  0  0  0  0  0  0  0  0  0  0  0
    7.9880   -2.6416   -1.0999 N   0  0  0  0  0  0  0  0  0  0  0  0
   -1.6061   -0.1069    0.3502 C   0  0  0  0  0  0  0  0  0  0  0  0
   -4.9773   -0.4017    2.9185 H   0  0  0  0  0  0  0  0  0  0  0  0
   -3.6163    0.6272    2.4425 H   0  0  0  0  0  0  0  0  0  0  0  0
   -5.2626    1.0777    1.9857 H   0  0  0  0  0  0  0  0  0  0  0  0
   -3.8405   -1.4663    0.9814 H   0  0  0  0  0  0  0  0  0  0  0  0
   -5.4506   -0.9628    0.5689 H   0  0  0  0  0  0  0  0  0  0  0  0
   -5.8775    1.0841   -0.5122 H   0  0  0  0  0  0  0  0  0  0  0  0
   -4.6589    1.8956   -1.4457 H   0  0  0  0  0  0  0  0  0  0  0  0
   -6.1166    0.5013   -2.8936 H   0  0  0  0  0  0  0  0  0  0  0  0
   -4.4847   -0.1854   -2.9323 H   0  0  0  0  0  0  0  0  0  0  0  0
   -5.7383   -0.9475   -1.9479 H   0  0  0  0  0  0  0  0  0  0  0  0
   -2.7765    1.4870   -2.3936 H   0  0  0  0  0  0  0  0  0  0  0  0
   -0.4024    1.7034   -2.8240 H   0  0  0  0  0  0  0  0  0  0  0  0
    1.2592    0.7699   -1.2813 H   0  0  0  0  0  0  0  0  0  0  0  0
    1.8237    1.1554    1.0771 H   0  0  0  0  0  0  0  0  0  0  0  0
    2.1222   -0.0913    2.2914 H   0  0  0  0  0  0  0  0  0  0  0  0
    5.3752    0.5931    2.1977 H   0  0  0  0  0  0  0  0  0  0  0  0
    3.7992    1.3982    2.0869 H   0  0  0  0  0  0  0  0  0  0  0  0
    5.1033    1.8728    0.9818 H   0  0  0  0  0  0  0  0  0  0  0  0
    4.9663   -0.7371   -1.2939 H   0  0  0  0  0  0  0  0  0  0  0  0
    6.1374    0.2119   -0.3904 H   0  0  0  0  0  0  0  0  0  0  0  0
    5.1453   -2.6224    0.3230 H   0  0  0  0  0  0  0  0  0  0  0  0
    6.2241   -1.6800    1.3400 H   0  0  0  0  0  0  0  0  0  0  0  0
   -1.8864   -0.6294    1.2591 H   0  0  0  0  0  0  0  0  0  0  0  0
  1  2  1  0
  2  3  1  0
  3  4  1  0
  4  5  1  0
  3  6  1  0
  6  7  2  0
  7  8  1  0
  8  9  2  0
  9 10  1  0
 10 11  1  0
 11 12  1  0
 12 13  1  0
 13 14  2  0
 13 15  1  0
 15 16  1  0
 15 17  1  0
 17 18  1  0
 18 19  1  0
 19 20  3  0
 10 21  2  0
 21  6  1  0
  1 22  1  0
  1 23  1  0
  1 24  1  0
  2 25  1  0
  2 26  1  0
  4 27  1  0
  4 28  1  0
  5 29  1  0
  5 30  1  0
  5 31  1  0
  7 32  1  0
  8 33  1  0
  9 34  1  0
 12 35  1  0
 12 36  1  0
 16 37  1  0
 16 38  1  0
 16 39  1  0
 17 40  1  0
 17 41  1  0
 18 42  1  0
 18 43  1  0
 21 44  1  0
M  END
$$$$
