
     RDKit          3D

 97 99  0  0  0  0  0  0  0  0999 V2000
   -3.7299    3.6218   -2.5037 C   0  0  0  0  0  0  0  0  0  0  0  0
   -2.6885    2.6201   -2.1092 C   0  0  0  0  0  0  0  0  0  0  0  0
   -1.8235    2.1930   -2.8603 O   0  0  0  0  0  0  0  0  0  0  0  0
   -2.8300    2.2881   -0.8003 O   0  0  0  0  0  0  0  0  0  0  0  0
   -1.8696    1.3512   -0.2264 C   0  0  1  0  0  0  0  0  0  0  0  0
   -0.7672    2.1603    0.5133 C   0  0  2  0  0  0  0  0  0  0  0  0
    0.0768    2.8289   -0.4600 O   0  0  0  0  0  0  0  0  0  0  0  0
   -0.2306    4.1111   -0.7785 C   0  0  0  0  0  0  0  0  0  0  0  0
    0.6936    4.6294   -1.8368 C   0  0  0  0  0  0  0  0  0  0  0  0
   -1.1286    4.7747   -0.2777 O   0  0  0  0  0  0  0  0  0  0  0  0
    0.2120    1.4331    1.4335 C   0  0  0  0  0  0  0  0  0  0  0  0
    0.4333    2.1837    2.7328 C   0  0  0  0  0  0  0  0  0  0  0  0
    0.9226    0.2993    1.2284 C   0  0  0  0  0  0  0  0  0  0  0  0
    0.9934   -0.6707    0.0411 C   0  0  1  0  0  0  0  0  0  0  0  0
    2.3312   -0.5684   -0.7306 C   0  0  1  0  0  0  0  0  0  0  0  0
    2.8042    0.7813   -0.7697 O   0  0  0  0  0  0  0  0  0  0  0  0
    3.5247    1.1432   -1.8569 C   0  0  0  0  0  0  0  0  0  0  0  0
    3.7622    0.4427   -2.8271 O   0  0  0  0  0  0  0  0  0  0  0  0
    4.0100    2.5409   -1.7037 C   0  0  0  0  0  0  0  0  0  0  0  0
    3.8890    3.2480   -0.4985 C   0  0  0  0  0  0  0  0  0  0  0  0
    4.3750    4.5538   -0.3997 C   0  0  0  0  0  0  0  0  0  0  0  0
    4.9797    5.1593   -1.5007 C   0  0  0  0  0  0  0  0  0  0  0  0
    5.1041    4.4616   -2.7016 C   0  0  0  0  0  0  0  0  0  0  0  0
    4.6237    3.1545   -2.8037 C   0  0  0  0  0  0  0  0  0  0  0  0
    3.3061   -1.5394   -0.0270 C   0  0  1  0  0  0  0  0  0  0  0  0
    4.4964   -0.8967    0.6758 C   0  0  0  0  0  0  0  0  0  0  0  0
    2.4452   -2.3536    0.9547 C   0  0  0  0  0  0  0  0  0  0  0  0
    0.9778   -2.1816    0.4839 C   0  0  1  0  0  0  0  0  0  0  0  0
    0.0151   -2.2962    1.5720 O   0  0  0  0  0  0  0  0  0  0  0  0
    0.1236   -3.2509    2.5321 C   0  0  0  0  0  0  0  0  0  0  0  0
   -1.0074   -3.1194    3.5055 C   0  0  0  0  0  0  0  0  0  0  0  0
    0.9948   -4.1037    2.6162 O   0  0  0  0  0  0  0  0  0  0  0  0
    0.6340   -3.2051   -0.6748 C   0  0  1  0  0  0  0  0  0  0  0  0
    0.5143   -4.5345   -0.1023 O   0  0  0  0  0  0  0  0  0  0  0  0
    1.4944   -5.4340   -0.3815 C   0  0  0  0  0  0  0  0  0  0  0  0
    1.2360   -6.7215    0.3383 C   0  0  0  0  0  0  0  0  0  0  0  0
    2.4622   -5.2278   -1.0993 O   0  0  0  0  0  0  0  0  0  0  0  0
   -0.6542   -2.9441   -1.5209 C   0  0  1  0  0  0  0  0  0  0  0  0
   -1.0187   -4.1404   -2.4066 C   0  0  0  0  0  0  0  0  0  0  0  0
   -1.8532   -2.5473   -0.6919 C   0  0  0  0  0  0  0  0  0  0  0  0
   -2.5725   -1.4501   -0.9767 C   0  0  0  0  0  0  0  0  0  0  0  0
   -3.5203   -0.7117   -0.0385 C   0  0  0  0  0  0  0  0  0  0  0  0
   -4.1643   -1.6457    1.0120 C   0  0  0  0  0  0  0  0  0  0  0  0
   -4.6782   -0.1225   -0.8669 C   0  0  0  0  0  0  0  0  0  0  0  0
   -2.6626    0.3869    0.7071 C   0  0  2  0  0  0  0  0  0  0  0  0
   -3.5252    1.1833    1.5608 O   0  0  0  0  0  0  0  0  0  0  0  0
   -3.3936    1.0432    2.9052 C   0  0  0  0  0  0  0  0  0  0  0  0
   -4.3558    1.9526    3.6062 C   0  0  0  0  0  0  0  0  0  0  0  0
   -2.6201    0.2872    3.4737 O   0  0  0  0  0  0  0  0  0  0  0  0
   -3.8618    3.5979   -3.5897 H   0  0  0  0  0  0  0  0  0  0  0  0
   -4.6899    3.3679   -2.0450 H   0  0  0  0  0  0  0  0  0  0  0  0
   -3.4145    4.6207   -2.1932 H   0  0  0  0  0  0  0  0  0  0  0  0
   -1.3906    0.8041   -1.0376 H   0  0  0  0  0  0  0  0  0  0  0  0
   -1.2884    2.9159    1.1163 H   0  0  0  0  0  0  0  0  0  0  0  0
    1.0862    3.8074   -2.4422 H   0  0  0  0  0  0  0  0  0  0  0  0
    0.1360    5.2922   -2.5043 H   0  0  0  0  0  0  0  0  0  0  0  0
    1.5139    5.1769   -1.3698 H   0  0  0  0  0  0  0  0  0  0  0  0
    0.8199    3.1878    2.5256 H   0  0  0  0  0  0  0  0  0  0  0  0
    1.1490    1.6855    3.3953 H   0  0  0  0  0  0  0  0  0  0  0  0
   -0.5092    2.2794    3.2820 H   0  0  0  0  0  0  0  0  0  0  0  0
    1.5962    0.0156    2.0387 H   0  0  0  0  0  0  0  0  0  0  0  0
    0.1748   -0.4478   -0.6378 H   0  0  0  0  0  0  0  0  0  0  0  0
    2.1429   -0.9305   -1.7509 H   0  0  0  0  0  0  0  0  0  0  0  0
    3.4214    2.7932    0.3717 H   0  0  0  0  0  0  0  0  0  0  0  0
    4.2819    5.0980    0.5370 H   0  0  0  0  0  0  0  0  0  0  0  0
    5.3582    6.1758   -1.4222 H   0  0  0  0  0  0  0  0  0  0  0  0
    5.5794    4.9330   -3.5585 H   0  0  0  0  0  0  0  0  0  0  0  0
    4.7312    2.6149   -3.7430 H   0  0  0  0  0  0  0  0  0  0  0  0
    3.7030   -2.2246   -0.7874 H   0  0  0  0  0  0  0  0  0  0  0  0
    5.1561   -0.4018   -0.0435 H   0  0  0  0  0  0  0  0  0  0  0  0
    4.1762   -0.1543    1.4138 H   0  0  0  0  0  0  0  0  0  0  0  0
    5.0888   -1.6553    1.1984 H   0  0  0  0  0  0  0  0  0  0  0  0
    2.7728   -3.3973    0.9687 H   0  0  0  0  0  0  0  0  0  0  0  0
    2.5710   -1.9899    1.9821 H   0  0  0  0  0  0  0  0  0  0  0  0
   -0.8367   -3.7907    4.3523 H   0  0  0  0  0  0  0  0  0  0  0  0
   -1.9459   -3.3966    3.0211 H   0  0  0  0  0  0  0  0  0  0  0  0
   -1.0547   -2.0962    3.8865 H   0  0  0  0  0  0  0  0  0  0  0  0
    1.4583   -3.1902   -1.3986 H   0  0  0  0  0  0  0  0  0  0  0  0
    0.1704   -6.9665    0.3025 H   0  0  0  0  0  0  0  0  0  0  0  0
    1.7809   -7.5287   -0.1604 H   0  0  0  0  0  0  0  0  0  0  0  0
    1.5717   -6.6385    1.3747 H   0  0  0  0  0  0  0  0  0  0  0  0
   -0.4089   -2.1127   -2.1966 H   0  0  0  0  0  0  0  0  0  0  0  0
   -1.8294   -3.8795   -3.0963 H   0  0  0  0  0  0  0  0  0  0  0  0
   -0.1590   -4.4506   -3.0100 H   0  0  0  0  0  0  0  0  0  0  0  0
   -1.3530   -5.0017   -1.8180 H   0  0  0  0  0  0  0  0  0  0  0  0
   -2.0224   -3.1101    0.2221 H   0  0  0  0  0  0  0  0  0  0  0  0
   -2.3584   -0.9379   -1.9177 H   0  0  0  0  0  0  0  0  0  0  0  0
   -4.9410   -1.1263    1.5845 H   0  0  0  0  0  0  0  0  0  0  0  0
   -4.6376   -2.5130    0.5366 H   0  0  0  0  0  0  0  0  0  0  0  0
   -3.4280   -2.0187    1.7307 H   0  0  0  0  0  0  0  0  0  0  0  0
   -5.3068    0.5427   -0.2652 H   0  0  0  0  0  0  0  0  0  0  0  0
   -5.3252   -0.9188   -1.2557 H   0  0  0  0  0  0  0  0  0  0  0  0
   -4.3265    0.4393   -1.7364 H   0  0  0  0  0  0  0  0  0  0  0  0
   -1.9326   -0.1590    1.3150 H   0  0  0  0  0  0  0  0  0  0  0  0
   -4.1885    1.8949    4.6854 H   0  0  0  0  0  0  0  0  0  0  0  0
   -4.1912    2.9852    3.2869 H   0  0  0  0  0  0  0  0  0  0  0  0
   -5.3815    1.6416    3.3913 H   0  0  0  0  0  0  0  0  0  0  0  0
  1  2  1  0
  2  3  2  0
  2  4  1  0
  4  5  1  0
  5  6  1  0
  6  7  1  0
  7  8  1  0
  8  9  1  0
  8 10  2  0
  6 11  1  0
 11 12  1  0
 11 13  2  0
 13 14  1  0
 14 15  1  0
 15 16  1  0
 16 17  1  0
 17 18  2  0
 17 19  1  0
 19 20  2  0
 20 21  1  0
 21 22  2  0
 22 23  1  0
 23 24  2  0
 15 25  1  0
 25 26  1  0
 25 27  1  0
 27 28  1  0
 28 29  1  1
 29 30  1  0
 30 31  1  0
 30 32  2  0
 28 33  1  0
 33 34  1  0
 34 35  1  0
 35 36  1  0
 35 37  2  0
 33 38  1  0
 38 39  1  0
 38 40  1  0
 40 41  2  0
 41 42  1  0
 42 43  1  0
 42 44  1  0
 42 45  1  0
 45 46  1  0
 46 47  1  0
 47 48  1  0
 47 49  2  0
 45  5  1  0
 28 14  1  0
 24 19  1  0
  1 50  1  0
  1 51  1  0
  1 52  1  0
  5 53  1  6
  6 54  1  1
  9 55  1  0
  9 56  1  0
  9 57  1  0
 12 58  1  0
 12 59  1  0
 12 60  1  0
 13 61  1  0
 14 62  1  6
 15 63  1  6
 20 64  1  0
 21 65  1  0
 22 66  1  0
 23 67  1  0
 24 68  1  0
 25 69  1  6
 26 70  1  0
 26 71  1  0
 26 72  1  0
 27 73  1  0
 27 74  1  0
 31 75  1  0
 31 76  1  0
 31 77  1  0
 33 78  1  6
 36 79  1  0
 36 80  1  0
 36 81  1  0
 38 82  1  6
 39 83  1  0
 39 84  1  0
 39 85  1  0
 40 86  1  0
 41 87  1  0
 43 88  1  0
 43 89  1  0
 43 90  1  0
 44 91  1  0
 44 92  1  0
 44 93  1  0
 45 94  1  1
 48 95  1  0
 48 96  1  0
 48 97  1  0
M  END
$$$$
