
     RDKit          3D

 74 75  0  0  0  0  0  0  0  0999 V2000
    1.1893    5.0105    4.4666 C   0  0  0  0  0  0  0  0  0  0  0  0
    1.2071    3.8621    3.6302 O   0  0  0  0  0  0  0  0  0  0  0  0
    0.0489    3.1392    3.5066 C   0  0  0  0  0  0  0  0  0  0  0  0
   -1.1179    3.4150    4.2264 C   0  0  0  0  0  0  0  0  0  0  0  0
   -2.2386    2.5959    4.1010 C   0  0  0  0  0  0  0  0  0  0  0  0
   -2.2079    1.4896    3.2553 C   0  0  0  0  0  0  0  0  0  0  0  0
   -1.0625    1.1915    2.4947 C   0  0  0  0  0  0  0  0  0  0  0  0
   -1.0044   -0.0410    1.5836 C   0  0  0  0  0  0  0  0  0  0  0  0
   -2.0976   -1.1184    1.8624 C   0  0  0  0  0  0  0  0  0  0  0  0
   -3.1212   -1.2363    1.1937 O   0  0  0  0  0  0  0  0  0  0  0  0
   -1.8413   -1.9021    2.9819 N   0  0  0  0  0  0  0  0  0  0  0  0
   -2.6633   -3.0419    3.4124 C   0  0  0  0  0  0  0  0  0  0  0  0
   -2.6393   -4.1574    2.3558 C   0  0  0  0  0  0  0  0  0  0  0  0
   -2.0600   -3.5894    4.7201 C   0  0  0  0  0  0  0  0  0  0  0  0
   -4.1127   -2.6142    3.6992 C   0  0  0  0  0  0  0  0  0  0  0  0
   -0.7833    0.2163    0.1224 N   0  0  0  0  0  0  0  0  0  0  0  0
    0.1640   -0.6713   -0.4212 C   0  0  0  0  0  0  0  0  0  0  0  0
    0.5248   -1.6862    0.1884 O   0  0  0  0  0  0  0  0  0  0  0  0
    0.8281   -0.3361   -1.7427 C   0  0  0  0  0  0  0  0  0  0  0  0
    1.8958   -1.3682   -2.1047 C   0  0  0  0  0  0  0  0  0  0  0  0
    2.6321   -1.0017   -3.3770 C   0  0  0  0  0  0  0  0  0  0  0  0
    2.4275    0.0477   -3.9785 O   0  0  0  0  0  0  0  0  0  0  0  0
    3.5347   -1.9764   -3.7389 N   0  0  0  0  0  0  0  0  0  0  0  0
    4.3592   -1.9311   -4.8402 C   0  0  0  0  0  0  0  0  0  0  0  0
    4.4932   -0.9272   -5.8242 C   0  0  0  0  0  0  0  0  0  0  0  0
    5.4528   -1.4079   -6.6802 C   0  0  0  0  0  0  0  0  0  0  0  0
    6.0765   -0.8951   -7.9121 C   0  0  0  0  0  0  0  0  0  0  0  0
    5.8711   -2.6238   -6.2405 O   0  0  0  0  0  0  0  0  0  0  0  0
    5.1895   -2.9515   -5.0831 N   0  0  0  0  0  0  0  0  0  0  0  0
   -1.7442    1.0497   -0.7160 C   0  0  0  0  0  0  0  0  0  0  0  0
   -2.8023    1.8424    0.0895 C   0  0  0  0  0  0  0  0  0  0  0  0
   -2.5495    0.1510   -1.6850 C   0  0  0  0  0  0  0  0  0  0  0  0
   -0.9933    2.1327   -1.5275 C   0  0  0  0  0  0  0  0  0  0  0  0
    0.0665    2.0345    2.6267 C   0  0  0  0  0  0  0  0  0  0  0  0
    1.1877    1.6467    1.9276 O   0  0  0  0  0  0  0  0  0  0  0  0
    1.8392    2.6935    1.2119 C   0  0  0  0  0  0  0  0  0  0  0  0
    0.4463    5.7381    4.1250 H   0  0  0  0  0  0  0  0  0  0  0  0
    1.0237    4.7342    5.5124 H   0  0  0  0  0  0  0  0  0  0  0  0
    2.1717    5.4870    4.4002 H   0  0  0  0  0  0  0  0  0  0  0  0
   -1.1841    4.2522    4.9133 H   0  0  0  0  0  0  0  0  0  0  0  0
   -3.1378    2.8136    4.6731 H   0  0  0  0  0  0  0  0  0  0  0  0
   -3.1009    0.8697    3.1909 H   0  0  0  0  0  0  0  0  0  0  0  0
   -0.0883   -0.5276    1.9514 H   0  0  0  0  0  0  0  0  0  0  0  0
   -0.8867   -1.8812    3.3237 H   0  0  0  0  0  0  0  0  0  0  0  0
   -3.0975   -3.8357    1.4145 H   0  0  0  0  0  0  0  0  0  0  0  0
   -1.6110   -4.4627    2.1304 H   0  0  0  0  0  0  0  0  0  0  0  0
   -3.1855   -5.0427    2.7009 H   0  0  0  0  0  0  0  0  0  0  0  0
   -2.6316   -4.4449    5.0973 H   0  0  0  0  0  0  0  0  0  0  0  0
   -2.0486   -2.8196    5.5016 H   0  0  0  0  0  0  0  0  0  0  0  0
   -1.0243   -3.9182    4.5719 H   0  0  0  0  0  0  0  0  0  0  0  0
   -4.6424   -2.3120    2.7896 H   0  0  0  0  0  0  0  0  0  0  0  0
   -4.6856   -3.4362    4.1439 H   0  0  0  0  0  0  0  0  0  0  0  0
   -4.1426   -1.7662    4.3939 H   0  0  0  0  0  0  0  0  0  0  0  0
    0.0983   -0.3129   -2.5510 H   0  0  0  0  0  0  0  0  0  0  0  0
    1.3032    0.6459   -1.6448 H   0  0  0  0  0  0  0  0  0  0  0  0
    1.4318   -2.3526   -2.2412 H   0  0  0  0  0  0  0  0  0  0  0  0
    2.6350   -1.4506   -1.2989 H   0  0  0  0  0  0  0  0  0  0  0  0
    3.6332   -2.8181   -3.1860 H   0  0  0  0  0  0  0  0  0  0  0  0
    3.9674    0.0126   -5.9039 H   0  0  0  0  0  0  0  0  0  0  0  0
    5.3588   -0.9145   -8.7377 H   0  0  0  0  0  0  0  0  0  0  0  0
    6.4121    0.1372   -7.7715 H   0  0  0  0  0  0  0  0  0  0  0  0
    6.9451   -1.4959   -8.1999 H   0  0  0  0  0  0  0  0  0  0  0  0
   -3.4154    1.1995    0.7237 H   0  0  0  0  0  0  0  0  0  0  0  0
   -2.3436    2.6280    0.6965 H   0  0  0  0  0  0  0  0  0  0  0  0
   -3.5025    2.3565   -0.5824 H   0  0  0  0  0  0  0  0  0  0  0  0
   -3.1953   -0.5451   -1.1429 H   0  0  0  0  0  0  0  0  0  0  0  0
   -1.9204   -0.4536   -2.3394 H   0  0  0  0  0  0  0  0  0  0  0  0
   -3.1962    0.7535   -2.3340 H   0  0  0  0  0  0  0  0  0  0  0  0
   -0.4809    1.7371   -2.4051 H   0  0  0  0  0  0  0  0  0  0  0  0
   -0.2573    2.6497   -0.9044 H   0  0  0  0  0  0  0  0  0  0  0  0
   -1.6842    2.8905   -1.9177 H   0  0  0  0  0  0  0  0  0  0  0  0
    2.2391    2.2626    0.2886 H   0  0  0  0  0  0  0  0  0  0  0  0
    1.1621    3.5083    0.9315 H   0  0  0  0  0  0  0  0  0  0  0  0
    2.6862    3.0724    1.7914 H   0  0  0  0  0  0  0  0  0  0  0  0
  1  2  1  0
  2  3  1  0
  3  4  2  0
  4  5  1  0
  5  6  2  0
  6  7  1  0
  7  8  1  0
  8  9  1  0
  9 10  2  0
  9 11  1  0
 11 12  1  0
 12 13  1  0
 12 14  1  0
 12 15  1  0
  8 16  1  0
 16 17  1  0
 17 18  2  0
 17 19  1  0
 19 20  1  0
 20 21  1  0
 21 22  2  0
 21 23  1  0
 23 24  1  0
 24 25  1  0
 25 26  2  0
 26 27  1  0
 26 28  1  0
 28 29  1  0
 16 30  1  0
 30 31  1  0
 30 32  1  0
 30 33  1  0
  7 34  2  0
 34 35  1  0
 35 36  1  0
 34  3  1  0
 29 24  2  0
  1 37  1  0
  1 38  1  0
  1 39  1  0
  4 40  1  0
  5 41  1  0
  6 42  1  0
  8 43  1  0
 11 44  1  0
 13 45  1  0
 13 46  1  0
 13 47  1  0
 14 48  1  0
 14 49  1  0
 14 50  1  0
 15 51  1  0
 15 52  1  0
 15 53  1  0
 19 54  1  0
 19 55  1  0
 20 56  1  0
 20 57  1  0
 23 58  1  0
 25 59  1  0
 27 60  1  0
 27 61  1  0
 27 62  1  0
 31 63  1  0
 31 64  1  0
 31 65  1  0
 32 66  1  0
 32 67  1  0
 32 68  1  0
 33 69  1  0
 33 70  1  0
 33 71  1  0
 36 72  1  0
 36 73  1  0
 36 74  1  0
M  END
$$$$
