
     RDKit          3D

 48 50  0  0  0  0  0  0  0  0999 V2000
   -4.5893    3.4126    1.1421 C   0  0  0  0  0  0  0  0  0  0  0  0
   -4.9900    2.2540    0.4142 O   0  0  0  0  0  0  0  0  0  0  0  0
   -3.9514    1.5127   -0.0887 C   0  0  0  0  0  0  0  0  0  0  0  0
   -2.7859    1.2522    0.6355 C   0  0  0  0  0  0  0  0  0  0  0  0
   -1.7540    0.4924    0.0689 C   0  0  0  0  0  0  0  0  0  0  0  0
   -0.5172    0.1924    0.8089 C   0  0  0  0  0  0  0  0  0  0  0  0
    0.2880    1.0868    1.4165 C   0  0  0  0  0  0  0  0  0  0  0  0
    0.0520    2.4873    1.4706 C   0  0  0  0  0  0  0  0  0  0  0  0
   -0.1631    3.6279    1.4809 N   0  0  0  0  0  0  0  0  0  0  0  0
    1.4874    0.5698    2.1346 C   0  0  0  0  0  0  0  0  0  0  0  0
    1.6214    0.8077    3.3273 O   0  0  0  0  0  0  0  0  0  0  0  0
    2.3526   -0.1278    1.3087 N   0  0  0  0  0  0  0  0  0  0  0  0
    3.5595   -0.7889    1.6685 C   0  0  0  0  0  0  0  0  0  0  0  0
    3.9668   -0.8824    3.0036 C   0  0  0  0  0  0  0  0  0  0  0  0
    5.1394   -1.5487    3.3417 C   0  0  0  0  0  0  0  0  0  0  0  0
    5.9158   -2.1318    2.3464 C   0  0  0  0  0  0  0  0  0  0  0  0
    5.5561   -2.0668    1.0122 C   0  0  0  0  0  0  0  0  0  0  0  0
    6.3747   -2.6626    0.1279 N   0  0  0  0  0  0  0  0  0  0  0  0
    6.0576   -2.6104   -1.1796 C   0  0  0  0  0  0  0  0  0  0  0  0
    4.9345   -1.9782   -1.6625 C   0  0  0  0  0  0  0  0  0  0  0  0
    4.0864   -1.3649   -0.7444 C   0  0  0  0  0  0  0  0  0  0  0  0
    4.3670   -1.3888    0.6456 C   0  0  0  0  0  0  0  0  0  0  0  0
   -1.9186   -0.0492   -1.2163 C   0  0  0  0  0  0  0  0  0  0  0  0
   -3.0911    0.1802   -1.9437 C   0  0  0  0  0  0  0  0  0  0  0  0
   -3.3427   -0.3085   -3.1995 O   0  0  0  0  0  0  0  0  0  0  0  0
   -2.2726   -0.9377   -3.8892 C   0  0  0  0  0  0  0  0  0  0  0  0
   -4.1120    0.9482   -1.3613 C   0  0  0  0  0  0  0  0  0  0  0  0
   -5.2497    1.2215   -2.0862 O   0  0  0  0  0  0  0  0  0  0  0  0
   -6.2544    0.2518   -1.7941 C   0  0  0  0  0  0  0  0  0  0  0  0
   -3.7756    3.9492    0.6412 H   0  0  0  0  0  0  0  0  0  0  0  0
   -4.3086    3.1459    2.1657 H   0  0  0  0  0  0  0  0  0  0  0  0
   -5.4504    4.0855    1.1975 H   0  0  0  0  0  0  0  0  0  0  0  0
   -2.6908    1.6259    1.6511 H   0  0  0  0  0  0  0  0  0  0  0  0
   -0.2725   -0.8692    0.8444 H   0  0  0  0  0  0  0  0  0  0  0  0
    2.1185   -0.1386    0.3276 H   0  0  0  0  0  0  0  0  0  0  0  0
    3.3919   -0.4524    3.8175 H   0  0  0  0  0  0  0  0  0  0  0  0
    5.4478   -1.6153    4.3822 H   0  0  0  0  0  0  0  0  0  0  0  0
    6.8312   -2.6522    2.6204 H   0  0  0  0  0  0  0  0  0  0  0  0
    6.7573   -3.1058   -1.8466 H   0  0  0  0  0  0  0  0  0  0  0  0
    4.7241   -1.9584   -2.7258 H   0  0  0  0  0  0  0  0  0  0  0  0
    3.2121   -0.8645   -1.1441 H   0  0  0  0  0  0  0  0  0  0  0  0
   -1.1205   -0.6539   -1.6345 H   0  0  0  0  0  0  0  0  0  0  0  0
   -2.6211   -1.1814   -4.8974 H   0  0  0  0  0  0  0  0  0  0  0  0
   -1.4127   -0.2666   -3.9871 H   0  0  0  0  0  0  0  0  0  0  0  0
   -1.9889   -1.8751   -3.3999 H   0  0  0  0  0  0  0  0  0  0  0  0
   -5.9230   -0.7585   -2.0585 H   0  0  0  0  0  0  0  0  0  0  0  0
   -6.5529    0.2889   -0.7409 H   0  0  0  0  0  0  0  0  0  0  0  0
   -7.1333    0.4877   -2.4016 H   0  0  0  0  0  0  0  0  0  0  0  0
  1  2  1  0
  2  3  1  0
  3  4  2  0
  4  5  1  0
  5  6  1  0
  6  7  2  3
  7  8  1  0
  8  9  3  0
  7 10  1  0
 10 11  2  0
 10 12  1  0
 12 13  1  0
 13 14  2  0
 14 15  1  0
 15 16  2  0
 16 17  1  0
 17 18  2  0
 18 19  1  0
 19 20  2  0
 20 21  1  0
 21 22  2  0
  5 23  2  0
 23 24  1  0
 24 25  1  0
 25 26  1  0
 24 27  2  0
 27 28  1  0
 28 29  1  0
 27  3  1  0
 22 13  1  0
 22 17  1  0
  1 30  1  0
  1 31  1  0
  1 32  1  0
  4 33  1  0
  6 34  1  0
 12 35  1  0
 14 36  1  0
 15 37  1  0
 16 38  1  0
 19 39  1  0
 20 40  1  0
 21 41  1  0
 23 42  1  0
 26 43  1  0
 26 44  1  0
 26 45  1  0
 29 46  1  0
 29 47  1  0
 29 48  1  0
M  END
$$$$
