
     RDKit          3D

 33 34  0  0  0  0  0  0  0  0999 V2000
   -3.5749   -1.1867   -0.6595 C   0  0  0  0  0  0  0  0  0  0  0  0
   -2.1538   -1.1496   -0.1107 C   0  0  0  0  0  0  0  0  0  0  0  0
   -1.6142    0.2214   -0.2302 N   0  0  0  0  0  0  0  0  0  0  0  0
   -1.9383    1.0915    0.9229 C   0  0  0  0  0  0  0  0  0  0  0  0
   -1.8573    2.5643    0.5424 C   0  0  0  0  0  0  0  0  0  0  0  0
   -0.2031    0.1971   -0.4938 C   0  0  0  0  0  0  0  0  0  0  0  0
    0.1848    0.8447   -1.6833 C   0  0  0  0  0  0  0  0  0  0  0  0
    1.5152    0.8952   -2.0607 C   0  0  0  0  0  0  0  0  0  0  0  0
    2.4607    0.2832   -1.2371 C   0  0  0  0  0  0  0  0  0  0  0  0
    3.8415    0.3516   -1.6787 N   0  0  0  0  0  4  0  0  0  0  0  0
    4.4102   -0.7173   -1.9370 O   0  0  0  0  0  0  0  0  0  0  0  0
    4.3429    1.4789   -1.7814 O   0  0  0  0  0  1  0  0  0  0  0  0
    2.1240   -0.3776   -0.0267 C   0  0  0  0  0  0  0  0  0  0  0  0
    3.0613   -0.9893    0.8447 C   0  0  0  0  0  0  0  0  0  0  0  0
    2.6493   -1.6173    2.0112 C   0  0  0  0  0  0  0  0  0  0  0  0
    1.3042   -1.6203    2.2892 C   0  0  0  0  0  0  0  0  0  0  0  0
    0.3794   -1.0455    1.4940 N   0  0  0  0  0  0  0  0  0  0  0  0
    0.7607   -0.4244    0.3502 C   0  0  0  0  0  0  0  0  0  0  0  0
   -3.5981   -0.8588   -1.7043 H   0  0  0  0  0  0  0  0  0  0  0  0
   -4.2443   -0.5348   -0.0899 H   0  0  0  0  0  0  0  0  0  0  0  0
   -3.9729   -2.2051   -0.6115 H   0  0  0  0  0  0  0  0  0  0  0  0
   -2.1547   -1.4906    0.9316 H   0  0  0  0  0  0  0  0  0  0  0  0
   -1.5600   -1.8641   -0.6961 H   0  0  0  0  0  0  0  0  0  0  0  0
   -1.3041    0.8909    1.7936 H   0  0  0  0  0  0  0  0  0  0  0  0
   -2.9687    0.8959    1.2432 H   0  0  0  0  0  0  0  0  0  0  0  0
   -2.2122    3.1871    1.3697 H   0  0  0  0  0  0  0  0  0  0  0  0
   -2.4753    2.7777   -0.3360 H   0  0  0  0  0  0  0  0  0  0  0  0
   -0.8302    2.8668    0.3161 H   0  0  0  0  0  0  0  0  0  0  0  0
   -0.5764    1.3088   -2.3077 H   0  0  0  0  0  0  0  0  0  0  0  0
    1.8020    1.4003   -2.9798 H   0  0  0  0  0  0  0  0  0  0  0  0
    4.1271   -0.9874    0.6230 H   0  0  0  0  0  0  0  0  0  0  0  0
    3.3604   -2.0904    2.6787 H   0  0  0  0  0  0  0  0  0  0  0  0
    0.9148   -2.0961    3.1846 H   0  0  0  0  0  0  0  0  0  0  0  0
  1  2  1  0
  2  3  1  0
  3  4  1  0
  4  5  1  0
  3  6  1  0
  6  7  2  0
  7  8  1  0
  8  9  2  0
  9 10  1  0
 10 11  2  0
 10 12  1  0
  9 13  1  0
 13 14  2  0
 14 15  1  0
 15 16  2  0
 16 17  1  0
 17 18  2  0
 18  6  1  0
 18 13  1  0
  1 19  1  0
  1 20  1  0
  1 21  1  0
  2 22  1  0
  2 23  1  0
  4 24  1  0
  4 25  1  0
  5 26  1  0
  5 27  1  0
  5 28  1  0
  7 29  1  0
  8 30  1  0
 14 31  1  0
 15 32  1  0
 16 33  1  0
M  CHG  2  10   1  12  -1
M  END
$$$$
