
     RDKit          3D

 36 37  0  0  0  0  0  0  0  0999 V2000
   -2.9169   -1.1825    1.7054 C   0  0  0  0  0  0  0  0  0  0  0  0
   -1.9137   -0.3875    0.8749 C   0  0  0  0  0  0  0  0  0  0  0  0
   -1.8894   -0.7733   -0.5467 N   0  0  0  0  0  0  0  0  0  0  0  0
   -3.1679   -0.5677   -1.2570 C   0  0  0  0  0  0  0  0  0  0  0  0
   -3.6781    0.8755   -1.4421 C   0  0  0  0  0  0  0  0  0  0  0  0
   -4.1193    1.4631   -0.2242 O   0  0  0  0  0  0  0  0  0  0  0  0
   -0.7788   -0.1111   -1.2559 C   0  0  0  0  0  0  0  0  0  0  0  0
    0.5340   -0.7556   -0.8916 C   0  0  0  0  0  0  0  0  0  0  0  0
    0.8407   -2.0751   -1.1697 C   0  0  0  0  0  0  0  0  0  0  0  0
    2.4003   -2.5194   -0.6616 S   0  0  0  0  0  0  0  0  0  0  0  0
    2.7254   -0.9476   -0.0437 C   0  0  0  0  0  0  0  0  0  0  0  0
    3.9162   -0.5200    0.5804 C   0  0  0  0  0  0  0  0  0  0  0  0
    4.0206    0.7986    1.0421 C   0  0  0  0  0  0  0  0  0  0  0  0
    5.2935    1.2739    1.6794 C   0  0  0  0  0  0  0  0  0  0  0  0
    2.9561    1.6752    0.8545 C   0  0  0  0  0  0  0  0  0  0  0  0
    1.7770    1.2463    0.2337 C   0  0  0  0  0  0  0  0  0  0  0  0
    1.6396   -0.0872   -0.2304 C   0  0  0  0  0  0  0  0  0  0  0  0
   -2.7729   -2.2599    1.5717 H   0  0  0  0  0  0  0  0  0  0  0  0
   -3.9515   -0.9355    1.4521 H   0  0  0  0  0  0  0  0  0  0  0  0
   -2.7796   -0.9574    2.7684 H   0  0  0  0  0  0  0  0  0  0  0  0
   -2.0916    0.6860    1.0013 H   0  0  0  0  0  0  0  0  0  0  0  0
   -0.9329   -0.5863    1.3230 H   0  0  0  0  0  0  0  0  0  0  0  0
   -3.9485   -1.1616   -0.7682 H   0  0  0  0  0  0  0  0  0  0  0  0
   -3.0644   -1.0134   -2.2552 H   0  0  0  0  0  0  0  0  0  0  0  0
   -4.5297    0.8722   -2.1311 H   0  0  0  0  0  0  0  0  0  0  0  0
   -2.9129    1.5227   -1.8801 H   0  0  0  0  0  0  0  0  0  0  0  0
   -4.7822    0.8670    0.1642 H   0  0  0  0  0  0  0  0  0  0  0  0
   -0.8945   -0.2333   -2.3417 H   0  0  0  0  0  0  0  0  0  0  0  0
   -0.7683    0.9674   -1.0638 H   0  0  0  0  0  0  0  0  0  0  0  0
    0.2008   -2.8041   -1.6483 H   0  0  0  0  0  0  0  0  0  0  0  0
    4.7426   -1.2157    0.7020 H   0  0  0  0  0  0  0  0  0  0  0  0
    5.9739    1.6589    0.9137 H   0  0  0  0  0  0  0  0  0  0  0  0
    5.0938    2.0673    2.4073 H   0  0  0  0  0  0  0  0  0  0  0  0
    5.7893    0.4586    2.2167 H   0  0  0  0  0  0  0  0  0  0  0  0
    3.0278    2.7070    1.1925 H   0  0  0  0  0  0  0  0  0  0  0  0
    0.9614    1.9546    0.1134 H   0  0  0  0  0  0  0  0  0  0  0  0
  1  2  1  0
  2  3  1  0
  3  4  1  0
  4  5  1  0
  5  6  1  0
  3  7  1  0
  7  8  1  0
  8  9  2  0
  9 10  1  0
 10 11  1  0
 11 12  2  0
 12 13  1  0
 13 14  1  0
 13 15  2  0
 15 16  1  0
 16 17  2  0
 17  8  1  0
 17 11  1  0
  1 18  1  0
  1 19  1  0
  1 20  1  0
  2 21  1  0
  2 22  1  0
  4 23  1  0
  4 24  1  0
  5 25  1  0
  5 26  1  0
  6 27  1  0
  7 28  1  0
  7 29  1  0
  9 30  1  0
 12 31  1  0
 14 32  1  0
 14 33  1  0
 14 34  1  0
 15 35  1  0
 16 36  1  0
M  END
$$$$
