
     RDKit          3D

 47 49  0  0  0  0  0  0  0  0999 V2000
    8.3568    0.0319    1.4499 C   0  0  0  0  0  0  0  0  0  0  0  0
    7.5067   -0.4876    0.3006 C   0  0  0  0  0  0  0  0  0  0  0  0
    6.0373   -0.2434    0.5344 C   0  0  0  0  0  0  0  0  0  0  0  0
    5.2592   -1.1896    1.2136 C   0  0  0  0  0  0  0  0  0  0  0  0
    3.9028   -0.9519    1.4482 C   0  0  0  0  0  0  0  0  0  0  0  0
    3.3044    0.2279    1.0024 C   0  0  0  0  0  0  0  0  0  0  0  0
    1.9415    0.4581    1.2256 N   0  0  0  0  0  0  0  0  0  0  0  0
    1.0924    0.0736    0.3365 C   0  0  0  0  0  0  0  0  0  0  0  0
    1.3517   -0.5562   -0.8396 N   0  0  0  0  0  0  0  0  0  0  0  0
    0.2889   -0.8776   -1.6318 C   0  0  0  0  0  0  0  0  0  0  0  0
    0.3702   -1.4412   -2.7115 O   0  0  0  0  0  0  0  0  0  0  0  0
   -0.9765   -0.4393   -0.9816 C   0  0  0  0  0  0  0  0  0  0  0  0
   -2.1681   -0.6253   -1.5651 C   0  0  0  0  0  0  0  0  0  0  0  0
   -3.4750   -0.2199   -1.0307 C   0  0  0  0  0  0  0  0  0  0  0  0
   -3.9558   -0.7332    0.1829 C   0  0  0  0  0  0  0  0  0  0  0  0
   -5.2074   -0.3462    0.6586 C   0  0  0  0  0  0  0  0  0  0  0  0
   -5.7893   -0.7639    1.8298 O   0  0  0  0  0  0  0  0  0  0  0  0
   -4.9947   -1.5810    2.6820 C   0  0  0  0  0  0  0  0  0  0  0  0
   -5.9804    0.5430   -0.1023 C   0  0  0  0  0  0  0  0  0  0  0  0
   -7.2168    0.9130    0.3725 O   0  0  0  0  0  0  0  0  0  0  0  0
   -5.5262    1.0570   -1.3223 C   0  0  0  0  0  0  0  0  0  0  0  0
   -6.3721    1.9136   -1.9746 O   0  0  0  0  0  0  0  0  0  0  0  0
   -5.9239    2.4755   -3.1991 C   0  0  0  0  0  0  0  0  0  0  0  0
   -4.2667    0.6643   -1.7814 C   0  0  0  0  0  0  0  0  0  0  0  0
   -0.6249    0.3185    0.5276 S   0  0  0  0  0  0  0  0  0  0  0  0
    4.0831    1.1848    0.3490 C   0  0  0  0  0  0  0  0  0  0  0  0
    5.4398    0.9512    0.1124 C   0  0  0  0  0  0  0  0  0  0  0  0
    8.2256    1.1109    1.5852 H   0  0  0  0  0  0  0  0  0  0  0  0
    8.0932   -0.4592    2.3928 H   0  0  0  0  0  0  0  0  0  0  0  0
    9.4165   -0.1588    1.2529 H   0  0  0  0  0  0  0  0  0  0  0  0
    7.8156   -0.0072   -0.6358 H   0  0  0  0  0  0  0  0  0  0  0  0
    7.6845   -1.5612    0.1635 H   0  0  0  0  0  0  0  0  0  0  0  0
    5.7071   -2.1134    1.5735 H   0  0  0  0  0  0  0  0  0  0  0  0
    3.3116   -1.6869    1.9879 H   0  0  0  0  0  0  0  0  0  0  0  0
    2.2882   -0.7843   -1.1329 H   0  0  0  0  0  0  0  0  0  0  0  0
   -2.2110   -1.0992   -2.5456 H   0  0  0  0  0  0  0  0  0  0  0  0
   -3.3400   -1.4354    0.7348 H   0  0  0  0  0  0  0  0  0  0  0  0
   -5.5746   -1.7807    3.5882 H   0  0  0  0  0  0  0  0  0  0  0  0
   -4.0757   -1.0661    2.9812 H   0  0  0  0  0  0  0  0  0  0  0  0
   -4.7744   -2.5435    2.2090 H   0  0  0  0  0  0  0  0  0  0  0  0
   -7.3166    0.4417    1.2206 H   0  0  0  0  0  0  0  0  0  0  0  0
   -5.0213    3.0775   -3.0513 H   0  0  0  0  0  0  0  0  0  0  0  0
   -5.7625    1.6988   -3.9539 H   0  0  0  0  0  0  0  0  0  0  0  0
   -6.7097    3.1406   -3.5700 H   0  0  0  0  0  0  0  0  0  0  0  0
   -3.8761    1.0375   -2.7230 H   0  0  0  0  0  0  0  0  0  0  0  0
    3.6327    2.1207    0.0292 H   0  0  0  0  0  0  0  0  0  0  0  0
    6.0297    1.7120   -0.3943 H   0  0  0  0  0  0  0  0  0  0  0  0
  1  2  1  0
  2  3  1  0
  3  4  2  0
  4  5  1  0
  5  6  2  0
  6  7  1  0
  7  8  2  3
  8  9  1  0
  9 10  1  0
 10 11  2  0
 10 12  1  0
 12 13  2  3
 13 14  1  0
 14 15  2  0
 15 16  1  0
 16 17  1  0
 17 18  1  0
 16 19  2  0
 19 20  1  0
 19 21  1  0
 21 22  1  0
 22 23  1  0
 21 24  2  0
 12 25  1  0
  6 26  1  0
 26 27  2  0
 27  3  1  0
 25  8  1  0
 24 14  1  0
  1 28  1  0
  1 29  1  0
  1 30  1  0
  2 31  1  0
  2 32  1  0
  4 33  1  0
  5 34  1  0
  9 35  1  0
 13 36  1  0
 15 37  1  0
 18 38  1  0
 18 39  1  0
 18 40  1  0
 20 41  1  0
 23 42  1  0
 23 43  1  0
 23 44  1  0
 24 45  1  0
 26 46  1  0
 27 47  1  0
M  END
$$$$
