
     RDKit          3D

 34 34  0  0  0  0  0  0  0  0999 V2000
    6.1247    0.3873   -1.0176 C   0  0  0  0  0  0  0  0  0  0  0  0
    5.3675   -0.4159    0.0284 C   0  0  0  0  0  0  0  0  0  0  0  0
    3.8647   -0.4950   -0.2352 C   0  0  0  0  0  0  0  0  0  0  0  0
    3.1575    0.8545   -0.1433 C   0  0  0  0  0  0  0  0  0  0  0  0
    1.7462    0.6806   -0.3554 O   0  0  0  0  0  0  0  0  0  0  0  0
    1.0144    0.3963    0.7510 C   0  0  0  0  0  0  0  0  0  0  0  0
    1.4478    0.2732    1.8853 O   0  0  0  0  0  0  0  0  0  0  0  0
   -0.4241    0.2441    0.3993 C   0  0  0  0  0  0  0  0  0  0  0  0
   -1.3309   -0.0494    1.4236 C   0  0  0  0  0  0  0  0  0  0  0  0
   -2.6955   -0.2031    1.1460 C   0  0  0  0  0  0  0  0  0  0  0  0
   -3.1735   -0.0658   -0.1580 C   0  0  0  0  0  0  0  0  0  0  0  0
   -4.5286   -0.2057   -0.5215 N   0  0  0  0  0  0  0  0  0  0  0  0
   -5.5994   -0.4809    0.3102 C   0  0  0  0  0  0  0  0  0  0  0  0
   -6.9039   -0.5523   -0.4444 C   0  0  0  0  0  0  0  0  0  0  0  0
   -5.5701   -0.6339    1.5257 O   0  0  0  0  0  0  0  0  0  0  0  0
   -2.2640    0.2272   -1.1827 C   0  0  0  0  0  0  0  0  0  0  0  0
   -0.8994    0.3817   -0.9095 C   0  0  0  0  0  0  0  0  0  0  0  0
    5.9367   -0.0011   -2.0235 H   0  0  0  0  0  0  0  0  0  0  0  0
    7.2014    0.3298   -0.8281 H   0  0  0  0  0  0  0  0  0  0  0  0
    5.8410    1.4436   -0.9951 H   0  0  0  0  0  0  0  0  0  0  0  0
    5.7719   -1.4350    0.0451 H   0  0  0  0  0  0  0  0  0  0  0  0
    5.5498    0.0134    1.0204 H   0  0  0  0  0  0  0  0  0  0  0  0
    3.4170   -1.1885    0.4872 H   0  0  0  0  0  0  0  0  0  0  0  0
    3.6758   -0.9384   -1.2209 H   0  0  0  0  0  0  0  0  0  0  0  0
    3.3546    1.3542    0.8126 H   0  0  0  0  0  0  0  0  0  0  0  0
    3.5068    1.5255   -0.9342 H   0  0  0  0  0  0  0  0  0  0  0  0
   -0.9840   -0.1616    2.4498 H   0  0  0  0  0  0  0  0  0  0  0  0
   -3.3562   -0.4313    1.9771 H   0  0  0  0  0  0  0  0  0  0  0  0
   -4.7388   -0.0819   -1.5037 H   0  0  0  0  0  0  0  0  0  0  0  0
   -6.7661   -1.0275   -1.4199 H   0  0  0  0  0  0  0  0  0  0  0  0
   -7.6207   -1.1508    0.1253 H   0  0  0  0  0  0  0  0  0  0  0  0
   -7.3000    0.4575   -0.5792 H   0  0  0  0  0  0  0  0  0  0  0  0
   -2.6006    0.3405   -2.2103 H   0  0  0  0  0  0  0  0  0  0  0  0
   -0.2220    0.6089   -1.7290 H   0  0  0  0  0  0  0  0  0  0  0  0
  1  2  1  0
  2  3  1  0
  3  4  1  0
  4  5  1  0
  5  6  1  0
  6  7  2  0
  6  8  1  0
  8  9  2  0
  9 10  1  0
 10 11  2  0
 11 12  1  0
 12 13  1  0
 13 14  1  0
 13 15  2  0
 11 16  1  0
 16 17  2  0
 17  8  1  0
  1 18  1  0
  1 19  1  0
  1 20  1  0
  2 21  1  0
  2 22  1  0
  3 23  1  0
  3 24  1  0
  4 25  1  0
  4 26  1  0
  9 27  1  0
 10 28  1  0
 12 29  1  0
 14 30  1  0
 14 31  1  0
 14 32  1  0
 16 33  1  0
 17 34  1  0
M  END
$$$$
