
     RDKit          3D

 36 39  0  0  0  0  0  0  0  0999 V2000
   -6.6110    2.5918   -0.7084 C   0  0  0  0  0  0  0  0  0  0  0  0
   -5.5978    1.5804   -1.1560 C   0  0  0  0  0  0  0  0  0  0  0  0
   -5.2979    1.3759   -2.3243 O   0  0  0  0  0  0  0  0  0  0  0  0
   -5.0830    0.9394   -0.0333 O   0  0  0  0  0  0  0  0  0  0  0  0
   -4.1097   -0.0427   -0.2657 C   0  0  0  0  0  0  0  0  0  0  0  0
   -4.3452   -1.3088    0.2653 C   0  0  0  0  0  0  0  0  0  0  0  0
   -3.3872   -2.3070    0.1008 C   0  0  0  0  0  0  0  0  0  0  0  0
   -2.1979   -2.0305   -0.5796 C   0  0  0  0  0  0  0  0  0  0  0  0
   -1.9527   -0.7477   -1.0871 C   0  0  0  0  0  0  0  0  0  0  0  0
   -0.7219   -0.4454   -1.8214 C   0  0  0  0  0  0  0  0  0  0  0  0
    0.5133   -0.3842   -1.3020 C   0  0  0  0  0  0  0  0  0  0  0  0
    1.9123    0.0003   -2.3081 S   0  0  0  0  0  0  0  0  0  0  0  0
    2.9274   -0.1183   -0.9340 C   0  0  0  0  0  0  0  0  0  0  0  0
    4.2031    0.0143   -0.7138 N   0  0  0  0  0  0  0  0  0  0  0  0
    4.2719   -0.2335    0.6508 C   0  0  0  0  0  0  0  0  0  0  0  0
    5.6260   -0.1957    1.4318 C   0  0  0  0  0  0  0  0  0  0  0  0
    6.8615    0.0783    0.8765 C   0  0  0  0  0  0  0  0  0  0  0  0
    7.8063    0.0088    1.9291 C   0  0  0  0  0  0  0  0  0  0  0  0
    7.0917   -0.3028    3.0610 C   0  0  0  0  0  0  0  0  0  0  0  0
    5.7717   -0.4288    2.7713 O   0  0  0  0  0  0  0  0  0  0  0  0
    3.0929   -0.5072    1.2450 N   0  0  0  0  0  0  0  0  0  0  0  0
    2.2589   -0.4222    0.1953 N   0  0  0  0  0  0  0  0  0  0  0  0
    0.8921   -0.5993    0.1352 C   0  0  0  0  0  0  0  0  0  0  0  0
    0.2105   -0.8739    1.1039 O   0  0  0  0  0  0  0  0  0  0  0  0
   -2.9160    0.2532   -0.9253 C   0  0  0  0  0  0  0  0  0  0  0  0
   -7.0203    3.1054   -1.5831 H   0  0  0  0  0  0  0  0  0  0  0  0
   -7.4287    2.0905   -0.1845 H   0  0  0  0  0  0  0  0  0  0  0  0
   -6.1345    3.3325   -0.0614 H   0  0  0  0  0  0  0  0  0  0  0  0
   -5.2650   -1.5187    0.8029 H   0  0  0  0  0  0  0  0  0  0  0  0
   -3.5608   -3.3001    0.5074 H   0  0  0  0  0  0  0  0  0  0  0  0
   -1.4637   -2.8241   -0.6977 H   0  0  0  0  0  0  0  0  0  0  0  0
   -0.8830   -0.2433   -2.8796 H   0  0  0  0  0  0  0  0  0  0  0  0
    7.0480    0.3006   -0.1653 H   0  0  0  0  0  0  0  0  0  0  0  0
    8.8741    0.1660    1.8707 H   0  0  0  0  0  0  0  0  0  0  0  0
    7.3582   -0.4619    4.0968 H   0  0  0  0  0  0  0  0  0  0  0  0
   -2.7437    1.2531   -1.3131 H   0  0  0  0  0  0  0  0  0  0  0  0
  1  2  1  0
  2  3  2  0
  2  4  1  0
  4  5  1  0
  5  6  2  0
  6  7  1  0
  7  8  2  0
  8  9  1  0
  9 10  1  0
 10 11  2  3
 11 12  1  0
 12 13  1  0
 13 14  2  0
 14 15  1  0
 15 16  1  0
 16 17  2  0
 17 18  1  0
 18 19  2  0
 19 20  1  0
 15 21  2  0
 21 22  1  0
 22 23  1  0
 23 24  2  0
  9 25  2  0
 25  5  1  0
 23 11  1  0
 22 13  1  0
 20 16  1  0
  1 26  1  0
  1 27  1  0
  1 28  1  0
  6 29  1  0
  7 30  1  0
  8 31  1  0
 10 32  1  0
 17 33  1  0
 18 34  1  0
 19 35  1  0
 25 36  1  0
M  END
$$$$
