
     RDKit          3D

 36 36  0  0  0  0  0  0  0  0999 V2000
    1.2096   -6.7544    1.1119 C   0  0  0  0  0  0  0  0  0  0  0  0
    1.3444   -5.4891    1.9353 C   0  0  0  0  0  0  0  0  0  0  0  0
    1.0090   -4.3762    1.1097 O   0  0  0  0  0  0  0  0  0  0  0  0
    1.1202   -3.1407    1.8133 C   0  0  0  0  0  0  0  0  0  0  0  0
    0.6902   -2.0195    0.8772 C   0  0  0  0  0  0  0  0  0  0  0  0
    0.8712   -0.6539    1.5264 C   0  0  0  0  0  0  0  0  0  0  0  0
    0.4273    0.4157    0.6520 N   0  0  0  0  0  0  0  0  0  0  0  0
   -0.8950    0.8091    0.6221 C   0  0  0  0  0  0  0  0  0  0  0  0
   -1.7570    0.3643    1.3693 O   0  0  0  0  0  0  0  0  0  0  0  0
   -1.2179    1.8205   -0.4182 C   0  0  0  0  0  0  0  0  0  0  0  0
   -2.3368    1.5563   -1.2547 C   0  0  0  0  0  0  0  0  0  0  0  0
   -3.2474    1.3478   -1.9438 N   0  0  0  0  0  0  0  0  0  0  0  0
   -0.4986    2.9582   -0.4105 C   0  0  0  0  0  0  0  0  0  0  0  0
   -0.6945    4.0291   -1.3265 C   0  0  0  0  0  0  0  0  0  0  0  0
   -0.4048    5.3811   -1.1481 C   0  0  0  0  0  0  0  0  0  0  0  0
   -0.7562    6.0714   -2.3357 C   0  0  0  0  0  0  0  0  0  0  0  0
   -1.2194    5.1010   -3.1853 C   0  0  0  0  0  0  0  0  0  0  0  0
   -1.6984    5.1640   -4.5298 N   0  0  0  0  0  4  0  0  0  0  0  0
   -1.9292    4.0991   -5.1143 O   0  0  0  0  0  0  0  0  0  0  0  0
   -1.8218    6.2990   -5.0109 O   0  0  0  0  0  1  0  0  0  0  0  0
   -1.1891    3.8757   -2.6043 O   0  0  0  0  0  0  0  0  0  0  0  0
    1.8710   -6.7192    0.2398 H   0  0  0  0  0  0  0  0  0  0  0  0
    0.1879   -6.8606    0.7325 H   0  0  0  0  0  0  0  0  0  0  0  0
    1.4584   -7.6366    1.7083 H   0  0  0  0  0  0  0  0  0  0  0  0
    2.3741   -5.3861    2.2946 H   0  0  0  0  0  0  0  0  0  0  0  0
    0.6659   -5.5299    2.7945 H   0  0  0  0  0  0  0  0  0  0  0  0
    0.4766   -3.1603    2.7004 H   0  0  0  0  0  0  0  0  0  0  0  0
    2.1600   -2.9971    2.1287 H   0  0  0  0  0  0  0  0  0  0  0  0
    1.2662   -2.0731   -0.0556 H   0  0  0  0  0  0  0  0  0  0  0  0
   -0.3556   -2.1728    0.5820 H   0  0  0  0  0  0  0  0  0  0  0  0
    1.9288   -0.4699    1.7428 H   0  0  0  0  0  0  0  0  0  0  0  0
    0.3162   -0.5995    2.4695 H   0  0  0  0  0  0  0  0  0  0  0  0
    1.0467    0.6919   -0.1001 H   0  0  0  0  0  0  0  0  0  0  0  0
    0.2662    3.1055    0.3491 H   0  0  0  0  0  0  0  0  0  0  0  0
    0.0055    5.8201   -0.2473 H   0  0  0  0  0  0  0  0  0  0  0  0
   -0.6738    7.1293   -2.5457 H   0  0  0  0  0  0  0  0  0  0  0  0
  1  2  1  0
  2  3  1  0
  3  4  1  0
  4  5  1  0
  5  6  1  0
  6  7  1  0
  7  8  1  0
  8  9  2  0
  8 10  1  0
 10 11  1  0
 11 12  3  0
 10 13  2  3
 13 14  1  0
 14 15  2  0
 15 16  1  0
 16 17  2  0
 17 18  1  0
 18 19  2  0
 18 20  1  0
 17 21  1  0
 21 14  1  0
  1 22  1  0
  1 23  1  0
  1 24  1  0
  2 25  1  0
  2 26  1  0
  4 27  1  0
  4 28  1  0
  5 29  1  0
  5 30  1  0
  6 31  1  0
  6 32  1  0
  7 33  1  0
 13 34  1  0
 15 35  1  0
 16 36  1  0
M  CHG  2  18   1  20  -1
M  END
$$$$
