
     RDKit          3D

 69 74  0  0  0  0  0  0  0  0999 V2000
    6.8084   -2.8149    2.1910 C   0  0  0  0  0  0  0  0  0  0  0  0
    6.6690   -2.1407    0.9476 O   0  0  0  0  0  0  0  0  0  0  0  0
    5.4150   -1.6942    0.6103 C   0  0  0  0  0  0  0  0  0  0  0  0
    4.2398   -2.0732    1.2692 C   0  0  0  0  0  0  0  0  0  0  0  0
    2.9941   -1.5837    0.8493 C   0  0  0  0  0  0  0  0  0  0  0  0
    2.9221   -0.6816   -0.2270 C   0  0  0  0  0  0  0  0  0  0  0  0
    4.1020   -0.3168   -0.8963 C   0  0  0  0  0  0  0  0  0  0  0  0
    5.3443   -0.8182   -0.4898 C   0  0  0  0  0  0  0  0  0  0  0  0
    6.5405   -0.5012   -1.0861 O   0  0  0  0  0  0  0  0  0  0  0  0
    6.4977    0.2504   -2.2911 C   0  0  0  0  0  0  0  0  0  0  0  0
    1.5886   -0.1472   -0.7223 C   0  0  0  0  0  0  0  0  0  0  0  0
    0.5422   -0.3019    0.3025 N   0  0  0  0  0  0  0  0  0  0  0  0
   -0.6930    0.1089   -0.2355 C   0  0  0  0  0  0  0  0  0  0  0  0
   -1.3611   -0.7078   -1.0829 N   0  0  0  0  0  0  0  0  0  0  0  0
   -2.5498   -0.3214   -1.5897 C   0  0  0  0  0  0  0  0  0  0  0  0
   -3.2737   -1.3030   -2.5059 C   0  0  0  0  0  0  0  0  0  0  0  0
   -4.0480   -2.3623   -1.8124 N   0  0  0  0  0  0  0  0  0  0  0  0
   -4.6085   -3.3284   -2.7822 C   0  0  0  0  0  0  0  0  0  0  0  0
   -5.8065   -2.7914   -3.5869 C   0  0  0  0  0  0  0  0  0  0  0  0
   -6.8436   -2.3063   -2.7269 O   0  0  0  0  0  0  0  0  0  0  0  0
   -6.3438   -1.2935   -1.8429 C   0  0  0  0  0  0  0  0  0  0  0  0
   -5.1659   -1.8206   -1.0067 C   0  0  0  0  0  0  0  0  0  0  0  0
   -3.1677    0.8448   -1.3488 N   0  0  0  0  0  0  0  0  0  0  0  0
   -2.4858    1.6327   -0.5033 C   0  0  0  0  0  0  0  0  0  0  0  0
   -3.1210    3.1477   -0.0485 S   0  0  0  0  0  0  0  0  0  0  0  0
   -1.7956    3.4621    0.9677 C   0  0  0  0  0  0  0  0  0  0  0  0
   -0.8566    2.4461    0.9490 C   0  0  0  0  0  0  0  0  0  0  0  0
   -1.2639    1.3571    0.0895 C   0  0  0  0  0  0  0  0  0  0  0  0
    0.3875    2.5046    1.7888 C   0  0  0  0  0  0  0  0  0  0  0  0
    0.6388    3.9127    2.3535 C   0  0  0  0  0  0  0  0  0  0  0  0
   -0.6375    4.6022    2.8808 C   0  0  0  0  0  0  0  0  0  0  0  0
   -1.2049    3.8840    4.1096 C   0  0  0  0  0  0  0  0  0  0  0  0
   -1.6930    4.7303    1.7608 C   0  0  0  0  0  0  0  0  0  0  0  0
    0.4704   -1.6861    0.7966 C   0  0  0  0  0  0  0  0  0  0  0  0
    1.7422   -1.9797    1.5984 C   0  0  0  0  0  0  0  0  0  0  0  0
    6.3172   -3.7930    2.1629 H   0  0  0  0  0  0  0  0  0  0  0  0
    6.4327   -2.2056    3.0200 H   0  0  0  0  0  0  0  0  0  0  0  0
    7.8759   -2.9856    2.3624 H   0  0  0  0  0  0  0  0  0  0  0  0
    4.2635   -2.7583    2.1109 H   0  0  0  0  0  0  0  0  0  0  0  0
    4.0247    0.3695   -1.7331 H   0  0  0  0  0  0  0  0  0  0  0  0
    7.5233    0.3515   -2.6590 H   0  0  0  0  0  0  0  0  0  0  0  0
    6.1089    1.2590   -2.1139 H   0  0  0  0  0  0  0  0  0  0  0  0
    5.9179   -0.2687   -3.0627 H   0  0  0  0  0  0  0  0  0  0  0  0
    1.7061    0.9167   -0.9650 H   0  0  0  0  0  0  0  0  0  0  0  0
    1.3310   -0.6887   -1.6430 H   0  0  0  0  0  0  0  0  0  0  0  0
   -3.8984   -0.7290   -3.2001 H   0  0  0  0  0  0  0  0  0  0  0  0
   -2.4980   -1.7811   -3.1182 H   0  0  0  0  0  0  0  0  0  0  0  0
   -3.8279   -3.6895   -3.4620 H   0  0  0  0  0  0  0  0  0  0  0  0
   -4.9428   -4.2049   -2.2118 H   0  0  0  0  0  0  0  0  0  0  0  0
   -6.2333   -3.5991   -4.1905 H   0  0  0  0  0  0  0  0  0  0  0  0
   -5.5081   -1.9927   -4.2746 H   0  0  0  0  0  0  0  0  0  0  0  0
   -7.1649   -1.0049   -1.1790 H   0  0  0  0  0  0  0  0  0  0  0  0
   -6.0667   -0.4083   -2.4264 H   0  0  0  0  0  0  0  0  0  0  0  0
   -5.5355   -2.6425   -0.3786 H   0  0  0  0  0  0  0  0  0  0  0  0
   -4.8222   -1.0513   -0.3076 H   0  0  0  0  0  0  0  0  0  0  0  0
    1.2619    2.2083    1.2000 H   0  0  0  0  0  0  0  0  0  0  0  0
    0.2907    1.7886    2.6139 H   0  0  0  0  0  0  0  0  0  0  0  0
    1.3973    3.8583    3.1434 H   0  0  0  0  0  0  0  0  0  0  0  0
    1.0642    4.5397    1.5583 H   0  0  0  0  0  0  0  0  0  0  0  0
   -0.3672    5.6165    3.2029 H   0  0  0  0  0  0  0  0  0  0  0  0
   -2.0503    4.4450    4.5232 H   0  0  0  0  0  0  0  0  0  0  0  0
   -1.5585    2.8750    3.8766 H   0  0  0  0  0  0  0  0  0  0  0  0
   -0.4442    3.8032    4.8933 H   0  0  0  0  0  0  0  0  0  0  0  0
   -1.3888    5.5358    1.0797 H   0  0  0  0  0  0  0  0  0  0  0  0
   -2.6647    5.0125    2.1834 H   0  0  0  0  0  0  0  0  0  0  0  0
   -0.3957   -1.8221    1.4570 H   0  0  0  0  0  0  0  0  0  0  0  0
    0.3799   -2.4015   -0.0331 H   0  0  0  0  0  0  0  0  0  0  0  0
    1.7717   -3.0474    1.8437 H   0  0  0  0  0  0  0  0  0  0  0  0
    1.7178   -1.4150    2.5389 H   0  0  0  0  0  0  0  0  0  0  0  0
  1  2  1  0
  2  3  1  0
  3  4  2  0
  4  5  1  0
  5  6  2  0
  6  7  1  0
  7  8  2  0
  8  9  1  0
  9 10  1  0
  6 11  1  0
 11 12  1  0
 12 13  1  0
 13 14  2  0
 14 15  1  0
 15 16  1  0
 16 17  1  0
 17 18  1  0
 18 19  1  0
 19 20  1  0
 20 21  1  0
 21 22  1  0
 15 23  2  0
 23 24  1  0
 24 25  1  0
 25 26  1  0
 26 27  2  0
 27 28  1  0
 27 29  1  0
 29 30  1  0
 30 31  1  0
 31 32  1  0
 31 33  1  0
 12 34  1  0
 34 35  1  0
  8  3  1  0
 28 13  1  0
 35  5  1  0
 22 17  1  0
 28 24  2  0
 33 26  1  0
  1 36  1  0
  1 37  1  0
  1 38  1  0
  4 39  1  0
  7 40  1  0
 10 41  1  0
 10 42  1  0
 10 43  1  0
 11 44  1  0
 11 45  1  0
 16 46  1  0
 16 47  1  0
 18 48  1  0
 18 49  1  0
 19 50  1  0
 19 51  1  0
 21 52  1  0
 21 53  1  0
 22 54  1  0
 22 55  1  0
 29 56  1  0
 29 57  1  0
 30 58  1  0
 30 59  1  0
 31 60  1  0
 32 61  1  0
 32 62  1  0
 32 63  1  0
 33 64  1  0
 33 65  1  0
 34 66  1  0
 34 67  1  0
 35 68  1  0
 35 69  1  0
M  END
$$$$
