
     RDKit          3D

 40 42  0  0  0  0  0  0  0  0999 V2000
    4.0678   -1.3467    1.5676 N   0  0  0  0  0  0  0  0  0  0  0  0
    4.2831   -0.3859    0.4947 C   0  0  0  0  0  0  0  0  0  0  0  0
    3.1526   -0.3721   -0.5363 C   0  0  0  0  0  0  0  0  0  0  0  0
    1.8109    0.0923    0.0372 C   0  0  0  0  0  0  0  0  0  0  0  0
    0.7460    0.1910   -1.0667 C   0  0  0  0  0  0  0  0  0  0  0  0
   -0.5738    0.5780   -0.5181 N   0  0  0  0  0  0  0  0  0  0  0  0
   -0.8881    1.9696   -0.5023 C   0  0  0  0  0  0  0  0  0  0  0  0
    0.1006    2.9689   -0.6564 C   0  0  0  0  0  0  0  0  0  0  0  0
   -0.1962    4.3375   -0.6297 C   0  0  0  0  0  0  0  0  0  0  0  0
   -1.5010    4.7589   -0.4431 C   0  0  0  0  0  0  0  0  0  0  0  0
   -2.5009    3.8078   -0.2814 C   0  0  0  0  0  0  0  0  0  0  0  0
   -2.2063    2.4295   -0.3052 C   0  0  0  0  0  0  0  0  0  0  0  0
   -3.6047    1.3515   -0.1103 S   0  0  0  0  0  0  0  0  0  0  0  0
   -2.8343   -0.2371    0.0794 C   0  0  0  0  0  0  0  0  0  0  0  0
   -3.6998   -1.2845    0.4514 C   0  0  0  0  0  0  0  0  0  0  0  0
   -3.2309   -2.5836    0.6148 C   0  0  0  0  0  0  0  0  0  0  0  0
   -1.8808   -2.8568    0.4142 C   0  0  0  0  0  0  0  0  0  0  0  0
   -1.3426   -4.2575    0.5699 C   0  0  0  0  0  0  0  0  0  0  0  0
   -0.0642   -4.2841    1.0420 F   0  0  0  0  0  0  0  0  0  0  0  0
   -2.0713   -5.0237    1.4279 F   0  0  0  0  0  0  0  0  0  0  0  0
   -1.3171   -4.9347   -0.6106 F   0  0  0  0  0  0  0  0  0  0  0  0
   -1.0240   -1.8053    0.0295 C   0  0  0  0  0  0  0  0  0  0  0  0
   -1.4646   -0.4728   -0.1509 C   0  0  0  0  0  0  0  0  0  0  0  0
    3.8769   -2.2702    1.1812 H   0  0  0  0  0  0  0  0  0  0  0  0
    3.2492   -1.0896    2.1170 H   0  0  0  0  0  0  0  0  0  0  0  0
    5.2218   -0.6380   -0.0106 H   0  0  0  0  0  0  0  0  0  0  0  0
    4.4128    0.6126    0.9262 H   0  0  0  0  0  0  0  0  0  0  0  0
    3.0398   -1.3715   -0.9750 H   0  0  0  0  0  0  0  0  0  0  0  0
    3.4447    0.2988   -1.3539 H   0  0  0  0  0  0  0  0  0  0  0  0
    1.9418    1.0617    0.5305 H   0  0  0  0  0  0  0  0  0  0  0  0
    1.4802   -0.5993    0.8188 H   0  0  0  0  0  0  0  0  0  0  0  0
    1.0717    0.8893   -1.8486 H   0  0  0  0  0  0  0  0  0  0  0  0
    0.6797   -0.7557   -1.6185 H   0  0  0  0  0  0  0  0  0  0  0  0
    1.1480    2.7190   -0.7871 H   0  0  0  0  0  0  0  0  0  0  0  0
    0.6002    5.0676   -0.7506 H   0  0  0  0  0  0  0  0  0  0  0  0
   -1.7421    5.8179   -0.4206 H   0  0  0  0  0  0  0  0  0  0  0  0
   -3.5248    4.1469   -0.1358 H   0  0  0  0  0  0  0  0  0  0  0  0
   -4.7584   -1.0871    0.6151 H   0  0  0  0  0  0  0  0  0  0  0  0
   -3.9233   -3.3732    0.9016 H   0  0  0  0  0  0  0  0  0  0  0  0
    0.0213   -2.0692   -0.1072 H   0  0  0  0  0  0  0  0  0  0  0  0
  1  2  1  0
  2  3  1  0
  3  4  1  0
  4  5  1  0
  5  6  1  0
  6  7  1  0
  7  8  2  0
  8  9  1  0
  9 10  2  0
 10 11  1  0
 11 12  2  0
 12 13  1  0
 13 14  1  0
 14 15  2  0
 15 16  1  0
 16 17  2  0
 17 18  1  0
 18 19  1  0
 18 20  1  0
 18 21  1  0
 17 22  1  0
 22 23  2  0
 23  6  1  0
 12  7  1  0
 23 14  1  0
  1 24  1  0
  1 25  1  0
  2 26  1  0
  2 27  1  0
  3 28  1  0
  3 29  1  0
  4 30  1  0
  4 31  1  0
  5 32  1  0
  5 33  1  0
  8 34  1  0
  9 35  1  0
 10 36  1  0
 11 37  1  0
 15 38  1  0
 16 39  1  0
 22 40  1  0
M  END
$$$$
