
     RDKit          3D

 56 61  0  0  0  0  0  0  0  0999 V2000
    6.4556   -0.1245    1.0972 C   0  0  0  0  0  0  0  0  0  0  0  0
    5.2741    0.0375    0.1881 C   0  0  0  0  0  0  0  0  0  0  0  0
    5.3837    0.6976   -1.0507 C   0  0  0  0  0  0  0  0  0  0  0  0
    6.8912    1.3594   -1.5837 Cl  0  0  0  0  0  0  0  0  0  0  0  0
    4.2745    0.8530   -1.9056 C   0  0  0  0  0  0  0  0  0  0  0  0
    3.0210    0.3531   -1.5513 C   0  0  0  0  0  0  0  0  0  0  0  0
    2.8999   -0.2955   -0.3324 C   0  0  0  0  0  0  0  0  0  0  0  0
    4.0113   -0.4437    0.5124 C   0  0  0  0  0  0  0  0  0  0  0  0
    3.6290   -1.1145    1.6716 N   0  0  0  0  0  0  0  0  0  0  0  0
    2.2734   -1.4534    1.6594 C   0  0  0  0  0  0  0  0  0  0  0  0
    1.6999   -2.0379    2.5657 O   0  0  0  0  0  0  0  0  0  0  0  0
    1.7010   -0.9327    0.3139 C   0  0  0  0  0  0  0  0  0  0  0  0
    1.0639   -2.0283   -0.4846 N   0  0  0  0  0  0  0  0  0  0  0  0
   -0.4362   -1.9494   -0.2472 C   0  0  2  0  0  0  0  0  0  0  0  0
   -1.1940   -2.4076   -1.5048 C   0  0  0  0  0  0  0  0  0  0  0  0
   -2.6121   -2.8657   -1.2488 C   0  0  0  0  0  0  0  0  0  0  0  0
   -3.7003   -2.1314   -1.7366 C   0  0  0  0  0  0  0  0  0  0  0  0
   -5.0077   -2.5670   -1.5127 C   0  0  0  0  0  0  0  0  0  0  0  0
   -5.2406   -3.7433   -0.8034 C   0  0  0  0  0  0  0  0  0  0  0  0
   -4.1665   -4.4852   -0.3171 C   0  0  0  0  0  0  0  0  0  0  0  0
   -2.8588   -4.0505   -0.5397 C   0  0  0  0  0  0  0  0  0  0  0  0
   -0.5989   -0.5182    0.1202 C   0  0  0  0  0  0  0  0  0  0  0  0
    0.6252    0.0600    0.4639 C   0  0  0  0  0  0  0  0  0  0  0  0
    0.4124    1.3603    0.8467 C   0  0  0  0  0  0  0  0  0  0  0  0
    1.2795    2.2987    1.2196 O   0  0  0  0  0  0  0  0  0  0  0  0
   -0.9663    1.6112    0.7064 N   0  0  0  0  0  0  0  0  0  0  0  0
   -1.6227    2.8727    0.8856 C   0  0  0  0  0  0  0  0  0  0  0  0
   -1.1332    3.8108    1.8065 C   0  0  0  0  0  0  0  0  0  0  0  0
   -1.7809    5.0382    1.9736 C   0  0  0  0  0  0  0  0  0  0  0  0
   -2.9079    5.3308    1.2170 C   0  0  0  0  0  0  0  0  0  0  0  0
   -3.5245    6.5087    1.3776 F   0  0  0  0  0  0  0  0  0  0  0  0
   -3.4014    4.4199    0.2922 C   0  0  0  0  0  0  0  0  0  0  0  0
   -2.7596    3.1904    0.1223 C   0  0  0  0  0  0  0  0  0  0  0  0
   -1.5876    0.4039    0.3278 C   0  0  0  0  0  0  0  0  0  0  0  0
   -2.9044    0.2254    0.2646 O   0  0  0  0  0  0  0  0  0  0  0  0
    6.8229    0.8551    1.4198 H   0  0  0  0  0  0  0  0  0  0  0  0
    7.2588   -0.6646    0.5854 H   0  0  0  0  0  0  0  0  0  0  0  0
    6.2157   -0.6941    1.9992 H   0  0  0  0  0  0  0  0  0  0  0  0
    4.3909    1.3700   -2.8565 H   0  0  0  0  0  0  0  0  0  0  0  0
    2.1686    0.4815   -2.2122 H   0  0  0  0  0  0  0  0  0  0  0  0
    4.2257   -1.3655    2.4456 H   0  0  0  0  0  0  0  0  0  0  0  0
    1.2105   -1.7960   -1.4648 H   0  0  0  0  0  0  0  0  0  0  0  0
   -0.6652   -2.5842    0.6171 H   0  0  0  0  0  0  0  0  0  0  0  0
   -1.1844   -1.6188   -2.2690 H   0  0  0  0  0  0  0  0  0  0  0  0
   -0.6731   -3.2627   -1.9586 H   0  0  0  0  0  0  0  0  0  0  0  0
   -3.5369   -1.2044   -2.2812 H   0  0  0  0  0  0  0  0  0  0  0  0
   -5.8439   -1.9842   -1.8887 H   0  0  0  0  0  0  0  0  0  0  0  0
   -6.2585   -4.0805   -0.6281 H   0  0  0  0  0  0  0  0  0  0  0  0
   -4.3458   -5.4031    0.2363 H   0  0  0  0  0  0  0  0  0  0  0  0
   -2.0317   -4.6449   -0.1571 H   0  0  0  0  0  0  0  0  0  0  0  0
    2.1758    1.9204    1.1866 H   0  0  0  0  0  0  0  0  0  0  0  0
   -0.2695    3.5989    2.4313 H   0  0  0  0  0  0  0  0  0  0  0  0
   -1.4123    5.7637    2.6921 H   0  0  0  0  0  0  0  0  0  0  0  0
   -4.2728    4.6779   -0.3018 H   0  0  0  0  0  0  0  0  0  0  0  0
   -3.1342    2.5197   -0.6485 H   0  0  0  0  0  0  0  0  0  0  0  0
   -3.3325    0.8330    0.8942 H   0  0  0  0  0  0  0  0  0  0  0  0
  1  2  1  0
  2  3  2  0
  3  4  1  0
  3  5  1  0
  5  6  2  0
  6  7  1  0
  7  8  2  0
  8  9  1  0
  9 10  1  0
 10 11  2  0
 10 12  1  0
 12 13  1  0
 13 14  1  0
 14 15  1  0
 15 16  1  0
 16 17  2  0
 17 18  1  0
 18 19  2  0
 19 20  1  0
 20 21  2  0
 14 22  1  0
 22 23  1  0
 23 24  2  0
 24 25  1  0
 24 26  1  0
 26 27  1  0
 27 28  2  0
 28 29  1  0
 29 30  2  0
 30 31  1  0
 30 32  1  0
 32 33  2  0
 26 34  1  0
 34 35  1  0
  8  2  1  0
 23 12  1  0
 33 27  1  0
 12  7  1  0
 21 16  1  0
 34 22  2  0
  1 36  1  0
  1 37  1  0
  1 38  1  0
  5 39  1  0
  6 40  1  0
  9 41  1  0
 13 42  1  0
 14 43  1  1
 15 44  1  0
 15 45  1  0
 17 46  1  0
 18 47  1  0
 19 48  1  0
 20 49  1  0
 21 50  1  0
 25 51  1  0
 28 52  1  0
 29 53  1  0
 32 54  1  0
 33 55  1  0
 35 56  1  0
M  END
$$$$
