
     RDKit          3D

 33 34  0  0  0  0  0  0  0  0999 V2000
   -2.6734   -1.1538   -1.3578 C   0  0  0  0  0  0  0  0  0  0  0  0
   -2.3202   -0.6458    0.0341 C   0  0  0  0  0  0  0  0  0  0  0  0
   -1.5300    0.6042   -0.0361 N   0  0  0  0  0  0  0  0  0  0  0  0
   -1.5909    1.4161    1.1977 C   0  0  0  0  0  0  0  0  0  0  0  0
   -2.8004    2.3411    1.1389 C   0  0  0  0  0  0  0  0  0  0  0  0
   -0.1694    0.3487   -0.4166 C   0  0  0  0  0  0  0  0  0  0  0  0
    0.1773    0.8043   -1.7038 C   0  0  0  0  0  0  0  0  0  0  0  0
    1.4577    0.6250   -2.1974 C   0  0  0  0  0  0  0  0  0  0  0  0
    2.3970   -0.0119   -1.3857 C   0  0  0  0  0  0  0  0  0  0  0  0
    3.7290   -0.1675   -1.9405 N   0  0  0  0  0  4  0  0  0  0  0  0
    3.8332   -0.8511   -2.9674 O   0  0  0  0  0  0  0  0  0  0  0  0
    4.6586    0.4074   -1.3590 O   0  0  0  0  0  1  0  0  0  0  0  0
    2.0985   -0.4939   -0.0843 C   0  0  0  0  0  0  0  0  0  0  0  0
    3.0219   -1.1655    0.7573 C   0  0  0  0  0  0  0  0  0  0  0  0
    2.6503   -1.6054    2.0195 C   0  0  0  0  0  0  0  0  0  0  0  0
    1.3575   -1.3688    2.4188 C   0  0  0  0  0  0  0  0  0  0  0  0
    0.4449   -0.7413    1.6497 N   0  0  0  0  0  0  0  0  0  0  0  0
    0.7866   -0.3053    0.4117 C   0  0  0  0  0  0  0  0  0  0  0  0
   -1.7845   -1.4819   -1.9055 H   0  0  0  0  0  0  0  0  0  0  0  0
   -3.1666   -0.3738   -1.9473 H   0  0  0  0  0  0  0  0  0  0  0  0
   -3.3532   -2.0088   -1.2855 H   0  0  0  0  0  0  0  0  0  0  0  0
   -1.8152   -1.4320    0.6063 H   0  0  0  0  0  0  0  0  0  0  0  0
   -3.2642   -0.4463    0.5554 H   0  0  0  0  0  0  0  0  0  0  0  0
   -0.7006    2.0506    1.3017 H   0  0  0  0  0  0  0  0  0  0  0  0
   -1.6566    0.7835    2.0910 H   0  0  0  0  0  0  0  0  0  0  0  0
   -2.7521    2.9907    0.2584 H   0  0  0  0  0  0  0  0  0  0  0  0
   -3.7370    1.7774    1.0872 H   0  0  0  0  0  0  0  0  0  0  0  0
   -2.8360    2.9751    2.0303 H   0  0  0  0  0  0  0  0  0  0  0  0
   -0.5760    1.3019   -2.3117 H   0  0  0  0  0  0  0  0  0  0  0  0
    1.7121    0.9789   -3.1935 H   0  0  0  0  0  0  0  0  0  0  0  0
    4.0466   -1.3517    0.4405 H   0  0  0  0  0  0  0  0  0  0  0  0
    3.3528   -2.1151    2.6689 H   0  0  0  0  0  0  0  0  0  0  0  0
    1.0023   -1.6851    3.3952 H   0  0  0  0  0  0  0  0  0  0  0  0
  1  2  1  0
  2  3  1  0
  3  4  1  0
  4  5  1  0
  3  6  1  0
  6  7  2  0
  7  8  1  0
  8  9  2  0
  9 10  1  0
 10 11  2  0
 10 12  1  0
  9 13  1  0
 13 14  2  0
 14 15  1  0
 15 16  2  0
 16 17  1  0
 17 18  2  0
 18  6  1  0
 18 13  1  0
  1 19  1  0
  1 20  1  0
  1 21  1  0
  2 22  1  0
  2 23  1  0
  4 24  1  0
  4 25  1  0
  5 26  1  0
  5 27  1  0
  5 28  1  0
  7 29  1  0
  8 30  1  0
 14 31  1  0
 15 32  1  0
 16 33  1  0
M  CHG  2  10   1  12  -1
M  END
$$$$
