
     RDKit          3D

 33 34  0  0  0  0  0  0  0  0999 V2000
   -2.0694    0.3541    2.4005 C   0  0  0  0  0  0  0  0  0  0  0  0
   -1.5406    1.2887    1.3197 C   0  0  0  0  0  0  0  0  0  0  0  0
   -1.4467    0.6103    0.0167 N   0  0  0  0  0  0  0  0  0  0  0  0
   -2.6914    0.5964   -0.7679 C   0  0  0  0  0  0  0  0  0  0  0  0
   -2.8117    1.8417   -1.6368 C   0  0  0  0  0  0  0  0  0  0  0  0
   -0.2560    0.0026   -0.4375 C   0  0  0  0  0  0  0  0  0  0  0  0
   -0.1676   -0.3563   -1.8058 C   0  0  0  0  0  0  0  0  0  0  0  0
    0.9572   -0.9531   -2.3559 C   0  0  0  0  0  0  0  0  0  0  0  0
    2.0388   -1.2115   -1.5277 C   0  0  0  0  0  0  0  0  0  0  0  0
    3.1866   -1.8463   -2.1477 N   0  0  0  0  0  4  0  0  0  0  0  0
    3.4713   -2.9930   -1.7779 O   0  0  0  0  0  0  0  0  0  0  0  0
    3.7835   -1.1992   -3.0182 O   0  0  0  0  0  1  0  0  0  0  0  0
    2.0441   -0.8818   -0.1561 C   0  0  0  0  0  0  0  0  0  0  0  0
    3.1553   -1.1242    0.6939 C   0  0  0  0  0  0  0  0  0  0  0  0
    3.1163   -0.7948    2.0374 C   0  0  0  0  0  0  0  0  0  0  0  0
    1.9625   -0.2251    2.5043 C   0  0  0  0  0  0  0  0  0  0  0  0
    0.8916    0.0285    1.7240 N   0  0  0  0  0  0  0  0  0  0  0  0
    0.8858   -0.2709    0.4005 C   0  0  0  0  0  0  0  0  0  0  0  0
   -2.0670    0.8612    3.3704 H   0  0  0  0  0  0  0  0  0  0  0  0
   -3.0997    0.0513    2.1861 H   0  0  0  0  0  0  0  0  0  0  0  0
   -1.4776   -0.5609    2.4896 H   0  0  0  0  0  0  0  0  0  0  0  0
   -2.2465    2.1257    1.2358 H   0  0  0  0  0  0  0  0  0  0  0  0
   -0.6044    1.7751    1.6086 H   0  0  0  0  0  0  0  0  0  0  0  0
   -3.5543    0.5699   -0.0906 H   0  0  0  0  0  0  0  0  0  0  0  0
   -2.7868   -0.3150   -1.3689 H   0  0  0  0  0  0  0  0  0  0  0  0
   -2.8287    2.7496   -1.0251 H   0  0  0  0  0  0  0  0  0  0  0  0
   -1.9780    1.9348   -2.3387 H   0  0  0  0  0  0  0  0  0  0  0  0
   -3.7404    1.8086   -2.2152 H   0  0  0  0  0  0  0  0  0  0  0  0
   -0.9840   -0.1560   -2.4929 H   0  0  0  0  0  0  0  0  0  0  0  0
    0.9777   -1.2040   -3.4138 H   0  0  0  0  0  0  0  0  0  0  0  0
    4.0698   -1.5810    0.3195 H   0  0  0  0  0  0  0  0  0  0  0  0
    3.9581   -0.9824    2.6931 H   0  0  0  0  0  0  0  0  0  0  0  0
    1.8523    0.0569    3.5471 H   0  0  0  0  0  0  0  0  0  0  0  0
  1  2  1  0
  2  3  1  0
  3  4  1  0
  4  5  1  0
  3  6  1  0
  6  7  2  0
  7  8  1  0
  8  9  2  0
  9 10  1  0
 10 11  2  0
 10 12  1  0
  9 13  1  0
 13 14  2  0
 14 15  1  0
 15 16  2  0
 16 17  1  0
 17 18  2  0
 18  6  1  0
 18 13  1  0
  1 19  1  0
  1 20  1  0
  1 21  1  0
  2 22  1  0
  2 23  1  0
  4 24  1  0
  4 25  1  0
  5 26  1  0
  5 27  1  0
  5 28  1  0
  7 29  1  0
  8 30  1  0
 14 31  1  0
 15 32  1  0
 16 33  1  0
M  CHG  2  10   1  12  -1
M  END
$$$$
