
     RDKit          3D

 44 46  0  0  0  0  0  0  0  0999 V2000
   -5.4745   -0.2820   -3.5394 C   0  0  0  0  0  0  0  0  0  0  0  0
   -4.7170   -0.7190   -2.3196 C   0  0  0  0  0  0  0  0  0  0  0  0
   -4.4015   -2.0717   -2.1300 C   0  0  0  0  0  0  0  0  0  0  0  0
   -3.7257   -2.4862   -0.9812 C   0  0  0  0  0  0  0  0  0  0  0  0
   -3.3664   -1.5419   -0.0166 C   0  0  0  0  0  0  0  0  0  0  0  0
   -2.5167   -2.0708    1.4476 S   0  0  0  0  0  6  0  0  0  0  0  0
   -2.9925   -3.4009    1.7689 O   0  0  0  0  0  0  0  0  0  0  0  0
   -2.5607   -1.0100    2.4303 O   0  0  0  0  0  0  0  0  0  0  0  0
   -0.9247   -2.2687    0.9053 N   0  0  0  0  0  0  0  0  0  0  0  0
   -0.1194   -1.1039    0.7727 C   0  0  0  0  0  0  0  0  0  0  0  0
   -0.1295   -0.3974   -0.4283 C   0  0  0  0  0  0  0  0  0  0  0  0
    0.6196    0.7777   -0.5628 C   0  0  0  0  0  0  0  0  0  0  0  0
    0.6066    1.5374   -1.8585 C   0  0  0  0  0  0  0  0  0  0  0  0
    1.3824    1.2246    0.5273 C   0  0  0  0  0  0  0  0  0  0  0  0
    2.1075    2.3733    0.3414 O   0  0  0  0  0  0  0  0  0  0  0  0
    1.3883    0.5263    1.7476 C   0  0  0  0  0  0  0  0  0  0  0  0
    2.2427    1.0860    3.2157 S   0  0  0  0  0  0  0  0  0  0  0  0
    3.9084    0.9877    2.7287 C   0  0  0  0  0  0  0  0  0  0  0  0
    4.8048    0.2308    3.3636 N   0  0  0  0  0  0  0  0  0  0  0  0
    5.9203    0.4953    2.6668 N   0  0  0  0  0  0  0  0  0  0  0  0
    5.6779    1.3853    1.6581 C   0  0  0  0  0  0  0  0  0  0  0  0
    6.7275    1.8560    0.7307 C   0  0  0  0  0  0  0  0  0  0  0  0
    4.4049    1.7195    1.6805 N   0  0  0  0  0  0  0  0  0  0  0  0
    0.6212   -0.6414    1.8595 C   0  0  0  0  0  0  0  0  0  0  0  0
   -3.7002   -0.1950   -0.1775 C   0  0  0  0  0  0  0  0  0  0  0  0
   -4.3744    0.2125   -1.3295 C   0  0  0  0  0  0  0  0  0  0  0  0
   -6.5511   -0.3333   -3.3496 H   0  0  0  0  0  0  0  0  0  0  0  0
   -5.2350   -0.9198   -4.3968 H   0  0  0  0  0  0  0  0  0  0  0  0
   -5.2114    0.7446   -3.8154 H   0  0  0  0  0  0  0  0  0  0  0  0
   -4.6852   -2.8111   -2.8763 H   0  0  0  0  0  0  0  0  0  0  0  0
   -3.4876   -3.5385   -0.8437 H   0  0  0  0  0  0  0  0  0  0  0  0
   -0.5014   -3.0858    1.3442 H   0  0  0  0  0  0  0  0  0  0  0  0
   -0.7164   -0.7642   -1.2670 H   0  0  0  0  0  0  0  0  0  0  0  0
    1.6134    1.5731   -2.2869 H   0  0  0  0  0  0  0  0  0  0  0  0
    0.2433    2.5576   -1.6972 H   0  0  0  0  0  0  0  0  0  0  0  0
   -0.0517    1.0641   -2.5946 H   0  0  0  0  0  0  0  0  0  0  0  0
    2.8733    2.3511    0.9535 H   0  0  0  0  0  0  0  0  0  0  0  0
    6.7907    0.0459    2.9297 H   0  0  0  0  0  0  0  0  0  0  0  0
    6.3138    2.5702    0.0121 H   0  0  0  0  0  0  0  0  0  0  0  0
    7.1521    1.0170    0.1710 H   0  0  0  0  0  0  0  0  0  0  0  0
    7.5333    2.3530    1.2794 H   0  0  0  0  0  0  0  0  0  0  0  0
    0.5830   -1.1790    2.8040 H   0  0  0  0  0  0  0  0  0  0  0  0
   -3.4378    0.5391    0.5815 H   0  0  0  0  0  0  0  0  0  0  0  0
   -4.6342    1.2626   -1.4493 H   0  0  0  0  0  0  0  0  0  0  0  0
  1  2  1  0
  2  3  2  0
  3  4  1  0
  4  5  2  0
  5  6  1  0
  6  7  2  0
  6  8  2  0
  6  9  1  0
  9 10  1  0
 10 11  2  0
 11 12  1  0
 12 13  1  0
 12 14  2  0
 14 15  1  0
 14 16  1  0
 16 17  1  0
 17 18  1  0
 18 19  2  0
 19 20  1  0
 20 21  1  0
 21 22  1  0
 21 23  2  0
 16 24  2  0
  5 25  1  0
 25 26  2  0
 26  2  1  0
 24 10  1  0
 23 18  1  0
  1 27  1  0
  1 28  1  0
  1 29  1  0
  3 30  1  0
  4 31  1  0
  9 32  1  0
 11 33  1  0
 13 34  1  0
 13 35  1  0
 13 36  1  0
 15 37  1  0
 20 38  1  0
 22 39  1  0
 22 40  1  0
 22 41  1  0
 24 42  1  0
 25 43  1  0
 26 44  1  0
M  END
$$$$
