
     RDKit          3D

 38 41  0  0  0  0  0  0  0  0999 V2000
    1.2256   -0.4369   -1.4609 O   0  0  0  0  0  0  0  0  0  0  0  0
    1.4783   -0.0547   -0.3200 C   0  0  0  0  0  0  0  0  0  0  0  0
    0.4012    0.2455    0.7097 C   0  0  0  0  0  0  0  0  0  0  0  0
   -1.0198    0.0324    0.2059 C   0  0  0  0  0  0  0  0  0  0  0  0
   -1.6501   -1.2390    0.3477 C   0  0  0  0  0  0  0  0  0  0  0  0
   -1.0261   -2.4024    0.8703 C   0  0  0  0  0  0  0  0  0  0  0  0
   -1.7135   -3.6104    0.9931 C   0  0  0  0  0  0  0  0  0  0  0  0
   -3.0374   -3.6850    0.5939 C   0  0  0  0  0  0  0  0  0  0  0  0
   -3.6582   -2.5530    0.0665 C   0  0  0  0  0  0  0  0  0  0  0  0
   -2.9925   -1.3419   -0.0697 C   0  0  0  0  0  0  0  0  0  0  0  0
   -3.6766   -0.3211   -0.5990 N   0  0  0  0  0  0  0  0  0  0  0  0
   -3.0671    0.8548   -0.7884 C   0  0  0  0  0  0  0  0  0  0  0  0
   -3.8083    1.8690   -1.3803 C   0  0  0  0  0  0  0  0  0  0  0  0
   -3.2689    3.1294   -1.6356 C   0  0  0  0  0  0  0  0  0  0  0  0
   -1.9511    3.3863   -1.2960 C   0  0  0  0  0  0  0  0  0  0  0  0
   -1.1886    2.3838   -0.6956 C   0  0  0  0  0  0  0  0  0  0  0  0
   -1.7296    1.1007   -0.4178 C   0  0  0  0  0  0  0  0  0  0  0  0
    2.9107    0.1242    0.0768 C   0  0  0  0  0  0  0  0  0  0  0  0
    3.2924    0.5551    1.3542 C   0  0  0  0  0  0  0  0  0  0  0  0
    4.6463    0.7048    1.6701 C   0  0  0  0  0  0  0  0  0  0  0  0
    5.6246    0.4267    0.7170 C   0  0  0  0  0  0  0  0  0  0  0  0
    5.2542   -0.0021   -0.5553 C   0  0  0  0  0  0  0  0  0  0  0  0
    3.9034   -0.1529   -0.8746 C   0  0  0  0  0  0  0  0  0  0  0  0
    0.5151    1.2775    1.0583 H   0  0  0  0  0  0  0  0  0  0  0  0
    0.5712   -0.3722    1.5980 H   0  0  0  0  0  0  0  0  0  0  0  0
    0.0170   -2.3931    1.1724 H   0  0  0  0  0  0  0  0  0  0  0  0
   -1.2109   -4.4878    1.3916 H   0  0  0  0  0  0  0  0  0  0  0  0
   -3.5882   -4.6176    0.6792 H   0  0  0  0  0  0  0  0  0  0  0  0
   -4.6950   -2.6178   -0.2565 H   0  0  0  0  0  0  0  0  0  0  0  0
   -4.8405    1.6668   -1.6584 H   0  0  0  0  0  0  0  0  0  0  0  0
   -3.8773    3.8965   -2.1064 H   0  0  0  0  0  0  0  0  0  0  0  0
   -1.5114    4.3584   -1.5027 H   0  0  0  0  0  0  0  0  0  0  0  0
   -0.1532    2.6186   -0.4673 H   0  0  0  0  0  0  0  0  0  0  0  0
    2.5640    0.7826    2.1263 H   0  0  0  0  0  0  0  0  0  0  0  0
    4.9395    1.0395    2.6627 H   0  0  0  0  0  0  0  0  0  0  0  0
    6.6768    0.5441    0.9656 H   0  0  0  0  0  0  0  0  0  0  0  0
    6.0149   -0.2200   -1.3012 H   0  0  0  0  0  0  0  0  0  0  0  0
    3.6292   -0.4890   -1.8736 H   0  0  0  0  0  0  0  0  0  0  0  0
  1  2  2  0
  2  3  1  0
  3  4  1  0
  4  5  1  0
  5  6  2  0
  6  7  1  0
  7  8  2  0
  8  9  1  0
  9 10  2  0
 10 11  1  0
 11 12  2  0
 12 13  1  0
 13 14  2  0
 14 15  1  0
 15 16  2  0
 16 17  1  0
  2 18  1  0
 18 19  2  0
 19 20  1  0
 20 21  2  0
 21 22  1  0
 22 23  2  0
 17  4  2  0
 23 18  1  0
 10  5  1  0
 17 12  1  0
  3 24  1  0
  3 25  1  0
  6 26  1  0
  7 27  1  0
  8 28  1  0
  9 29  1  0
 13 30  1  0
 14 31  1  0
 15 32  1  0
 16 33  1  0
 19 34  1  0
 20 35  1  0
 21 36  1  0
 22 37  1  0
 23 38  1  0
M  END
$$$$
