
     RDKit          3D

 57 60  0  0  0  0  0  0  0  0999 V2000
   -5.4960   -1.3231    1.2730 C   0  0  0  0  0  0  0  0  0  0  0  0
   -4.6671   -2.1773    0.3155 C   0  0  0  0  0  0  0  0  0  0  0  0
   -5.4876   -3.3925   -0.1269 C   0  0  0  0  0  0  0  0  0  0  0  0
   -4.2318   -1.3520   -0.8991 C   0  0  0  0  0  0  0  0  0  0  0  0
   -4.8523   -1.4363   -1.9620 O   0  0  0  0  0  0  0  0  0  0  0  0
   -3.1365   -0.5045   -0.7722 N   0  0  0  0  0  0  0  0  0  0  0  0
   -2.4822   -0.1404    0.4921 C   0  0  0  0  0  0  0  0  0  0  0  0
   -0.9742    0.0989    0.3180 C   0  0  0  0  0  0  0  0  0  0  0  0
   -0.6775    1.0689   -0.7595 N   0  0  0  0  0  0  0  0  0  0  0  0
   -0.6007    2.4050   -0.3156 C   0  0  0  0  0  0  0  0  0  0  0  0
   -1.6797    3.2957   -0.3672 C   0  0  0  0  0  0  0  0  0  0  0  0
   -1.5647    4.5942    0.1369 C   0  0  0  0  0  0  0  0  0  0  0  0
   -0.3671    5.0234    0.7004 C   0  0  0  0  0  0  0  0  0  0  0  0
    0.7283    4.1624    0.7524 C   0  0  0  0  0  0  0  0  0  0  0  0
    0.6243    2.8682    0.2401 C   0  0  0  0  0  0  0  0  0  0  0  0
    1.7006    1.9537    0.2007 N   0  0  0  0  0  0  0  0  0  0  0  0
    2.9959    2.1302    0.6327 C   0  0  0  0  0  0  0  0  0  0  0  0
    3.4702    3.1422    1.1352 O   0  0  0  0  0  0  0  0  0  0  0  0
    3.8926    0.9550    0.4312 C   0  0  0  0  0  0  0  0  0  0  0  0
    5.2555    1.1884    0.1968 C   0  0  0  0  0  0  0  0  0  0  0  0
    6.1325    0.1173    0.0105 C   0  0  0  0  0  0  0  0  0  0  0  0
    5.6523   -1.1887    0.0708 C   0  0  0  0  0  0  0  0  0  0  0  0
    4.2916   -1.4260    0.2940 C   0  0  0  0  0  0  0  0  0  0  0  0
    3.4144   -0.3605    0.4940 C   0  0  0  0  0  0  0  0  0  0  0  0
    3.7466   -2.6843    0.3433 O   0  0  0  0  0  0  0  0  0  0  0  0
    4.6425   -3.6626   -0.1992 C   0  0  0  0  0  0  0  0  0  0  0  0
    6.0514   -3.4547    0.3313 C   0  0  0  0  0  0  0  0  0  0  0  0
    6.5713   -2.1917   -0.0992 O   0  0  0  0  0  0  0  0  0  0  0  0
   -1.3650    0.7794   -2.0353 C   0  0  0  0  0  0  0  0  0  0  0  0
   -2.8511    0.4027   -1.8912 C   0  0  0  0  0  0  0  0  0  0  0  0
   -4.9378   -0.4600    1.6448 H   0  0  0  0  0  0  0  0  0  0  0  0
   -6.3932   -0.9357    0.7768 H   0  0  0  0  0  0  0  0  0  0  0  0
   -5.8150   -1.9105    2.1404 H   0  0  0  0  0  0  0  0  0  0  0  0
   -3.7787   -2.5666    0.8225 H   0  0  0  0  0  0  0  0  0  0  0  0
   -6.4220   -3.0936   -0.6149 H   0  0  0  0  0  0  0  0  0  0  0  0
   -5.7416   -4.0226    0.7320 H   0  0  0  0  0  0  0  0  0  0  0  0
   -4.9221   -4.0041   -0.8385 H   0  0  0  0  0  0  0  0  0  0  0  0
   -2.6239   -0.9133    1.2489 H   0  0  0  0  0  0  0  0  0  0  0  0
   -2.9744    0.7690    0.8557 H   0  0  0  0  0  0  0  0  0  0  0  0
   -0.4957   -0.8506    0.0457 H   0  0  0  0  0  0  0  0  0  0  0  0
   -0.5335    0.4041    1.2751 H   0  0  0  0  0  0  0  0  0  0  0  0
   -2.6369    2.9995   -0.7763 H   0  0  0  0  0  0  0  0  0  0  0  0
   -2.4154    5.2699    0.0941 H   0  0  0  0  0  0  0  0  0  0  0  0
   -0.2786    6.0328    1.0942 H   0  0  0  0  0  0  0  0  0  0  0  0
    1.6530    4.5311    1.1839 H   0  0  0  0  0  0  0  0  0  0  0  0
    1.4521    1.1086   -0.3044 H   0  0  0  0  0  0  0  0  0  0  0  0
    5.6363    2.2077    0.1610 H   0  0  0  0  0  0  0  0  0  0  0  0
    7.1884    0.3027   -0.1669 H   0  0  0  0  0  0  0  0  0  0  0  0
    2.3730   -0.5743    0.7115 H   0  0  0  0  0  0  0  0  0  0  0  0
    4.6112   -3.5940   -1.2937 H   0  0  0  0  0  0  0  0  0  0  0  0
    4.2702   -4.6498    0.0918 H   0  0  0  0  0  0  0  0  0  0  0  0
    6.7181   -4.2349   -0.0489 H   0  0  0  0  0  0  0  0  0  0  0  0
    6.0768   -3.4872    1.4276 H   0  0  0  0  0  0  0  0  0  0  0  0
   -1.2468    1.6050   -2.7479 H   0  0  0  0  0  0  0  0  0  0  0  0
   -0.8449   -0.0788   -2.4803 H   0  0  0  0  0  0  0  0  0  0  0  0
   -3.4675    1.2929   -1.7327 H   0  0  0  0  0  0  0  0  0  0  0  0
   -3.1878   -0.0383   -2.8362 H   0  0  0  0  0  0  0  0  0  0  0  0
  1  2  1  0
  2  3  1  0
  2  4  1  0
  4  5  2  0
  4  6  1  0
  6  7  1  0
  7  8  1  0
  8  9  1  0
  9 10  1  0
 10 11  2  0
 11 12  1  0
 12 13  2  0
 13 14  1  0
 14 15  2  0
 15 16  1  0
 16 17  1  0
 17 18  2  0
 17 19  1  0
 19 20  2  0
 20 21  1  0
 21 22  2  0
 22 23  1  0
 23 24  2  0
 23 25  1  0
 25 26  1  0
 26 27  1  0
 27 28  1  0
  9 29  1  0
 29 30  1  0
 30  6  1  0
 15 10  1  0
 24 19  1  0
 28 22  1  0
  1 31  1  0
  1 32  1  0
  1 33  1  0
  2 34  1  0
  3 35  1  0
  3 36  1  0
  3 37  1  0
  7 38  1  0
  7 39  1  0
  8 40  1  0
  8 41  1  0
 11 42  1  0
 12 43  1  0
 13 44  1  0
 14 45  1  0
 16 46  1  0
 20 47  1  0
 21 48  1  0
 24 49  1  0
 26 50  1  0
 26 51  1  0
 27 52  1  0
 27 53  1  0
 29 54  1  0
 29 55  1  0
 30 56  1  0
 30 57  1  0
M  END
$$$$
