
     RDKit          3D

 46 48  0  0  0  0  0  0  0  0999 V2000
   -7.6448   -1.9450    1.7475 C   0  0  0  0  0  0  0  0  0  0  0  0
   -7.3721   -0.7491    1.0272 O   0  0  0  0  0  0  0  0  0  0  0  0
   -6.1397   -0.6509    0.4396 C   0  0  0  0  0  0  0  0  0  0  0  0
   -5.1702   -1.6499    0.4038 C   0  0  0  0  0  0  0  0  0  0  0  0
   -3.9505   -1.4172   -0.2375 C   0  0  0  0  0  0  0  0  0  0  0  0
   -3.6796   -0.1794   -0.8358 C   0  0  0  0  0  0  0  0  0  0  0  0
   -2.4041    0.0373   -1.5367 C   0  0  0  0  0  0  0  0  0  0  0  0
   -1.1697   -0.0051   -1.0137 C   0  0  0  0  0  0  0  0  0  0  0  0
    0.2452    0.3054   -1.9940 S   0  0  0  0  0  0  0  0  0  0  0  0
    1.2910    0.0872   -0.6314 C   0  0  0  0  0  0  0  0  0  0  0  0
    2.6215    0.1995   -0.7093 C   0  0  0  0  0  0  0  0  0  0  0  0
    3.5004    0.0055    0.4755 C   0  0  0  0  0  0  0  0  0  0  0  0
    3.0409   -0.1215    1.6071 O   0  0  0  0  0  0  0  0  0  0  0  0
    4.9722    0.0018    0.2642 C   0  0  0  0  0  0  0  0  0  0  0  0
    5.7870    0.4513    1.3103 C   0  0  0  0  0  0  0  0  0  0  0  0
    7.1763    0.4663    1.1660 C   0  0  0  0  0  0  0  0  0  0  0  0
    7.7702    0.0118   -0.0168 C   0  0  0  0  0  0  0  0  0  0  0  0
    9.2608    0.0568   -0.1837 C   0  0  0  0  0  0  0  0  0  0  0  0
    6.9535   -0.4416   -1.0598 C   0  0  0  0  0  0  0  0  0  0  0  0
    5.5621   -0.4572   -0.9192 C   0  0  0  0  0  0  0  0  0  0  0  0
    0.5895   -0.2085    0.4952 N   0  0  0  0  0  0  0  0  0  0  0  0
   -0.7771   -0.2779    0.4036 C   0  0  0  0  0  0  0  0  0  0  0  0
   -1.5174   -0.5287    1.3389 O   0  0  0  0  0  0  0  0  0  0  0  0
   -4.6630    0.8282   -0.8130 C   0  0  0  0  0  0  0  0  0  0  0  0
   -4.3414    2.0046   -1.4459 O   0  0  0  0  0  0  0  0  0  0  0  0
   -5.2523    3.0874   -1.3077 C   0  0  0  0  0  0  0  0  0  0  0  0
   -5.8840    0.5805   -0.1746 C   0  0  0  0  0  0  0  0  0  0  0  0
   -6.9299   -2.0878    2.5647 H   0  0  0  0  0  0  0  0  0  0  0  0
   -8.6409   -1.8484    2.1901 H   0  0  0  0  0  0  0  0  0  0  0  0
   -7.6609   -2.8120    1.0787 H   0  0  0  0  0  0  0  0  0  0  0  0
   -5.3250   -2.6197    0.8640 H   0  0  0  0  0  0  0  0  0  0  0  0
   -3.2058   -2.2101   -0.2515 H   0  0  0  0  0  0  0  0  0  0  0  0
   -2.5328    0.2956   -2.5863 H   0  0  0  0  0  0  0  0  0  0  0  0
    3.0910    0.4586   -1.6501 H   0  0  0  0  0  0  0  0  0  0  0  0
    5.3427    0.7966    2.2424 H   0  0  0  0  0  0  0  0  0  0  0  0
    7.7911    0.8306    1.9867 H   0  0  0  0  0  0  0  0  0  0  0  0
    9.7664   -0.0687    0.7795 H   0  0  0  0  0  0  0  0  0  0  0  0
    9.5593    1.0156   -0.6180 H   0  0  0  0  0  0  0  0  0  0  0  0
    9.6049   -0.7510   -0.8381 H   0  0  0  0  0  0  0  0  0  0  0  0
    7.3988   -0.7963   -1.9875 H   0  0  0  0  0  0  0  0  0  0  0  0
    4.9661   -0.8523   -1.7367 H   0  0  0  0  0  0  0  0  0  0  0  0
    1.0578   -0.3447    1.3885 H   0  0  0  0  0  0  0  0  0  0  0  0
   -5.4059    3.3467   -0.2549 H   0  0  0  0  0  0  0  0  0  0  0  0
   -4.8124    3.9583   -1.8030 H   0  0  0  0  0  0  0  0  0  0  0  0
   -6.2021    2.8675   -1.8059 H   0  0  0  0  0  0  0  0  0  0  0  0
   -6.6673    1.3301   -0.1367 H   0  0  0  0  0  0  0  0  0  0  0  0
  1  2  1  0
  2  3  1  0
  3  4  2  0
  4  5  1  0
  5  6  2  0
  6  7  1  0
  7  8  2  3
  8  9  1  0
  9 10  1  0
 10 11  2  3
 11 12  1  0
 12 13  2  0
 12 14  1  0
 14 15  2  0
 15 16  1  0
 16 17  2  0
 17 18  1  0
 17 19  1  0
 19 20  2  0
 10 21  1  0
 21 22  1  0
 22 23  2  0
  6 24  1  0
 24 25  1  0
 25 26  1  0
 24 27  2  0
 27  3  1  0
 22  8  1  0
 20 14  1  0
  1 28  1  0
  1 29  1  0
  1 30  1  0
  4 31  1  0
  5 32  1  0
  7 33  1  0
 11 34  1  0
 15 35  1  0
 16 36  1  0
 18 37  1  0
 18 38  1  0
 18 39  1  0
 19 40  1  0
 20 41  1  0
 21 42  1  0
 26 43  1  0
 26 44  1  0
 26 45  1  0
 27 46  1  0
M  END
$$$$
