
     RDKit          3D

 34 35  0  0  0  0  0  0  0  0999 V2000
    2.4886    3.0159    2.5383 C   0  0  0  0  0  0  0  0  0  0  0  0
    2.1259    1.8957    1.5879 C   0  0  0  0  0  0  0  0  0  0  0  0
    0.9027    1.8700    1.1432 N   0  0  0  0  0  0  0  0  0  0  0  0
    0.4858    0.8225    0.3737 N   0  0  0  0  0  0  0  0  0  0  0  0
   -0.8121    0.8110   -0.1340 C   0  0  0  0  0  0  0  0  0  0  0  0
   -1.6070    1.7369   -0.0268 O   0  0  0  0  0  0  0  0  0  0  0  0
   -1.0897   -0.4752   -0.8833 C   0  0  0  0  0  0  0  0  0  0  0  0
   -2.5288   -0.6784   -1.3531 C   0  0  0  0  0  0  0  0  0  0  0  0
   -3.0489    0.4059   -2.2940 C   0  0  0  0  0  0  0  0  0  0  0  0
   -3.4178   -0.8137   -0.2326 O   0  0  0  0  0  0  0  0  0  0  0  0
   -3.7669   -2.1945   -0.1801 C   0  0  0  0  0  0  0  0  0  0  0  0
   -3.6766   -2.6337   -1.6134 C   0  0  0  0  0  0  0  0  0  0  0  0
   -2.5340   -1.9271   -2.0957 O   0  0  0  0  0  0  0  0  0  0  0  0
    3.1655    0.9418    1.2394 C   0  0  0  0  0  0  0  0  0  0  0  0
    3.5762    0.5421   -0.0188 C   0  0  0  0  0  0  0  0  0  0  0  0
    4.6241   -0.4220    0.0336 C   0  0  0  0  0  0  0  0  0  0  0  0
    4.9824   -0.7215    1.3289 C   0  0  0  0  0  0  0  0  0  0  0  0
    4.0626    0.1602    2.4694 S   0  0  0  0  0  0  0  0  0  0  0  0
    3.5052    3.3701    2.3448 H   0  0  0  0  0  0  0  0  0  0  0  0
    1.7967    3.8545    2.4149 H   0  0  0  0  0  0  0  0  0  0  0  0
    2.4192    2.6561    3.5690 H   0  0  0  0  0  0  0  0  0  0  0  0
    1.0547   -0.0162    0.3343 H   0  0  0  0  0  0  0  0  0  0  0  0
   -0.4105   -0.5165   -1.7449 H   0  0  0  0  0  0  0  0  0  0  0  0
   -0.8127   -1.3085   -0.2234 H   0  0  0  0  0  0  0  0  0  0  0  0
   -4.0101    0.1063   -2.7285 H   0  0  0  0  0  0  0  0  0  0  0  0
   -3.2279    1.3551   -1.7833 H   0  0  0  0  0  0  0  0  0  0  0  0
   -2.3601    0.5673   -3.1298 H   0  0  0  0  0  0  0  0  0  0  0  0
   -3.0284   -2.7076    0.4451 H   0  0  0  0  0  0  0  0  0  0  0  0
   -4.7611   -2.3272    0.2534 H   0  0  0  0  0  0  0  0  0  0  0  0
   -4.5494   -2.3134   -2.1922 H   0  0  0  0  0  0  0  0  0  0  0  0
   -3.5418   -3.7118   -1.7294 H   0  0  0  0  0  0  0  0  0  0  0  0
    3.1512    0.9346   -0.9362 H   0  0  0  0  0  0  0  0  0  0  0  0
    5.0970   -0.8673   -0.8338 H   0  0  0  0  0  0  0  0  0  0  0  0
    5.7459   -1.4114    1.6629 H   0  0  0  0  0  0  0  0  0  0  0  0
  1  2  1  0
  2  3  2  3
  3  4  1  0
  4  5  1  0
  5  6  2  0
  5  7  1  0
  7  8  1  0
  8  9  1  0
  8 10  1  0
 10 11  1  0
 11 12  1  0
 12 13  1  0
  2 14  1  0
 14 15  2  0
 15 16  1  0
 16 17  2  0
 17 18  1  0
 13  8  1  0
 18 14  1  0
  1 19  1  0
  1 20  1  0
  1 21  1  0
  4 22  1  0
  7 23  1  0
  7 24  1  0
  9 25  1  0
  9 26  1  0
  9 27  1  0
 11 28  1  0
 11 29  1  0
 12 30  1  0
 12 31  1  0
 15 32  1  0
 16 33  1  0
 17 34  1  0
M  END
$$$$
