
     RDKit          3D

 59 62  0  0  0  0  0  0  0  0999 V2000
    7.3503    0.5536    4.0532 C   0  0  0  0  0  0  0  0  0  0  0  0
    6.0124    0.9388    4.3430 O   0  0  0  0  0  0  0  0  0  0  0  0
    5.0595    0.6153    3.4164 C   0  0  0  0  0  0  0  0  0  0  0  0
    3.7816    1.1081    3.7010 C   0  0  0  0  0  0  0  0  0  0  0  0
    2.7080    0.8574    2.8420 C   0  0  0  0  0  0  0  0  0  0  0  0
    2.9079    0.1037    1.6855 C   0  0  0  0  0  0  0  0  0  0  0  0
    1.8156   -0.1786    0.7554 C   0  0  0  0  0  0  0  0  0  0  0  0
    2.0167   -0.9062   -0.3592 C   0  0  0  0  0  0  0  0  0  0  0  0
    0.9892   -1.2629   -1.4023 C   0  0  0  0  0  0  0  0  0  0  0  0
   -0.3096   -0.5615   -1.1510 N   0  0  0  0  0  0  0  0  0  0  0  0
   -1.4626   -1.4962   -0.9655 C   0  0  0  0  0  0  0  0  0  0  0  0
   -1.9636   -2.2035   -2.2315 C   0  0  0  0  0  0  0  0  0  0  0  0
   -3.1884   -3.0673   -1.9610 C   0  0  0  0  0  0  0  0  0  0  0  0
   -3.1375   -4.0323   -3.1192 C   0  0  0  0  0  0  0  0  0  0  0  0
   -1.6496   -4.2730   -3.2689 C   0  0  0  0  0  0  0  0  0  0  0  0
   -0.9790   -3.1126   -2.7557 O   0  0  0  0  0  0  0  0  0  0  0  0
   -0.5193    0.8422   -2.0893 S   0  0  0  0  0  6  0  0  0  0  0  0
    0.6391    1.6897   -1.9019 O   0  0  0  0  0  0  0  0  0  0  0  0
   -0.9551    0.4662   -3.4151 O   0  0  0  0  0  0  0  0  0  0  0  0
   -1.8789    1.6551   -1.2777 C   0  0  0  0  0  0  0  0  0  0  0  0
   -1.6503    2.3277   -0.0729 C   0  0  0  0  0  0  0  0  0  0  0  0
   -2.7070    2.9853    0.5647 C   0  0  0  0  0  0  0  0  0  0  0  0
   -3.9878    2.9775   -0.0051 C   0  0  0  0  0  0  0  0  0  0  0  0
   -5.1495    3.6636    0.6358 C   0  0  0  0  0  0  0  0  0  0  0  0
   -4.9219    4.4769    1.8832 C   0  0  0  0  0  0  0  0  0  0  0  0
   -6.2707    3.5527    0.1433 O   0  0  0  0  0  0  0  0  0  0  0  0
   -4.1993    2.3088   -1.2220 C   0  0  0  0  0  0  0  0  0  0  0  0
   -3.1467    1.6527   -1.8640 C   0  0  0  0  0  0  0  0  0  0  0  0
    3.3816   -1.4535   -0.6414 C   0  0  0  0  0  0  0  0  0  0  0  0
    3.6059   -2.1531   -1.6257 O   0  0  0  0  0  0  0  0  0  0  0  0
    4.3780   -1.1564    0.2491 N   0  0  0  0  0  0  0  0  0  0  0  0
    4.1853   -0.3929    1.4061 C   0  0  0  0  0  0  0  0  0  0  0  0
    5.2612   -0.1430    2.2625 C   0  0  0  0  0  0  0  0  0  0  0  0
    7.6989    1.0100    3.1210 H   0  0  0  0  0  0  0  0  0  0  0  0
    7.4487   -0.5357    4.0221 H   0  0  0  0  0  0  0  0  0  0  0  0
    7.9867    0.9224    4.8634 H   0  0  0  0  0  0  0  0  0  0  0  0
    3.6232    1.6978    4.6015 H   0  0  0  0  0  0  0  0  0  0  0  0
    1.7277    1.2567    3.0869 H   0  0  0  0  0  0  0  0  0  0  0  0
    0.8388    0.2270    0.9919 H   0  0  0  0  0  0  0  0  0  0  0  0
    0.8549   -2.3488   -1.3691 H   0  0  0  0  0  0  0  0  0  0  0  0
    1.3547   -1.0212   -2.4074 H   0  0  0  0  0  0  0  0  0  0  0  0
   -2.2842   -0.9463   -0.4945 H   0  0  0  0  0  0  0  0  0  0  0  0
   -1.1515   -2.2477   -0.2272 H   0  0  0  0  0  0  0  0  0  0  0  0
   -2.2083   -1.4925   -3.0241 H   0  0  0  0  0  0  0  0  0  0  0  0
   -3.0797   -3.6189   -1.0191 H   0  0  0  0  0  0  0  0  0  0  0  0
   -4.1160   -2.4897   -1.9189 H   0  0  0  0  0  0  0  0  0  0  0  0
   -3.5306   -3.5511   -4.0228 H   0  0  0  0  0  0  0  0  0  0  0  0
   -3.7033   -4.9532   -2.9520 H   0  0  0  0  0  0  0  0  0  0  0  0
   -1.3248   -5.1338   -2.6755 H   0  0  0  0  0  0  0  0  0  0  0  0
   -1.3566   -4.4366   -4.3096 H   0  0  0  0  0  0  0  0  0  0  0  0
   -0.6532    2.3491    0.3648 H   0  0  0  0  0  0  0  0  0  0  0  0
   -2.5034    3.4996    1.4996 H   0  0  0  0  0  0  0  0  0  0  0  0
   -4.1905    5.2670    1.6948 H   0  0  0  0  0  0  0  0  0  0  0  0
   -4.5966    3.8298    2.7020 H   0  0  0  0  0  0  0  0  0  0  0  0
   -5.8625    4.9525    2.1771 H   0  0  0  0  0  0  0  0  0  0  0  0
   -5.1881    2.3061   -1.6815 H   0  0  0  0  0  0  0  0  0  0  0  0
   -3.3236    1.1559   -2.8153 H   0  0  0  0  0  0  0  0  0  0  0  0
    5.2889   -1.5339    0.0271 H   0  0  0  0  0  0  0  0  0  0  0  0
    6.2349   -0.5467    2.0157 H   0  0  0  0  0  0  0  0  0  0  0  0
  1  2  1  0
  2  3  1  0
  3  4  2  0
  4  5  1  0
  5  6  2  0
  6  7  1  0
  7  8  2  0
  8  9  1  0
  9 10  1  0
 10 11  1  0
 11 12  1  0
 12 13  1  0
 13 14  1  0
 14 15  1  0
 15 16  1  0
 10 17  1  0
 17 18  2  0
 17 19  2  0
 17 20  1  0
 20 21  2  0
 21 22  1  0
 22 23  2  0
 23 24  1  0
 24 25  1  0
 24 26  2  0
 23 27  1  0
 27 28  2  0
  8 29  1  0
 29 30  2  0
 29 31  1  0
 31 32  1  0
 32 33  2  0
 33  3  1  0
 32  6  1  0
 16 12  1  0
 28 20  1  0
  1 34  1  0
  1 35  1  0
  1 36  1  0
  4 37  1  0
  5 38  1  0
  7 39  1  0
  9 40  1  0
  9 41  1  0
 11 42  1  0
 11 43  1  0
 12 44  1  0
 13 45  1  0
 13 46  1  0
 14 47  1  0
 14 48  1  0
 15 49  1  0
 15 50  1  0
 21 51  1  0
 22 52  1  0
 25 53  1  0
 25 54  1  0
 25 55  1  0
 27 56  1  0
 28 57  1  0
 31 58  1  0
 33 59  1  0
M  END
$$$$
