
     RDKit          3D

 43 45  0  0  0  0  0  0  0  0999 V2000
   -7.2526    0.6383    1.3686 C   0  0  0  0  0  0  0  0  0  0  0  0
   -6.6901   -0.1533    0.2757 N   0  0  0  0  0  0  0  0  0  0  0  0
   -7.5003   -0.2138   -0.9397 C   0  0  0  0  0  0  0  0  0  0  0  0
   -5.2983   -0.2652    0.1671 C   0  0  0  0  0  0  0  0  0  0  0  0
   -4.4349    0.0710    1.2240 C   0  0  0  0  0  0  0  0  0  0  0  0
   -3.0398   -0.0542    1.1250 C   0  0  0  0  0  0  0  0  0  0  0  0
   -2.4478   -0.5242   -0.0457 C   0  0  0  0  0  0  0  0  0  0  0  0
   -0.9880   -0.6687   -0.1028 C   0  0  0  0  0  0  0  0  0  0  0  0
   -0.2517   -0.3735   -1.1855 C   0  0  0  0  0  0  0  0  0  0  0  0
    1.1867   -0.5265   -1.2677 C   0  0  0  0  0  0  0  0  0  0  0  0
    2.1211    0.0096   -0.4686 C   0  0  0  0  0  0  0  0  0  0  0  0
    1.8908    1.0288    0.8856 S   0  0  0  0  0  0  0  0  0  0  0  0
    3.6232    1.2560    1.1330 C   0  0  0  0  0  0  0  0  0  0  0  0
    4.1496    2.3834    2.2550 S   0  0  0  0  0  0  0  0  0  0  0  0
    4.3388    0.4647    0.2394 N   0  0  0  0  0  0  0  0  0  0  0  0
    5.7690    0.3404    0.2233 C   0  0  0  0  0  0  0  0  0  0  0  0
    6.5105    0.2298    1.4096 C   0  0  0  0  0  0  0  0  0  0  0  0
    7.9035    0.1001    1.3829 C   0  0  0  0  0  0  0  0  0  0  0  0
    8.5797    0.0684    0.1680 C   0  0  0  0  0  0  0  0  0  0  0  0
    7.8631    0.1573   -1.0204 C   0  0  0  0  0  0  0  0  0  0  0  0
    6.4707    0.2864   -0.9923 C   0  0  0  0  0  0  0  0  0  0  0  0
    3.5733   -0.2261   -0.7016 C   0  0  0  0  0  0  0  0  0  0  0  0
    3.9648   -0.9645   -1.5986 O   0  0  0  0  0  0  0  0  0  0  0  0
   -3.2815   -0.8965   -1.0987 C   0  0  0  0  0  0  0  0  0  0  0  0
   -4.6758   -0.7685   -0.9886 C   0  0  0  0  0  0  0  0  0  0  0  0
   -6.9912    0.2119    2.3430 H   0  0  0  0  0  0  0  0  0  0  0  0
   -6.9128    1.6786    1.3174 H   0  0  0  0  0  0  0  0  0  0  0  0
   -8.3479    0.6462    1.3303 H   0  0  0  0  0  0  0  0  0  0  0  0
   -7.2223    0.5825   -1.6390 H   0  0  0  0  0  0  0  0  0  0  0  0
   -7.4049   -1.1874   -1.4321 H   0  0  0  0  0  0  0  0  0  0  0  0
   -8.5662   -0.0969   -0.7131 H   0  0  0  0  0  0  0  0  0  0  0  0
   -4.8234    0.4408    2.1678 H   0  0  0  0  0  0  0  0  0  0  0  0
   -2.4273    0.2285    1.9782 H   0  0  0  0  0  0  0  0  0  0  0  0
   -0.5184   -1.0217    0.8123 H   0  0  0  0  0  0  0  0  0  0  0  0
   -0.7297   -0.0347   -2.1029 H   0  0  0  0  0  0  0  0  0  0  0  0
    1.5111   -1.1207   -2.1234 H   0  0  0  0  0  0  0  0  0  0  0  0
    6.0249    0.1964    2.3812 H   0  0  0  0  0  0  0  0  0  0  0  0
    8.4570    0.0136    2.3149 H   0  0  0  0  0  0  0  0  0  0  0  0
    9.6616   -0.0341    0.1471 H   0  0  0  0  0  0  0  0  0  0  0  0
    8.3841    0.1263   -1.9742 H   0  0  0  0  0  0  0  0  0  0  0  0
    5.9519    0.3678   -1.9451 H   0  0  0  0  0  0  0  0  0  0  0  0
   -2.8683   -1.3076   -2.0161 H   0  0  0  0  0  0  0  0  0  0  0  0
   -5.2621   -1.0887   -1.8443 H   0  0  0  0  0  0  0  0  0  0  0  0
  1  2  1  0
  2  3  1  0
  2  4  1  0
  4  5  2  0
  5  6  1  0
  6  7  2  0
  7  8  1  0
  8  9  2  3
  9 10  1  0
 10 11  2  3
 11 12  1  0
 12 13  1  0
 13 14  2  0
 13 15  1  0
 15 16  1  0
 16 17  2  0
 17 18  1  0
 18 19  2  0
 19 20  1  0
 20 21  2  0
 15 22  1  0
 22 23  2  0
  7 24  1  0
 24 25  2  0
 25  4  1  0
 22 11  1  0
 21 16  1  0
  1 26  1  0
  1 27  1  0
  1 28  1  0
  3 29  1  0
  3 30  1  0
  3 31  1  0
  5 32  1  0
  6 33  1  0
  8 34  1  0
  9 35  1  0
 10 36  1  0
 17 37  1  0
 18 38  1  0
 19 39  1  0
 20 40  1  0
 21 41  1  0
 24 42  1  0
 25 43  1  0
M  END
$$$$
