
     RDKit          3D

 60 63  0  0  0  0  0  0  0  0999 V2000
    7.7697   -1.8060    4.0595 C   0  0  0  0  0  0  0  0  0  0  0  0
    8.1744   -1.2366    2.8209 O   0  0  0  0  0  0  0  0  0  0  0  0
    7.2279   -0.5335    2.1275 C   0  0  0  0  0  0  0  0  0  0  0  0
    7.6809    0.0363    0.9354 C   0  0  0  0  0  0  0  0  0  0  0  0
    6.8195    0.7818    0.1263 C   0  0  0  0  0  0  0  0  0  0  0  0
    5.4857    0.9726    0.5046 C   0  0  0  0  0  0  0  0  0  0  0  0
    4.5371    1.7524   -0.3685 C   0  0  0  0  0  0  0  0  0  0  0  0
    3.7524    0.8587   -1.1905 N   0  0  0  0  0  0  0  0  0  0  0  0
    2.4542    0.5175   -0.8578 C   0  0  0  0  0  0  0  0  0  0  0  0
    1.8952    0.9798    0.1365 O   0  0  0  0  0  0  0  0  0  0  0  0
    1.8109   -0.5536   -1.7701 C   0  0  0  0  0  0  0  0  0  0  0  0
    2.0352   -0.3182   -3.2637 C   0  0  0  0  0  0  0  0  0  0  0  0
    0.3893   -0.7067   -1.4309 N   0  0  0  0  0  0  0  0  0  0  0  0
    0.0438   -1.9178   -0.8091 N   0  0  0  0  0  0  0  0  0  0  0  0
   -1.1771   -2.1474   -0.4138 C   0  0  0  0  0  0  0  0  0  0  0  0
   -1.4710   -3.4548    0.2651 C   0  0  0  0  0  0  0  0  0  0  0  0
   -2.1972   -1.1556   -0.6458 C   0  0  0  0  0  0  0  0  0  0  0  0
   -3.5647   -1.1079   -0.4286 C   0  0  0  0  0  0  0  0  0  0  0  0
   -4.4959   -2.1723    0.0259 C   0  0  0  0  0  0  0  0  0  0  0  0
   -3.9518    0.1879   -0.7939 N   0  0  0  0  0  0  0  0  0  0  0  0
   -5.1841    0.8841   -0.5903 C   0  0  0  0  0  0  0  0  0  0  0  0
   -5.4386    2.0449   -1.3397 C   0  0  0  0  0  0  0  0  0  0  0  0
   -6.6280    2.7598   -1.1694 C   0  0  0  0  0  0  0  0  0  0  0  0
   -7.5840    2.3334   -0.2442 C   0  0  0  0  0  0  0  0  0  0  0  0
   -8.8445    3.1181   -0.0329 C   0  0  0  0  0  0  0  0  0  0  0  0
   -7.3148    1.2021    0.5326 C   0  0  0  0  0  0  0  0  0  0  0  0
   -6.1247    0.4829    0.3644 C   0  0  0  0  0  0  0  0  0  0  0  0
   -2.9434    0.8277   -1.4454 N   0  0  0  0  0  0  0  0  0  0  0  0
   -1.8717    0.0499   -1.2754 C   0  0  0  0  0  0  0  0  0  0  0  0
   -0.5135    0.3417   -1.7161 C   0  0  0  0  0  0  0  0  0  0  0  0
   -0.1973    1.3801   -2.2926 O   0  0  0  0  0  0  0  0  0  0  0  0
    5.0326    0.3917    1.6970 C   0  0  0  0  0  0  0  0  0  0  0  0
    5.8977   -0.3544    2.5048 C   0  0  0  0  0  0  0  0  0  0  0  0
    6.9859   -2.5561    3.9111 H   0  0  0  0  0  0  0  0  0  0  0  0
    7.4494   -1.0322    4.7650 H   0  0  0  0  0  0  0  0  0  0  0  0
    8.6371   -2.3129    4.4933 H   0  0  0  0  0  0  0  0  0  0  0  0
    8.7168   -0.1015    0.6351 H   0  0  0  0  0  0  0  0  0  0  0  0
    7.2012    1.2128   -0.7961 H   0  0  0  0  0  0  0  0  0  0  0  0
    5.0946    2.4084   -1.0462 H   0  0  0  0  0  0  0  0  0  0  0  0
    3.8933    2.3933    0.2444 H   0  0  0  0  0  0  0  0  0  0  0  0
    4.2546    0.3038   -1.8680 H   0  0  0  0  0  0  0  0  0  0  0  0
    2.3038   -1.5000   -1.5078 H   0  0  0  0  0  0  0  0  0  0  0  0
    1.8170    0.7129   -3.5579 H   0  0  0  0  0  0  0  0  0  0  0  0
    3.0784   -0.5104   -3.5361 H   0  0  0  0  0  0  0  0  0  0  0  0
    1.4099   -0.9869   -3.8649 H   0  0  0  0  0  0  0  0  0  0  0  0
   -2.0542   -3.2878    1.1742 H   0  0  0  0  0  0  0  0  0  0  0  0
   -0.5390   -3.9587    0.5385 H   0  0  0  0  0  0  0  0  0  0  0  0
   -2.0272   -4.1029   -0.4174 H   0  0  0  0  0  0  0  0  0  0  0  0
   -4.5819   -2.1740    1.1164 H   0  0  0  0  0  0  0  0  0  0  0  0
   -5.4888   -2.0662   -0.4207 H   0  0  0  0  0  0  0  0  0  0  0  0
   -4.1422   -3.1595   -0.2837 H   0  0  0  0  0  0  0  0  0  0  0  0
   -4.7180    2.4067   -2.0726 H   0  0  0  0  0  0  0  0  0  0  0  0
   -6.7959    3.6543   -1.7653 H   0  0  0  0  0  0  0  0  0  0  0  0
   -9.1226    3.6662   -0.9392 H   0  0  0  0  0  0  0  0  0  0  0  0
   -8.7077    3.8341    0.7833 H   0  0  0  0  0  0  0  0  0  0  0  0
   -9.6787    2.4530    0.2127 H   0  0  0  0  0  0  0  0  0  0  0  0
   -8.0274    0.8792    1.2892 H   0  0  0  0  0  0  0  0  0  0  0  0
   -5.9529   -0.3503    1.0346 H   0  0  0  0  0  0  0  0  0  0  0  0
    3.9935    0.5176    2.0010 H   0  0  0  0  0  0  0  0  0  0  0  0
    5.4970   -0.7813    3.4179 H   0  0  0  0  0  0  0  0  0  0  0  0
  1  2  1  0
  2  3  1  0
  3  4  2  0
  4  5  1  0
  5  6  2  0
  6  7  1  0
  7  8  1  0
  8  9  1  0
  9 10  2  0
  9 11  1  0
 11 12  1  0
 11 13  1  0
 13 14  1  0
 14 15  2  0
 15 16  1  0
 15 17  1  0
 17 18  2  0
 18 19  1  0
 18 20  1  0
 20 21  1  0
 21 22  2  0
 22 23  1  0
 23 24  2  0
 24 25  1  0
 24 26  1  0
 26 27  2  0
 20 28  1  0
 28 29  2  0
 29 30  1  0
 30 31  2  0
  6 32  1  0
 32 33  2  0
 33  3  1  0
 30 13  1  0
 29 17  1  0
 27 21  1  0
  1 34  1  0
  1 35  1  0
  1 36  1  0
  4 37  1  0
  5 38  1  0
  7 39  1  0
  7 40  1  0
  8 41  1  0
 11 42  1  0
 12 43  1  0
 12 44  1  0
 12 45  1  0
 16 46  1  0
 16 47  1  0
 16 48  1  0
 19 49  1  0
 19 50  1  0
 19 51  1  0
 22 52  1  0
 23 53  1  0
 25 54  1  0
 25 55  1  0
 25 56  1  0
 26 57  1  0
 27 58  1  0
 32 59  1  0
 33 60  1  0
M  END
$$$$
