
     RDKit          3D

 33 35  0  0  0  0  0  0  0  0999 V2000
   -0.8315    0.6277   -1.1784 O   0  0  0  0  0  0  0  0  0  0  0  0
   -1.5457    0.0694   -0.3529 C   0  0  0  0  0  0  0  0  0  0  0  0
   -1.1324   -0.6348    0.7590 N   0  0  0  0  0  0  0  0  0  0  0  0
    0.2042   -0.8532    1.1290 C   0  0  0  0  0  0  0  0  0  0  0  0
    0.4364   -1.6350    2.2404 C   0  0  0  0  0  0  0  0  0  0  0  0
    1.7542   -1.8275    2.5802 C   0  0  0  0  0  0  0  0  0  0  0  0
    2.7810   -1.2996    1.8944 N   0  0  0  0  0  0  0  0  0  0  0  0
    2.4612   -0.5507    0.8227 C   0  0  0  0  0  0  0  0  0  0  0  0
    3.5492    0.0447    0.0381 C   0  0  0  0  0  0  0  0  0  0  0  0
    3.3132    0.8192   -1.1096 C   0  0  0  0  0  0  0  0  0  0  0  0
    4.3729    1.3689   -1.8305 C   0  0  0  0  0  0  0  0  0  0  0  0
    5.6604    1.1315   -1.3852 C   0  0  0  0  0  0  0  0  0  0  0  0
    5.9477    0.3971   -0.2916 N   0  0  0  0  0  0  0  0  0  0  0  0
    4.8899   -0.1239    0.3858 C   0  0  0  0  0  0  0  0  0  0  0  0
    1.2012   -0.3103    0.4229 N   0  0  0  0  0  0  0  0  0  0  0  0
   -3.0227    0.2102   -0.5240 C   0  0  0  0  0  0  0  0  0  0  0  0
   -3.4613    1.4620   -0.9974 C   0  0  0  0  0  0  0  0  0  0  0  0
   -4.8163    1.7202   -1.1930 C   0  0  0  0  0  0  0  0  0  0  0  0
   -5.7509    0.7265   -0.9226 C   0  0  0  0  0  0  0  0  0  0  0  0
   -5.3312   -0.5277   -0.4659 C   0  0  0  0  0  0  0  0  0  0  0  0
   -6.5682   -1.7016   -0.1625 Cl  0  0  0  0  0  0  0  0  0  0  0  0
   -3.9650   -0.8009   -0.2676 C   0  0  0  0  0  0  0  0  0  0  0  0
   -3.4760   -2.3841    0.2551 Cl  0  0  0  0  0  0  0  0  0  0  0  0
   -1.8377   -1.0747    1.3332 H   0  0  0  0  0  0  0  0  0  0  0  0
   -0.3567   -2.0829    2.8222 H   0  0  0  0  0  0  0  0  0  0  0  0
    2.0313   -2.4309    3.4398 H   0  0  0  0  0  0  0  0  0  0  0  0
    2.2922    0.9963   -1.4487 H   0  0  0  0  0  0  0  0  0  0  0  0
    4.1915    1.9660   -2.7169 H   0  0  0  0  0  0  0  0  0  0  0  0
    6.5195    1.5371   -1.9114 H   0  0  0  0  0  0  0  0  0  0  0  0
    5.1718   -0.7088    1.2590 H   0  0  0  0  0  0  0  0  0  0  0  0
   -2.7351    2.2458   -1.2166 H   0  0  0  0  0  0  0  0  0  0  0  0
   -5.1389    2.6929   -1.5584 H   0  0  0  0  0  0  0  0  0  0  0  0
   -6.8084    0.9313   -1.0773 H   0  0  0  0  0  0  0  0  0  0  0  0
  1  2  2  0
  2  3  1  0
  3  4  1  0
  4  5  2  0
  5  6  1  0
  6  7  2  0
  7  8  1  0
  8  9  1  0
  9 10  2  0
 10 11  1  0
 11 12  2  0
 12 13  1  0
 13 14  2  0
  8 15  2  0
  2 16  1  0
 16 17  2  0
 17 18  1  0
 18 19  2  0
 19 20  1  0
 20 21  1  0
 20 22  2  0
 22 23  1  0
 15  4  1  0
 22 16  1  0
 14  9  1  0
  3 24  1  0
  5 25  1  0
  6 26  1  0
 10 27  1  0
 11 28  1  0
 12 29  1  0
 14 30  1  0
 17 31  1  0
 18 32  1  0
 19 33  1  0
M  END
$$$$
