
     RDKit          3D

 36 37  0  0  0  0  0  0  0  0999 V2000
   -2.5168   -2.3280   -0.9258 C   0  0  0  0  0  0  0  0  0  0  0  0
   -1.6658   -1.2484   -0.2636 C   0  0  0  0  0  0  0  0  0  0  0  0
   -1.9252    0.1049   -0.7821 N   0  0  0  0  0  0  0  0  0  0  0  0
   -3.3217    0.5514   -0.6211 C   0  0  0  0  0  0  0  0  0  0  0  0
   -3.8806    0.6131    0.8096 C   0  0  0  0  0  0  0  0  0  0  0  0
   -5.2085    1.1287    0.7793 O   0  0  0  0  0  0  0  0  0  0  0  0
   -0.9884    1.0942   -0.2204 C   0  0  0  0  0  0  0  0  0  0  0  0
    0.3853    0.9136   -0.8126 C   0  0  0  0  0  0  0  0  0  0  0  0
    0.6612    1.0650   -2.1593 C   0  0  0  0  0  0  0  0  0  0  0  0
    2.2982    0.8118   -2.5380 S   0  0  0  0  0  0  0  0  0  0  0  0
    2.7038    0.4955   -0.8970 C   0  0  0  0  0  0  0  0  0  0  0  0
    3.9839    0.1822   -0.3938 C   0  0  0  0  0  0  0  0  0  0  0  0
    4.1524   -0.0410    0.9789 C   0  0  0  0  0  0  0  0  0  0  0  0
    5.5033   -0.4069    1.5209 C   0  0  0  0  0  0  0  0  0  0  0  0
    3.0477    0.0229    1.8229 C   0  0  0  0  0  0  0  0  0  0  0  0
    1.7793    0.3335    1.3186 C   0  0  0  0  0  0  0  0  0  0  0  0
    1.5838    0.5809   -0.0647 C   0  0  0  0  0  0  0  0  0  0  0  0
   -2.1773   -3.3183   -0.6041 H   0  0  0  0  0  0  0  0  0  0  0  0
   -3.5728   -2.2413   -0.6531 H   0  0  0  0  0  0  0  0  0  0  0  0
   -2.4320   -2.2839   -2.0167 H   0  0  0  0  0  0  0  0  0  0  0  0
   -1.8017   -1.2914    0.8237 H   0  0  0  0  0  0  0  0  0  0  0  0
   -0.6220   -1.5225   -0.4562 H   0  0  0  0  0  0  0  0  0  0  0  0
   -3.9822   -0.0779   -1.2310 H   0  0  0  0  0  0  0  0  0  0  0  0
   -3.4346    1.5423   -1.0828 H   0  0  0  0  0  0  0  0  0  0  0  0
   -3.2792    1.2733    1.4414 H   0  0  0  0  0  0  0  0  0  0  0  0
   -3.9156   -0.3813    1.2640 H   0  0  0  0  0  0  0  0  0  0  0  0
   -5.5354    1.1314    1.6953 H   0  0  0  0  0  0  0  0  0  0  0  0
   -1.3096    2.1122   -0.4801 H   0  0  0  0  0  0  0  0  0  0  0  0
   -0.9670    1.0442    0.8737 H   0  0  0  0  0  0  0  0  0  0  0  0
   -0.0441    1.3053   -2.9438 H   0  0  0  0  0  0  0  0  0  0  0  0
    4.8305    0.1178   -1.0728 H   0  0  0  0  0  0  0  0  0  0  0  0
    6.2998    0.0647    0.9356 H   0  0  0  0  0  0  0  0  0  0  0  0
    5.6154   -0.0649    2.5552 H   0  0  0  0  0  0  0  0  0  0  0  0
    5.6369   -1.4927    1.4907 H   0  0  0  0  0  0  0  0  0  0  0  0
    3.1593   -0.1680    2.8882 H   0  0  0  0  0  0  0  0  0  0  0  0
    0.9396    0.3775    2.0066 H   0  0  0  0  0  0  0  0  0  0  0  0
  1  2  1  0
  2  3  1  0
  3  4  1  0
  4  5  1  0
  5  6  1  0
  3  7  1  0
  7  8  1  0
  8  9  2  0
  9 10  1  0
 10 11  1  0
 11 12  2  0
 12 13  1  0
 13 14  1  0
 13 15  2  0
 15 16  1  0
 16 17  2  0
 17  8  1  0
 17 11  1  0
  1 18  1  0
  1 19  1  0
  1 20  1  0
  2 21  1  0
  2 22  1  0
  4 23  1  0
  4 24  1  0
  5 25  1  0
  5 26  1  0
  6 27  1  0
  7 28  1  0
  7 29  1  0
  9 30  1  0
 12 31  1  0
 14 32  1  0
 14 33  1  0
 14 34  1  0
 15 35  1  0
 16 36  1  0
M  END
$$$$
