
     RDKit          3D

 58 62  0  0  0  0  0  0  0  0999 V2000
    9.2479   -0.0823    0.3005 C   0  0  0  0  0  0  0  0  0  0  0  0
    8.4199    0.6384    1.2044 O   0  0  0  0  0  0  0  0  0  0  0  0
    7.0718    0.6079    0.9736 C   0  0  0  0  0  0  0  0  0  0  0  0
    6.3060    1.2937    1.9212 C   0  0  0  0  0  0  0  0  0  0  0  0
    4.9132    1.3458    1.8137 C   0  0  0  0  0  0  0  0  0  0  0  0
    4.2612    0.7149    0.7559 C   0  0  0  0  0  0  0  0  0  0  0  0
    2.8560    0.7860    0.6986 N   0  0  0  0  0  0  0  0  0  0  0  0
    2.1973    0.1958   -0.2663 C   0  0  0  0  0  0  0  0  0  0  0  0
    0.8050    0.2531   -0.2797 N   0  0  0  0  0  0  0  0  0  0  0  0
    0.0730   -1.0180   -0.1113 C   0  0  0  0  0  0  0  0  0  0  0  0
   -1.4100   -0.8536   -0.5109 C   0  0  0  0  0  0  0  0  0  0  0  0
   -2.0920    0.2202    0.2457 N   0  0  0  0  0  0  0  0  0  0  0  0
   -3.4835    0.4214   -0.1983 C   0  0  0  0  0  0  0  0  0  0  0  0
   -4.4156   -0.7370    0.2011 C   0  0  0  0  0  0  0  0  0  0  0  0
   -5.8608   -0.4520   -0.1628 C   0  0  0  0  0  0  0  0  0  0  0  0
   -6.2703   -0.6919   -1.4878 C   0  0  0  0  0  0  0  0  0  0  0  0
   -7.5806   -0.4401   -1.8914 C   0  0  0  0  0  0  0  0  0  0  0  0
   -8.5040    0.0564   -0.9792 C   0  0  0  0  0  0  0  0  0  0  0  0
   -8.1159    0.3039    0.3373 C   0  0  0  0  0  0  0  0  0  0  0  0
   -6.7959    0.0605    0.7662 C   0  0  0  0  0  0  0  0  0  0  0  0
   -6.4318    0.3433    2.2092 C   0  0  0  0  0  0  0  0  0  0  0  0
   -5.3591    1.1734    2.3317 F   0  0  0  0  0  0  0  0  0  0  0  0
   -6.1204   -0.7864    2.9033 F   0  0  0  0  0  0  0  0  0  0  0  0
   -7.4346    0.9411    2.9154 F   0  0  0  0  0  0  0  0  0  0  0  0
   -1.3230    1.4788    0.0877 C   0  0  0  0  0  0  0  0  0  0  0  0
    0.1591    1.3355    0.4923 C   0  0  0  0  0  0  0  0  0  0  0  0
    2.9513   -0.4899   -1.3029 C   0  0  0  0  0  0  0  0  0  0  0  0
    2.5494   -1.1018   -2.4768 C   0  0  0  0  0  0  0  0  0  0  0  0
    3.7048   -1.6122   -3.1120 C   0  0  0  0  0  0  0  0  0  0  0  0
    4.7855   -1.2776   -2.3243 C   0  0  0  0  0  0  0  0  0  0  0  0
    4.3240   -0.5697   -1.2390 N   0  0  0  0  0  0  0  0  0  0  0  0
    5.0391    0.0326   -0.1900 C   0  0  0  0  0  0  0  0  0  0  0  0
    6.4360   -0.0278   -0.0938 C   0  0  0  0  0  0  0  0  0  0  0  0
    9.0073   -1.1503    0.3115 H   0  0  0  0  0  0  0  0  0  0  0  0
    9.1789    0.3291   -0.7117 H   0  0  0  0  0  0  0  0  0  0  0  0
   10.2839    0.0287    0.6349 H   0  0  0  0  0  0  0  0  0  0  0  0
    6.7974    1.7911    2.7543 H   0  0  0  0  0  0  0  0  0  0  0  0
    4.3313    1.8794    2.5600 H   0  0  0  0  0  0  0  0  0  0  0  0
    0.5083   -1.8123   -0.7255 H   0  0  0  0  0  0  0  0  0  0  0  0
    0.1447   -1.3453    0.9341 H   0  0  0  0  0  0  0  0  0  0  0  0
   -1.4665   -0.6516   -1.5891 H   0  0  0  0  0  0  0  0  0  0  0  0
   -1.9049   -1.8134   -0.3284 H   0  0  0  0  0  0  0  0  0  0  0  0
   -3.5241    0.5868   -1.2833 H   0  0  0  0  0  0  0  0  0  0  0  0
   -3.8729    1.3369    0.2664 H   0  0  0  0  0  0  0  0  0  0  0  0
   -4.3223   -0.9447    1.2729 H   0  0  0  0  0  0  0  0  0  0  0  0
   -4.1173   -1.6657   -0.3014 H   0  0  0  0  0  0  0  0  0  0  0  0
   -5.5632   -1.0817   -2.2183 H   0  0  0  0  0  0  0  0  0  0  0  0
   -7.8803   -0.6331   -2.9185 H   0  0  0  0  0  0  0  0  0  0  0  0
   -9.5271    0.2515   -1.2911 H   0  0  0  0  0  0  0  0  0  0  0  0
   -8.8564    0.6924    1.0362 H   0  0  0  0  0  0  0  0  0  0  0  0
   -1.3744    1.8212   -0.9549 H   0  0  0  0  0  0  0  0  0  0  0  0
   -1.7707    2.2606    0.7132 H   0  0  0  0  0  0  0  0  0  0  0  0
    0.2363    1.1304    1.5678 H   0  0  0  0  0  0  0  0  0  0  0  0
    0.6628    2.2891    0.2925 H   0  0  0  0  0  0  0  0  0  0  0  0
    1.5310   -1.1688   -2.8361 H   0  0  0  0  0  0  0  0  0  0  0  0
    3.7479   -2.1551   -4.0475 H   0  0  0  0  0  0  0  0  0  0  0  0
    5.8366   -1.4779   -2.4709 H   0  0  0  0  0  0  0  0  0  0  0  0
    7.0108   -0.5595   -0.8404 H   0  0  0  0  0  0  0  0  0  0  0  0
  1  2  1  0
  2  3  1  0
  3  4  2  0
  4  5  1  0
  5  6  2  0
  6  7  1  0
  7  8  2  0
  8  9  1  0
  9 10  1  0
 10 11  1  0
 11 12  1  0
 12 13  1  0
 13 14  1  0
 14 15  1  0
 15 16  2  0
 16 17  1  0
 17 18  2  0
 18 19  1  0
 19 20  2  0
 20 21  1  0
 21 22  1  0
 21 23  1  0
 21 24  1  0
 12 25  1  0
 25 26  1  0
  8 27  1  0
 27 28  2  0
 28 29  1  0
 29 30  2  0
 30 31  1  0
 31 32  1  0
 32 33  2  0
 33  3  1  0
 32  6  1  0
 26  9  1  0
 31 27  1  0
 20 15  1  0
  1 34  1  0
  1 35  1  0
  1 36  1  0
  4 37  1  0
  5 38  1  0
 10 39  1  0
 10 40  1  0
 11 41  1  0
 11 42  1  0
 13 43  1  0
 13 44  1  0
 14 45  1  0
 14 46  1  0
 16 47  1  0
 17 48  1  0
 18 49  1  0
 19 50  1  0
 25 51  1  0
 25 52  1  0
 26 53  1  0
 26 54  1  0
 28 55  1  0
 29 56  1  0
 30 57  1  0
 33 58  1  0
M  END
$$$$
