
     RDKit          3D

 36 38  0  0  0  0  0  0  0  0999 V2000
   -2.7085    0.9111   -2.2307 C   0  0  0  0  0  0  0  0  0  0  0  0
   -2.2803    0.3047   -0.9309 C   0  0  0  0  0  0  0  0  0  0  0  0
   -0.9560    0.2622   -0.6643 N   0  0  0  0  0  0  0  0  0  0  0  0
   -0.6106   -0.2852    0.5310 C   0  0  0  0  0  0  0  0  0  0  0  0
    1.1416   -0.3400    0.8959 S   0  0  0  0  0  6  0  0  0  0  0  0
    1.3788    0.5286    2.0402 O   0  0  0  0  0  0  0  0  0  0  0  0
    1.5425   -1.7396    0.9095 O   0  0  0  0  0  0  0  0  0  0  0  0
    1.8714    0.4311   -0.5426 C   0  0  0  0  0  0  0  0  0  0  0  0
    3.3734    0.4668   -0.3929 C   0  0  0  0  0  0  0  0  0  0  0  0
    4.0027    1.5616    0.2191 C   0  0  0  0  0  0  0  0  0  0  0  0
    5.3922    1.5936    0.3579 C   0  0  0  0  0  0  0  0  0  0  0  0
    6.1602    0.5307   -0.1112 C   0  0  0  0  0  0  0  0  0  0  0  0
    7.8720    0.5723    0.0574 Cl  0  0  0  0  0  0  0  0  0  0  0  0
    5.5501   -0.5665   -0.7142 C   0  0  0  0  0  0  0  0  0  0  0  0
    4.1606   -0.5995   -0.8536 C   0  0  0  0  0  0  0  0  0  0  0  0
   -1.4219   -0.7863    1.4848 N   0  0  0  0  0  0  0  0  0  0  0  0
   -2.7119   -0.7213    1.1526 C   0  0  0  0  0  0  0  0  0  0  0  0
   -3.1951   -0.1941   -0.0333 C   0  0  0  0  0  0  0  0  0  0  0  0
   -4.6847   -0.2343   -0.0742 C   0  0  0  0  0  0  0  0  0  0  0  0
   -4.9853   -1.2643    1.0265 C   0  0  0  0  0  0  0  0  0  0  0  0
   -3.8382   -1.1681    2.0415 C   0  0  0  0  0  0  0  0  0  0  0  0
   -1.8411    1.2594   -2.8009 H   0  0  0  0  0  0  0  0  0  0  0  0
   -3.2389    0.1717   -2.8386 H   0  0  0  0  0  0  0  0  0  0  0  0
   -3.3637    1.7692   -2.0527 H   0  0  0  0  0  0  0  0  0  0  0  0
    1.5910   -0.1452   -1.4299 H   0  0  0  0  0  0  0  0  0  0  0  0
    1.4733    1.4466   -0.6353 H   0  0  0  0  0  0  0  0  0  0  0  0
    3.4154    2.3933    0.6049 H   0  0  0  0  0  0  0  0  0  0  0  0
    5.8664    2.4456    0.8378 H   0  0  0  0  0  0  0  0  0  0  0  0
    6.1474   -1.4011   -1.0709 H   0  0  0  0  0  0  0  0  0  0  0  0
    3.6978   -1.4714   -1.3134 H   0  0  0  0  0  0  0  0  0  0  0  0
   -5.0738   -0.5651   -1.0412 H   0  0  0  0  0  0  0  0  0  0  0  0
   -5.0973    0.7473    0.1807 H   0  0  0  0  0  0  0  0  0  0  0  0
   -5.9660   -1.1100    1.4872 H   0  0  0  0  0  0  0  0  0  0  0  0
   -4.9905   -2.2707    0.5848 H   0  0  0  0  0  0  0  0  0  0  0  0
   -4.0397   -0.4040    2.7988 H   0  0  0  0  0  0  0  0  0  0  0  0
   -3.6333   -2.1291    2.5203 H   0  0  0  0  0  0  0  0  0  0  0  0
  1  2  1  0
  2  3  2  0
  3  4  1  0
  4  5  1  0
  5  6  2  0
  5  7  2  0
  5  8  1  0
  8  9  1  0
  9 10  2  0
 10 11  1  0
 11 12  2  0
 12 13  1  0
 12 14  1  0
 14 15  2  0
  4 16  2  0
 16 17  1  0
 17 18  2  0
 18 19  1  0
 19 20  1  0
 20 21  1  0
 18  2  1  0
 15  9  1  0
 21 17  1  0
  1 22  1  0
  1 23  1  0
  1 24  1  0
  8 25  1  0
  8 26  1  0
 10 27  1  0
 11 28  1  0
 14 29  1  0
 15 30  1  0
 19 31  1  0
 19 32  1  0
 20 33  1  0
 20 34  1  0
 21 35  1  0
 21 36  1  0
M  END
$$$$
