
     RDKit          3D

 59 62  0  0  0  0  0  0  0  0999 V2000
    8.0458   -0.2269    2.8369 C   0  0  0  0  0  0  0  0  0  0  0  0
    7.4186   -0.0366    1.5750 O   0  0  0  0  0  0  0  0  0  0  0  0
    6.0518    0.0161    1.5634 C   0  0  0  0  0  0  0  0  0  0  0  0
    5.2192   -0.0588    2.6830 C   0  0  0  0  0  0  0  0  0  0  0  0
    3.8286    0.0064    2.5348 C   0  0  0  0  0  0  0  0  0  0  0  0
    3.2636    0.1489    1.2668 C   0  0  0  0  0  0  0  0  0  0  0  0
    1.8161    0.2257    1.0764 C   0  0  0  0  0  0  0  0  0  0  0  0
    1.2797    0.3420   -0.1522 C   0  0  0  0  0  0  0  0  0  0  0  0
   -0.1944    0.4672   -0.4167 C   0  0  0  0  0  0  0  0  0  0  0  0
   -0.9483   -0.8028   -0.2763 N   0  0  0  0  0  0  0  0  0  0  0  0
   -0.3822   -2.0110   -0.9276 C   0  0  0  0  0  0  0  0  0  0  0  0
   -1.3551   -2.6358   -1.9439 C   0  0  0  0  0  0  0  0  0  0  0  0
   -1.7013   -1.7248   -3.1155 C   0  0  0  0  0  0  0  0  0  0  0  0
   -0.6250   -2.0478   -4.1203 C   0  0  0  0  0  0  0  0  0  0  0  0
   -0.4342   -3.5319   -3.9066 C   0  0  0  0  0  0  0  0  0  0  0  0
   -0.7150   -3.7951   -2.5242 O   0  0  0  0  0  0  0  0  0  0  0  0
   -1.8940   -1.0344    1.1042 S   0  0  0  0  0  6  0  0  0  0  0  0
   -1.0802   -0.7334    2.2623 O   0  0  0  0  0  0  0  0  0  0  0  0
   -2.6064   -2.2869    0.9895 O   0  0  0  0  0  0  0  0  0  0  0  0
   -3.1140    0.2529    0.9488 C   0  0  0  0  0  0  0  0  0  0  0  0
   -3.2199    1.2426    1.9293 C   0  0  0  0  0  0  0  0  0  0  0  0
   -4.1783    2.2527    1.7925 C   0  0  0  0  0  0  0  0  0  0  0  0
   -5.0296    2.2717    0.6792 C   0  0  0  0  0  0  0  0  0  0  0  0
   -6.0674    3.3296    0.4908 C   0  0  0  0  0  0  0  0  0  0  0  0
   -6.2252    4.3932    1.5450 C   0  0  0  0  0  0  0  0  0  0  0  0
   -6.7725    3.3221   -0.5156 O   0  0  0  0  0  0  0  0  0  0  0  0
   -4.9142    1.2677   -0.2952 C   0  0  0  0  0  0  0  0  0  0  0  0
   -3.9608    0.2550   -0.1618 C   0  0  0  0  0  0  0  0  0  0  0  0
    2.1820    0.4375   -1.3441 C   0  0  0  0  0  0  0  0  0  0  0  0
    1.7362    0.5658   -2.4805 O   0  0  0  0  0  0  0  0  0  0  0  0
    3.5307    0.3705   -1.1193 N   0  0  0  0  0  0  0  0  0  0  0  0
    4.1004    0.2257    0.1507 C   0  0  0  0  0  0  0  0  0  0  0  0
    5.4852    0.1602    0.2940 C   0  0  0  0  0  0  0  0  0  0  0  0
    7.8580    0.6255    3.4990 H   0  0  0  0  0  0  0  0  0  0  0  0
    7.7273   -1.1667    3.3023 H   0  0  0  0  0  0  0  0  0  0  0  0
    9.1256   -0.2877    2.6685 H   0  0  0  0  0  0  0  0  0  0  0  0
    5.6174   -0.1660    3.6870 H   0  0  0  0  0  0  0  0  0  0  0  0
    3.1974   -0.0568    3.4178 H   0  0  0  0  0  0  0  0  0  0  0  0
    1.1926    0.1852    1.9628 H   0  0  0  0  0  0  0  0  0  0  0  0
   -0.6014    1.2281    0.2611 H   0  0  0  0  0  0  0  0  0  0  0  0
   -0.4001    0.8645   -1.4178 H   0  0  0  0  0  0  0  0  0  0  0  0
   -0.1133   -2.7526   -0.1646 H   0  0  0  0  0  0  0  0  0  0  0  0
    0.5616   -1.7942   -1.4359 H   0  0  0  0  0  0  0  0  0  0  0  0
   -2.2676   -2.9706   -1.4422 H   0  0  0  0  0  0  0  0  0  0  0  0
   -2.6728   -2.0216   -3.5271 H   0  0  0  0  0  0  0  0  0  0  0  0
   -1.7600   -0.6631   -2.8682 H   0  0  0  0  0  0  0  0  0  0  0  0
   -0.8956   -1.7979   -5.1496 H   0  0  0  0  0  0  0  0  0  0  0  0
    0.2958   -1.5100   -3.8707 H   0  0  0  0  0  0  0  0  0  0  0  0
    0.5803   -3.8637   -4.1454 H   0  0  0  0  0  0  0  0  0  0  0  0
   -1.1416   -4.1133   -4.5066 H   0  0  0  0  0  0  0  0  0  0  0  0
   -2.5688    1.2347    2.8009 H   0  0  0  0  0  0  0  0  0  0  0  0
   -4.2406    3.0094    2.5689 H   0  0  0  0  0  0  0  0  0  0  0  0
   -6.4779    3.9398    2.5065 H   0  0  0  0  0  0  0  0  0  0  0  0
   -5.3109    4.9875    1.6220 H   0  0  0  0  0  0  0  0  0  0  0  0
   -7.0426    5.0625    1.2621 H   0  0  0  0  0  0  0  0  0  0  0  0
   -5.5730    1.2685   -1.1634 H   0  0  0  0  0  0  0  0  0  0  0  0
   -3.8880   -0.5238   -0.9170 H   0  0  0  0  0  0  0  0  0  0  0  0
    4.1222    0.4330   -1.9363 H   0  0  0  0  0  0  0  0  0  0  0  0
    6.1362    0.2216   -0.5736 H   0  0  0  0  0  0  0  0  0  0  0  0
  1  2  1  0
  2  3  1  0
  3  4  2  0
  4  5  1  0
  5  6  2  0
  6  7  1  0
  7  8  2  0
  8  9  1  0
  9 10  1  0
 10 11  1  0
 11 12  1  0
 12 13  1  0
 13 14  1  0
 14 15  1  0
 15 16  1  0
 10 17  1  0
 17 18  2  0
 17 19  2  0
 17 20  1  0
 20 21  2  0
 21 22  1  0
 22 23  2  0
 23 24  1  0
 24 25  1  0
 24 26  2  0
 23 27  1  0
 27 28  2  0
  8 29  1  0
 29 30  2  0
 29 31  1  0
 31 32  1  0
 32 33  2  0
 33  3  1  0
 32  6  1  0
 16 12  1  0
 28 20  1  0
  1 34  1  0
  1 35  1  0
  1 36  1  0
  4 37  1  0
  5 38  1  0
  7 39  1  0
  9 40  1  0
  9 41  1  0
 11 42  1  0
 11 43  1  0
 12 44  1  0
 13 45  1  0
 13 46  1  0
 14 47  1  0
 14 48  1  0
 15 49  1  0
 15 50  1  0
 21 51  1  0
 22 52  1  0
 25 53  1  0
 25 54  1  0
 25 55  1  0
 27 56  1  0
 28 57  1  0
 31 58  1  0
 33 59  1  0
M  END
$$$$
