
     RDKit          3D

 54 57  0  0  0  0  0  0  0  0999 V2000
   -5.9440   -0.8233    0.7794 C   0  0  0  0  0  0  0  0  0  0  0  0
   -5.7771    0.5593    0.4982 O   0  0  0  0  0  0  0  0  0  0  0  0
   -4.5268    0.9827    0.1274 C   0  0  0  0  0  0  0  0  0  0  0  0
   -3.4209    0.1482   -0.0561 C   0  0  0  0  0  0  0  0  0  0  0  0
   -2.1609    0.6596   -0.4301 C   0  0  0  0  0  0  0  0  0  0  0  0
   -1.0104   -0.2512   -0.6099 C   0  0  0  0  0  0  0  0  0  0  0  0
    0.2904    0.1070   -0.3053 C   0  0  0  0  0  0  0  0  0  0  0  0
    1.3043   -0.8296   -0.5100 C   0  0  0  0  0  0  0  0  0  0  0  0
    2.6683   -0.4067   -0.1184 C   0  0  0  0  0  0  0  0  0  0  0  0
    3.1206    0.6087   -0.6295 O   0  0  0  0  0  0  0  0  0  0  0  0
    3.2490   -1.2052    0.8473 N   0  0  0  0  0  0  0  0  0  0  0  0
    4.5332   -1.0679    1.4118 C   0  0  0  0  0  0  0  0  0  0  0  0
    5.4520   -0.0873    1.0294 C   0  0  0  0  0  0  0  0  0  0  0  0
    6.7126   -0.0191    1.6338 C   0  0  0  0  0  0  0  0  0  0  0  0
    7.0517   -0.9363    2.6209 C   0  0  0  0  0  0  0  0  0  0  0  0
    8.2678   -0.9054    3.2344 O   0  0  0  0  0  0  0  0  0  0  0  0
    6.1528   -1.9186    3.0123 C   0  0  0  0  0  0  0  0  0  0  0  0
    4.8950   -1.9847    2.4081 C   0  0  0  0  0  0  0  0  0  0  0  0
    1.0289   -2.1019   -1.0539 C   0  0  0  0  0  0  0  0  0  0  0  0
    2.0022   -3.0863   -1.3670 C   0  0  0  0  0  0  0  0  0  0  0  0
    1.6305   -4.3227   -1.8909 C   0  0  0  0  0  0  0  0  0  0  0  0
    0.2888   -4.5914   -2.1178 C   0  0  0  0  0  0  0  0  0  0  0  0
   -0.6698   -3.6173   -1.8300 C   0  0  0  0  0  0  0  0  0  0  0  0
   -0.3260   -2.3762   -1.3110 C   0  0  0  0  0  0  0  0  0  0  0  0
   -1.3081   -1.4878   -1.0808 N   0  0  0  0  0  0  0  0  0  0  0  0
   -2.0438    2.0503   -0.6299 C   0  0  0  0  0  0  0  0  0  0  0  0
   -3.1339    2.9078   -0.4496 C   0  0  0  0  0  0  0  0  0  0  0  0
   -3.0972    4.2679   -0.6211 O   0  0  0  0  0  0  0  0  0  0  0  0
   -1.8284    4.8703   -0.8357 C   0  0  0  0  0  0  0  0  0  0  0  0
   -4.3741    2.3608   -0.0860 C   0  0  0  0  0  0  0  0  0  0  0  0
   -5.4432    3.2021    0.1343 O   0  0  0  0  0  0  0  0  0  0  0  0
   -6.1865    3.3631   -1.0725 C   0  0  0  0  0  0  0  0  0  0  0  0
   -5.3005   -1.1402    1.6067 H   0  0  0  0  0  0  0  0  0  0  0  0
   -5.7698   -1.4309   -0.1146 H   0  0  0  0  0  0  0  0  0  0  0  0
   -6.9822   -0.9783    1.0884 H   0  0  0  0  0  0  0  0  0  0  0  0
   -3.5079   -0.9253    0.0899 H   0  0  0  0  0  0  0  0  0  0  0  0
    0.5298    1.0832    0.1053 H   0  0  0  0  0  0  0  0  0  0  0  0
    2.6852   -1.9636    1.2138 H   0  0  0  0  0  0  0  0  0  0  0  0
    5.2193    0.6418    0.2594 H   0  0  0  0  0  0  0  0  0  0  0  0
    7.4065    0.7535    1.3176 H   0  0  0  0  0  0  0  0  0  0  0  0
    8.7806   -0.1665    2.8672 H   0  0  0  0  0  0  0  0  0  0  0  0
    6.4285   -2.6301    3.7853 H   0  0  0  0  0  0  0  0  0  0  0  0
    4.2071   -2.7614    2.7309 H   0  0  0  0  0  0  0  0  0  0  0  0
    3.0636   -2.8901   -1.2245 H   0  0  0  0  0  0  0  0  0  0  0  0
    2.3867   -5.0668   -2.1292 H   0  0  0  0  0  0  0  0  0  0  0  0
   -0.0175   -5.5494   -2.5303 H   0  0  0  0  0  0  0  0  0  0  0  0
   -1.7187   -3.8307   -2.0265 H   0  0  0  0  0  0  0  0  0  0  0  0
   -1.0874    2.4504   -0.9515 H   0  0  0  0  0  0  0  0  0  0  0  0
   -1.1374    4.6462   -0.0161 H   0  0  0  0  0  0  0  0  0  0  0  0
   -1.4098    4.5683   -1.8011 H   0  0  0  0  0  0  0  0  0  0  0  0
   -1.9731    5.9548   -0.8614 H   0  0  0  0  0  0  0  0  0  0  0  0
   -7.0230    4.0365   -0.8623 H   0  0  0  0  0  0  0  0  0  0  0  0
   -6.6004    2.4097   -1.4185 H   0  0  0  0  0  0  0  0  0  0  0  0
   -5.5766    3.8190   -1.8602 H   0  0  0  0  0  0  0  0  0  0  0  0
  1  2  1  0
  2  3  1  0
  3  4  2  0
  4  5  1  0
  5  6  1  0
  6  7  2  0
  7  8  1  0
  8  9  1  0
  9 10  2  0
  9 11  1  0
 11 12  1  0
 12 13  2  0
 13 14  1  0
 14 15  2  0
 15 16  1  0
 15 17  1  0
 17 18  2  0
  8 19  2  0
 19 20  1  0
 20 21  2  0
 21 22  1  0
 22 23  2  0
 23 24  1  0
 24 25  2  0
  5 26  2  0
 26 27  1  0
 27 28  1  0
 28 29  1  0
 27 30  2  0
 30 31  1  0
 31 32  1  0
 30  3  1  0
 25  6  1  0
 18 12  1  0
 24 19  1  0
  1 33  1  0
  1 34  1  0
  1 35  1  0
  4 36  1  0
  7 37  1  0
 11 38  1  0
 13 39  1  0
 14 40  1  0
 16 41  1  0
 17 42  1  0
 18 43  1  0
 20 44  1  0
 21 45  1  0
 22 46  1  0
 23 47  1  0
 26 48  1  0
 29 49  1  0
 29 50  1  0
 29 51  1  0
 32 52  1  0
 32 53  1  0
 32 54  1  0
M  END
$$$$
