
     RDKit          3D

 38 39  0  0  0  0  0  0  0  0999 V2000
   -4.4702   -1.4252   -0.7783 C   0  0  0  0  0  0  0  0  0  0  0  0
   -3.4820   -0.4448   -1.1132 O   0  0  0  0  0  0  0  0  0  0  0  0
   -3.7603    0.7418   -0.4912 C   0  0  0  0  0  0  0  0  0  0  0  0
   -4.6843    1.6003   -1.0938 C   0  0  0  0  0  0  0  0  0  0  0  0
   -5.0084    2.8143   -0.4888 C   0  0  0  0  0  0  0  0  0  0  0  0
   -4.3999    3.1796    0.7112 C   0  0  0  0  0  0  0  0  0  0  0  0
   -3.4562    2.3362    1.2998 C   0  0  0  0  0  0  0  0  0  0  0  0
   -3.1145    1.1201    0.6898 C   0  0  0  0  0  0  0  0  0  0  0  0
   -2.0672    0.2947    1.3455 C   0  0  0  0  0  0  0  0  0  0  0  0
   -2.0145    0.2820    2.5755 O   0  0  0  0  0  0  0  0  0  0  0  0
   -1.0804   -0.4551    0.4580 C   0  0  0  0  0  0  0  0  0  0  0  0
    0.0828   -0.7712    1.2336 O   0  0  0  0  0  0  0  0  0  0  0  0
    1.2431   -0.8497    0.5390 C   0  0  0  0  0  0  0  0  0  0  0  0
    1.3718   -0.6938   -0.6621 O   0  0  0  0  0  0  0  0  0  0  0  0
    2.3086   -1.1666    1.5189 C   0  0  0  0  0  0  0  0  0  0  0  0
    3.6334   -1.2112    1.3025 C   0  0  0  0  0  0  0  0  0  0  0  0
    4.3621   -0.9691    0.0568 C   0  0  0  0  0  0  0  0  0  0  0  0
    4.1649   -1.7584   -1.0796 C   0  0  0  0  0  0  0  0  0  0  0  0
    4.9100   -1.5299   -2.2384 C   0  0  0  0  0  0  0  0  0  0  0  0
    5.8669   -0.5207   -2.2642 C   0  0  0  0  0  0  0  0  0  0  0  0
    6.0817    0.2607   -1.1311 C   0  0  0  0  0  0  0  0  0  0  0  0
    5.3347    0.0354    0.0274 C   0  0  0  0  0  0  0  0  0  0  0  0
   -4.2512   -2.3254   -1.3606 H   0  0  0  0  0  0  0  0  0  0  0  0
   -4.4134   -1.6852    0.2866 H   0  0  0  0  0  0  0  0  0  0  0  0
   -5.4822   -1.0945   -1.0376 H   0  0  0  0  0  0  0  0  0  0  0  0
   -5.1504    1.3260   -2.0326 H   0  0  0  0  0  0  0  0  0  0  0  0
   -5.7287    3.4803   -0.9576 H   0  0  0  0  0  0  0  0  0  0  0  0
   -4.6449    4.1310    1.1767 H   0  0  0  0  0  0  0  0  0  0  0  0
   -2.9657    2.6422    2.2220 H   0  0  0  0  0  0  0  0  0  0  0  0
   -0.8305    0.1706   -0.4078 H   0  0  0  0  0  0  0  0  0  0  0  0
   -1.5305   -1.4006    0.1495 H   0  0  0  0  0  0  0  0  0  0  0  0
    1.9472   -1.3558    2.5279 H   0  0  0  0  0  0  0  0  0  0  0  0
    4.2822   -1.4265    2.1538 H   0  0  0  0  0  0  0  0  0  0  0  0
    3.4219   -2.5541   -1.0755 H   0  0  0  0  0  0  0  0  0  0  0  0
    4.7373   -2.1382   -3.1229 H   0  0  0  0  0  0  0  0  0  0  0  0
    6.4431   -0.3426   -3.1657 H   0  0  0  0  0  0  0  0  0  0  0  0
    6.8305    1.0482   -1.1472 H   0  0  0  0  0  0  0  0  0  0  0  0
    5.5132    0.6552    0.9021 H   0  0  0  0  0  0  0  0  0  0  0  0
  1  2  1  0
  2  3  1  0
  3  4  2  0
  4  5  1  0
  5  6  2  0
  6  7  1  0
  7  8  2  0
  8  9  1  0
  9 10  2  0
  9 11  1  0
 11 12  1  0
 12 13  1  0
 13 14  2  0
 13 15  1  0
 15 16  2  3
 16 17  1  0
 17 18  2  0
 18 19  1  0
 19 20  2  0
 20 21  1  0
 21 22  2  0
  8  3  1  0
 22 17  1  0
  1 23  1  0
  1 24  1  0
  1 25  1  0
  4 26  1  0
  5 27  1  0
  6 28  1  0
  7 29  1  0
 11 30  1  0
 11 31  1  0
 15 32  1  0
 16 33  1  0
 18 34  1  0
 19 35  1  0
 20 36  1  0
 21 37  1  0
 22 38  1  0
M  END
$$$$
