
     RDKit          3D

 41 42  0  0  0  0  0  0  0  0999 V2000
    1.4230    4.1577    2.3985 C   0  0  0  0  0  0  0  0  0  0  0  0
    0.7711    4.1204    1.0294 C   0  0  0  0  0  0  0  0  0  0  0  0
    0.5000    2.7639    0.6510 O   0  0  0  0  0  0  0  0  0  0  0  0
    1.4986    2.1031   -0.0006 C   0  0  0  0  0  0  0  0  0  0  0  0
    2.6212    2.5706   -0.1869 O   0  0  0  0  0  0  0  0  0  0  0  0
    1.1240    0.6420   -0.3790 C   0  0  0  0  0  0  0  0  0  0  0  0
   -0.2266    0.2430    0.0303 N   0  0  0  0  0  0  0  0  0  0  0  0
   -1.3255    0.7461   -0.6225 C   0  0  0  0  0  0  0  0  0  0  0  0
   -1.2448    1.6652   -1.4265 O   0  0  0  0  0  0  0  0  0  0  0  0
   -2.6344    0.0958   -0.3382 C   0  0  0  0  0  0  0  0  0  0  0  0
   -2.8619   -0.6438    0.8314 C   0  0  0  0  0  0  0  0  0  0  0  0
   -4.1085   -1.2333    1.0559 C   0  0  0  0  0  0  0  0  0  0  0  0
   -5.1313   -1.0805    0.1198 C   0  0  0  0  0  0  0  0  0  0  0  0
   -4.9078   -0.3339   -1.0362 C   0  0  0  0  0  0  0  0  0  0  0  0
   -6.1761   -0.1419   -2.1832 Cl  0  0  0  0  0  0  0  0  0  0  0  0
   -3.6682    0.2574   -1.2693 C   0  0  0  0  0  0  0  0  0  0  0  0
    2.0338   -0.2275    0.4438 N   0  0  0  0  0  0  0  0  0  0  0  0
    2.0383   -1.5663    0.2284 C   0  0  0  0  0  0  0  0  0  0  0  0
    0.9943   -2.2836   -0.1258 N   0  0  0  0  0  0  0  0  0  0  0  0
    1.2863   -3.6236   -0.2547 N   0  0  0  0  0  0  0  0  0  0  0  0
    2.5490   -3.8807    0.0099 C   0  0  0  0  0  0  0  0  0  0  0  0
    3.1750   -5.2249   -0.0465 C   0  0  0  0  0  0  0  0  0  0  0  0
    3.4669   -2.4980    0.4492 S   0  0  0  0  0  0  0  0  0  0  0  0
    1.4409    0.5732   -1.9170 C   0  0  0  0  0  0  0  0  0  0  0  0
    0.8162   -0.4762   -2.5109 F   0  0  0  0  0  0  0  0  0  0  0  0
    1.1047    1.6833   -2.6082 F   0  0  0  0  0  0  0  0  0  0  0  0
    2.7748    0.3791   -2.1223 F   0  0  0  0  0  0  0  0  0  0  0  0
    2.3869    3.6390    2.3891 H   0  0  0  0  0  0  0  0  0  0  0  0
    1.5844    5.1893    2.7235 H   0  0  0  0  0  0  0  0  0  0  0  0
    0.7951    3.6486    3.1370 H   0  0  0  0  0  0  0  0  0  0  0  0
    1.3857    4.6290    0.2779 H   0  0  0  0  0  0  0  0  0  0  0  0
   -0.1911    4.6415    1.0647 H   0  0  0  0  0  0  0  0  0  0  0  0
   -0.2867   -0.7173    0.3449 H   0  0  0  0  0  0  0  0  0  0  0  0
   -2.0898   -0.7572    1.5879 H   0  0  0  0  0  0  0  0  0  0  0  0
   -4.2839   -1.8078    1.9626 H   0  0  0  0  0  0  0  0  0  0  0  0
   -6.1000   -1.5406    0.2985 H   0  0  0  0  0  0  0  0  0  0  0  0
   -3.5033    0.8394   -2.1736 H   0  0  0  0  0  0  0  0  0  0  0  0
    2.9684    0.1836    0.4865 H   0  0  0  0  0  0  0  0  0  0  0  0
    2.4388   -5.9781   -0.3449 H   0  0  0  0  0  0  0  0  0  0  0  0
    3.9910   -5.2445   -0.7758 H   0  0  0  0  0  0  0  0  0  0  0  0
    3.5716   -5.5114    0.9326 H   0  0  0  0  0  0  0  0  0  0  0  0
  1  2  1  0
  2  3  1  0
  3  4  1  0
  4  5  2  0
  4  6  1  0
  6  7  1  0
  7  8  1  0
  8  9  2  0
  8 10  1  0
 10 11  2  0
 11 12  1  0
 12 13  2  0
 13 14  1  0
 14 15  1  0
 14 16  2  0
  6 17  1  0
 17 18  1  0
 18 19  2  0
 19 20  1  0
 20 21  2  0
 21 22  1  0
 21 23  1  0
  6 24  1  0
 24 25  1  0
 24 26  1  0
 24 27  1  0
 16 10  1  0
 23 18  1  0
  1 28  1  0
  1 29  1  0
  1 30  1  0
  2 31  1  0
  2 32  1  0
  7 33  1  0
 11 34  1  0
 12 35  1  0
 13 36  1  0
 16 37  1  0
 17 38  1  0
 22 39  1  0
 22 40  1  0
 22 41  1  0
M  END
$$$$
