
     RDKit          3D

 68 71  0  0  0  0  0  0  0  0999 V2000
    5.7585   -4.9155    0.5528 C   0  0  0  0  0  0  0  0  0  0  0  0
    5.4679   -3.4714    0.5522 C   0  0  0  0  0  0  0  0  0  0  0  0
    4.6846   -2.6485   -0.2180 C   0  0  0  0  0  0  0  0  0  0  0  0
    4.8672   -1.3621    0.3356 C   0  0  0  0  0  0  0  0  0  0  0  0
    4.3135   -0.1583   -0.0403 N   0  0  0  0  0  0  0  0  0  0  0  0
    3.3465    0.0017   -1.0019 C   0  0  0  0  0  0  0  0  0  0  0  0
    2.8520   -0.8977   -1.6772 O   0  0  0  0  0  0  0  0  0  0  0  0
    2.9304    1.4510   -1.1955 C   0  0  0  0  0  0  0  0  0  0  0  0
    1.4188    1.5529   -1.4057 C   0  0  0  0  0  0  0  0  0  0  0  0
    0.6701    1.2218   -0.1215 C   0  0  0  0  0  0  0  0  0  0  0  0
    1.2990    0.9656    0.9095 O   0  0  0  0  0  0  0  0  0  0  0  0
   -0.7153    1.1673   -0.1384 N   0  0  0  0  0  0  0  0  0  0  0  0
   -1.5138    1.2205   -1.3675 C   0  0  0  0  0  0  0  0  0  0  0  0
   -1.9914    2.6021   -1.6511 C   0  0  0  0  0  0  0  0  0  0  0  0
   -3.2456    3.1350   -1.8756 C   0  0  0  0  0  0  0  0  0  0  0  0
   -3.0647    4.5224   -2.0812 C   0  0  0  0  0  0  0  0  0  0  0  0
   -1.7119    4.7489   -1.9873 C   0  0  0  0  0  0  0  0  0  0  0  0
   -1.0522    3.5897   -1.7365 O   0  0  0  0  0  0  0  0  0  0  0  0
   -1.4136    0.8103    1.1316 C   0  0  0  0  0  0  0  0  0  0  0  0
   -1.6302   -0.7388    1.2461 C   0  0  0  0  0  0  0  0  0  0  0  0
   -2.5384   -1.2640    1.8883 O   0  0  0  0  0  0  0  0  0  0  0  0
   -0.6312   -1.5030    0.6567 N   0  0  0  0  0  0  0  0  0  0  0  0
   -0.6039   -2.9518    0.7865 C   0  0  0  0  0  0  0  0  0  0  0  0
    0.6745   -3.5334    0.1870 C   0  0  0  0  0  0  0  0  0  0  0  0
    0.4110   -3.5830   -1.3160 C   0  0  0  0  0  0  0  0  0  0  0  0
   -1.1074   -3.6466   -1.4758 C   0  0  0  0  0  0  0  0  0  0  0  0
   -1.6827   -3.6273   -0.0614 C   0  0  0  0  0  0  0  0  0  0  0  0
   -2.6498    1.6804    1.3978 C   0  0  0  0  0  0  0  0  0  0  0  0
   -3.9474    1.2131    1.1063 C   0  0  0  0  0  0  0  0  0  0  0  0
   -5.0742    2.0066    1.3280 C   0  0  0  0  0  0  0  0  0  0  0  0
   -4.9299    3.2921    1.8313 C   0  0  0  0  0  0  0  0  0  0  0  0
   -3.6593    3.7858    2.1142 C   0  0  0  0  0  0  0  0  0  0  0  0
   -2.5133    2.9994    1.9016 C   0  0  0  0  0  0  0  0  0  0  0  0
   -1.1678    3.6010    2.2153 C   0  0  0  0  0  0  0  0  0  0  0  0
    5.7171   -1.4037    1.3687 N   0  0  0  0  0  0  0  0  0  0  0  0
    6.0853   -2.7286    1.5083 O   0  0  0  0  0  0  0  0  0  0  0  0
    5.3920   -5.3792    1.4740 H   0  0  0  0  0  0  0  0  0  0  0  0
    6.8368   -5.0910    0.4824 H   0  0  0  0  0  0  0  0  0  0  0  0
    5.2783   -5.4140   -0.2952 H   0  0  0  0  0  0  0  0  0  0  0  0
    4.0758   -2.9406   -1.0618 H   0  0  0  0  0  0  0  0  0  0  0  0
    4.5947    0.6176    0.5429 H   0  0  0  0  0  0  0  0  0  0  0  0
    3.2468    2.0675   -0.3465 H   0  0  0  0  0  0  0  0  0  0  0  0
    3.4534    1.8207   -2.0851 H   0  0  0  0  0  0  0  0  0  0  0  0
    1.1797    2.5784   -1.6990 H   0  0  0  0  0  0  0  0  0  0  0  0
    1.1154    0.8693   -2.2039 H   0  0  0  0  0  0  0  0  0  0  0  0
   -0.9303    0.8684   -2.2207 H   0  0  0  0  0  0  0  0  0  0  0  0
   -2.3555    0.5256   -1.2760 H   0  0  0  0  0  0  0  0  0  0  0  0
   -4.1798    2.5907   -1.8670 H   0  0  0  0  0  0  0  0  0  0  0  0
   -3.8258    5.2671   -2.2689 H   0  0  0  0  0  0  0  0  0  0  0  0
   -1.0943    5.6316   -2.0645 H   0  0  0  0  0  0  0  0  0  0  0  0
   -0.7299    1.0003    1.9693 H   0  0  0  0  0  0  0  0  0  0  0  0
    0.2683   -1.0370    0.5847 H   0  0  0  0  0  0  0  0  0  0  0  0
   -0.7056   -3.2018    1.8478 H   0  0  0  0  0  0  0  0  0  0  0  0
    0.8251   -4.5546    0.5597 H   0  0  0  0  0  0  0  0  0  0  0  0
    1.5714   -2.9538    0.4264 H   0  0  0  0  0  0  0  0  0  0  0  0
    0.7950   -2.6802   -1.8022 H   0  0  0  0  0  0  0  0  0  0  0  0
    0.9087   -4.4405   -1.7797 H   0  0  0  0  0  0  0  0  0  0  0  0
   -1.4243   -4.5402   -2.0220 H   0  0  0  0  0  0  0  0  0  0  0  0
   -1.4573   -2.7761   -2.0412 H   0  0  0  0  0  0  0  0  0  0  0  0
   -1.8254   -4.6596    0.2816 H   0  0  0  0  0  0  0  0  0  0  0  0
   -2.6558   -3.1300   -0.0275 H   0  0  0  0  0  0  0  0  0  0  0  0
   -4.1045    0.2133    0.7064 H   0  0  0  0  0  0  0  0  0  0  0  0
   -6.0642    1.6151    1.1105 H   0  0  0  0  0  0  0  0  0  0  0  0
   -5.8047    3.9117    2.0058 H   0  0  0  0  0  0  0  0  0  0  0  0
   -3.5670    4.7974    2.5048 H   0  0  0  0  0  0  0  0  0  0  0  0
   -1.2633    4.6304    2.5786 H   0  0  0  0  0  0  0  0  0  0  0  0
   -0.6653    3.0268    2.9999 H   0  0  0  0  0  0  0  0  0  0  0  0
   -0.5410    3.6329    1.3198 H   0  0  0  0  0  0  0  0  0  0  0  0
  1  2  1  0
  2  3  2  0
  3  4  1  0
  4  5  1  0
  5  6  1  0
  6  7  2  0
  6  8  1  0
  8  9  1  0
  9 10  1  0
 10 11  2  0
 10 12  1  0
 12 13  1  0
 13 14  1  0
 14 15  2  0
 15 16  1  0
 16 17  2  0
 17 18  1  0
 12 19  1  0
 19 20  1  0
 20 21  2  0
 20 22  1  0
 22 23  1  0
 23 24  1  0
 24 25  1  0
 25 26  1  0
 26 27  1  0
 19 28  1  0
 28 29  2  0
 29 30  1  0
 30 31  2  0
 31 32  1  0
 32 33  2  0
 33 34  1  0
  4 35  2  0
 35 36  1  0
 36  2  1  0
 18 14  1  0
 27 23  1  0
 33 28  1  0
  1 37  1  0
  1 38  1  0
  1 39  1  0
  3 40  1  0
  5 41  1  0
  8 42  1  0
  8 43  1  0
  9 44  1  0
  9 45  1  0
 13 46  1  0
 13 47  1  0
 15 48  1  0
 16 49  1  0
 17 50  1  0
 19 51  1  0
 22 52  1  0
 23 53  1  0
 24 54  1  0
 24 55  1  0
 25 56  1  0
 25 57  1  0
 26 58  1  0
 26 59  1  0
 27 60  1  0
 27 61  1  0
 29 62  1  0
 30 63  1  0
 31 64  1  0
 32 65  1  0
 34 66  1  0
 34 67  1  0
 34 68  1  0
M  END
$$$$
