
     RDKit          3D

 39 40  0  0  0  0  0  0  0  0999 V2000
   -1.5473    0.4449   -2.3494 C   0  0  0  0  0  0  0  0  0  0  0  0
   -2.4303    0.1591   -1.1517 C   0  0  0  0  0  0  0  0  0  0  0  0
   -1.9300   -0.1025    0.0714 C   0  0  0  0  0  0  0  0  0  0  0  0
   -0.4710   -0.2101    0.3399 C   0  0  0  0  0  0  0  0  0  0  0  0
    0.3474   -0.8731   -0.4175 N   0  0  0  0  0  0  0  0  0  0  0  0
    1.6743   -0.8408   -0.0699 N   0  0  0  0  0  0  0  0  0  0  0  0
    2.3544    0.3079    0.3170 C   0  0  0  0  0  0  0  0  0  0  0  0
    1.8190    1.3909    0.5472 O   0  0  0  0  0  0  0  0  0  0  0  0
    3.8434    0.1882    0.4448 C   0  0  0  0  0  0  0  0  0  0  0  0
    4.5246    1.2787    1.0125 C   0  0  0  0  0  0  0  0  0  0  0  0
    5.9095    1.2416    1.1678 C   0  0  0  0  0  0  0  0  0  0  0  0
    6.8087    2.7162    1.9362 Br  0  0  0  0  0  0  0  0  0  0  0  0
    6.6378    0.1264    0.7618 C   0  0  0  0  0  0  0  0  0  0  0  0
    5.9768   -0.9624    0.1924 C   0  0  0  0  0  0  0  0  0  0  0  0
    4.5875   -0.9305    0.0335 C   0  0  0  0  0  0  0  0  0  0  0  0
    3.9691   -2.0097   -0.5422 O   0  0  0  0  0  0  0  0  0  0  0  0
   -2.8513   -0.2578    1.2195 C   0  0  0  0  0  0  0  0  0  0  0  0
   -2.3980   -0.5255    2.3323 O   0  0  0  0  0  0  0  0  0  0  0  0
   -4.1965   -0.0956    0.9646 N   0  0  0  0  0  0  0  0  0  0  0  0
   -5.1253   -0.2346    2.0705 C   0  0  0  0  0  0  0  0  0  0  0  0
   -4.7349    0.0588   -0.3037 C   0  0  0  0  0  0  0  0  0  0  0  0
   -5.9535    0.0782   -0.4893 O   0  0  0  0  0  0  0  0  0  0  0  0
   -3.8162    0.1908   -1.3480 N   0  0  0  0  0  0  0  0  0  0  0  0
   -4.3684    0.3807   -2.6890 C   0  0  0  0  0  0  0  0  0  0  0  0
   -1.9327    1.2870   -2.9339 H   0  0  0  0  0  0  0  0  0  0  0  0
   -0.5318    0.7444   -2.0779 H   0  0  0  0  0  0  0  0  0  0  0  0
   -1.4866   -0.4350   -2.9977 H   0  0  0  0  0  0  0  0  0  0  0  0
   -0.1483    0.2658    1.2837 H   0  0  0  0  0  0  0  0  0  0  0  0
    2.2374   -1.5880   -0.4776 H   0  0  0  0  0  0  0  0  0  0  0  0
    3.9682    2.1572    1.3355 H   0  0  0  0  0  0  0  0  0  0  0  0
    7.7181    0.0971    0.8830 H   0  0  0  0  0  0  0  0  0  0  0  0
    6.5620   -1.8224   -0.1219 H   0  0  0  0  0  0  0  0  0  0  0  0
    4.6386   -2.6831   -0.7619 H   0  0  0  0  0  0  0  0  0  0  0  0
   -5.5122   -1.2587    2.0686 H   0  0  0  0  0  0  0  0  0  0  0  0
   -5.9647    0.4580    1.9527 H   0  0  0  0  0  0  0  0  0  0  0  0
   -4.6425   -0.0378    3.0318 H   0  0  0  0  0  0  0  0  0  0  0  0
   -5.4411    0.1715   -2.7289 H   0  0  0  0  0  0  0  0  0  0  0  0
   -4.2161    1.4214   -2.9912 H   0  0  0  0  0  0  0  0  0  0  0  0
   -3.8783   -0.2970   -3.3947 H   0  0  0  0  0  0  0  0  0  0  0  0
  1  2  1  0
  2  3  2  0
  3  4  1  0
  4  5  2  3
  5  6  1  0
  6  7  1  0
  7  8  2  0
  7  9  1  0
  9 10  2  0
 10 11  1  0
 11 12  1  0
 11 13  2  0
 13 14  1  0
 14 15  2  0
 15 16  1  0
  3 17  1  0
 17 18  2  0
 17 19  1  0
 19 20  1  0
 19 21  1  0
 21 22  2  0
 21 23  1  0
 23 24  1  0
 23  2  1  0
 15  9  1  0
  1 25  1  0
  1 26  1  0
  1 27  1  0
  4 28  1  0
  6 29  1  0
 10 30  1  0
 13 31  1  0
 14 32  1  0
 16 33  1  0
 20 34  1  0
 20 35  1  0
 20 36  1  0
 24 37  1  0
 24 38  1  0
 24 39  1  0
M  END
$$$$
