
     RDKit          3D

 36 38  0  0  0  0  0  0  0  0999 V2000
   -5.1638   -0.7807   -0.7506 C   0  0  0  0  0  0  0  0  0  0  0  0
   -4.0299    0.1428   -0.4053 C   0  0  0  0  0  0  0  0  0  0  0  0
   -4.2998    1.4099    0.1425 C   0  0  0  0  0  0  0  0  0  0  0  0
   -3.2611    2.2686    0.5031 C   0  0  0  0  0  0  0  0  0  0  0  0
   -1.9556    1.8414    0.3177 C   0  0  0  0  0  0  0  0  0  0  0  0
   -1.6539    0.5752   -0.2244 C   0  0  0  0  0  0  0  0  0  0  0  0
   -2.6990   -0.2779   -0.5739 C   0  0  0  0  0  0  0  0  0  0  0  0
   -0.2540    0.2917   -0.3286 N   0  0  0  0  0  0  0  0  0  0  0  0
    0.0810   -0.4133   -1.5705 C   0  0  0  0  0  0  0  0  0  0  0  0
    0.4867    1.3786    0.1646 C   0  0  0  0  0  0  0  0  0  0  0  0
    1.8087    1.4555    0.4032 C   0  0  0  0  0  0  0  0  0  0  0  0
    2.7688    0.3639    0.2522 C   0  0  0  0  0  0  0  0  0  0  0  0
    3.7879    0.4897   -0.7009 C   0  0  0  0  0  0  0  0  0  0  0  0
    4.7046   -0.5374   -0.8815 C   0  0  0  0  0  0  0  0  0  0  0  0
    4.5979   -1.6800   -0.1056 C   0  0  0  0  0  0  0  0  0  0  0  0
    3.5875   -1.7681    0.8432 C   0  0  0  0  0  0  0  0  0  0  0  0
    2.7029   -0.7576    1.0245 N   0  0  0  0  0  4  0  0  0  0  0  0
    1.6840   -0.9109    2.0870 C   0  0  0  0  0  0  0  0  0  0  0  0
   -0.4863    2.7785    0.6868 S   0  0  0  0  0  0  0  0  0  0  0  0
   -6.0477   -0.2143   -1.0624 H   0  0  0  0  0  0  0  0  0  0  0  0
   -5.4234   -1.3940    0.1177 H   0  0  0  0  0  0  0  0  0  0  0  0
   -4.8910   -1.4395   -1.5817 H   0  0  0  0  0  0  0  0  0  0  0  0
   -5.3294    1.7336    0.2892 H   0  0  0  0  0  0  0  0  0  0  0  0
   -3.4776    3.2486    0.9174 H   0  0  0  0  0  0  0  0  0  0  0  0
   -2.5063   -1.2724   -0.9631 H   0  0  0  0  0  0  0  0  0  0  0  0
   -0.3613   -1.4149   -1.5898 H   0  0  0  0  0  0  0  0  0  0  0  0
    1.1587   -0.5606   -1.6744 H   0  0  0  0  0  0  0  0  0  0  0  0
   -0.2581    0.1477   -2.4497 H   0  0  0  0  0  0  0  0  0  0  0  0
    2.2428    2.3775    0.7881 H   0  0  0  0  0  0  0  0  0  0  0  0
    3.8622    1.3861   -1.3156 H   0  0  0  0  0  0  0  0  0  0  0  0
    5.4946   -0.4466   -1.6259 H   0  0  0  0  0  0  0  0  0  0  0  0
    5.3038   -2.4983   -0.2343 H   0  0  0  0  0  0  0  0  0  0  0  0
    3.4822   -2.6495    1.4706 H   0  0  0  0  0  0  0  0  0  0  0  0
    0.7744   -1.3031    1.6285 H   0  0  0  0  0  0  0  0  0  0  0  0
    2.0529   -1.6174    2.8364 H   0  0  0  0  0  0  0  0  0  0  0  0
    1.5165    0.0474    2.5828 H   0  0  0  0  0  0  0  0  0  0  0  0
  1  2  1  0
  2  3  2  0
  3  4  1  0
  4  5  2  0
  5  6  1  0
  6  7  2  0
  6  8  1  0
  8  9  1  0
  8 10  1  0
 10 11  2  3
 11 12  1  0
 12 13  2  0
 13 14  1  0
 14 15  2  0
 15 16  1  0
 16 17  2  0
 17 18  1  0
 10 19  1  0
  7  2  1  0
 17 12  1  0
 19  5  1  0
  1 20  1  0
  1 21  1  0
  1 22  1  0
  3 23  1  0
  4 24  1  0
  7 25  1  0
  9 26  1  0
  9 27  1  0
  9 28  1  0
 11 29  1  0
 13 30  1  0
 14 31  1  0
 15 32  1  0
 16 33  1  0
 18 34  1  0
 18 35  1  0
 18 36  1  0
M  CHG  1  17   1
M  END
$$$$
