
     RDKit          3D

 62 65  0  0  0  0  0  0  0  0999 V2000
   -2.2004   -1.1737    2.9071 C   0  0  0  0  0  0  0  0  0  0  0  0
   -2.0528   -1.5786    1.4446 C   0  0  0  0  0  0  0  0  0  0  0  0
   -2.7049   -0.6243    0.5317 N   0  0  0  0  0  0  0  0  0  0  0  0
   -2.3361    0.7293    0.3800 C   0  0  0  0  0  0  0  0  0  0  0  0
   -1.1188    1.2731    0.1771 C   0  0  0  0  0  0  0  0  0  0  0  0
    0.1121    0.5544   -0.0703 C   0  0  0  0  0  0  0  0  0  0  0  0
    1.2860    1.1713   -0.2622 C   0  0  0  0  0  0  0  0  0  0  0  0
    2.5591    0.4651   -0.5574 C   0  0  0  0  0  0  0  0  0  0  0  0
    2.7476   -0.5947   -1.2949 N   0  0  0  0  0  4  0  0  0  0  0  0
    1.8139   -1.3497   -2.1599 C   0  0  0  0  0  0  0  0  0  0  0  0
    1.4227   -2.6667   -1.5111 C   0  0  0  0  0  0  0  0  0  0  0  0
    4.1858   -0.9344   -1.3051 C   0  0  0  0  0  0  0  0  0  0  0  0
    4.8304   -1.9669   -1.9622 C   0  0  0  0  0  0  0  0  0  0  0  0
    6.2182   -2.0600   -1.8186 C   0  0  0  0  0  0  0  0  0  0  0  0
    6.9234   -1.1330   -1.0339 C   0  0  0  0  0  0  0  0  0  0  0  0
    6.2554   -0.0962   -0.3775 C   0  0  0  0  0  0  0  0  0  0  0  0
    4.8788   -0.0110   -0.5264 C   0  0  0  0  0  0  0  0  0  0  0  0
    3.9058    0.9963    0.0196 C   0  0  0  0  0  0  0  0  0  0  0  0
    4.2221    2.3949   -0.5272 C   0  0  0  0  0  0  0  0  0  0  0  0
    3.8846    0.9923    1.5496 C   0  0  0  0  0  0  0  0  0  0  0  0
   -3.6307    1.6103    0.3639 C   0  0  0  0  0  0  0  0  0  0  0  0
   -3.7423    2.4840   -0.8968 C   0  0  0  0  0  0  0  0  0  0  0  0
   -3.7235    2.4667    1.6368 C   0  0  0  0  0  0  0  0  0  0  0  0
   -4.7112    0.5465    0.3628 C   0  0  0  0  0  0  0  0  0  0  0  0
   -6.0901    0.6987    0.2855 C   0  0  0  0  0  0  0  0  0  0  0  0
   -6.8871   -0.4458    0.3177 C   0  0  0  0  0  0  0  0  0  0  0  0
   -6.3025   -1.7139    0.4266 C   0  0  0  0  0  0  0  0  0  0  0  0
   -4.9130   -1.8549    0.5089 C   0  0  0  0  0  0  0  0  0  0  0  0
   -4.1167   -0.7194    0.4820 C   0  0  0  0  0  0  0  0  0  0  0  0
   -1.7295   -0.2016    3.1018 H   0  0  0  0  0  0  0  0  0  0  0  0
   -3.2502   -1.0987    3.2093 H   0  0  0  0  0  0  0  0  0  0  0  0
   -1.7183   -1.9135    3.5526 H   0  0  0  0  0  0  0  0  0  0  0  0
   -2.4396   -2.5935    1.3062 H   0  0  0  0  0  0  0  0  0  0  0  0
   -0.9874   -1.6599    1.2167 H   0  0  0  0  0  0  0  0  0  0  0  0
   -1.0560    2.3585    0.1012 H   0  0  0  0  0  0  0  0  0  0  0  0
    0.0203   -0.5201   -0.1474 H   0  0  0  0  0  0  0  0  0  0  0  0
    1.3570    2.2503   -0.1411 H   0  0  0  0  0  0  0  0  0  0  0  0
    2.2871   -1.5028   -3.1343 H   0  0  0  0  0  0  0  0  0  0  0  0
    0.9275   -0.7337   -2.3417 H   0  0  0  0  0  0  0  0  0  0  0  0
    0.6707   -3.1771   -2.1235 H   0  0  0  0  0  0  0  0  0  0  0  0
    2.2741   -3.3430   -1.4066 H   0  0  0  0  0  0  0  0  0  0  0  0
    0.9988   -2.5210   -0.5151 H   0  0  0  0  0  0  0  0  0  0  0  0
    4.3140   -2.6950   -2.5809 H   0  0  0  0  0  0  0  0  0  0  0  0
    6.7654   -2.8553   -2.3245 H   0  0  0  0  0  0  0  0  0  0  0  0
    8.0085   -1.2237   -0.9448 H   0  0  0  0  0  0  0  0  0  0  0  0
    6.8130    0.6226    0.2223 H   0  0  0  0  0  0  0  0  0  0  0  0
    3.4951    3.1400   -0.1809 H   0  0  0  0  0  0  0  0  0  0  0  0
    5.2162    2.7378   -0.2127 H   0  0  0  0  0  0  0  0  0  0  0  0
    4.2000    2.4011   -1.6270 H   0  0  0  0  0  0  0  0  0  0  0  0
    3.6250    0.0018    1.9437 H   0  0  0  0  0  0  0  0  0  0  0  0
    3.1457    1.7009    1.9397 H   0  0  0  0  0  0  0  0  0  0  0  0
    4.8597    1.2705    1.9675 H   0  0  0  0  0  0  0  0  0  0  0  0
   -4.6914    3.0353   -0.9168 H   0  0  0  0  0  0  0  0  0  0  0  0
   -3.6977    1.8824   -1.8140 H   0  0  0  0  0  0  0  0  0  0  0  0
   -2.9391    3.2285   -0.9458 H   0  0  0  0  0  0  0  0  0  0  0  0
   -3.6433    1.8562    2.5452 H   0  0  0  0  0  0  0  0  0  0  0  0
   -2.9256    3.2158    1.6709 H   0  0  0  0  0  0  0  0  0  0  0  0
   -4.6789    3.0007    1.6901 H   0  0  0  0  0  0  0  0  0  0  0  0
   -6.5455    1.6792    0.1995 H   0  0  0  0  0  0  0  0  0  0  0  0
   -7.9682   -0.3554    0.2533 H   0  0  0  0  0  0  0  0  0  0  0  0
   -6.9364   -2.5983    0.4415 H   0  0  0  0  0  0  0  0  0  0  0  0
   -4.4870   -2.8489    0.5695 H   0  0  0  0  0  0  0  0  0  0  0  0
  1  2  1  0
  2  3  1  0
  3  4  1  0
  4  5  2  3
  5  6  1  0
  6  7  2  3
  7  8  1  0
  8  9  2  0
  9 10  1  0
 10 11  1  0
  9 12  1  0
 12 13  2  0
 13 14  1  0
 14 15  2  0
 15 16  1  0
 16 17  2  0
 17 18  1  0
 18 19  1  0
 18 20  1  0
  4 21  1  0
 21 22  1  0
 21 23  1  0
 21 24  1  0
 24 25  2  0
 25 26  1  0
 26 27  2  0
 27 28  1  0
 28 29  2  0
 29  3  1  0
 18  8  1  0
 29 24  1  0
 17 12  1  0
  1 30  1  0
  1 31  1  0
  1 32  1  0
  2 33  1  0
  2 34  1  0
  5 35  1  0
  6 36  1  0
  7 37  1  0
 10 38  1  0
 10 39  1  0
 11 40  1  0
 11 41  1  0
 11 42  1  0
 13 43  1  0
 14 44  1  0
 15 45  1  0
 16 46  1  0
 19 47  1  0
 19 48  1  0
 19 49  1  0
 20 50  1  0
 20 51  1  0
 20 52  1  0
 22 53  1  0
 22 54  1  0
 22 55  1  0
 23 56  1  0
 23 57  1  0
 23 58  1  0
 25 59  1  0
 26 60  1  0
 27 61  1  0
 28 62  1  0
M  CHG  1   9   1
M  END
$$$$
