
     RDKit          3D

 57 60  0  0  0  0  0  0  0  0999 V2000
   -6.7042    2.6597    2.8182 C   0  0  0  0  0  0  0  0  0  0  0  0
   -6.7831    1.2570    2.6005 O   0  0  0  0  0  0  0  0  0  0  0  0
   -5.6413    0.6236    2.1920 C   0  0  0  0  0  0  0  0  0  0  0  0
   -5.7971   -0.7404    1.9351 C   0  0  0  0  0  0  0  0  0  0  0  0
   -4.7177   -1.5196    1.5089 C   0  0  0  0  0  0  0  0  0  0  0  0
   -3.4657   -0.9347    1.3413 C   0  0  0  0  0  0  0  0  0  0  0  0
   -2.3145   -1.6370    0.9243 N   0  0  0  0  0  0  0  0  0  0  0  0
   -2.1997   -2.9504    0.5199 C   0  0  0  0  0  0  0  0  0  0  0  0
   -3.1189   -3.7671    0.4754 O   0  0  0  0  0  0  0  0  0  0  0  0
   -0.7852   -3.3998    0.1855 C   0  0  0  0  0  0  0  0  0  0  0  0
    0.0477   -2.3623   -0.4132 N   0  0  0  0  0  0  0  0  0  0  0  0
    1.0617   -1.7165    0.2424 C   0  0  0  0  0  0  0  0  0  0  0  0
    1.5424   -0.7307   -0.5941 C   0  0  0  0  0  0  0  0  0  0  0  0
    2.8281    0.3716   -0.2223 S   0  0  0  0  0  6  0  0  0  0  0  0
    3.1018    0.1239    1.1810 O   0  0  0  0  0  0  0  0  0  0  0  0
    2.3479    1.6516   -0.7065 O   0  0  0  0  0  0  0  0  0  0  0  0
    4.1679   -0.2373   -1.2406 C   0  0  0  0  0  0  0  0  0  0  0  0
    5.4088    0.5697   -0.9631 C   0  0  0  0  0  0  0  0  0  0  0  0
    5.6563    1.7621   -1.6594 C   0  0  0  0  0  0  0  0  0  0  0  0
    6.8061    2.5084   -1.3954 C   0  0  0  0  0  0  0  0  0  0  0  0
    7.7175    2.0738   -0.4334 C   0  0  0  0  0  0  0  0  0  0  0  0
    7.4789    0.8938    0.2678 C   0  0  0  0  0  0  0  0  0  0  0  0
    6.3304    0.1451    0.0063 C   0  0  0  0  0  0  0  0  0  0  0  0
    0.8190   -0.7991   -1.8189 C   0  0  0  0  0  0  0  0  0  0  0  0
    0.8418   -0.0743   -3.0294 C   0  0  0  0  0  0  0  0  0  0  0  0
   -0.0286   -0.4247   -4.0652 C   0  0  0  0  0  0  0  0  0  0  0  0
   -0.9222   -1.4776   -3.9122 C   0  0  0  0  0  0  0  0  0  0  0  0
   -0.9773   -2.2053   -2.7219 C   0  0  0  0  0  0  0  0  0  0  0  0
   -0.0978   -1.8502   -1.6875 C   0  0  0  0  0  0  0  0  0  0  0  0
   -3.2983    0.4434    1.6027 C   0  0  0  0  0  0  0  0  0  0  0  0
   -2.0192    0.9191    1.4017 O   0  0  0  0  0  0  0  0  0  0  0  0
   -1.7886    2.3030    1.6201 C   0  0  0  0  0  0  0  0  0  0  0  0
   -4.3866    1.2162    2.0256 C   0  0  0  0  0  0  0  0  0  0  0  0
   -6.4123    3.1857    1.9029 H   0  0  0  0  0  0  0  0  0  0  0  0
   -6.0206    2.8955    3.6417 H   0  0  0  0  0  0  0  0  0  0  0  0
   -7.7008    3.0124    3.1001 H   0  0  0  0  0  0  0  0  0  0  0  0
   -6.7716   -1.2057    2.0678 H   0  0  0  0  0  0  0  0  0  0  0  0
   -4.8884   -2.5737    1.3229 H   0  0  0  0  0  0  0  0  0  0  0  0
   -1.4960   -1.0324    0.8719 H   0  0  0  0  0  0  0  0  0  0  0  0
   -0.3006   -3.7456    1.1068 H   0  0  0  0  0  0  0  0  0  0  0  0
   -0.8210   -4.2337   -0.5258 H   0  0  0  0  0  0  0  0  0  0  0  0
    1.3476   -1.9799    1.2544 H   0  0  0  0  0  0  0  0  0  0  0  0
    4.3277   -1.2941   -1.0003 H   0  0  0  0  0  0  0  0  0  0  0  0
    3.8772   -0.1547   -2.2926 H   0  0  0  0  0  0  0  0  0  0  0  0
    4.9520    2.1262   -2.4068 H   0  0  0  0  0  0  0  0  0  0  0  0
    6.9881    3.4342   -1.9364 H   0  0  0  0  0  0  0  0  0  0  0  0
    8.6098    2.6587   -0.2249 H   0  0  0  0  0  0  0  0  0  0  0  0
    8.1851    0.5595    1.0247 H   0  0  0  0  0  0  0  0  0  0  0  0
    6.1579   -0.7679    0.5739 H   0  0  0  0  0  0  0  0  0  0  0  0
    1.5143    0.7689   -3.1625 H   0  0  0  0  0  0  0  0  0  0  0  0
   -0.0125    0.1400   -4.9932 H   0  0  0  0  0  0  0  0  0  0  0  0
   -1.5978   -1.7322   -4.7250 H   0  0  0  0  0  0  0  0  0  0  0  0
   -1.6926   -3.0146   -2.6112 H   0  0  0  0  0  0  0  0  0  0  0  0
   -2.3929    2.9150    0.9437 H   0  0  0  0  0  0  0  0  0  0  0  0
   -1.9708    2.5696    2.6651 H   0  0  0  0  0  0  0  0  0  0  0  0
   -0.7363    2.5023    1.4024 H   0  0  0  0  0  0  0  0  0  0  0  0
   -4.2558    2.2711    2.2265 H   0  0  0  0  0  0  0  0  0  0  0  0
  1  2  1  0
  2  3  1  0
  3  4  2  0
  4  5  1  0
  5  6  2  0
  6  7  1  0
  7  8  1  0
  8  9  2  0
  8 10  1  0
 10 11  1  0
 11 12  1  0
 12 13  2  0
 13 14  1  0
 14 15  2  0
 14 16  2  0
 14 17  1  0
 17 18  1  0
 18 19  2  0
 19 20  1  0
 20 21  2  0
 21 22  1  0
 22 23  2  0
 13 24  1  0
 24 25  2  0
 25 26  1  0
 26 27  2  0
 27 28  1  0
 28 29  2  0
  6 30  1  0
 30 31  1  0
 31 32  1  0
 30 33  2  0
 33  3  1  0
 29 11  1  0
 23 18  1  0
 29 24  1  0
  1 34  1  0
  1 35  1  0
  1 36  1  0
  4 37  1  0
  5 38  1  0
  7 39  1  0
 10 40  1  0
 10 41  1  0
 12 42  1  0
 17 43  1  0
 17 44  1  0
 19 45  1  0
 20 46  1  0
 21 47  1  0
 22 48  1  0
 23 49  1  0
 25 50  1  0
 26 51  1  0
 27 52  1  0
 28 53  1  0
 32 54  1  0
 32 55  1  0
 32 56  1  0
 33 57  1  0
M  END
$$$$
