
     RDKit          3D

 37 39  0  0  0  0  0  0  0  0999 V2000
   -4.0771    0.7566   -1.5250 O   0  0  0  0  0  0  0  0  0  0  0  0
   -4.3237    0.2756   -0.4230 C   0  0  0  0  0  0  0  0  0  0  0  0
   -3.3629   -0.1400    0.4847 N   0  0  0  0  0  0  0  0  0  0  0  0
   -1.9615   -0.1095    0.3537 C   0  0  0  0  0  0  0  0  0  0  0  0
   -1.2108   -0.5902    1.4313 C   0  0  0  0  0  0  0  0  0  0  0  0
    0.1883   -0.5952    1.3828 C   0  0  0  0  0  0  0  0  0  0  0  0
    0.8657   -0.1209    0.2551 C   0  0  0  0  0  0  0  0  0  0  0  0
    2.2751   -0.1593    0.2874 N   0  0  0  0  0  0  0  0  0  0  0  0
    3.1527    0.2120   -0.7117 C   0  0  0  0  0  0  0  0  0  0  0  0
    2.8520    0.6639   -1.8112 O   0  0  0  0  0  0  0  0  0  0  0  0
    4.6081    0.1007   -0.3890 C   0  0  0  0  0  0  0  0  0  0  0  0
    5.4436    1.0783   -0.9627 C   0  0  0  0  0  0  0  0  0  0  0  0
    6.8205    1.0743   -0.7279 C   0  0  0  0  0  0  0  0  0  0  0  0
    7.3765    0.0869    0.0779 C   0  0  0  0  0  0  0  0  0  0  0  0
    9.0707    0.0769    0.3720 Cl  0  0  0  0  0  0  0  0  0  0  0  0
    6.5700   -0.8973    0.6447 C   0  0  0  0  0  0  0  0  0  0  0  0
    5.1880   -0.8966    0.4105 C   0  0  0  0  0  0  0  0  0  0  0  0
    4.2897   -2.1892    1.1270 Cl  0  0  0  0  0  0  0  0  0  0  0  0
    0.1169    0.3575   -0.8183 C   0  0  0  0  0  0  0  0  0  0  0  0
   -1.2859    0.3634   -0.7696 C   0  0  0  0  0  0  0  0  0  0  0  0
   -5.7056    0.1005    0.0306 C   0  0  0  0  0  0  0  0  0  0  0  0
   -6.8508    0.4296   -0.6741 C   0  0  0  0  0  0  0  0  0  0  0  0
   -8.0455    0.1353    0.0436 C   0  0  0  0  0  0  0  0  0  0  0  0
   -7.7798   -0.4110    1.2782 C   0  0  0  0  0  0  0  0  0  0  0  0
   -6.1016   -0.5649    1.5630 S   0  0  0  0  0  0  0  0  0  0  0  0
   -3.7269   -0.5130    1.3525 H   0  0  0  0  0  0  0  0  0  0  0  0
   -1.6994   -0.9689    2.3253 H   0  0  0  0  0  0  0  0  0  0  0  0
    0.7352   -0.9790    2.2402 H   0  0  0  0  0  0  0  0  0  0  0  0
    2.6800   -0.5386    1.1350 H   0  0  0  0  0  0  0  0  0  0  0  0
    5.0180    1.8540   -1.5997 H   0  0  0  0  0  0  0  0  0  0  0  0
    7.4468    1.8403   -1.1793 H   0  0  0  0  0  0  0  0  0  0  0  0
    7.0202   -1.6714    1.2624 H   0  0  0  0  0  0  0  0  0  0  0  0
    0.5877    0.7386   -1.7194 H   0  0  0  0  0  0  0  0  0  0  0  0
   -1.8131    0.7479   -1.6373 H   0  0  0  0  0  0  0  0  0  0  0  0
   -6.8223    0.8648   -1.6675 H   0  0  0  0  0  0  0  0  0  0  0  0
   -9.0469    0.3157   -0.3284 H   0  0  0  0  0  0  0  0  0  0  0  0
   -8.4920   -0.7279    2.0282 H   0  0  0  0  0  0  0  0  0  0  0  0
  1  2  2  0
  2  3  1  0
  3  4  1  0
  4  5  2  0
  5  6  1  0
  6  7  2  0
  7  8  1  0
  8  9  1  0
  9 10  2  0
  9 11  1  0
 11 12  2  0
 12 13  1  0
 13 14  2  0
 14 15  1  0
 14 16  1  0
 16 17  2  0
 17 18  1  0
  7 19  1  0
 19 20  2  0
  2 21  1  0
 21 22  2  0
 22 23  1  0
 23 24  2  0
 24 25  1  0
 20  4  1  0
 25 21  1  0
 17 11  1  0
  3 26  1  0
  5 27  1  0
  6 28  1  0
  8 29  1  0
 12 30  1  0
 13 31  1  0
 16 32  1  0
 19 33  1  0
 20 34  1  0
 22 35  1  0
 23 36  1  0
 24 37  1  0
M  END
$$$$
