
     RDKit          3D

 27 27  0  0  0  0  0  0  0  0999 V2000
   -5.3796   -0.5660   -1.2477 C   0  0  0  0  0  0  0  0  0  0  0  0
   -5.0228    0.3152   -0.3036 C   0  0  0  0  0  0  0  0  0  0  0  0
   -4.3313   -0.0498    0.9711 C   0  0  0  0  0  0  0  0  0  0  0  0
   -2.9997    0.4832    0.9127 N   0  0  0  0  0  0  0  0  0  0  0  0
   -1.9030   -0.2839    0.5986 C   0  0  0  0  0  0  0  0  0  0  0  0
   -1.8801   -1.4962    0.4316 O   0  0  0  0  0  0  0  0  0  0  0  0
   -0.6018    0.5274    0.4556 C   0  0  0  0  0  0  0  0  0  0  0  0
   -0.6248    1.7400    0.6190 O   0  0  0  0  0  0  0  0  0  0  0  0
    0.4737   -0.2814    0.1421 N   0  0  0  0  0  0  0  0  0  0  0  0
    1.7191    0.2473   -0.0287 N   0  0  0  0  0  0  0  0  0  0  0  0
    2.6497   -0.6044   -0.3241 C   0  0  0  0  0  0  0  0  0  0  0  0
    4.0023   -0.1751   -0.5291 C   0  0  0  0  0  0  0  0  0  0  0  0
    4.6015    1.0682   -0.4785 C   0  0  0  0  0  0  0  0  0  0  0  0
    5.9719    0.8694   -0.7713 C   0  0  0  0  0  0  0  0  0  0  0  0
    6.1252   -0.4804   -0.9822 C   0  0  0  0  0  0  0  0  0  0  0  0
    4.9374   -1.1233   -0.8378 O   0  0  0  0  0  0  0  0  0  0  0  0
   -5.1659   -1.6263   -1.1461 H   0  0  0  0  0  0  0  0  0  0  0  0
   -5.8844   -0.2401   -2.1519 H   0  0  0  0  0  0  0  0  0  0  0  0
   -5.2567    1.3668   -0.4528 H   0  0  0  0  0  0  0  0  0  0  0  0
   -4.8443    0.4115    1.8203 H   0  0  0  0  0  0  0  0  0  0  0  0
   -4.3027   -1.1330    1.1288 H   0  0  0  0  0  0  0  0  0  0  0  0
   -2.8491    1.4876    0.9557 H   0  0  0  0  0  0  0  0  0  0  0  0
    0.3009   -1.2807    0.0396 H   0  0  0  0  0  0  0  0  0  0  0  0
    2.4453   -1.6847   -0.4297 H   0  0  0  0  0  0  0  0  0  0  0  0
    4.0981    1.9999   -0.2558 H   0  0  0  0  0  0  0  0  0  0  0  0
    6.7509    1.6171   -0.8222 H   0  0  0  0  0  0  0  0  0  0  0  0
    6.9698   -1.1084   -1.2304 H   0  0  0  0  0  0  0  0  0  0  0  0
  1  2  2  0
  2  3  1  0
  3  4  1  0
  4  5  1  0
  5  6  2  0
  5  7  1  0
  7  8  2  0
  7  9  1  0
  9 10  1  0
 10 11  2  3
 11 12  1  0
 12 13  2  0
 13 14  1  0
 14 15  2  0
 15 16  1  0
 16 12  1  0
  1 17  1  0
  1 18  1  0
  2 19  1  0
  3 20  1  0
  3 21  1  0
  4 22  1  0
  9 23  1  0
 11 24  1  0
 13 25  1  0
 14 26  1  0
 15 27  1  0
M  END
$$$$
