
     RDKit          3D

 50 52  0  0  0  0  0  0  0  0999 V2000
    1.8288   -1.2343   -2.3458 C   0  0  0  0  0  0  0  0  0  0  0  0
    2.5211   -1.7025   -1.0765 C   0  0  0  0  0  0  0  0  0  0  0  0
    2.8791   -0.5784   -0.2011 N   0  0  0  0  0  4  0  0  0  0  0  0
    2.1101   -0.1782    0.8025 C   0  0  0  0  0  0  0  0  0  0  0  0
    0.8698   -0.7306    1.1974 C   0  0  0  0  0  0  0  0  0  0  0  0
   -0.2852   -0.2470    0.7140 C   0  0  0  0  0  0  0  0  0  0  0  0
   -1.5690   -0.7823    1.1204 C   0  0  0  0  0  0  0  0  0  0  0  0
   -2.7419   -0.2665    0.7185 C   0  0  0  0  0  0  0  0  0  0  0  0
   -4.0289   -0.6972    1.0774 N   0  0  0  0  0  0  0  0  0  0  0  0
   -4.2323   -1.6279    2.1228 C   0  0  0  0  0  0  0  0  0  0  0  0
   -5.5174   -2.4331    2.0912 C   0  0  0  0  0  0  0  0  0  0  0  0
   -3.4137   -1.8672    3.0159 O   0  0  0  0  0  0  0  0  0  0  0  0
   -5.1579   -0.0696    0.4347 C   0  0  0  0  0  0  0  0  0  0  0  0
   -6.2618    0.3694    1.1809 C   0  0  0  0  0  0  0  0  0  0  0  0
   -7.3427    0.9959    0.5547 C   0  0  0  0  0  0  0  0  0  0  0  0
   -7.3305    1.1985   -0.8231 C   0  0  0  0  0  0  0  0  0  0  0  0
   -6.2357    0.7819   -1.5762 C   0  0  0  0  0  0  0  0  0  0  0  0
   -5.1525    0.1581   -0.9509 C   0  0  0  0  0  0  0  0  0  0  0  0
    2.8249    1.1308    1.6467 S   0  0  0  0  0  0  0  0  0  0  0  0
    4.1880    1.1500    0.5978 C   0  0  0  0  0  0  0  0  0  0  0  0
    5.3032    2.0008    0.6227 C   0  0  0  0  0  0  0  0  0  0  0  0
    6.3045    1.8307   -0.3403 C   0  0  0  0  0  0  0  0  0  0  0  0
    7.3419    2.7117   -0.2237 O   0  0  0  0  0  0  0  0  0  0  0  0
    8.4127    2.5997   -1.1554 C   0  0  0  0  0  0  0  0  0  0  0  0
    6.1856    0.8316   -1.3026 C   0  0  0  0  0  0  0  0  0  0  0  0
    5.0678   -0.0193   -1.3245 C   0  0  0  0  0  0  0  0  0  0  0  0
    4.0562    0.1459   -0.3570 C   0  0  0  0  0  0  0  0  0  0  0  0
    1.5582   -2.0910   -2.9710 H   0  0  0  0  0  0  0  0  0  0  0  0
    0.9161   -0.6764   -2.1141 H   0  0  0  0  0  0  0  0  0  0  0  0
    2.4787   -0.5760   -2.9302 H   0  0  0  0  0  0  0  0  0  0  0  0
    1.8765   -2.4073   -0.5392 H   0  0  0  0  0  0  0  0  0  0  0  0
    3.4265   -2.2677   -1.3250 H   0  0  0  0  0  0  0  0  0  0  0  0
    0.8764   -1.5309    1.9366 H   0  0  0  0  0  0  0  0  0  0  0  0
   -0.2995    0.5832    0.0076 H   0  0  0  0  0  0  0  0  0  0  0  0
   -1.5416   -1.6401    1.7874 H   0  0  0  0  0  0  0  0  0  0  0  0
   -2.7296    0.5890    0.0444 H   0  0  0  0  0  0  0  0  0  0  0  0
   -6.2470   -2.0061    2.7829 H   0  0  0  0  0  0  0  0  0  0  0  0
   -5.2909   -3.4553    2.4132 H   0  0  0  0  0  0  0  0  0  0  0  0
   -5.9360   -2.5066    1.0848 H   0  0  0  0  0  0  0  0  0  0  0  0
   -6.2821    0.2730    2.2638 H   0  0  0  0  0  0  0  0  0  0  0  0
   -8.1904    1.3364    1.1454 H   0  0  0  0  0  0  0  0  0  0  0  0
   -8.1736    1.6853   -1.3087 H   0  0  0  0  0  0  0  0  0  0  0  0
   -6.2287    0.9386   -2.6524 H   0  0  0  0  0  0  0  0  0  0  0  0
   -4.3246   -0.1801   -1.5682 H   0  0  0  0  0  0  0  0  0  0  0  0
    5.3967    2.7823    1.3748 H   0  0  0  0  0  0  0  0  0  0  0  0
    8.9030    1.6234   -1.0763 H   0  0  0  0  0  0  0  0  0  0  0  0
    8.0643    2.7863   -2.1770 H   0  0  0  0  0  0  0  0  0  0  0  0
    9.1532    3.3671   -0.9081 H   0  0  0  0  0  0  0  0  0  0  0  0
    6.9522    0.6848   -2.0606 H   0  0  0  0  0  0  0  0  0  0  0  0
    5.0176   -0.7828   -2.0959 H   0  0  0  0  0  0  0  0  0  0  0  0
  1  2  1  0
  2  3  1  0
  3  4  2  0
  4  5  1  0
  5  6  2  3
  6  7  1  0
  7  8  2  3
  8  9  1  0
  9 10  1  0
 10 11  1  0
 10 12  2  0
  9 13  1  0
 13 14  2  0
 14 15  1  0
 15 16  2  0
 16 17  1  0
 17 18  2  0
  4 19  1  0
 19 20  1  0
 20 21  2  0
 21 22  1  0
 22 23  1  0
 23 24  1  0
 22 25  2  0
 25 26  1  0
 26 27  2  0
 27  3  1  0
 18 13  1  0
 27 20  1  0
  1 28  1  0
  1 29  1  0
  1 30  1  0
  2 31  1  0
  2 32  1  0
  5 33  1  0
  6 34  1  0
  7 35  1  0
  8 36  1  0
 11 37  1  0
 11 38  1  0
 11 39  1  0
 14 40  1  0
 15 41  1  0
 16 42  1  0
 17 43  1  0
 18 44  1  0
 21 45  1  0
 24 46  1  0
 24 47  1  0
 24 48  1  0
 25 49  1  0
 26 50  1  0
M  CHG  1   3   1
M  END
$$$$
