
     RDKit          3D

 57 60  0  0  0  0  0  0  0  0999 V2000
    5.2890    3.0825    0.0946 C   0  0  0  0  0  0  0  0  0  0  0  0
    4.2982    1.9692   -0.0042 C   0  0  0  0  0  0  0  0  0  0  0  0
    2.9358    2.0879   -0.1974 C   0  0  0  0  0  0  0  0  0  0  0  0
    2.3990    0.7937   -0.3492 C   0  0  0  0  0  0  0  0  0  0  0  0
    1.0350    0.4369   -0.5847 C   0  0  0  0  0  0  0  0  0  0  0  0
   -0.0168    1.2518   -0.3909 C   0  0  0  0  0  0  0  0  0  0  0  0
   -1.3927    0.8123   -0.6318 C   0  0  0  0  0  0  0  0  0  0  0  0
   -1.8239    0.6892   -1.9537 C   0  0  0  0  0  0  0  0  0  0  0  0
   -3.1195    0.2874   -2.2230 C   0  0  0  0  0  0  0  0  0  0  0  0
   -3.9836    0.0004   -1.1687 C   0  0  0  0  0  0  0  0  0  0  0  0
   -5.3070   -0.4102   -1.4303 C   0  0  0  0  0  0  0  0  0  0  0  0
   -6.2246   -0.7302   -0.4146 C   0  0  0  0  0  0  0  0  0  0  0  0
   -7.5363   -1.1051   -0.6869 N   0  0  0  0  0  0  0  0  0  0  0  0
   -8.3562   -1.7265    0.3563 C   0  0  0  0  0  0  0  0  0  0  0  0
   -7.9670   -1.3613   -2.0639 C   0  0  0  0  0  0  0  0  0  0  0  0
   -5.7447   -0.6087    0.8961 C   0  0  0  0  0  0  0  0  0  0  0  0
   -4.4333   -0.1964    1.1851 C   0  0  0  0  0  0  0  0  0  0  0  0
   -3.5258    0.1222    0.1639 C   0  0  0  0  0  0  0  0  0  0  0  0
   -2.2376    0.5370    0.4035 N   0  0  0  0  0  4  0  0  0  0  0  0
   -1.7667    0.6560    1.8054 C   0  0  0  0  0  0  0  0  0  0  0  0
    3.4414   -0.1104   -0.2151 C   0  0  0  0  0  0  0  0  0  0  0  0
    3.3848   -1.6064   -0.1766 C   0  0  0  0  0  0  0  0  0  0  0  0
    4.6241    0.6153   -0.0233 N   0  0  0  0  0  0  0  0  0  0  0  0
    5.9333    0.0680    0.1213 C   0  0  0  0  0  0  0  0  0  0  0  0
    6.3720   -0.9452   -0.7419 C   0  0  0  0  0  0  0  0  0  0  0  0
    7.6548   -1.4790   -0.5984 C   0  0  0  0  0  0  0  0  0  0  0  0
    8.5010   -1.0062    0.4039 C   0  0  0  0  0  0  0  0  0  0  0  0
    8.0686    0.0029    1.2639 C   0  0  0  0  0  0  0  0  0  0  0  0
    6.7878    0.5423    1.1247 C   0  0  0  0  0  0  0  0  0  0  0  0
    5.5284    3.2963    1.1404 H   0  0  0  0  0  0  0  0  0  0  0  0
    6.2105    2.8602   -0.4531 H   0  0  0  0  0  0  0  0  0  0  0  0
    4.8749    3.9995   -0.3401 H   0  0  0  0  0  0  0  0  0  0  0  0
    2.4127    3.0337   -0.2583 H   0  0  0  0  0  0  0  0  0  0  0  0
    0.8578   -0.5799   -0.9375 H   0  0  0  0  0  0  0  0  0  0  0  0
    0.1047    2.2718   -0.0321 H   0  0  0  0  0  0  0  0  0  0  0  0
   -1.1506    0.9131   -2.7815 H   0  0  0  0  0  0  0  0  0  0  0  0
   -3.4452    0.1977   -3.2601 H   0  0  0  0  0  0  0  0  0  0  0  0
   -5.6183   -0.4777   -2.4719 H   0  0  0  0  0  0  0  0  0  0  0  0
   -9.3584   -1.9757   -0.0118 H   0  0  0  0  0  0  0  0  0  0  0  0
   -8.5055   -1.0433    1.1999 H   0  0  0  0  0  0  0  0  0  0  0  0
   -7.8955   -2.6552    0.7109 H   0  0  0  0  0  0  0  0  0  0  0  0
   -9.0365   -1.5953   -2.1136 H   0  0  0  0  0  0  0  0  0  0  0  0
   -7.4211   -2.2104   -2.4926 H   0  0  0  0  0  0  0  0  0  0  0  0
   -7.8228   -0.4749   -2.6933 H   0  0  0  0  0  0  0  0  0  0  0  0
   -6.3920   -0.8255    1.7444 H   0  0  0  0  0  0  0  0  0  0  0  0
   -4.1724   -0.1377    2.2381 H   0  0  0  0  0  0  0  0  0  0  0  0
   -1.7850   -0.3452    2.2492 H   0  0  0  0  0  0  0  0  0  0  0  0
   -0.7542    1.0547    1.8773 H   0  0  0  0  0  0  0  0  0  0  0  0
   -2.4372    1.3441    2.3307 H   0  0  0  0  0  0  0  0  0  0  0  0
    4.1245   -2.0286    0.5096 H   0  0  0  0  0  0  0  0  0  0  0  0
    2.4084   -1.9523    0.1803 H   0  0  0  0  0  0  0  0  0  0  0  0
    3.5396   -2.0214   -1.1774 H   0  0  0  0  0  0  0  0  0  0  0  0
    5.7506   -1.3027   -1.5583 H   0  0  0  0  0  0  0  0  0  0  0  0
    7.9999   -2.2578   -1.2758 H   0  0  0  0  0  0  0  0  0  0  0  0
    9.4997   -1.4229    0.5130 H   0  0  0  0  0  0  0  0  0  0  0  0
    8.7290    0.3658    2.0483 H   0  0  0  0  0  0  0  0  0  0  0  0
    6.4651    1.3001    1.8339 H   0  0  0  0  0  0  0  0  0  0  0  0
  1  2  1  0
  2  3  2  0
  3  4  1  0
  4  5  1  0
  5  6  2  3
  6  7  1  0
  7  8  2  0
  8  9  1  0
  9 10  2  0
 10 11  1  0
 11 12  2  0
 12 13  1  0
 13 14  1  0
 13 15  1  0
 12 16  1  0
 16 17  2  0
 17 18  1  0
 18 19  2  0
 19 20  1  0
  4 21  2  0
 21 22  1  0
 21 23  1  0
 23 24  1  0
 24 25  2  0
 25 26  1  0
 26 27  2  0
 27 28  1  0
 28 29  2  0
 23  2  1  0
 29 24  1  0
 19  7  1  0
 18 10  1  0
  1 30  1  0
  1 31  1  0
  1 32  1  0
  3 33  1  0
  5 34  1  0
  6 35  1  0
  8 36  1  0
  9 37  1  0
 11 38  1  0
 14 39  1  0
 14 40  1  0
 14 41  1  0
 15 42  1  0
 15 43  1  0
 15 44  1  0
 16 45  1  0
 17 46  1  0
 20 47  1  0
 20 48  1  0
 20 49  1  0
 22 50  1  0
 22 51  1  0
 22 52  1  0
 25 53  1  0
 26 54  1  0
 27 55  1  0
 28 56  1  0
 29 57  1  0
M  CHG  1  19   1
M  END
$$$$
