
     RDKit          3D

130132  0  0  0  0  0  0  0  0999 V2000
    2.2177    5.6710    2.3116 C   0  0  0  0  0  0  0  0  0  0  0  0
    2.2801    4.6125    1.2150 C   0  0  0  0  0  0  0  0  0  0  0  0
    2.0952    3.1744    1.7432 C   0  0  0  0  0  0  0  0  0  0  0  0
    0.8014    2.9449    2.4967 C   0  0  0  0  0  0  0  0  0  0  0  0
   -0.4773    3.0322    2.0995 C   0  0  0  0  0  0  0  0  0  0  0  0
   -0.9658    3.4021    0.7901 C   0  0  0  0  0  0  0  0  0  0  0  0
   -2.2631    3.4761    0.4406 C   0  0  0  0  0  0  0  0  0  0  0  0
   -3.4371    3.1540    1.3295 C   0  0  0  0  0  0  0  0  0  0  0  0
   -4.8069    3.2522    0.6085 C   0  0  0  0  0  0  0  0  0  0  0  0
   -5.1952    4.7223    0.4056 C   0  0  0  0  0  0  0  0  0  0  0  0
   -5.8942    2.4571    1.3878 C   0  0  0  0  0  0  0  0  0  0  0  0
   -6.1652    3.0501    2.6630 O   0  0  0  0  0  0  0  0  0  0  0  0
   -7.2391    2.2197    0.6107 C   0  0  0  0  0  0  0  0  0  0  0  0
   -8.3816    3.1315    1.0824 C   0  0  0  0  0  0  0  0  0  0  0  0
   -7.0703    2.4299   -0.8017 O   0  0  0  0  0  0  0  0  0  0  0  0
   -7.6474    0.7355    0.7757 C   0  0  0  0  0  0  0  0  0  0  0  0
   -8.6232    0.3843    1.4481 O   0  0  0  0  0  0  0  0  0  0  0  0
   -6.8079   -0.3159    0.0412 C   0  0  0  0  0  0  0  0  0  0  0  0
   -7.6052   -0.8102   -1.1665 C   0  0  0  0  0  0  0  0  0  0  0  0
   -6.4226   -1.4268    1.0457 C   0  0  0  0  0  0  0  0  0  0  0  0
   -7.5768   -2.2337    1.3212 O   0  0  0  0  0  0  0  0  0  0  0  0
   -5.2864   -2.3535    0.5500 C   0  0  0  0  0  0  0  0  0  0  0  0
   -5.0106   -3.4548    1.5849 C   0  0  0  0  0  0  0  0  0  0  0  0
   -4.0068   -1.5433    0.3185 C   0  0  0  0  0  0  0  0  0  0  0  0
   -3.6757   -0.6535    1.1146 O   0  0  0  0  0  0  0  0  0  0  0  0
   -3.1333   -1.8097   -0.9174 C   0  0  0  0  0  0  0  0  0  0  0  0
   -3.8941   -1.3791   -2.1697 C   0  0  0  0  0  0  0  0  0  0  0  0
   -2.6019   -3.2550   -0.9187 C   0  0  0  0  0  0  0  0  0  0  0  0
   -3.5469   -4.1245   -1.5487 O   0  0  0  0  0  0  0  0  0  0  0  0
   -1.1651   -3.4431   -1.5025 C   0  0  0  0  0  0  0  0  0  0  0  0
   -1.0152   -3.0772   -2.9788 C   0  0  0  0  0  0  0  0  0  0  0  0
   -0.7270   -4.8860   -1.3101 C   0  0  0  0  0  0  0  0  0  0  0  0
    0.3814   -5.3555   -0.7124 C   0  0  0  0  0  0  0  0  0  0  0  0
    1.5187   -4.6073   -0.1385 C   0  0  0  0  0  0  0  0  0  0  0  0
    2.1332   -5.0211    0.8323 O   0  0  0  0  0  0  0  0  0  0  0  0
    1.8161   -3.5117   -0.8780 O   0  0  0  0  0  0  0  0  0  0  0  0
    3.0148   -2.7907   -0.4866 C   0  0  0  0  0  0  0  0  0  0  0  0
    2.6567   -1.7944    0.6369 C   0  0  0  0  0  0  0  0  0  0  0  0
    3.5551   -2.0313    1.8580 C   0  0  0  0  0  0  0  0  0  0  0  0
    2.7146   -0.3511    0.1039 C   0  0  0  0  0  0  0  0  0  0  0  0
    2.4259    0.6954    1.1935 C   0  0  0  0  0  0  0  0  0  0  0  0
    2.3362    2.1255    0.6351 C   0  0  0  0  0  0  0  0  0  0  0  0
    3.9673   -0.0256   -0.4907 O   0  0  0  0  0  0  0  0  0  0  0  0
    4.5704   -0.9936   -1.3585 C   0  0  0  0  0  0  0  0  0  0  0  0
    5.0807   -0.2107   -2.5920 C   0  0  0  0  0  0  0  0  0  0  0  0
    6.4533   -0.6948   -3.0442 C   0  0  0  0  0  0  0  0  0  0  0  0
    7.4695   -0.5171   -1.9133 C   0  0  0  0  0  0  0  0  0  0  0  0
    8.7369   -1.3242   -2.2113 C   0  0  0  0  0  0  0  0  0  0  0  0
    6.8816   -0.9000   -0.5349 C   0  0  0  0  0  0  0  0  0  0  0  0
    6.7253    0.3009    0.4214 C   0  0  0  0  0  0  0  0  0  0  0  0
    8.0544    0.9141    0.8753 C   0  0  0  0  0  0  0  0  0  0  0  0
    7.8161    2.0940    1.8096 C   0  0  0  0  0  0  0  0  0  0  0  0
    8.8267   -0.0722    1.5524 O   0  0  0  0  0  0  0  0  0  0  0  0
    5.6560   -1.6419   -0.6812 O   0  0  0  0  0  0  0  0  0  0  0  0
    3.5474   -2.0909   -1.7576 C   0  0  0  0  0  0  0  0  0  0  0  0
    4.0992   -3.1453   -2.7242 C   0  0  0  0  0  0  0  0  0  0  0  0
    1.2246    5.7162    2.7684 H   0  0  0  0  0  0  0  0  0  0  0  0
    2.9509    5.4636    3.0989 H   0  0  0  0  0  0  0  0  0  0  0  0
    2.4392    6.6583    1.8942 H   0  0  0  0  0  0  0  0  0  0  0  0
    3.2623    4.6879    0.7306 H   0  0  0  0  0  0  0  0  0  0  0  0
    1.5444    4.8537    0.4410 H   0  0  0  0  0  0  0  0  0  0  0  0
    2.8988    3.0271    2.4805 H   0  0  0  0  0  0  0  0  0  0  0  0
    0.9539    2.6494    3.5355 H   0  0  0  0  0  0  0  0  0  0  0  0
   -1.2369    2.7978    2.8457 H   0  0  0  0  0  0  0  0  0  0  0  0
   -0.2350    3.6346    0.0240 H   0  0  0  0  0  0  0  0  0  0  0  0
   -2.4854    3.7729   -0.5840 H   0  0  0  0  0  0  0  0  0  0  0  0
   -3.3082    2.1287    1.7010 H   0  0  0  0  0  0  0  0  0  0  0  0
   -3.4302    3.8287    2.1932 H   0  0  0  0  0  0  0  0  0  0  0  0
   -4.6905    2.7850   -0.3774 H   0  0  0  0  0  0  0  0  0  0  0  0
   -5.3546    5.2317    1.3621 H   0  0  0  0  0  0  0  0  0  0  0  0
   -6.1152    4.8163   -0.1785 H   0  0  0  0  0  0  0  0  0  0  0  0
   -4.4170    5.2671   -0.1365 H   0  0  0  0  0  0  0  0  0  0  0  0
   -5.4604    1.4781    1.6239 H   0  0  0  0  0  0  0  0  0  0  0  0
   -5.3312    3.3518    3.0670 H   0  0  0  0  0  0  0  0  0  0  0  0
   -8.6124    2.9967    2.1433 H   0  0  0  0  0  0  0  0  0  0  0  0
   -9.3025    2.9216    0.5227 H   0  0  0  0  0  0  0  0  0  0  0  0
   -8.1461    4.1898    0.8998 H   0  0  0  0  0  0  0  0  0  0  0  0
   -7.9509    2.5350   -1.1985 H   0  0  0  0  0  0  0  0  0  0  0  0
   -5.9019    0.1832   -0.3189 H   0  0  0  0  0  0  0  0  0  0  0  0
   -7.9193    0.0275   -1.7994 H   0  0  0  0  0  0  0  0  0  0  0  0
   -8.5138   -1.3396   -0.8672 H   0  0  0  0  0  0  0  0  0  0  0  0
   -7.0085   -1.4876   -1.7804 H   0  0  0  0  0  0  0  0  0  0  0  0
   -6.1253   -0.9681    1.9974 H   0  0  0  0  0  0  0  0  0  0  0  0
   -8.2719   -1.6291    1.6589 H   0  0  0  0  0  0  0  0  0  0  0  0
   -5.5984   -2.8341   -0.3823 H   0  0  0  0  0  0  0  0  0  0  0  0
   -4.2882   -4.1823    1.2064 H   0  0  0  0  0  0  0  0  0  0  0  0
   -4.6018   -3.0379    2.5125 H   0  0  0  0  0  0  0  0  0  0  0  0
   -5.9199   -4.0175    1.8248 H   0  0  0  0  0  0  0  0  0  0  0  0
   -2.2709   -1.1369   -0.8029 H   0  0  0  0  0  0  0  0  0  0  0  0
   -4.7724   -2.0004   -2.3568 H   0  0  0  0  0  0  0  0  0  0  0  0
   -4.2418   -0.3460   -2.0757 H   0  0  0  0  0  0  0  0  0  0  0  0
   -3.2666   -1.4265   -3.0601 H   0  0  0  0  0  0  0  0  0  0  0  0
   -2.5324   -3.5903    0.1236 H   0  0  0  0  0  0  0  0  0  0  0  0
   -3.4986   -4.0164   -2.5150 H   0  0  0  0  0  0  0  0  0  0  0  0
   -0.5095   -2.7797   -0.9301 H   0  0  0  0  0  0  0  0  0  0  0  0
   -1.7316   -3.6027   -3.6147 H   0  0  0  0  0  0  0  0  0  0  0  0
   -0.0116   -3.3263   -3.3441 H   0  0  0  0  0  0  0  0  0  0  0  0
   -1.1426   -2.0020   -3.1286 H   0  0  0  0  0  0  0  0  0  0  0  0
   -1.4364   -5.6360   -1.6682 H   0  0  0  0  0  0  0  0  0  0  0  0
    0.4890   -6.4289   -0.5813 H   0  0  0  0  0  0  0  0  0  0  0  0
    3.7685   -3.5148   -0.1470 H   0  0  0  0  0  0  0  0  0  0  0  0
    1.6283   -1.9822    0.9696 H   0  0  0  0  0  0  0  0  0  0  0  0
    4.5988   -1.7836    1.6550 H   0  0  0  0  0  0  0  0  0  0  0  0
    3.2259   -1.4320    2.7123 H   0  0  0  0  0  0  0  0  0  0  0  0
    3.5149   -3.0785    2.1730 H   0  0  0  0  0  0  0  0  0  0  0  0
    1.9466   -0.2324   -0.6703 H   0  0  0  0  0  0  0  0  0  0  0  0
    3.2330    0.6866    1.9355 H   0  0  0  0  0  0  0  0  0  0  0  0
    1.4911    0.4311    1.7031 H   0  0  0  0  0  0  0  0  0  0  0  0
    1.5496    2.1741   -0.1276 H   0  0  0  0  0  0  0  0  0  0  0  0
    3.2746    2.3679    0.1228 H   0  0  0  0  0  0  0  0  0  0  0  0
    5.1561    0.8615   -2.3498 H   0  0  0  0  0  0  0  0  0  0  0  0
    4.3610   -0.2674   -3.4205 H   0  0  0  0  0  0  0  0  0  0  0  0
    6.7743   -0.1307   -3.9258 H   0  0  0  0  0  0  0  0  0  0  0  0
    6.4069   -1.7437   -3.3495 H   0  0  0  0  0  0  0  0  0  0  0  0
    7.7659    0.5387   -1.9028 H   0  0  0  0  0  0  0  0  0  0  0  0
    9.1479   -1.0609   -3.1944 H   0  0  0  0  0  0  0  0  0  0  0  0
    8.5379   -2.4024   -2.2027 H   0  0  0  0  0  0  0  0  0  0  0  0
    9.5082   -1.1136   -1.4657 H   0  0  0  0  0  0  0  0  0  0  0  0
    7.5530   -1.6117   -0.0437 H   0  0  0  0  0  0  0  0  0  0  0  0
    6.1693   -0.0398    1.3052 H   0  0  0  0  0  0  0  0  0  0  0  0
    6.1164    1.0808   -0.0478 H   0  0  0  0  0  0  0  0  0  0  0  0
    8.6360    1.2556    0.0141 H   0  0  0  0  0  0  0  0  0  0  0  0
    7.2293    2.8793    1.3201 H   0  0  0  0  0  0  0  0  0  0  0  0
    8.7697    2.5245    2.1353 H   0  0  0  0  0  0  0  0  0  0  0  0
    7.2906    1.7746    2.7160 H   0  0  0  0  0  0  0  0  0  0  0  0
    9.6313    0.3592    1.8843 H   0  0  0  0  0  0  0  0  0  0  0  0
    2.6957   -1.6225   -2.2739 H   0  0  0  0  0  0  0  0  0  0  0  0
    4.9927   -3.6336   -2.3279 H   0  0  0  0  0  0  0  0  0  0  0  0
    4.3513   -2.7050   -3.6943 H   0  0  0  0  0  0  0  0  0  0  0  0
    3.3617   -3.9274   -2.9225 H   0  0  0  0  0  0  0  0  0  0  0  0
  1  2  1  0
  2  3  1  0
  3  4  1  0
  4  5  2  3
  5  6  1  0
  6  7  2  3
  7  8  1  0
  8  9  1  0
  9 10  1  0
  9 11  1  0
 11 12  1  0
 11 13  1  0
 13 14  1  0
 13 15  1  0
 13 16  1  0
 16 17  2  0
 16 18  1  0
 18 19  1  0
 18 20  1  0
 20 21  1  0
 20 22  1  0
 22 23  1  0
 22 24  1  0
 24 25  2  0
 24 26  1  0
 26 27  1  0
 26 28  1  0
 28 29  1  0
 28 30  1  0
 30 31  1  0
 30 32  1  0
 32 33  2  3
 33 34  1  0
 34 35  2  0
 34 36  1  0
 36 37  1  0
 37 38  1  0
 38 39  1  0
 38 40  1  0
 40 41  1  0
 41 42  1  0
 40 43  1  0
 43 44  1  0
 44 45  1  0
 45 46  1  0
 46 47  1  0
 47 48  1  0
 47 49  1  0
 49 50  1  0
 50 51  1  0
 51 52  1  0
 51 53  1  0
 49 54  1  0
 44 55  1  0
 55 56  1  0
 42  3  1  0
 54 44  1  0
 55 37  1  0
  1 57  1  0
  1 58  1  0
  1 59  1  0
  2 60  1  0
  2 61  1  0
  3 62  1  0
  4 63  1  0
  5 64  1  0
  6 65  1  0
  7 66  1  0
  8 67  1  0
  8 68  1  0
  9 69  1  0
 10 70  1  0
 10 71  1  0
 10 72  1  0
 11 73  1  0
 12 74  1  0
 14 75  1  0
 14 76  1  0
 14 77  1  0
 15 78  1  0
 18 79  1  0
 19 80  1  0
 19 81  1  0
 19 82  1  0
 20 83  1  0
 21 84  1  0
 22 85  1  0
 23 86  1  0
 23 87  1  0
 23 88  1  0
 26 89  1  0
 27 90  1  0
 27 91  1  0
 27 92  1  0
 28 93  1  0
 29 94  1  0
 30 95  1  0
 31 96  1  0
 31 97  1  0
 31 98  1  0
 32 99  1  0
 33100  1  0
 37101  1  0
 38102  1  0
 39103  1  0
 39104  1  0
 39105  1  0
 40106  1  0
 41107  1  0
 41108  1  0
 42109  1  0
 42110  1  0
 45111  1  0
 45112  1  0
 46113  1  0
 46114  1  0
 47115  1  0
 48116  1  0
 48117  1  0
 48118  1  0
 49119  1  0
 50120  1  0
 50121  1  0
 51122  1  0
 52123  1  0
 52124  1  0
 52125  1  0
 53126  1  0
 55127  1  0
 56128  1  0
 56129  1  0
 56130  1  0
M  END
$$$$
