
     RDKit          3D

 56 61  0  0  0  0  0  0  0  0999 V2000
    1.6204    3.3565    3.0517 O   0  0  0  0  0  0  0  0  0  0  0  0
    1.0466    3.4615    1.9777 C   0  0  0  0  0  0  0  0  0  0  0  0
    0.3573    4.5931    1.5426 N   0  0  0  0  0  0  0  0  0  0  0  0
   -0.0931    4.4350    0.2385 C   0  0  0  0  0  0  0  0  0  0  0  0
   -0.7792    5.3645   -0.5152 C   0  0  0  0  0  0  0  0  0  0  0  0
   -1.1382    4.9981   -1.8137 C   0  0  0  0  0  0  0  0  0  0  0  0
   -0.8051    3.7292   -2.3208 C   0  0  0  0  0  0  0  0  0  0  0  0
   -0.1061    2.8044   -1.5387 C   0  0  0  0  0  0  0  0  0  0  0  0
    0.2480    3.1680   -0.2489 C   0  0  0  0  0  0  0  0  0  0  0  0
    0.9793    2.4167    0.8267 C   0  0  0  0  0  0  0  0  0  0  0  0
    2.3523    1.9229    0.4607 N   0  0  0  0  0  0  0  0  0  0  0  0
    2.3555    0.4090    0.4596 C   0  0  2  0  0  0  0  0  0  0  0  0
    2.6649   -0.0911   -0.9621 C   0  0  0  0  0  0  0  0  0  0  0  0
    2.8815   -1.5858   -1.0435 C   0  0  0  0  0  0  0  0  0  0  0  0
    1.9154   -2.4106   -1.6366 C   0  0  0  0  0  0  0  0  0  0  0  0
    2.0986   -3.7930   -1.6832 C   0  0  0  0  0  0  0  0  0  0  0  0
    3.2499   -4.3631   -1.1441 C   0  0  0  0  0  0  0  0  0  0  0  0
    4.2210   -3.5516   -0.5606 C   0  0  0  0  0  0  0  0  0  0  0  0
    4.0396   -2.1689   -0.5111 C   0  0  0  0  0  0  0  0  0  0  0  0
    1.0067    0.0638    0.9618 C   0  0  0  0  0  0  0  0  0  0  0  0
    0.2206    1.2044    1.1572 C   0  0  0  0  0  0  0  0  0  0  0  0
   -1.0133    0.8157    1.6115 C   0  0  0  0  0  0  0  0  0  0  0  0
   -2.1055    1.5009    1.9265 O   0  0  0  0  0  0  0  0  0  0  0  0
   -0.9745   -0.5660    1.7050 N   0  0  0  0  0  0  0  0  0  0  0  0
   -2.0808   -1.4056    2.1454 C   0  0  0  0  0  0  0  0  0  0  0  0
   -2.9205   -1.8738    0.9808 C   0  0  0  0  0  0  0  0  0  0  0  0
   -2.6151   -3.0709    0.3166 C   0  0  0  0  0  0  0  0  0  0  0  0
   -3.3846   -3.4976   -0.7668 C   0  0  0  0  0  0  0  0  0  0  0  0
   -4.4639   -2.7304   -1.2011 C   0  0  0  0  0  0  0  0  0  0  0  0
   -4.7720   -1.5341   -0.5557 C   0  0  0  0  0  0  0  0  0  0  0  0
   -4.0033   -1.1062    0.5279 C   0  0  0  0  0  0  0  0  0  0  0  0
    0.2807   -1.0329    1.3477 C   0  0  0  0  0  0  0  0  0  0  0  0
    0.5752   -2.3253    1.4120 O   0  0  0  0  0  0  0  0  0  0  0  0
    0.2801    5.4324    2.0973 H   0  0  0  0  0  0  0  0  0  0  0  0
   -1.0327    6.3436   -0.1255 H   0  0  0  0  0  0  0  0  0  0  0  0
   -1.6802    5.7000   -2.4437 H   0  0  0  0  0  0  0  0  0  0  0  0
   -1.0954    3.4631   -3.3353 H   0  0  0  0  0  0  0  0  0  0  0  0
    0.1427    1.8247   -1.9333 H   0  0  0  0  0  0  0  0  0  0  0  0
    2.9454    2.1933    1.2499 H   0  0  0  0  0  0  0  0  0  0  0  0
    3.1185    0.0663    1.1690 H   0  0  0  0  0  0  0  0  0  0  0  0
    3.5769    0.3947   -1.3358 H   0  0  0  0  0  0  0  0  0  0  0  0
    1.8676    0.1997   -1.6578 H   0  0  0  0  0  0  0  0  0  0  0  0
    1.0032   -1.9832   -2.0495 H   0  0  0  0  0  0  0  0  0  0  0  0
    1.3398   -4.4245   -2.1385 H   0  0  0  0  0  0  0  0  0  0  0  0
    3.3923   -5.4400   -1.1832 H   0  0  0  0  0  0  0  0  0  0  0  0
    5.1226   -3.9965   -0.1471 H   0  0  0  0  0  0  0  0  0  0  0  0
    4.8105   -1.5495   -0.0572 H   0  0  0  0  0  0  0  0  0  0  0  0
   -1.9439    2.4338    1.6995 H   0  0  0  0  0  0  0  0  0  0  0  0
   -1.6685   -2.2564    2.7004 H   0  0  0  0  0  0  0  0  0  0  0  0
   -2.6852   -0.8357    2.8606 H   0  0  0  0  0  0  0  0  0  0  0  0
   -1.7671   -3.6724    0.6389 H   0  0  0  0  0  0  0  0  0  0  0  0
   -3.1385   -4.4269   -1.2732 H   0  0  0  0  0  0  0  0  0  0  0  0
   -5.0618   -3.0620   -2.0455 H   0  0  0  0  0  0  0  0  0  0  0  0
   -5.6085   -0.9309   -0.8980 H   0  0  0  0  0  0  0  0  0  0  0  0
   -4.2465   -0.1644    1.0161 H   0  0  0  0  0  0  0  0  0  0  0  0
    1.4707   -2.4457    1.0441 H   0  0  0  0  0  0  0  0  0  0  0  0
  1  2  2  0
  2  3  1  0
  3  4  1  0
  4  5  2  0
  5  6  1  0
  6  7  2  0
  7  8  1  0
  8  9  2  0
  9 10  1  0
 10 11  1  0
 11 12  1  0
 12 13  1  0
 13 14  1  0
 14 15  2  0
 15 16  1  0
 16 17  2  0
 17 18  1  0
 18 19  2  0
 12 20  1  0
 20 21  1  0
 21 22  2  0
 22 23  1  0
 22 24  1  0
 24 25  1  0
 25 26  1  0
 26 27  2  0
 27 28  1  0
 28 29  2  0
 29 30  1  0
 30 31  2  0
 24 32  1  0
 32 33  1  0
 10  2  1  0
 19 14  1  0
 32 20  2  0
  9  4  1  0
 21 10  1  0
 31 26  1  0
  3 34  1  0
  5 35  1  0
  6 36  1  0
  7 37  1  0
  8 38  1  0
 11 39  1  0
 12 40  1  1
 13 41  1  0
 13 42  1  0
 15 43  1  0
 16 44  1  0
 17 45  1  0
 18 46  1  0
 19 47  1  0
 23 48  1  0
 25 49  1  0
 25 50  1  0
 27 51  1  0
 28 52  1  0
 29 53  1  0
 30 54  1  0
 31 55  1  0
 33 56  1  0
M  END
$$$$
