
     RDKit          3D

 53 52  0  0  0  0  0  0  0  0999 V2000
   -8.2665    1.4582    0.1766 C   0  0  0  0  0  0  0  0  0  0  0  0
   -7.7073    2.4300   -0.8636 C   0  0  0  0  0  0  0  0  0  0  0  0
   -8.1806    3.8514   -0.5505 C   0  0  0  0  0  0  0  0  0  0  0  0
   -6.1702    2.3941   -0.9314 C   0  0  0  0  0  0  0  0  0  0  0  0
   -5.6144    1.0465   -1.3938 C   0  0  0  0  0  0  0  0  0  0  0  0
   -4.1781    1.1030   -1.5840 N   0  0  0  0  0  0  0  0  0  0  0  0
   -3.3004    0.9636   -0.5284 C   0  0  0  0  0  0  0  0  0  0  0  0
   -3.6562    0.7266    0.6198 O   0  0  0  0  0  0  0  0  0  0  0  0
   -1.8524    1.1183   -0.9445 C   0  0  0  0  0  0  0  0  0  0  0  0
   -0.9233    1.0254    0.2580 C   0  0  0  0  0  0  0  0  0  0  0  0
    0.8229    1.2887   -0.2142 S   0  0  0  0  0  0  0  0  0  0  0  0
    1.1526   -0.2987   -1.0604 C   0  0  0  0  0  0  0  0  0  0  0  0
    2.6475   -0.4844   -1.2929 C   0  0  0  0  0  0  0  0  0  0  0  0
    3.3730   -0.9657   -0.0520 C   0  0  0  0  0  0  0  0  0  0  0  0
    2.8448   -1.6674    0.8040 O   0  0  0  0  0  0  0  0  0  0  0  0
    4.7028   -0.6030   -0.0203 N   0  0  0  0  0  0  0  0  0  0  0  0
    5.5832   -1.0118    1.0559 C   0  0  0  0  0  0  0  0  0  0  0  0
    6.1811   -2.3936    0.7907 C   0  0  0  0  0  0  0  0  0  0  0  0
    7.0436   -2.9198    1.9518 C   0  0  0  0  0  0  0  0  0  0  0  0
    7.4786   -4.3592    1.6656 C   0  0  0  0  0  0  0  0  0  0  0  0
    8.2748   -2.0489    2.2048 C   0  0  0  0  0  0  0  0  0  0  0  0
   -9.3558    1.5509    0.2481 H   0  0  0  0  0  0  0  0  0  0  0  0
   -7.8454    1.6531    1.1687 H   0  0  0  0  0  0  0  0  0  0  0  0
   -8.0473    0.4198   -0.0897 H   0  0  0  0  0  0  0  0  0  0  0  0
   -8.1099    2.1510   -1.8456 H   0  0  0  0  0  0  0  0  0  0  0  0
   -7.8265    4.5555   -1.3107 H   0  0  0  0  0  0  0  0  0  0  0  0
   -9.2745    3.9032   -0.5338 H   0  0  0  0  0  0  0  0  0  0  0  0
   -7.8101    4.1889    0.4234 H   0  0  0  0  0  0  0  0  0  0  0  0
   -5.8249    3.1719   -1.6258 H   0  0  0  0  0  0  0  0  0  0  0  0
   -5.7471    2.6519    0.0482 H   0  0  0  0  0  0  0  0  0  0  0  0
   -5.8362    0.2600   -0.6656 H   0  0  0  0  0  0  0  0  0  0  0  0
   -6.0519    0.7598   -2.3557 H   0  0  0  0  0  0  0  0  0  0  0  0
   -3.8256    1.4171   -2.4789 H   0  0  0  0  0  0  0  0  0  0  0  0
   -1.6314    0.3295   -1.6721 H   0  0  0  0  0  0  0  0  0  0  0  0
   -1.7424    2.0912   -1.4383 H   0  0  0  0  0  0  0  0  0  0  0  0
   -1.1809    1.7993    0.9898 H   0  0  0  0  0  0  0  0  0  0  0  0
   -1.0197    0.0607    0.7680 H   0  0  0  0  0  0  0  0  0  0  0  0
    0.7325   -1.1225   -0.4752 H   0  0  0  0  0  0  0  0  0  0  0  0
    0.6438   -0.2710   -2.0289 H   0  0  0  0  0  0  0  0  0  0  0  0
    3.1073    0.4304   -1.6845 H   0  0  0  0  0  0  0  0  0  0  0  0
    2.7928   -1.2659   -2.0493 H   0  0  0  0  0  0  0  0  0  0  0  0
    5.0919   -0.0649   -0.7831 H   0  0  0  0  0  0  0  0  0  0  0  0
    6.3662   -0.2507    1.1226 H   0  0  0  0  0  0  0  0  0  0  0  0
    5.0211   -1.0115    1.9962 H   0  0  0  0  0  0  0  0  0  0  0  0
    5.3654   -3.1045    0.6041 H   0  0  0  0  0  0  0  0  0  0  0  0
    6.7738   -2.3619   -0.1330 H   0  0  0  0  0  0  0  0  0  0  0  0
    6.4358   -2.9282    2.8655 H   0  0  0  0  0  0  0  0  0  0  0  0
    8.0619   -4.7630    2.4999 H   0  0  0  0  0  0  0  0  0  0  0  0
    8.0950   -4.4160    0.7618 H   0  0  0  0  0  0  0  0  0  0  0  0
    6.6079   -5.0082    1.5242 H   0  0  0  0  0  0  0  0  0  0  0  0
    7.9916   -1.0448    2.5347 H   0  0  0  0  0  0  0  0  0  0  0  0
    8.9022   -2.4829    2.9910 H   0  0  0  0  0  0  0  0  0  0  0  0
    8.8853   -1.9517    1.3008 H   0  0  0  0  0  0  0  0  0  0  0  0
  1  2  1  0
  2  3  1  0
  2  4  1  0
  4  5  1  0
  5  6  1  0
  6  7  1  0
  7  8  2  0
  7  9  1  0
  9 10  1  0
 10 11  1  0
 11 12  1  0
 12 13  1  0
 13 14  1  0
 14 15  2  0
 14 16  1  0
 16 17  1  0
 17 18  1  0
 18 19  1  0
 19 20  1  0
 19 21  1  0
  1 22  1  0
  1 23  1  0
  1 24  1  0
  2 25  1  0
  3 26  1  0
  3 27  1  0
  3 28  1  0
  4 29  1  0
  4 30  1  0
  5 31  1  0
  5 32  1  0
  6 33  1  0
  9 34  1  0
  9 35  1  0
 10 36  1  0
 10 37  1  0
 12 38  1  0
 12 39  1  0
 13 40  1  0
 13 41  1  0
 16 42  1  0
 17 43  1  0
 17 44  1  0
 18 45  1  0
 18 46  1  0
 19 47  1  0
 20 48  1  0
 20 49  1  0
 20 50  1  0
 21 51  1  0
 21 52  1  0
 21 53  1  0
M  END
$$$$
