
     RDKit          3D

 74 75  0  0  0  0  0  0  0  0999 V2000
    1.1803    2.0923    7.3907 C   0  0  0  0  0  0  0  0  0  0  0  0
    0.2472    1.8091    6.3569 O   0  0  0  0  0  0  0  0  0  0  0  0
    0.6546    0.9751    5.3482 C   0  0  0  0  0  0  0  0  0  0  0  0
    1.7910    0.1693    5.4248 C   0  0  0  0  0  0  0  0  0  0  0  0
    2.1881   -0.5878    4.3256 C   0  0  0  0  0  0  0  0  0  0  0  0
    1.4422   -0.5617    3.1457 C   0  0  0  0  0  0  0  0  0  0  0  0
    0.2545    0.1765    3.0462 C   0  0  0  0  0  0  0  0  0  0  0  0
   -0.5546    0.2529    1.7471 C   0  0  0  0  0  0  0  0  0  0  0  0
   -2.0931    0.0420    1.8600 C   0  0  0  0  0  0  0  0  0  0  0  0
   -2.6572   -0.4755    2.8215 O   0  0  0  0  0  0  0  0  0  0  0  0
   -2.7793    0.5075    0.7428 N   0  0  0  0  0  0  0  0  0  0  0  0
   -4.2372    0.4899    0.5711 C   0  0  0  0  0  0  0  0  0  0  0  0
   -4.7795   -0.9477    0.5946 C   0  0  0  0  0  0  0  0  0  0  0  0
   -4.5582    1.1055   -0.8029 C   0  0  0  0  0  0  0  0  0  0  0  0
   -4.9281    1.3318    1.6542 C   0  0  0  0  0  0  0  0  0  0  0  0
    0.0149   -0.4655    0.5375 N   0  0  0  0  0  0  0  0  0  0  0  0
    0.6991    0.3830   -0.3495 C   0  0  0  0  0  0  0  0  0  0  0  0
    0.9618    1.5526   -0.0532 O   0  0  0  0  0  0  0  0  0  0  0  0
    1.0552   -0.0903   -1.7456 C   0  0  0  0  0  0  0  0  0  0  0  0
    2.0190    0.8770   -2.4348 C   0  0  0  0  0  0  0  0  0  0  0  0
    2.4506    0.3610   -3.7926 C   0  0  0  0  0  0  0  0  0  0  0  0
    1.9411   -0.6304   -4.3081 O   0  0  0  0  0  0  0  0  0  0  0  0
    3.4452    1.1360   -4.3439 N   0  0  0  0  0  0  0  0  0  0  0  0
    4.0457    0.9096   -5.5627 C   0  0  0  0  0  0  0  0  0  0  0  0
    3.7894   -0.0976   -6.5185 C   0  0  0  0  0  0  0  0  0  0  0  0
    4.6807    0.1522   -7.5313 C   0  0  0  0  0  0  0  0  0  0  0  0
    4.9775   -0.4894   -8.8233 C   0  0  0  0  0  0  0  0  0  0  0  0
    5.4268    1.2401   -7.2082 O   0  0  0  0  0  0  0  0  0  0  0  0
    5.0260    1.7204   -5.9748 N   0  0  0  0  0  0  0  0  0  0  0  0
   -0.1938   -1.9707    0.3400 C   0  0  0  0  0  0  0  0  0  0  0  0
    1.1645   -2.7224    0.3014 C   0  0  0  0  0  0  0  0  0  0  0  0
   -0.9853   -2.2557   -0.9601 C   0  0  0  0  0  0  0  0  0  0  0  0
   -0.9998   -2.6783    1.4618 C   0  0  0  0  0  0  0  0  0  0  0  0
   -0.1221    0.9565    4.1677 C   0  0  0  0  0  0  0  0  0  0  0  0
   -1.2025    1.7968    3.9982 O   0  0  0  0  0  0  0  0  0  0  0  0
   -2.2047    1.6367    5.0040 C   0  0  0  0  0  0  0  0  0  0  0  0
    2.1268    2.4647    6.9854 H   0  0  0  0  0  0  0  0  0  0  0  0
    1.3380    1.2142    8.0247 H   0  0  0  0  0  0  0  0  0  0  0  0
    0.7559    2.8834    8.0173 H   0  0  0  0  0  0  0  0  0  0  0  0
    2.4041    0.1302    6.3181 H   0  0  0  0  0  0  0  0  0  0  0  0
    3.0967   -1.1824    4.3765 H   0  0  0  0  0  0  0  0  0  0  0  0
    1.8267   -1.1111    2.2962 H   0  0  0  0  0  0  0  0  0  0  0  0
   -0.5050    1.3283    1.5221 H   0  0  0  0  0  0  0  0  0  0  0  0
   -2.2263    1.0035    0.0520 H   0  0  0  0  0  0  0  0  0  0  0  0
   -5.8540   -0.9681    0.3774 H   0  0  0  0  0  0  0  0  0  0  0  0
   -4.2746   -1.5710   -0.1518 H   0  0  0  0  0  0  0  0  0  0  0  0
   -4.6327   -1.4264    1.5687 H   0  0  0  0  0  0  0  0  0  0  0  0
   -4.2015    2.1399   -0.8621 H   0  0  0  0  0  0  0  0  0  0  0  0
   -4.0709    0.5480   -1.6101 H   0  0  0  0  0  0  0  0  0  0  0  0
   -5.6360    1.1094   -1.0006 H   0  0  0  0  0  0  0  0  0  0  0  0
   -4.5206    2.3488    1.6810 H   0  0  0  0  0  0  0  0  0  0  0  0
   -4.7966    0.9001    2.6515 H   0  0  0  0  0  0  0  0  0  0  0  0
   -6.0060    1.4066    1.4698 H   0  0  0  0  0  0  0  0  0  0  0  0
    0.1291   -0.1348   -2.3303 H   0  0  0  0  0  0  0  0  0  0  0  0
    1.5146   -1.0764   -1.7329 H   0  0  0  0  0  0  0  0  0  0  0  0
    1.5425    1.8551   -2.5773 H   0  0  0  0  0  0  0  0  0  0  0  0
    2.9128    1.0195   -1.8146 H   0  0  0  0  0  0  0  0  0  0  0  0
    3.8193    1.9318   -3.8423 H   0  0  0  0  0  0  0  0  0  0  0  0
    3.0609   -0.8936   -6.4800 H   0  0  0  0  0  0  0  0  0  0  0  0
    5.0369    0.2557   -9.6229 H   0  0  0  0  0  0  0  0  0  0  0  0
    4.1983   -1.2101   -9.0896 H   0  0  0  0  0  0  0  0  0  0  0  0
    5.9330   -1.0205   -8.7740 H   0  0  0  0  0  0  0  0  0  0  0  0
    1.4807   -3.0290    1.3060 H   0  0  0  0  0  0  0  0  0  0  0  0
    1.9888   -2.1218   -0.0922 H   0  0  0  0  0  0  0  0  0  0  0  0
    1.0940   -3.6396   -0.2972 H   0  0  0  0  0  0  0  0  0  0  0  0
   -1.4121   -3.2657   -0.9537 H   0  0  0  0  0  0  0  0  0  0  0  0
   -1.8118   -1.5492   -1.0843 H   0  0  0  0  0  0  0  0  0  0  0  0
   -0.3628   -2.2155   -1.8550 H   0  0  0  0  0  0  0  0  0  0  0  0
   -0.6226   -2.4527    2.4618 H   0  0  0  0  0  0  0  0  0  0  0  0
   -0.9479   -3.7690    1.3457 H   0  0  0  0  0  0  0  0  0  0  0  0
   -2.0640   -2.4367    1.4172 H   0  0  0  0  0  0  0  0  0  0  0  0
   -3.1793    1.7761    4.5272 H   0  0  0  0  0  0  0  0  0  0  0  0
   -2.0994    2.4146    5.7650 H   0  0  0  0  0  0  0  0  0  0  0  0
   -2.1953    0.6429    5.4662 H   0  0  0  0  0  0  0  0  0  0  0  0
  1  2  1  0
  2  3  1  0
  3  4  2  0
  4  5  1  0
  5  6  2  0
  6  7  1  0
  7  8  1  0
  8  9  1  0
  9 10  2  0
  9 11  1  0
 11 12  1  0
 12 13  1  0
 12 14  1  0
 12 15  1  0
  8 16  1  0
 16 17  1  0
 17 18  2  0
 17 19  1  0
 19 20  1  0
 20 21  1  0
 21 22  2  0
 21 23  1  0
 23 24  1  0
 24 25  1  0
 25 26  2  0
 26 27  1  0
 26 28  1  0
 28 29  1  0
 16 30  1  0
 30 31  1  0
 30 32  1  0
 30 33  1  0
  7 34  2  0
 34 35  1  0
 35 36  1  0
 34  3  1  0
 29 24  2  0
  1 37  1  0
  1 38  1  0
  1 39  1  0
  4 40  1  0
  5 41  1  0
  6 42  1  0
  8 43  1  0
 11 44  1  0
 13 45  1  0
 13 46  1  0
 13 47  1  0
 14 48  1  0
 14 49  1  0
 14 50  1  0
 15 51  1  0
 15 52  1  0
 15 53  1  0
 19 54  1  0
 19 55  1  0
 20 56  1  0
 20 57  1  0
 23 58  1  0
 25 59  1  0
 27 60  1  0
 27 61  1  0
 27 62  1  0
 31 63  1  0
 31 64  1  0
 31 65  1  0
 32 66  1  0
 32 67  1  0
 32 68  1  0
 33 69  1  0
 33 70  1  0
 33 71  1  0
 36 72  1  0
 36 73  1  0
 36 74  1  0
M  END
$$$$
