
     RDKit          3D

 35 35  0  0  0  0  0  0  0  0999 V2000
   -3.8836    1.6243   -1.4639 C   0  0  0  0  0  0  0  0  0  0  0  0
   -3.2399    0.2305   -1.3615 C   0  0  0  0  0  0  0  0  0  0  0  0
   -4.3599   -0.7605   -0.9984 C   0  0  0  0  0  0  0  0  0  0  0  0
   -2.1343    0.1270   -0.3727 N   0  0  0  0  0  0  0  0  0  0  0  0
   -1.2831    1.3207   -0.3419 C   0  0  0  0  0  0  0  0  0  0  0  0
   -1.3026   -1.0798   -0.6279 C   0  0  0  0  0  0  0  0  0  0  0  0
   -0.3991   -1.4956    0.5483 C   0  0  0  0  0  0  0  0  0  0  0  0
    0.8687   -0.8259    0.4672 O   0  0  0  0  0  0  0  0  0  0  0  0
    1.7866   -1.2954    1.3425 C   0  0  0  0  0  0  0  0  0  0  0  0
    1.6755   -2.2370    2.1067 O   0  0  0  0  0  0  0  0  0  0  0  0
    3.0216   -0.5206    1.1823 C   0  0  0  0  0  0  0  0  0  0  0  0
    4.0860   -1.1310    0.5027 C   0  0  0  0  0  0  0  0  0  0  0  0
    5.2950   -0.4488    0.3460 C   0  0  0  0  0  0  0  0  0  0  0  0
    5.4450    0.8302    0.8801 C   0  0  0  0  0  0  0  0  0  0  0  0
    4.3872    1.4327    1.5699 C   0  0  0  0  0  0  0  0  0  0  0  0
    3.1709    0.7578    1.7245 C   0  0  0  0  0  0  0  0  0  0  0  0
    1.7927    1.6229    2.7006 Br  0  0  0  0  0  0  0  0  0  0  0  0
   -3.1810    2.3666   -1.8618 H   0  0  0  0  0  0  0  0  0  0  0  0
   -4.2467    1.9688   -0.4905 H   0  0  0  0  0  0  0  0  0  0  0  0
   -4.7393    1.6054   -2.1483 H   0  0  0  0  0  0  0  0  0  0  0  0
   -2.8611   -0.0156   -2.3613 H   0  0  0  0  0  0  0  0  0  0  0  0
   -4.7469   -0.5656    0.0078 H   0  0  0  0  0  0  0  0  0  0  0  0
   -4.0311   -1.8029   -1.0346 H   0  0  0  0  0  0  0  0  0  0  0  0
   -5.1979   -0.6715   -1.6982 H   0  0  0  0  0  0  0  0  0  0  0  0
   -0.4786    1.2226    0.3919 H   0  0  0  0  0  0  0  0  0  0  0  0
   -1.8454    2.2003   -0.0165 H   0  0  0  0  0  0  0  0  0  0  0  0
   -0.8341    1.5312   -1.3192 H   0  0  0  0  0  0  0  0  0  0  0  0
   -0.7037   -0.9419   -1.5368 H   0  0  0  0  0  0  0  0  0  0  0  0
   -1.9597   -1.9357   -0.8071 H   0  0  0  0  0  0  0  0  0  0  0  0
   -0.8762   -1.2687    1.5101 H   0  0  0  0  0  0  0  0  0  0  0  0
   -0.2359   -2.5792    0.4866 H   0  0  0  0  0  0  0  0  0  0  0  0
    3.9747   -2.1343    0.0988 H   0  0  0  0  0  0  0  0  0  0  0  0
    6.1220   -0.9159   -0.1832 H   0  0  0  0  0  0  0  0  0  0  0  0
    6.3888    1.3587    0.7688 H   0  0  0  0  0  0  0  0  0  0  0  0
    4.5254    2.4263    1.9894 H   0  0  0  0  0  0  0  0  0  0  0  0
  1  2  1  0
  2  3  1  0
  2  4  1  0
  4  5  1  0
  4  6  1  0
  6  7  1  0
  7  8  1  0
  8  9  1  0
  9 10  2  0
  9 11  1  0
 11 12  2  0
 12 13  1  0
 13 14  2  0
 14 15  1  0
 15 16  2  0
 16 17  1  0
 16 11  1  0
  1 18  1  0
  1 19  1  0
  1 20  1  0
  2 21  1  0
  3 22  1  0
  3 23  1  0
  3 24  1  0
  5 25  1  0
  5 26  1  0
  5 27  1  0
  6 28  1  0
  6 29  1  0
  7 30  1  0
  7 31  1  0
 12 32  1  0
 13 33  1  0
 14 34  1  0
 15 35  1  0
M  END
$$$$
