
     RDKit          3D

 30 32  0  0  0  0  0  0  0  0999 V2000
   -0.0688    1.2989    1.8176 C   0  0  0  0  0  0  0  0  0  0  0  0
   -0.5687    0.4008    0.7954 N   0  0  0  0  0  0  0  0  0  0  0  0
    0.2140   -0.3334   -0.0757 C   0  0  0  0  0  0  0  0  0  0  0  0
    1.6741   -0.2695   -0.1302 C   0  0  0  0  0  0  0  0  0  0  0  0
    2.4260   -1.3448    0.3597 C   0  0  0  0  0  0  0  0  0  0  0  0
    3.8224   -1.2957    0.3478 C   0  0  0  0  0  0  0  0  0  0  0  0
    4.4785   -0.1722   -0.1551 C   0  0  0  0  0  0  0  0  0  0  0  0
    3.7408    0.9005   -0.6545 C   0  0  0  0  0  0  0  0  0  0  0  0
    2.3492    0.8454   -0.6492 C   0  0  0  0  0  0  0  0  0  0  0  0
    1.6893    1.9220   -1.1789 O   0  0  0  0  0  0  0  0  0  0  0  0
   -0.6453   -1.0999   -0.8405 C   0  0  0  0  0  0  0  0  0  0  0  0
   -1.9780   -0.7900   -0.4651 C   0  0  0  0  0  0  0  0  0  0  0  0
   -3.2401   -1.2323   -0.9079 C   0  0  0  0  0  0  0  0  0  0  0  0
   -4.3973   -0.7067   -0.3249 C   0  0  0  0  0  0  0  0  0  0  0  0
   -4.3094    0.2467    0.6846 C   0  0  0  0  0  0  0  0  0  0  0  0
   -3.0676    0.6988    1.1418 C   0  0  0  0  0  0  0  0  0  0  0  0
   -1.9097    0.1632    0.5530 C   0  0  0  0  0  0  0  0  0  0  0  0
    0.0005    2.2995    1.3843 H   0  0  0  0  0  0  0  0  0  0  0  0
    0.9103    0.9597    2.1632 H   0  0  0  0  0  0  0  0  0  0  0  0
   -0.7536    1.2971    2.6690 H   0  0  0  0  0  0  0  0  0  0  0  0
    1.9264   -2.2233    0.7620 H   0  0  0  0  0  0  0  0  0  0  0  0
    4.3976   -2.1338    0.7332 H   0  0  0  0  0  0  0  0  0  0  0  0
    5.5647   -0.1336   -0.1634 H   0  0  0  0  0  0  0  0  0  0  0  0
    4.2474    1.7734   -1.0562 H   0  0  0  0  0  0  0  0  0  0  0  0
    0.7627    1.6571   -1.3216 H   0  0  0  0  0  0  0  0  0  0  0  0
   -0.3433   -1.7974   -1.6115 H   0  0  0  0  0  0  0  0  0  0  0  0
   -3.3159   -1.9737   -1.6979 H   0  0  0  0  0  0  0  0  0  0  0  0
   -5.3722   -1.0461   -0.6660 H   0  0  0  0  0  0  0  0  0  0  0  0
   -5.2194    0.6465    1.1264 H   0  0  0  0  0  0  0  0  0  0  0  0
   -3.0145    1.4429    1.9298 H   0  0  0  0  0  0  0  0  0  0  0  0
  1  2  1  0
  2  3  1  0
  3  4  1  0
  4  5  2  0
  5  6  1  0
  6  7  2  0
  7  8  1  0
  8  9  2  0
  9 10  1  0
  3 11  2  0
 11 12  1  0
 12 13  2  0
 13 14  1  0
 14 15  2  0
 15 16  1  0
 16 17  2  0
 17  2  1  0
  9  4  1  0
 17 12  1  0
  1 18  1  0
  1 19  1  0
  1 20  1  0
  5 21  1  0
  6 22  1  0
  7 23  1  0
  8 24  1  0
 10 25  1  0
 11 26  1  0
 13 27  1  0
 14 28  1  0
 15 29  1  0
 16 30  1  0
M  END
$$$$
