
     RDKit          3D

 44 47  0  0  0  0  0  0  0  0999 V2000
   -5.3135   -3.1492    1.4061 C   0  0  0  0  0  0  0  0  0  0  0  0
   -4.1450   -2.2544    1.0330 C   0  0  0  0  0  0  0  0  0  0  0  0
   -4.4251   -0.9361    1.5210 O   0  0  0  0  0  0  0  0  0  0  0  0
   -3.3381   -0.1179    1.3305 C   0  0  0  0  0  0  0  0  0  0  0  0
   -2.5546    0.1647    2.4508 C   0  0  0  0  0  0  0  0  0  0  0  0
   -1.4510    1.0058    2.3294 C   0  0  0  0  0  0  0  0  0  0  0  0
   -1.1428    1.5751    1.0898 C   0  0  0  0  0  0  0  0  0  0  0  0
    0.0162    2.4597    0.9605 C   0  0  0  0  0  0  0  0  0  0  0  0
    1.2697    2.0512    0.7111 C   0  0  0  0  0  0  0  0  0  0  0  0
    2.6051    3.1966    0.5861 S   0  0  0  0  0  0  0  0  0  0  0  0
    3.6844    1.8962    0.2995 C   0  0  0  0  0  0  0  0  0  0  0  0
    4.9635    1.7879    0.0845 N   0  0  0  0  0  0  0  0  0  0  0  0
    5.1010    0.4123   -0.0600 C   0  0  0  0  0  0  0  0  0  0  0  0
    6.4858   -0.2579   -0.3414 C   0  0  0  0  0  0  0  0  0  0  0  0
    7.6877    0.4130   -0.4687 C   0  0  0  0  0  0  0  0  0  0  0  0
    8.6784   -0.5693   -0.7145 C   0  0  0  0  0  0  0  0  0  0  0  0
    8.0220   -1.7782   -0.7256 C   0  0  0  0  0  0  0  0  0  0  0  0
    6.6956   -1.6011   -0.4994 O   0  0  0  0  0  0  0  0  0  0  0  0
    3.9590   -0.2953    0.0595 N   0  0  0  0  0  0  0  0  0  0  0  0
    3.0778    0.6923    0.2921 N   0  0  0  0  0  0  0  0  0  0  0  0
    1.7170    0.6305    0.5090 C   0  0  0  0  0  0  0  0  0  0  0  0
    1.0847   -0.4090    0.5154 O   0  0  0  0  0  0  0  0  0  0  0  0
   -1.9502    1.3089   -0.0277 C   0  0  0  0  0  0  0  0  0  0  0  0
   -3.0610    0.4663    0.0846 C   0  0  0  0  0  0  0  0  0  0  0  0
   -3.9264    0.1643   -0.9344 O   0  0  0  0  0  0  0  0  0  0  0  0
   -3.6786    0.7435   -2.2131 C   0  0  0  0  0  0  0  0  0  0  0  0
   -4.7604    0.2608   -3.1635 C   0  0  0  0  0  0  0  0  0  0  0  0
   -6.2454   -2.7717    0.9682 H   0  0  0  0  0  0  0  0  0  0  0  0
   -5.1472   -4.1724    1.0569 H   0  0  0  0  0  0  0  0  0  0  0  0
   -5.4554   -3.1665    2.4929 H   0  0  0  0  0  0  0  0  0  0  0  0
   -3.2271   -2.6469    1.4901 H   0  0  0  0  0  0  0  0  0  0  0  0
   -4.0312   -2.2502   -0.0576 H   0  0  0  0  0  0  0  0  0  0  0  0
   -2.8034   -0.2775    3.4115 H   0  0  0  0  0  0  0  0  0  0  0  0
   -0.8398    1.2083    3.2059 H   0  0  0  0  0  0  0  0  0  0  0  0
   -0.2116    3.5175    1.0889 H   0  0  0  0  0  0  0  0  0  0  0  0
    7.8230    1.4837   -0.3893 H   0  0  0  0  0  0  0  0  0  0  0  0
    9.7378   -0.4163   -0.8651 H   0  0  0  0  0  0  0  0  0  0  0  0
    8.3368   -2.8034   -0.8714 H   0  0  0  0  0  0  0  0  0  0  0  0
   -1.6953    1.7732   -0.9749 H   0  0  0  0  0  0  0  0  0  0  0  0
   -3.7217    1.8384   -2.1506 H   0  0  0  0  0  0  0  0  0  0  0  0
   -2.7004    0.4252   -2.5940 H   0  0  0  0  0  0  0  0  0  0  0  0
   -4.7488   -0.8316   -3.2375 H   0  0  0  0  0  0  0  0  0  0  0  0
   -4.6195    0.6834   -4.1629 H   0  0  0  0  0  0  0  0  0  0  0  0
   -5.7523    0.5458   -2.7952 H   0  0  0  0  0  0  0  0  0  0  0  0
  1  2  1  0
  2  3  1  0
  3  4  1  0
  4  5  2  0
  5  6  1  0
  6  7  2  0
  7  8  1  0
  8  9  2  3
  9 10  1  0
 10 11  1  0
 11 12  2  0
 12 13  1  0
 13 14  1  0
 14 15  2  0
 15 16  1  0
 16 17  2  0
 17 18  1  0
 13 19  2  0
 19 20  1  0
 20 21  1  0
 21 22  2  0
  7 23  1  0
 23 24  2  0
 24 25  1  0
 25 26  1  0
 26 27  1  0
 24  4  1  0
 21  9  1  0
 20 11  1  0
 18 14  1  0
  1 28  1  0
  1 29  1  0
  1 30  1  0
  2 31  1  0
  2 32  1  0
  5 33  1  0
  6 34  1  0
  8 35  1  0
 15 36  1  0
 16 37  1  0
 17 38  1  0
 23 39  1  0
 26 40  1  0
 26 41  1  0
 27 42  1  0
 27 43  1  0
 27 44  1  0
M  END
$$$$
