
     RDKit          3D

 33 35  0  0  0  0  0  0  0  0999 V2000
    5.0194    0.8650   -1.5286 C   0  0  0  0  0  0  0  0  0  0  0  0
    4.3068    0.2219   -0.4485 N   0  0  0  0  0  0  0  0  0  0  0  0
    4.8520   -0.4460    0.6061 C   0  0  0  0  0  0  0  0  0  0  0  0
    3.7809   -0.8926    1.3518 C   0  0  0  0  0  0  0  0  0  0  0  0
    3.8618   -1.6135    2.5758 N   0  0  0  0  0  4  0  0  0  0  0  0
    4.5207   -2.6607    2.5563 O   0  0  0  0  0  0  0  0  0  0  0  0
    3.3276   -1.0935    3.5614 O   0  0  0  0  0  1  0  0  0  0  0  0
    2.6239   -0.4733    0.6617 C   0  0  0  0  0  0  0  0  0  0  0  0
    1.2157   -0.7457    0.9929 C   0  0  0  0  0  0  0  0  0  0  0  0
    0.9157   -1.5470    1.8658 O   0  0  0  0  0  0  0  0  0  0  0  0
    0.3669   -0.0127    0.1828 N   0  0  0  0  0  0  0  0  0  0  0  0
   -1.0171    0.0107    0.1955 C   0  0  0  0  0  0  0  0  0  0  0  0
   -1.9127   -0.9402    1.3146 S   0  0  0  0  0  0  0  0  0  0  0  0
   -3.3554   -0.3685    0.7025 C   0  0  0  0  0  0  0  0  0  0  0  0
   -3.2103    0.5237   -0.3215 C   0  0  0  0  0  0  0  0  0  0  0  0
   -1.8516    0.7571   -0.6316 C   0  0  0  0  0  0  0  0  0  0  0  0
   -1.3850    1.6421   -1.6541 C   0  0  0  0  0  0  0  0  0  0  0  0
   -0.9866    2.3565   -2.4779 N   0  0  0  0  0  0  0  0  0  0  0  0
   -4.5308    0.9957   -0.8099 C   0  0  0  0  0  0  0  0  0  0  0  0
   -5.5140   -0.0178   -0.1422 C   0  0  0  0  0  0  0  0  0  0  0  0
   -4.7619   -0.6495    1.0704 C   0  0  0  0  0  0  0  0  0  0  0  0
    2.9577    0.2383   -0.4419 N   0  0  0  0  0  0  0  0  0  0  0  0
    4.5960    1.8616   -1.6823 H   0  0  0  0  0  0  0  0  0  0  0  0
    6.0772    0.9481   -1.2667 H   0  0  0  0  0  0  0  0  0  0  0  0
    4.8980    0.2534   -2.4266 H   0  0  0  0  0  0  0  0  0  0  0  0
    5.9206   -0.5437    0.7460 H   0  0  0  0  0  0  0  0  0  0  0  0
    0.8530    0.5633   -0.5042 H   0  0  0  0  0  0  0  0  0  0  0  0
   -4.6145    0.9670   -1.8994 H   0  0  0  0  0  0  0  0  0  0  0  0
   -4.7289    2.0130   -0.4549 H   0  0  0  0  0  0  0  0  0  0  0  0
   -5.7528   -0.8094   -0.8652 H   0  0  0  0  0  0  0  0  0  0  0  0
   -6.4579    0.4512    0.1519 H   0  0  0  0  0  0  0  0  0  0  0  0
   -5.0313   -0.1377    2.0003 H   0  0  0  0  0  0  0  0  0  0  0  0
   -4.9829   -1.7170    1.1597 H   0  0  0  0  0  0  0  0  0  0  0  0
  1  2  1  0
  2  3  1  0
  3  4  2  0
  4  5  1  0
  5  6  2  0
  5  7  1  0
  4  8  1  0
  8  9  1  0
  9 10  2  0
  9 11  1  0
 11 12  1  0
 12 13  1  0
 13 14  1  0
 14 15  2  0
 15 16  1  0
 16 17  1  0
 17 18  3  0
 15 19  1  0
 19 20  1  0
 20 21  1  0
  8 22  2  0
 22  2  1  0
 16 12  2  0
 21 14  1  0
  1 23  1  0
  1 24  1  0
  1 25  1  0
  3 26  1  0
 11 27  1  0
 19 28  1  0
 19 29  1  0
 20 30  1  0
 20 31  1  0
 21 32  1  0
 21 33  1  0
M  CHG  2   5   1   7  -1
M  END
$$$$
