
     RDKit          3D

 51 54  0  0  0  0  0  0  0  0999 V2000
    6.3912    2.4615   -3.1673 C   0  0  0  0  0  0  0  0  0  0  0  0
    5.5057    1.2560   -3.4440 C   0  0  0  0  0  0  0  0  0  0  0  0
    4.1958    1.3419   -2.7051 C   0  0  0  0  0  0  0  0  0  0  0  0
    3.0753    1.9180   -3.3062 C   0  0  0  0  0  0  0  0  0  0  0  0
    1.8631    2.0128   -2.6108 C   0  0  0  0  0  0  0  0  0  0  0  0
    1.7305    1.5414   -1.2937 C   0  0  0  0  0  0  0  0  0  0  0  0
    0.4672    1.6469   -0.5850 N   0  0  0  0  0  0  0  0  0  0  0  0
   -0.3254    2.7772   -0.8203 C   0  0  0  0  0  0  0  0  0  0  0  0
    0.0070    3.7695   -1.4709 O   0  0  0  0  0  0  0  0  0  0  0  0
   -1.6525    2.8214   -0.1892 C   0  0  0  0  0  0  0  0  0  0  0  0
   -2.5337    3.8699   -0.5092 C   0  0  0  0  0  0  0  0  0  0  0  0
   -3.7907    3.9376    0.0829 C   0  0  0  0  0  0  0  0  0  0  0  0
   -4.1679    2.9575    0.9916 C   0  0  0  0  0  0  0  0  0  0  0  0
   -3.2862    1.9184    1.3109 C   0  0  0  0  0  0  0  0  0  0  0  0
   -2.0102    1.8410    0.7271 C   0  0  0  0  0  0  0  0  0  0  0  0
   -1.0863    0.8109    1.0304 N   0  0  0  0  0  0  0  0  0  0  0  0
   -1.4242   -0.2381    1.9958 C   0  0  0  0  0  0  0  0  0  0  0  0
   -2.2269   -1.3813    1.3629 C   0  0  0  0  0  0  0  0  0  0  0  0
   -2.8953   -1.2615    0.3394 O   0  0  0  0  0  0  0  0  0  0  0  0
   -2.1913   -2.5518    2.0867 N   0  0  0  0  0  0  0  0  0  0  0  0
   -2.9798   -3.6946    1.6911 C   0  0  0  0  0  0  0  0  0  0  0  0
   -2.5680   -4.8636    2.5043 C   0  0  0  0  0  0  0  0  0  0  0  0
   -2.0971   -6.1209    2.1862 C   0  0  0  0  0  0  0  0  0  0  0  0
   -1.8754   -6.7879    3.4152 C   0  0  0  0  0  0  0  0  0  0  0  0
   -2.2190   -5.8963    4.4037 C   0  0  0  0  0  0  0  0  0  0  0  0
   -2.6390   -4.7238    3.8623 O   0  0  0  0  0  0  0  0  0  0  0  0
    0.1128    0.6457    0.3322 C   0  0  0  0  0  0  0  0  0  0  0  0
    0.7849   -0.3703    0.5401 O   0  0  0  0  0  0  0  0  0  0  0  0
    2.8691    0.9714   -0.7018 C   0  0  0  0  0  0  0  0  0  0  0  0
    4.0837    0.8737   -1.3941 C   0  0  0  0  0  0  0  0  0  0  0  0
    7.3280    2.3792   -3.7283 H   0  0  0  0  0  0  0  0  0  0  0  0
    6.6385    2.5372   -2.1028 H   0  0  0  0  0  0  0  0  0  0  0  0
    5.8977    3.3937   -3.4646 H   0  0  0  0  0  0  0  0  0  0  0  0
    5.3186    1.1749   -4.5216 H   0  0  0  0  0  0  0  0  0  0  0  0
    6.0298    0.3359   -3.1576 H   0  0  0  0  0  0  0  0  0  0  0  0
    3.1303    2.2992   -4.3236 H   0  0  0  0  0  0  0  0  0  0  0  0
    1.0168    2.4455   -3.1394 H   0  0  0  0  0  0  0  0  0  0  0  0
   -2.2398    4.6368   -1.2239 H   0  0  0  0  0  0  0  0  0  0  0  0
   -4.4721    4.7464   -0.1696 H   0  0  0  0  0  0  0  0  0  0  0  0
   -5.1537    2.9924    1.4504 H   0  0  0  0  0  0  0  0  0  0  0  0
   -3.6490    1.1690    2.0069 H   0  0  0  0  0  0  0  0  0  0  0  0
   -1.9798    0.1770    2.8423 H   0  0  0  0  0  0  0  0  0  0  0  0
   -0.5049   -0.6553    2.4245 H   0  0  0  0  0  0  0  0  0  0  0  0
   -1.7446   -2.5858    2.9946 H   0  0  0  0  0  0  0  0  0  0  0  0
   -2.8349   -3.8796    0.6215 H   0  0  0  0  0  0  0  0  0  0  0  0
   -4.0357   -3.4585    1.8605 H   0  0  0  0  0  0  0  0  0  0  0  0
   -1.9319   -6.5058    1.1886 H   0  0  0  0  0  0  0  0  0  0  0  0
   -1.5071   -7.7936    3.5631 H   0  0  0  0  0  0  0  0  0  0  0  0
   -2.2206   -5.9404    5.4839 H   0  0  0  0  0  0  0  0  0  0  0  0
    2.8538    0.6172    0.3255 H   0  0  0  0  0  0  0  0  0  0  0  0
    4.9429    0.4321   -0.8935 H   0  0  0  0  0  0  0  0  0  0  0  0
  1  2  1  0
  2  3  1  0
  3  4  2  0
  4  5  1  0
  5  6  2  0
  6  7  1  0
  7  8  1  0
  8  9  2  0
  8 10  1  0
 10 11  2  0
 11 12  1  0
 12 13  2  0
 13 14  1  0
 14 15  2  0
 15 16  1  0
 16 17  1  0
 17 18  1  0
 18 19  2  0
 18 20  1  0
 20 21  1  0
 21 22  1  0
 22 23  2  0
 23 24  1  0
 24 25  2  0
 25 26  1  0
 16 27  1  0
 27 28  2  0
  6 29  1  0
 29 30  2  0
 30  3  1  0
 27  7  1  0
 15 10  1  0
 26 22  1  0
  1 31  1  0
  1 32  1  0
  1 33  1  0
  2 34  1  0
  2 35  1  0
  4 36  1  0
  5 37  1  0
 11 38  1  0
 12 39  1  0
 13 40  1  0
 14 41  1  0
 17 42  1  0
 17 43  1  0
 20 44  1  0
 21 45  1  0
 21 46  1  0
 23 47  1  0
 24 48  1  0
 25 49  1  0
 29 50  1  0
 30 51  1  0
M  END
$$$$
