
     RDKit          3D

 59 63  0  0  0  0  0  0  0  0999 V2000
   -5.5169   -2.9331    0.0429 C   0  0  0  0  0  0  0  0  0  0  0  0
   -4.7109   -1.6414    0.0351 C   0  0  0  0  0  0  0  0  0  0  0  0
   -4.2597   -1.2098    1.4393 C   0  0  0  0  0  0  0  0  0  0  0  0
   -3.2909   -2.1335    2.0122 N   0  0  0  0  0  0  0  0  0  0  0  0
   -2.0001   -2.0216    1.5051 C   0  0  0  0  0  0  0  0  0  0  0  0
   -1.3223   -3.1787    1.4828 N   0  0  0  0  0  0  0  0  0  0  0  0
   -0.0618   -3.1033    1.0635 C   0  0  0  0  0  0  0  0  0  0  0  0
    0.5674   -1.9925    0.6752 N   0  0  0  0  0  0  0  0  0  0  0  0
   -0.1251   -0.8305    0.7197 C   0  0  0  0  0  0  0  0  0  0  0  0
    0.5831    0.3217    0.3191 N   0  0  0  0  0  0  0  0  0  0  0  0
    1.0886    0.1799   -1.0783 C   0  0  0  0  0  0  0  0  0  0  0  0
    2.5837   -0.2058   -1.1577 C   0  0  0  0  0  0  0  0  0  0  0  0
    3.4516    0.7763   -0.4494 N   0  0  0  0  0  0  0  0  0  0  0  0
    4.6690    0.1791   -0.0584 C   0  0  0  0  0  0  0  0  0  0  0  0
    5.5477   -0.2809   -1.0429 C   0  0  0  0  0  0  0  0  0  0  0  0
    6.7529   -0.8780   -0.6780 C   0  0  0  0  0  0  0  0  0  0  0  0
    7.0635   -1.0035    0.6665 C   0  0  0  0  0  0  0  0  0  0  0  0
    6.1520   -0.5191    1.5852 C   0  0  0  0  0  0  0  0  0  0  0  0
    4.9780    0.0637    1.2519 N   0  0  0  0  0  0  0  0  0  0  0  0
    2.7599    1.4990    0.6460 C   0  0  0  0  0  0  0  0  0  0  0  0
    1.6706    0.6247    1.2992 C   0  0  0  0  0  0  0  0  0  0  0  0
   -1.4726   -0.7823    1.1134 C   0  0  0  0  0  0  0  0  0  0  0  0
   -2.3411    0.3739    1.1406 N   0  0  0  0  0  0  0  0  0  0  0  0
   -1.8471    1.7317    0.9483 C   0  0  0  0  0  0  0  0  0  0  0  0
   -1.7545    2.2104   -0.4901 C   0  0  0  0  0  0  0  0  0  0  0  0
   -0.9569    3.3340   -0.7720 C   0  0  0  0  0  0  0  0  0  0  0  0
   -0.8477    3.8299   -2.0734 C   0  0  0  0  0  0  0  0  0  0  0  0
   -1.5477    3.2128   -3.1057 C   0  0  0  0  0  0  0  0  0  0  0  0
   -1.3982    3.8751   -4.8695 Br  0  0  0  0  0  0  0  0  0  0  0  0
   -2.3597    2.1120   -2.8467 C   0  0  0  0  0  0  0  0  0  0  0  0
   -2.4672    1.6179   -1.5434 C   0  0  0  0  0  0  0  0  0  0  0  0
   -3.7117    0.2262    1.3909 C   0  0  0  0  0  0  0  0  0  0  0  0
   -4.4894    1.1812    1.4758 O   0  0  0  0  0  0  0  0  0  0  0  0
   -6.3891   -2.8478    0.6987 H   0  0  0  0  0  0  0  0  0  0  0  0
   -4.9125   -3.7808    0.3790 H   0  0  0  0  0  0  0  0  0  0  0  0
   -5.8740   -3.1587   -0.9670 H   0  0  0  0  0  0  0  0  0  0  0  0
   -5.3328   -0.8506   -0.4035 H   0  0  0  0  0  0  0  0  0  0  0  0
   -3.8519   -1.7605   -0.6364 H   0  0  0  0  0  0  0  0  0  0  0  0
   -5.1263   -1.1892    2.1116 H   0  0  0  0  0  0  0  0  0  0  0  0
   -3.5493   -3.1121    2.0764 H   0  0  0  0  0  0  0  0  0  0  0  0
    0.5067   -4.0261    1.0367 H   0  0  0  0  0  0  0  0  0  0  0  0
    0.4841   -0.5286   -1.6601 H   0  0  0  0  0  0  0  0  0  0  0  0
    0.9638    1.1523   -1.5691 H   0  0  0  0  0  0  0  0  0  0  0  0
    2.7126   -1.2130   -0.7398 H   0  0  0  0  0  0  0  0  0  0  0  0
    2.8759   -0.2439   -2.2138 H   0  0  0  0  0  0  0  0  0  0  0  0
    5.3052   -0.1570   -2.0928 H   0  0  0  0  0  0  0  0  0  0  0  0
    7.4406   -1.2325   -1.4396 H   0  0  0  0  0  0  0  0  0  0  0  0
    7.9914   -1.4597    0.9905 H   0  0  0  0  0  0  0  0  0  0  0  0
    6.3450   -0.5864    2.6519 H   0  0  0  0  0  0  0  0  0  0  0  0
    2.2857    2.3850    0.2034 H   0  0  0  0  0  0  0  0  0  0  0  0
    3.4501    1.8924    1.4019 H   0  0  0  0  0  0  0  0  0  0  0  0
    1.2355    1.1681    2.1457 H   0  0  0  0  0  0  0  0  0  0  0  0
    2.1344   -0.2867    1.6983 H   0  0  0  0  0  0  0  0  0  0  0  0
   -0.8987    1.8517    1.4780 H   0  0  0  0  0  0  0  0  0  0  0  0
   -2.5250    2.4302    1.4566 H   0  0  0  0  0  0  0  0  0  0  0  0
   -0.4054    3.8253    0.0272 H   0  0  0  0  0  0  0  0  0  0  0  0
   -0.2175    4.6935   -2.2672 H   0  0  0  0  0  0  0  0  0  0  0  0
   -2.9180    1.6341   -3.6473 H   0  0  0  0  0  0  0  0  0  0  0  0
   -3.1167    0.7660   -1.3662 H   0  0  0  0  0  0  0  0  0  0  0  0
  1  2  1  0
  2  3  1  0
  3  4  1  0
  4  5  1  0
  5  6  2  0
  6  7  1  0
  7  8  2  0
  8  9  1  0
  9 10  1  0
 10 11  1  0
 11 12  1  0
 12 13  1  0
 13 14  1  0
 14 15  2  0
 15 16  1  0
 16 17  2  0
 17 18  1  0
 18 19  2  0
 13 20  1  0
 20 21  1  0
  9 22  2  0
 22 23  1  0
 23 24  1  0
 24 25  1  0
 25 26  2  0
 26 27  1  0
 27 28  2  0
 28 29  1  0
 28 30  1  0
 30 31  2  0
 23 32  1  0
 32 33  2  0
 32  3  1  0
 22  5  1  0
 31 25  1  0
 21 10  1  0
 19 14  1  0
  1 34  1  0
  1 35  1  0
  1 36  1  0
  2 37  1  0
  2 38  1  0
  3 39  1  0
  4 40  1  0
  7 41  1  0
 11 42  1  0
 11 43  1  0
 12 44  1  0
 12 45  1  0
 15 46  1  0
 16 47  1  0
 17 48  1  0
 18 49  1  0
 20 50  1  0
 20 51  1  0
 21 52  1  0
 21 53  1  0
 24 54  1  0
 24 55  1  0
 26 56  1  0
 27 57  1  0
 30 58  1  0
 31 59  1  0
M  END
$$$$
