
     RDKit          3D

 50 53  0  0  0  0  0  0  0  0999 V2000
   -1.7779    1.7582    5.2594 C   0  0  0  0  0  0  0  0  0  0  0  0
   -1.1731    0.9743    4.1046 C   0  0  0  0  0  0  0  0  0  0  0  0
   -1.5220    1.5718    2.7490 C   0  0  0  0  0  0  0  0  0  0  0  0
   -2.2594    2.5568    2.6705 O   0  0  0  0  0  0  0  0  0  0  0  0
   -0.9990    0.9515    1.6151 N   0  0  0  0  0  0  0  0  0  0  0  0
   -1.3930    1.4914    0.3071 C   0  0  0  0  0  0  0  0  0  0  0  0
   -2.3526    0.5952   -0.4434 C   0  0  0  0  0  0  0  0  0  0  0  0
   -2.0350    0.1230   -1.7240 C   0  0  0  0  0  0  0  0  0  0  0  0
   -2.9228   -0.7033   -2.4177 C   0  0  0  0  0  0  0  0  0  0  0  0
   -4.1534   -1.0554   -1.8530 C   0  0  0  0  0  0  0  0  0  0  0  0
   -5.0945   -1.9656   -2.5848 C   0  0  0  0  0  0  0  0  0  0  0  0
   -4.4745   -0.5835   -0.5759 C   0  0  0  0  0  0  0  0  0  0  0  0
   -3.5873    0.2424    0.1179 C   0  0  0  0  0  0  0  0  0  0  0  0
   -0.2256   -0.2990    1.6480 C   0  0  0  0  0  0  0  0  0  0  0  0
    1.0723   -0.1828    0.9025 C   0  0  0  0  0  0  0  0  0  0  0  0
    1.2903   -0.7658   -0.2907 C   0  0  0  0  0  0  0  0  0  0  0  0
    2.5723   -0.6235   -0.9796 C   0  0  0  0  0  0  0  0  0  0  0  0
    2.7910   -1.2065   -2.2325 C   0  0  0  0  0  0  0  0  0  0  0  0
    4.0267   -1.0183   -2.8166 C   0  0  0  0  0  0  0  0  0  0  0  0
    5.0199   -0.2878   -2.2044 C   0  0  0  0  0  0  0  0  0  0  0  0
    4.8394    0.2995   -0.9705 C   0  0  0  0  0  0  0  0  0  0  0  0
    3.5968    0.1241   -0.3590 C   0  0  0  0  0  0  0  0  0  0  0  0
    3.3556    0.6902    0.8974 N   0  0  0  0  0  0  0  0  0  0  0  0
    2.1746    0.5643    1.5793 C   0  0  0  0  0  0  0  0  0  0  0  0
    2.0423    1.0383    2.7030 O   0  0  0  0  0  0  0  0  0  0  0  0
    6.1544   -0.2284   -2.9520 O   0  0  0  0  0  0  0  0  0  0  0  0
    5.7638   -1.0031   -4.1052 C   0  0  0  0  0  0  0  0  0  0  0  0
    4.4140   -1.5077   -4.0249 O   0  0  0  0  0  0  0  0  0  0  0  0
   -2.8707    1.7790    5.1918 H   0  0  0  0  0  0  0  0  0  0  0  0
   -1.4211    2.7935    5.2614 H   0  0  0  0  0  0  0  0  0  0  0  0
   -1.5038    1.3003    6.2148 H   0  0  0  0  0  0  0  0  0  0  0  0
   -1.5530   -0.0520    4.1448 H   0  0  0  0  0  0  0  0  0  0  0  0
   -0.0863    0.9656    4.2248 H   0  0  0  0  0  0  0  0  0  0  0  0
   -1.8604    2.4777    0.4075 H   0  0  0  0  0  0  0  0  0  0  0  0
   -0.4812    1.6610   -0.2765 H   0  0  0  0  0  0  0  0  0  0  0  0
   -1.0937    0.3977   -2.1946 H   0  0  0  0  0  0  0  0  0  0  0  0
   -2.6515   -1.0632   -3.4076 H   0  0  0  0  0  0  0  0  0  0  0  0
   -4.9961   -1.8404   -3.6683 H   0  0  0  0  0  0  0  0  0  0  0  0
   -4.8817   -3.0080   -2.3284 H   0  0  0  0  0  0  0  0  0  0  0  0
   -6.1347   -1.7422   -2.3257 H   0  0  0  0  0  0  0  0  0  0  0  0
   -5.4231   -0.8479   -0.1136 H   0  0  0  0  0  0  0  0  0  0  0  0
   -3.8662    0.6163    1.1018 H   0  0  0  0  0  0  0  0  0  0  0  0
   -0.8587   -1.0829    1.2148 H   0  0  0  0  0  0  0  0  0  0  0  0
   -0.0206   -0.6292    2.6687 H   0  0  0  0  0  0  0  0  0  0  0  0
    0.5131   -1.3442   -0.7806 H   0  0  0  0  0  0  0  0  0  0  0  0
    2.0283   -1.7869   -2.7392 H   0  0  0  0  0  0  0  0  0  0  0  0
    5.6368    0.8690   -0.5089 H   0  0  0  0  0  0  0  0  0  0  0  0
    4.0817    1.2104    1.3720 H   0  0  0  0  0  0  0  0  0  0  0  0
    5.8497   -0.3721   -4.9973 H   0  0  0  0  0  0  0  0  0  0  0  0
    6.4500   -1.8518   -4.2065 H   0  0  0  0  0  0  0  0  0  0  0  0
  1  2  1  0
  2  3  1  0
  3  4  2  0
  3  5  1  0
  5  6  1  0
  6  7  1  0
  7  8  2  0
  8  9  1  0
  9 10  2  0
 10 11  1  0
 10 12  1  0
 12 13  2  0
  5 14  1  0
 14 15  1  0
 15 16  2  0
 16 17  1  0
 17 18  2  0
 18 19  1  0
 19 20  2  0
 20 21  1  0
 21 22  2  0
 22 23  1  0
 23 24  1  0
 24 25  2  0
 20 26  1  0
 26 27  1  0
 27 28  1  0
 13  7  1  0
 24 15  1  0
 22 17  1  0
 28 19  1  0
  1 29  1  0
  1 30  1  0
  1 31  1  0
  2 32  1  0
  2 33  1  0
  6 34  1  0
  6 35  1  0
  8 36  1  0
  9 37  1  0
 11 38  1  0
 11 39  1  0
 11 40  1  0
 12 41  1  0
 13 42  1  0
 14 43  1  0
 14 44  1  0
 16 45  1  0
 18 46  1  0
 21 47  1  0
 23 48  1  0
 27 49  1  0
 27 50  1  0
M  END
$$$$
