
     RDKit          3D

 71 72  0  0  0  0  0  0  0  0999 V2000
   -6.7228   -0.7524   -2.4829 C   0  0  0  0  0  0  0  0  0  0  0  0
   -5.4776   -1.2707   -2.0351 O   0  0  0  0  0  0  0  0  0  0  0  0
   -5.0222   -0.7897   -0.8321 C   0  0  0  0  0  0  0  0  0  0  0  0
   -5.8567   -0.3215    0.1857 C   0  0  0  0  0  0  0  0  0  0  0  0
   -5.3098    0.1478    1.3783 C   0  0  0  0  0  0  0  0  0  0  0  0
   -3.9251    0.1727    1.5633 C   0  0  0  0  0  0  0  0  0  0  0  0
   -3.0523   -0.2874    0.5612 C   0  0  0  0  0  0  0  0  0  0  0  0
   -1.5267   -0.2374    0.7127 C   0  0  0  0  0  0  0  0  0  0  0  0
   -0.9566   -0.0683    2.1532 C   0  0  0  0  0  0  0  0  0  0  0  0
   -1.4911   -0.5759    3.1404 O   0  0  0  0  0  0  0  0  0  0  0  0
    0.2653    0.5912    2.2225 N   0  0  0  0  0  0  0  0  0  0  0  0
    1.0879    0.6914    3.4390 C   0  0  0  0  0  0  0  0  0  0  0  0
    2.2378    1.6748    3.1472 C   0  0  0  0  0  0  0  0  0  0  0  0
    0.2952    1.2392    4.6415 C   0  0  0  0  0  0  0  0  0  0  0  0
    1.6845   -0.6829    3.7873 C   0  0  0  0  0  0  0  0  0  0  0  0
   -0.8436    0.5819   -0.3466 N   0  0  0  0  0  0  0  0  0  0  0  0
    0.0989   -0.1069   -1.1198 C   0  0  0  0  0  0  0  0  0  0  0  0
    0.5521   -1.2014   -0.7731 O   0  0  0  0  0  0  0  0  0  0  0  0
    0.5230    0.5159   -2.4418 C   0  0  0  0  0  0  0  0  0  0  0  0
    1.5278   -0.3756   -3.1667 C   0  0  0  0  0  0  0  0  0  0  0  0
    2.8891   -0.3222   -2.4934 C   0  0  0  0  0  0  0  0  0  0  0  0
    3.3139    0.7127   -1.9857 O   0  0  0  0  0  0  0  0  0  0  0  0
    3.5706   -1.5114   -2.5806 N   0  0  0  0  0  0  0  0  0  0  0  0
    4.8445   -1.7310   -2.1111 C   0  0  0  0  0  0  0  0  0  0  0  0
    5.7656   -0.8203   -1.5498 C   0  0  0  0  0  0  0  0  0  0  0  0
    6.8715   -1.5777   -1.2612 C   0  0  0  0  0  0  0  0  0  0  0  0
    8.1872   -1.2962   -0.6635 C   0  0  0  0  0  0  0  0  0  0  0  0
    6.6297   -2.8679   -1.6163 O   0  0  0  0  0  0  0  0  0  0  0  0
    5.3625   -2.9640   -2.1603 N   0  0  0  0  0  0  0  0  0  0  0  0
   -1.0700    2.0451   -0.5161 C   0  0  0  0  0  0  0  0  0  0  0  0
    0.1097    2.8703    0.0252 C   0  0  0  0  0  0  0  0  0  0  0  0
   -2.3634    2.6357    0.0440 C   0  0  0  0  0  0  0  0  0  0  0  0
   -3.6303   -0.8038   -0.6222 C   0  0  0  0  0  0  0  0  0  0  0  0
   -2.7933   -1.2389   -1.6261 O   0  0  0  0  0  0  0  0  0  0  0  0
   -2.7574   -2.6705   -1.6567 C   0  0  0  0  0  0  0  0  0  0  0  0
   -6.8272   -1.0029   -3.5441 H   0  0  0  0  0  0  0  0  0  0  0  0
   -6.7596    0.3387   -2.3902 H   0  0  0  0  0  0  0  0  0  0  0  0
   -7.5538   -1.2191   -1.9479 H   0  0  0  0  0  0  0  0  0  0  0  0
   -6.9369   -0.3319    0.0812 H   0  0  0  0  0  0  0  0  0  0  0  0
   -5.9624    0.5102    2.1710 H   0  0  0  0  0  0  0  0  0  0  0  0
   -3.5437    0.5660    2.5047 H   0  0  0  0  0  0  0  0  0  0  0  0
   -1.2494   -1.2868    0.5354 H   0  0  0  0  0  0  0  0  0  0  0  0
    0.7984    0.4811    1.3660 H   0  0  0  0  0  0  0  0  0  0  0  0
    2.8354    1.3606    2.2795 H   0  0  0  0  0  0  0  0  0  0  0  0
    2.9164    1.7686    4.0048 H   0  0  0  0  0  0  0  0  0  0  0  0
    1.8470    2.6758    2.9238 H   0  0  0  0  0  0  0  0  0  0  0  0
    0.9636    1.4562    5.4831 H   0  0  0  0  0  0  0  0  0  0  0  0
   -0.4509    0.5281    5.0089 H   0  0  0  0  0  0  0  0  0  0  0  0
   -0.2269    2.1658    4.3824 H   0  0  0  0  0  0  0  0  0  0  0  0
    2.3251   -0.6256    4.6738 H   0  0  0  0  0  0  0  0  0  0  0  0
    0.9088   -1.4307    3.9900 H   0  0  0  0  0  0  0  0  0  0  0  0
    2.2901   -1.0645    2.9549 H   0  0  0  0  0  0  0  0  0  0  0  0
    0.9428    1.5122   -2.2845 H   0  0  0  0  0  0  0  0  0  0  0  0
   -0.3749    0.6084   -3.0662 H   0  0  0  0  0  0  0  0  0  0  0  0
    1.6651   -0.0085   -4.1910 H   0  0  0  0  0  0  0  0  0  0  0  0
    1.1600   -1.4068   -3.2361 H   0  0  0  0  0  0  0  0  0  0  0  0
    3.1108   -2.3474   -2.9147 H   0  0  0  0  0  0  0  0  0  0  0  0
    5.6445    0.2390   -1.3782 H   0  0  0  0  0  0  0  0  0  0  0  0
    8.9909   -1.6814   -1.2981 H   0  0  0  0  0  0  0  0  0  0  0  0
    8.2707   -1.7709    0.3186 H   0  0  0  0  0  0  0  0  0  0  0  0
    8.3399   -0.2207   -0.5316 H   0  0  0  0  0  0  0  0  0  0  0  0
   -1.1062    2.2238   -1.5964 H   0  0  0  0  0  0  0  0  0  0  0  0
    1.0794    2.4357   -0.2301 H   0  0  0  0  0  0  0  0  0  0  0  0
    0.0617    2.9653    1.1149 H   0  0  0  0  0  0  0  0  0  0  0  0
    0.0809    3.8851   -0.3869 H   0  0  0  0  0  0  0  0  0  0  0  0
   -3.2450    2.1992   -0.4366 H   0  0  0  0  0  0  0  0  0  0  0  0
   -2.4303    2.5024    1.1259 H   0  0  0  0  0  0  0  0  0  0  0  0
   -2.4069    3.7122   -0.1529 H   0  0  0  0  0  0  0  0  0  0  0  0
   -1.8265   -2.9655   -2.1471 H   0  0  0  0  0  0  0  0  0  0  0  0
   -3.5910   -3.0664   -2.2468 H   0  0  0  0  0  0  0  0  0  0  0  0
   -2.7580   -3.1099   -0.6520 H   0  0  0  0  0  0  0  0  0  0  0  0
  1  2  1  0
  2  3  1  0
  3  4  2  0
  4  5  1  0
  5  6  2  0
  6  7  1  0
  7  8  1  0
  8  9  1  0
  9 10  2  0
  9 11  1  0
 11 12  1  0
 12 13  1  0
 12 14  1  0
 12 15  1  0
  8 16  1  0
 16 17  1  0
 17 18  2  0
 17 19  1  0
 19 20  1  0
 20 21  1  0
 21 22  2  0
 21 23  1  0
 23 24  1  0
 24 25  1  0
 25 26  2  0
 26 27  1  0
 26 28  1  0
 28 29  1  0
 16 30  1  0
 30 31  1  0
 30 32  1  0
  7 33  2  0
 33 34  1  0
 34 35  1  0
 33  3  1  0
 29 24  2  0
  1 36  1  0
  1 37  1  0
  1 38  1  0
  4 39  1  0
  5 40  1  0
  6 41  1  0
  8 42  1  0
 11 43  1  0
 13 44  1  0
 13 45  1  0
 13 46  1  0
 14 47  1  0
 14 48  1  0
 14 49  1  0
 15 50  1  0
 15 51  1  0
 15 52  1  0
 19 53  1  0
 19 54  1  0
 20 55  1  0
 20 56  1  0
 23 57  1  0
 25 58  1  0
 27 59  1  0
 27 60  1  0
 27 61  1  0
 30 62  1  0
 31 63  1  0
 31 64  1  0
 31 65  1  0
 32 66  1  0
 32 67  1  0
 32 68  1  0
 35 69  1  0
 35 70  1  0
 35 71  1  0
M  END
$$$$
