
     RDKit          3D

 61 66  0  0  0  0  0  0  0  0999 V2000
   -3.6602   -1.9273   -0.4171 C   0  0  0  0  0  0  0  0  0  0  0  0
   -3.0078   -0.8195    0.4162 C   0  0  0  0  0  0  0  0  0  0  0  0
   -3.3536   -1.0009    1.8994 C   0  0  0  0  0  0  0  0  0  0  0  0
   -3.3930    0.5593   -0.1132 C   0  0  0  0  0  0  0  0  0  0  0  0
   -4.7186    1.0073    0.0521 C   0  0  0  0  0  0  0  0  0  0  0  0
   -5.1575    2.2181   -0.4906 C   0  0  0  0  0  0  0  0  0  0  0  0
   -4.2858    3.0125   -1.2255 C   0  0  0  0  0  0  0  0  0  0  0  0
   -2.9706    2.6011   -1.4145 C   0  0  0  0  0  0  0  0  0  0  0  0
   -2.5237    1.3902   -0.8554 C   0  0  0  0  0  0  0  0  0  0  0  0
   -1.1735    1.0393   -1.0919 N   0  0  0  0  0  0  0  0  0  0  0  0
   -0.1409    1.0048   -0.1726 C   0  0  0  0  0  0  0  0  0  0  0  0
   -0.3022    1.4121    1.5044 S   0  0  0  0  0  0  0  0  0  0  0  0
    1.3238    0.9333    2.1771 C   0  0  0  0  0  0  0  0  0  0  0  0
    1.5827   -0.5607    2.2787 C   0  0  0  0  0  0  0  0  0  0  0  0
    0.5841   -1.4067    2.5928 C   0  0  0  0  0  0  0  0  0  0  0  0
    0.7839   -2.7992    3.0008 C   0  0  0  0  0  0  0  0  0  0  0  0
   -0.1576   -3.5784    3.0775 O   0  0  0  0  0  0  0  0  0  0  0  0
    2.0593   -3.1145    3.4104 O   0  0  0  0  0  0  0  0  0  0  0  0
    3.1433   -2.3117    3.0019 C   0  0  0  0  0  0  0  0  0  0  0  0
    4.3930   -2.8339    3.3201 C   0  0  0  0  0  0  0  0  0  0  0  0
    5.5298   -2.1822    2.8736 C   0  0  0  0  0  0  0  0  0  0  0  0
    5.4225   -1.0701    2.0331 C   0  0  0  0  0  0  0  0  0  0  0  0
    6.6023   -0.5019    1.5233 C   0  0  0  0  0  0  0  0  0  0  0  0
    6.5598    0.5402    0.6038 C   0  0  0  0  0  0  0  0  0  0  0  0
    5.3326    1.0038    0.1631 C   0  0  0  0  0  0  0  0  0  0  0  0
    4.1530    0.4560    0.6787 C   0  0  0  0  0  0  0  0  0  0  0  0
    4.1422   -0.5525    1.6739 C   0  0  0  0  0  0  0  0  0  0  0  0
    2.9705   -1.1202    2.2750 C   0  0  0  0  0  0  0  0  0  0  0  0
    0.9913    0.7434   -0.7770 N   0  0  0  0  0  0  0  0  0  0  0  0
    0.7414    0.6621   -2.1176 N   0  0  0  0  0  0  0  0  0  0  0  0
   -0.5530    0.8479   -2.3257 C   0  0  0  0  0  0  0  0  0  0  0  0
   -1.1721    0.8393   -3.6534 C   0  0  0  0  0  0  0  0  0  0  0  0
   -0.4605    1.3386   -4.7509 C   0  0  0  0  0  0  0  0  0  0  0  0
   -1.0254    1.3198   -6.0251 C   0  0  0  0  0  0  0  0  0  0  0  0
   -2.2945    0.7896   -6.1703 C   0  0  0  0  0  0  0  0  0  0  0  0
   -3.0143    0.2881   -5.1454 N   0  0  0  0  0  0  0  0  0  0  0  0
   -2.4346    0.3167   -3.9185 C   0  0  0  0  0  0  0  0  0  0  0  0
   -3.3761   -1.8450   -1.4712 H   0  0  0  0  0  0  0  0  0  0  0  0
   -4.7539   -1.8908   -0.3622 H   0  0  0  0  0  0  0  0  0  0  0  0
   -3.3413   -2.9141   -0.0630 H   0  0  0  0  0  0  0  0  0  0  0  0
   -1.9277   -0.9648    0.3304 H   0  0  0  0  0  0  0  0  0  0  0  0
   -2.9393   -1.9439    2.2734 H   0  0  0  0  0  0  0  0  0  0  0  0
   -2.9411   -0.1890    2.5064 H   0  0  0  0  0  0  0  0  0  0  0  0
   -4.4349   -1.0309    2.0728 H   0  0  0  0  0  0  0  0  0  0  0  0
   -5.4433    0.4018    0.5939 H   0  0  0  0  0  0  0  0  0  0  0  0
   -6.1885    2.5327   -0.3468 H   0  0  0  0  0  0  0  0  0  0  0  0
   -4.6316    3.9513   -1.6512 H   0  0  0  0  0  0  0  0  0  0  0  0
   -2.3005    3.2437   -1.9830 H   0  0  0  0  0  0  0  0  0  0  0  0
    1.3578    1.3302    3.2002 H   0  0  0  0  0  0  0  0  0  0  0  0
    2.0757    1.5033    1.6414 H   0  0  0  0  0  0  0  0  0  0  0  0
   -0.4500   -1.0967    2.6697 H   0  0  0  0  0  0  0  0  0  0  0  0
    4.4762   -3.7464    3.9041 H   0  0  0  0  0  0  0  0  0  0  0  0
    6.5045   -2.5910    3.1345 H   0  0  0  0  0  0  0  0  0  0  0  0
    7.5756   -0.8888    1.8207 H   0  0  0  0  0  0  0  0  0  0  0  0
    7.4798    0.9580    0.2053 H   0  0  0  0  0  0  0  0  0  0  0  0
    5.2803    1.7749   -0.6011 H   0  0  0  0  0  0  0  0  0  0  0  0
    3.2317    0.7943    0.2176 H   0  0  0  0  0  0  0  0  0  0  0  0
    0.5426    1.7414   -4.6175 H   0  0  0  0  0  0  0  0  0  0  0  0
   -0.4837    1.7038   -6.8820 H   0  0  0  0  0  0  0  0  0  0  0  0
   -2.7785    0.7480   -7.1421 H   0  0  0  0  0  0  0  0  0  0  0  0
   -3.0500   -0.1257   -3.1419 H   0  0  0  0  0  0  0  0  0  0  0  0
  1  2  1  0
  2  3  1  0
  2  4  1  0
  4  5  2  0
  5  6  1  0
  6  7  2  0
  7  8  1  0
  8  9  2  0
  9 10  1  0
 10 11  1  0
 11 12  1  0
 12 13  1  0
 13 14  1  0
 14 15  2  0
 15 16  1  0
 16 17  2  0
 16 18  1  0
 18 19  1  0
 19 20  2  0
 20 21  1  0
 21 22  2  0
 22 23  1  0
 23 24  2  0
 24 25  1  0
 25 26  2  0
 26 27  1  0
 27 28  2  0
 11 29  2  0
 29 30  1  0
 30 31  2  0
 31 32  1  0
 32 33  2  0
 33 34  1  0
 34 35  2  0
 35 36  1  0
 36 37  2  0
  9  4  1  0
 31 10  1  0
 37 32  1  0
 28 14  1  0
 28 19  1  0
 27 22  1  0
  1 38  1  0
  1 39  1  0
  1 40  1  0
  2 41  1  0
  3 42  1  0
  3 43  1  0
  3 44  1  0
  5 45  1  0
  6 46  1  0
  7 47  1  0
  8 48  1  0
 13 49  1  0
 13 50  1  0
 15 51  1  0
 20 52  1  0
 21 53  1  0
 23 54  1  0
 24 55  1  0
 25 56  1  0
 26 57  1  0
 33 58  1  0
 34 59  1  0
 35 60  1  0
 37 61  1  0
M  END
$$$$
