
     RDKit          3D

 52 56  0  0  0  0  0  0  0  0999 V2000
    2.9285   -2.2320    0.1998 O   0  0  0  0  0  0  0  0  0  0  0  0
    2.5564   -1.1788   -0.3096 C   0  0  0  0  0  0  0  0  0  0  0  0
    1.3967   -1.1535   -1.2918 C   0  0  0  0  0  0  0  0  0  0  0  0
   -0.1473   -0.8671   -0.3781 S   0  0  0  0  0  0  0  0  0  0  0  0
   -1.2802   -0.8743   -1.6918 C   0  0  0  0  0  0  0  0  0  0  0  0
   -0.9551   -0.6066   -2.9353 N   0  0  0  0  0  0  0  0  0  0  0  0
   -2.0580   -0.8158   -3.7115 N   0  0  0  0  0  0  0  0  0  0  0  0
   -3.0511   -1.2002   -2.9301 C   0  0  0  0  0  0  0  0  0  0  0  0
   -4.4649   -1.3561   -3.3939 C   0  0  0  0  0  0  0  0  0  0  0  0
   -5.3708   -0.2696   -2.8820 C   0  0  0  0  0  0  0  0  0  0  0  0
   -5.2137    1.1004   -2.9883 C   0  0  0  0  0  0  0  0  0  0  0  0
   -6.2816    1.8188   -2.3782 C   0  0  0  0  0  0  0  0  0  0  0  0
   -7.2260    0.9765   -1.8376 C   0  0  0  0  0  0  0  0  0  0  0  0
   -6.8266   -0.6689   -2.0698 S   0  0  0  0  0  0  0  0  0  0  0  0
   -2.6018   -1.2827   -1.6147 N   0  0  0  0  0  0  0  0  0  0  0  0
   -3.3385   -1.6926   -0.4734 C   0  0  0  0  0  0  0  0  0  0  0  0
   -4.1240   -2.8512   -0.5275 C   0  0  0  0  0  0  0  0  0  0  0  0
   -4.8558   -3.2498    0.5927 C   0  0  0  0  0  0  0  0  0  0  0  0
   -4.8072   -2.4977    1.7649 C   0  0  0  0  0  0  0  0  0  0  0  0
   -4.0213   -1.3479    1.8233 C   0  0  0  0  0  0  0  0  0  0  0  0
   -3.2838   -0.9439    0.7086 C   0  0  0  0  0  0  0  0  0  0  0  0
    3.0910    0.0810   -0.0783 N   0  0  0  0  0  0  0  0  0  0  0  0
    4.1703    0.4177    0.7651 C   0  0  0  0  0  0  0  0  0  0  0  0
    4.9014   -0.5115    1.5097 C   0  0  0  0  0  0  0  0  0  0  0  0
    5.9639   -0.0959    2.3213 C   0  0  0  0  0  0  0  0  0  0  0  0
    6.3040    1.2509    2.3903 C   0  0  0  0  0  0  0  0  0  0  0  0
    5.5645    2.1893    1.6684 C   0  0  0  0  0  0  0  0  0  0  0  0
    4.5138    1.7739    0.8493 C   0  0  0  0  0  0  0  0  0  0  0  0
    5.8160    3.5375    1.7092 O   0  0  0  0  0  0  0  0  0  0  0  0
    6.6580    3.8759    2.8179 C   0  0  0  0  0  0  0  0  0  0  0  0
    7.8276    2.9105    2.9196 C   0  0  0  0  0  0  0  0  0  0  0  0
    7.3647    1.5830    3.1917 O   0  0  0  0  0  0  0  0  0  0  0  0
    1.5601   -0.3674   -2.0367 H   0  0  0  0  0  0  0  0  0  0  0  0
    1.3610   -2.1153   -1.8149 H   0  0  0  0  0  0  0  0  0  0  0  0
   -4.4737   -1.3019   -4.4912 H   0  0  0  0  0  0  0  0  0  0  0  0
   -4.8445   -2.3536   -3.1561 H   0  0  0  0  0  0  0  0  0  0  0  0
   -4.3647    1.5656   -3.4769 H   0  0  0  0  0  0  0  0  0  0  0  0
   -6.3533    2.8991   -2.3401 H   0  0  0  0  0  0  0  0  0  0  0  0
   -8.1359    1.2464   -1.3190 H   0  0  0  0  0  0  0  0  0  0  0  0
   -4.1480   -3.4867   -1.4085 H   0  0  0  0  0  0  0  0  0  0  0  0
   -5.4577   -4.1551    0.5545 H   0  0  0  0  0  0  0  0  0  0  0  0
   -5.3789   -2.8096    2.6357 H   0  0  0  0  0  0  0  0  0  0  0  0
   -3.9873   -0.7612    2.7382 H   0  0  0  0  0  0  0  0  0  0  0  0
   -2.7089   -0.0235    0.7769 H   0  0  0  0  0  0  0  0  0  0  0  0
    2.6363    0.8588   -0.5423 H   0  0  0  0  0  0  0  0  0  0  0  0
    4.6747   -1.5728    1.4821 H   0  0  0  0  0  0  0  0  0  0  0  0
    6.5275   -0.8299    2.8904 H   0  0  0  0  0  0  0  0  0  0  0  0
    3.9648    2.5264    0.2901 H   0  0  0  0  0  0  0  0  0  0  0  0
    6.0504    3.8690    3.7314 H   0  0  0  0  0  0  0  0  0  0  0  0
    7.0221    4.8955    2.6580 H   0  0  0  0  0  0  0  0  0  0  0  0
    8.4911    3.2049    3.7391 H   0  0  0  0  0  0  0  0  0  0  0  0
    8.4157    2.8919    1.9934 H   0  0  0  0  0  0  0  0  0  0  0  0
  1  2  2  0
  2  3  1  0
  3  4  1  0
  4  5  1  0
  5  6  2  0
  6  7  1  0
  7  8  2  0
  8  9  1  0
  9 10  1  0
 10 11  2  0
 11 12  1  0
 12 13  2  0
 13 14  1  0
  8 15  1  0
 15 16  1  0
 16 17  2  0
 17 18  1  0
 18 19  2  0
 19 20  1  0
 20 21  2  0
  2 22  1  0
 22 23  1  0
 23 24  2  0
 24 25  1  0
 25 26  2  0
 26 27  1  0
 27 28  2  0
 27 29  1  0
 29 30  1  0
 30 31  1  0
 31 32  1  0
 15  5  1  0
 21 16  1  0
 28 23  1  0
 14 10  1  0
 32 26  1  0
  3 33  1  0
  3 34  1  0
  9 35  1  0
  9 36  1  0
 11 37  1  0
 12 38  1  0
 13 39  1  0
 17 40  1  0
 18 41  1  0
 19 42  1  0
 20 43  1  0
 21 44  1  0
 22 45  1  0
 24 46  1  0
 25 47  1  0
 28 48  1  0
 30 49  1  0
 30 50  1  0
 31 51  1  0
 31 52  1  0
M  END
$$$$
