
     RDKit          3D

 51 55  0  0  0  0  0  0  0  0999 V2000
   -8.3450    0.7524    1.6556 F   0  0  0  0  0  0  0  0  0  0  0  0
   -7.2806    0.1686    1.0891 C   0  0  0  0  0  0  0  0  0  0  0  0
   -7.1604   -1.2150    1.1244 C   0  0  0  0  0  0  0  0  0  0  0  0
   -6.0511   -1.8199    0.5379 C   0  0  0  0  0  0  0  0  0  0  0  0
   -5.0737   -1.0351   -0.0808 C   0  0  0  0  0  0  0  0  0  0  0  0
   -5.1950    0.3619   -0.1215 C   0  0  0  0  0  0  0  0  0  0  0  0
   -4.1346    1.2117   -0.7826 C   0  0  0  0  0  0  0  0  0  0  0  0
   -2.9081    1.4771    0.1136 C   0  0  0  0  0  0  0  0  0  0  0  0
   -1.9981    0.3267    0.2678 N   0  0  0  0  0  0  0  0  0  0  0  0
   -0.9931    0.5596    1.3275 C   0  0  0  0  0  0  0  0  0  0  0  0
    0.3585    1.1293    0.8433 C   0  0  0  0  0  0  0  0  0  0  0  0
    0.9769    0.2846   -0.1899 N   0  0  0  0  0  0  0  0  0  0  0  0
    2.3425    0.0117   -0.1872 C   0  0  0  0  0  0  0  0  0  0  0  0
    2.7274   -1.1963   -0.5224 N   0  0  0  0  0  0  0  0  0  0  0  0
    4.0877   -1.5556   -0.5031 C   0  0  0  0  0  0  0  0  0  0  0  0
    4.4332   -2.8624   -0.8532 C   0  0  0  0  0  0  0  0  0  0  0  0
    5.7680   -3.2760   -0.8396 C   0  0  0  0  0  0  0  0  0  0  0  0
    6.7738   -2.3813   -0.4732 C   0  0  0  0  0  0  0  0  0  0  0  0
    6.4511   -1.0706   -0.1198 C   0  0  0  0  0  0  0  0  0  0  0  0
    5.1109   -0.6720   -0.1378 C   0  0  0  0  0  0  0  0  0  0  0  0
    4.6986    0.6299    0.1885 N   0  0  0  0  0  0  0  0  0  0  0  0
    5.4571    1.7167    0.5543 C   0  0  0  0  0  0  0  0  0  0  0  0
    4.6177    2.7986    0.6985 C   0  0  0  0  0  0  0  0  0  0  0  0
    3.3053    2.3476    0.4266 C   0  0  0  0  0  0  0  0  0  0  0  0
    3.3677    0.9915    0.1527 C   0  0  0  0  0  0  0  0  0  0  0  0
    0.0580   -0.6639   -0.8457 C   0  0  0  0  0  0  0  0  0  0  0  0
   -1.3412   -0.0352   -1.0111 C   0  0  0  0  0  0  0  0  0  0  0  0
   -6.3130    0.9594    0.4763 C   0  0  0  0  0  0  0  0  0  0  0  0
   -7.9267   -1.8100    1.6097 H   0  0  0  0  0  0  0  0  0  0  0  0
   -5.9416   -2.9009    0.5646 H   0  0  0  0  0  0  0  0  0  0  0  0
   -4.2071   -1.5209   -0.5245 H   0  0  0  0  0  0  0  0  0  0  0  0
   -3.8475    0.7615   -1.7403 H   0  0  0  0  0  0  0  0  0  0  0  0
   -4.5790    2.1805   -1.0472 H   0  0  0  0  0  0  0  0  0  0  0  0
   -3.2775    1.7847    1.1008 H   0  0  0  0  0  0  0  0  0  0  0  0
   -2.3533    2.3339   -0.2909 H   0  0  0  0  0  0  0  0  0  0  0  0
   -1.3958    1.1964    2.1248 H   0  0  0  0  0  0  0  0  0  0  0  0
   -0.8017   -0.4106    1.8056 H   0  0  0  0  0  0  0  0  0  0  0  0
    1.0137    1.2134    1.7178 H   0  0  0  0  0  0  0  0  0  0  0  0
    0.2045    2.1346    0.4355 H   0  0  0  0  0  0  0  0  0  0  0  0
    3.6512   -3.5619   -1.1363 H   0  0  0  0  0  0  0  0  0  0  0  0
    6.0198   -4.2969   -1.1147 H   0  0  0  0  0  0  0  0  0  0  0  0
    7.8112   -2.7070   -0.4643 H   0  0  0  0  0  0  0  0  0  0  0  0
    7.2508   -0.3928    0.1588 H   0  0  0  0  0  0  0  0  0  0  0  0
    6.5296    1.6520    0.6659 H   0  0  0  0  0  0  0  0  0  0  0  0
    4.9210    3.8047    0.9586 H   0  0  0  0  0  0  0  0  0  0  0  0
    2.4136    2.9579    0.4292 H   0  0  0  0  0  0  0  0  0  0  0  0
   -0.0090   -1.5912   -0.2630 H   0  0  0  0  0  0  0  0  0  0  0  0
    0.4384   -0.9195   -1.8421 H   0  0  0  0  0  0  0  0  0  0  0  0
   -1.2282    0.8526   -1.6484 H   0  0  0  0  0  0  0  0  0  0  0  0
   -1.9829   -0.7416   -1.5490 H   0  0  0  0  0  0  0  0  0  0  0  0
   -6.4442    2.0370    0.4730 H   0  0  0  0  0  0  0  0  0  0  0  0
  1  2  1  0
  2  3  2  0
  3  4  1  0
  4  5  2  0
  5  6  1  0
  6  7  1  0
  7  8  1  0
  8  9  1  0
  9 10  1  0
 10 11  1  0
 11 12  1  0
 12 13  1  0
 13 14  2  0
 14 15  1  0
 15 16  2  0
 16 17  1  0
 17 18  2  0
 18 19  1  0
 19 20  2  0
 20 21  1  0
 21 22  1  0
 22 23  2  0
 23 24  1  0
 24 25  2  0
 12 26  1  0
 26 27  1  0
  6 28  2  0
 28  2  1  0
 27  9  1  0
 25 13  1  0
 20 15  1  0
 25 21  1  0
  3 29  1  0
  4 30  1  0
  5 31  1  0
  7 32  1  0
  7 33  1  0
  8 34  1  0
  8 35  1  0
 10 36  1  0
 10 37  1  0
 11 38  1  0
 11 39  1  0
 16 40  1  0
 17 41  1  0
 18 42  1  0
 19 43  1  0
 22 44  1  0
 23 45  1  0
 24 46  1  0
 26 47  1  0
 26 48  1  0
 27 49  1  0
 27 50  1  0
 28 51  1  0
M  END
$$$$
