
     RDKit          3D

 59 63  0  0  0  0  0  0  0  0999 V2000
   -6.4463   -1.8269    1.5052 C   0  0  0  0  0  0  0  0  0  0  0  0
   -5.4158   -0.7663    1.8719 C   0  0  0  0  0  0  0  0  0  0  0  0
   -4.1733   -0.7900    0.9678 C   0  0  0  0  0  0  0  0  0  0  0  0
   -3.4393   -2.0307    1.1678 N   0  0  0  0  0  0  0  0  0  0  0  0
   -2.2330   -2.0669    0.4654 C   0  0  0  0  0  0  0  0  0  0  0  0
   -1.9148   -3.2825   -0.0038 N   0  0  0  0  0  0  0  0  0  0  0  0
   -0.7215   -3.3854   -0.5828 C   0  0  0  0  0  0  0  0  0  0  0  0
    0.1859   -2.4113   -0.6791 N   0  0  0  0  0  0  0  0  0  0  0  0
   -0.1393   -1.2003   -0.1690 C   0  0  0  0  0  0  0  0  0  0  0  0
    0.9213   -0.2726   -0.0698 N   0  0  0  0  0  0  0  0  0  0  0  0
    1.9269   -0.3857   -1.1613 C   0  0  0  0  0  0  0  0  0  0  0  0
    3.1750   -1.2156   -0.7826 C   0  0  0  0  0  0  0  0  0  0  0  0
    3.8273   -0.7052    0.4419 N   0  0  0  0  0  0  0  0  0  0  0  0
    5.1686   -0.3388    0.3815 C   0  0  0  0  0  0  0  0  0  0  0  0
    6.1016   -1.1434   -0.2760 C   0  0  0  0  0  0  0  0  0  0  0  0
    7.4466   -0.7758   -0.3111 C   0  0  0  0  0  0  0  0  0  0  0  0
    7.8455    0.3889    0.3234 C   0  0  0  0  0  0  0  0  0  0  0  0
    6.8761    1.1284    0.9713 C   0  0  0  0  0  0  0  0  0  0  0  0
    5.5682    0.7868    1.0149 N   0  0  0  0  0  0  0  0  0  0  0  0
    2.9805    0.1291    1.3153 C   0  0  0  0  0  0  0  0  0  0  0  0
    1.5258   -0.3851    1.2954 C   0  0  0  0  0  0  0  0  0  0  0  0
   -1.4185   -0.9316    0.3496 C   0  0  0  0  0  0  0  0  0  0  0  0
   -1.9534    0.3473    0.7649 N   0  0  0  0  0  0  0  0  0  0  0  0
   -1.2837    1.6207    0.5237 C   0  0  0  0  0  0  0  0  0  0  0  0
   -1.7311    2.2721   -0.7747 C   0  0  0  0  0  0  0  0  0  0  0  0
   -1.1888    1.8785   -2.0059 C   0  0  0  0  0  0  0  0  0  0  0  0
   -1.6170    2.4698   -3.1972 C   0  0  0  0  0  0  0  0  0  0  0  0
   -2.5951    3.4599   -3.1647 C   0  0  0  0  0  0  0  0  0  0  0  0
   -3.1768    4.2577   -4.7760 Br  0  0  0  0  0  0  0  0  0  0  0  0
   -3.1494    3.8635   -1.9529 C   0  0  0  0  0  0  0  0  0  0  0  0
   -2.7187    3.2706   -0.7638 C   0  0  0  0  0  0  0  0  0  0  0  0
   -3.2767    0.4398    1.2344 C   0  0  0  0  0  0  0  0  0  0  0  0
   -3.7361    1.4751    1.7251 O   0  0  0  0  0  0  0  0  0  0  0  0
   -7.3400   -1.7110    2.1266 H   0  0  0  0  0  0  0  0  0  0  0  0
   -6.7488   -1.7344    0.4573 H   0  0  0  0  0  0  0  0  0  0  0  0
   -6.0602   -2.8376    1.6667 H   0  0  0  0  0  0  0  0  0  0  0  0
   -5.9056    0.2132    1.8037 H   0  0  0  0  0  0  0  0  0  0  0  0
   -5.1221   -0.8967    2.9215 H   0  0  0  0  0  0  0  0  0  0  0  0
   -4.4978   -0.7165   -0.0799 H   0  0  0  0  0  0  0  0  0  0  0  0
   -3.9360   -2.8930    0.9645 H   0  0  0  0  0  0  0  0  0  0  0  0
   -0.4530   -4.3521   -0.9939 H   0  0  0  0  0  0  0  0  0  0  0  0
    2.2531    0.6367   -1.3942 H   0  0  0  0  0  0  0  0  0  0  0  0
    1.4816   -0.7664   -2.0898 H   0  0  0  0  0  0  0  0  0  0  0  0
    2.8949   -2.2600   -0.6051 H   0  0  0  0  0  0  0  0  0  0  0  0
    3.8492   -1.2048   -1.6471 H   0  0  0  0  0  0  0  0  0  0  0  0
    5.7973   -2.0753   -0.7395 H   0  0  0  0  0  0  0  0  0  0  0  0
    8.1723   -1.4037   -0.8191 H   0  0  0  0  0  0  0  0  0  0  0  0
    8.8816    0.7063    0.3229 H   0  0  0  0  0  0  0  0  0  0  0  0
    7.1288    2.0455    1.4954 H   0  0  0  0  0  0  0  0  0  0  0  0
    3.3506    0.0845    2.3470 H   0  0  0  0  0  0  0  0  0  0  0  0
    2.9949    1.1766    0.9858 H   0  0  0  0  0  0  0  0  0  0  0  0
    1.5257   -1.4291    1.6411 H   0  0  0  0  0  0  0  0  0  0  0  0
    0.9305    0.1976    2.0076 H   0  0  0  0  0  0  0  0  0  0  0  0
   -0.1998    1.5706    0.5568 H   0  0  0  0  0  0  0  0  0  0  0  0
   -1.5261    2.2988    1.3534 H   0  0  0  0  0  0  0  0  0  0  0  0
   -0.4264    1.1068   -2.0481 H   0  0  0  0  0  0  0  0  0  0  0  0
   -1.1825    2.1495   -4.1403 H   0  0  0  0  0  0  0  0  0  0  0  0
   -3.9161    4.6323   -1.9197 H   0  0  0  0  0  0  0  0  0  0  0  0
   -3.1667    3.5881    0.1774 H   0  0  0  0  0  0  0  0  0  0  0  0
  1  2  1  0
  2  3  1  0
  3  4  1  0
  4  5  1  0
  5  6  2  0
  6  7  1  0
  7  8  2  0
  8  9  1  0
  9 10  1  0
 10 11  1  0
 11 12  1  0
 12 13  1  0
 13 14  1  0
 14 15  2  0
 15 16  1  0
 16 17  2  0
 17 18  1  0
 18 19  2  0
 13 20  1  0
 20 21  1  0
  9 22  2  0
 22 23  1  0
 23 24  1  0
 24 25  1  0
 25 26  2  0
 26 27  1  0
 27 28  2  0
 28 29  1  0
 28 30  1  0
 30 31  2  0
 23 32  1  0
 32 33  2  0
 32  3  1  0
 22  5  1  0
 31 25  1  0
 21 10  1  0
 19 14  1  0
  1 34  1  0
  1 35  1  0
  1 36  1  0
  2 37  1  0
  2 38  1  0
  3 39  1  0
  4 40  1  0
  7 41  1  0
 11 42  1  0
 11 43  1  0
 12 44  1  0
 12 45  1  0
 15 46  1  0
 16 47  1  0
 17 48  1  0
 18 49  1  0
 20 50  1  0
 20 51  1  0
 21 52  1  0
 21 53  1  0
 24 54  1  0
 24 55  1  0
 26 56  1  0
 27 57  1  0
 30 58  1  0
 31 59  1  0
M  END
$$$$
