
     RDKit          3D

 56 60  0  0  0  0  0  0  0  0999 V2000
   -5.5904    0.4659    2.2554 C   0  0  0  0  0  0  0  0  0  0  0  0
   -4.1624    0.2198    1.8568 C   0  0  0  0  0  0  0  0  0  0  0  0
   -3.1509    0.8962    2.5577 C   0  0  0  0  0  0  0  0  0  0  0  0
   -1.8006    0.6911    2.2562 C   0  0  0  0  0  0  0  0  0  0  0  0
   -1.4073   -0.2067    1.2542 C   0  0  0  0  0  0  0  0  0  0  0  0
    0.0196   -0.4012    0.9410 C   0  0  0  0  0  0  0  0  0  0  0  0
    0.6524    0.7416    0.6004 N   0  0  0  0  0  0  0  0  0  0  0  0
    1.9717    0.7230    0.2431 N   0  0  0  0  0  0  0  0  0  0  0  0
    2.6711   -0.4292    0.2151 C   0  0  0  0  0  0  0  0  0  0  0  0
    4.0300   -0.4276   -0.2034 N   0  0  0  0  0  0  0  0  0  0  0  0
    4.8906    0.6810   -0.3821 C   0  0  0  0  0  0  0  0  0  0  0  0
    5.9883    0.5531   -1.2692 C   0  0  0  0  0  0  0  0  0  0  0  0
    6.9172    1.5850   -1.4433 C   0  0  0  0  0  0  0  0  0  0  0  0
    6.7440    2.7296   -0.7016 C   0  0  0  0  0  0  0  0  0  0  0  0
    5.7057    2.8600    0.1862 C   0  0  0  0  0  0  0  0  0  0  0  0
    4.7749    1.8536    0.3769 C   0  0  0  0  0  0  0  0  0  0  0  0
    5.7265    4.0581    0.8341 O   0  0  0  0  0  0  0  0  0  0  0  0
    6.8805    4.6737    0.2304 C   0  0  0  0  0  0  0  0  0  0  0  0
    7.5426    3.8303   -0.7348 O   0  0  0  0  0  0  0  0  0  0  0  0
    2.0613   -1.6482    0.5917 C   0  0  0  0  0  0  0  0  0  0  0  0
    2.7577   -2.8837    0.6208 C   0  0  0  0  0  0  0  0  0  0  0  0
    2.1358   -4.0712    1.0008 C   0  0  0  0  0  0  0  0  0  0  0  0
    0.8040   -4.0567    1.3808 C   0  0  0  0  0  0  0  0  0  0  0  0
    0.0964   -2.8564    1.3741 C   0  0  0  0  0  0  0  0  0  0  0  0
    0.6966   -1.6358    0.9710 C   0  0  0  0  0  0  0  0  0  0  0  0
   -2.4164   -0.8774    0.5457 C   0  0  0  0  0  0  0  0  0  0  0  0
   -3.7769   -0.6765    0.8444 C   0  0  0  0  0  0  0  0  0  0  0  0
   -4.9646   -1.6360   -0.0806 S   0  0  0  0  0  6  0  0  0  0  0  0
   -4.2467   -2.6261   -0.8525 O   0  0  0  0  0  0  0  0  0  0  0  0
   -6.0444   -2.0169    0.8019 O   0  0  0  0  0  0  0  0  0  0  0  0
   -5.5929   -0.5225   -1.1636 N   0  0  0  0  0  0  0  0  0  0  0  0
   -4.6932    0.2023   -2.0782 C   0  0  0  0  0  0  0  0  0  0  0  0
   -5.3937    0.3740   -3.4268 C   0  0  0  0  0  0  0  0  0  0  0  0
   -5.6684   -0.8986   -4.0053 O   0  0  0  0  0  0  0  0  0  0  0  0
   -5.6778    1.3653    2.8766 H   0  0  0  0  0  0  0  0  0  0  0  0
   -6.2235    0.6341    1.3785 H   0  0  0  0  0  0  0  0  0  0  0  0
   -5.9729   -0.3777    2.8397 H   0  0  0  0  0  0  0  0  0  0  0  0
   -3.4039    1.5957    3.3536 H   0  0  0  0  0  0  0  0  0  0  0  0
   -1.0451    1.2428    2.8145 H   0  0  0  0  0  0  0  0  0  0  0  0
    4.1438   -1.1127   -0.9460 H   0  0  0  0  0  0  0  0  0  0  0  0
    6.1251   -0.3664   -1.8368 H   0  0  0  0  0  0  0  0  0  0  0  0
    7.7480    1.4866   -2.1350 H   0  0  0  0  0  0  0  0  0  0  0  0
    3.9870    1.9878    1.1092 H   0  0  0  0  0  0  0  0  0  0  0  0
    7.5953    4.9299    1.0188 H   0  0  0  0  0  0  0  0  0  0  0  0
    6.5623    5.5962   -0.2698 H   0  0  0  0  0  0  0  0  0  0  0  0
    3.8132   -2.9325    0.3602 H   0  0  0  0  0  0  0  0  0  0  0  0
    2.6954   -5.0040    1.0094 H   0  0  0  0  0  0  0  0  0  0  0  0
    0.3133   -4.9750    1.6923 H   0  0  0  0  0  0  0  0  0  0  0  0
   -0.9410   -2.8884    1.7028 H   0  0  0  0  0  0  0  0  0  0  0  0
   -2.1349   -1.5645   -0.2525 H   0  0  0  0  0  0  0  0  0  0  0  0
   -6.4536   -0.0705   -0.8584 H   0  0  0  0  0  0  0  0  0  0  0  0
   -3.7672   -0.3607   -2.2296 H   0  0  0  0  0  0  0  0  0  0  0  0
   -4.4535    1.1805   -1.6510 H   0  0  0  0  0  0  0  0  0  0  0  0
   -4.7589    0.9348   -4.1199 H   0  0  0  0  0  0  0  0  0  0  0  0
   -6.3439    0.9086   -3.3156 H   0  0  0  0  0  0  0  0  0  0  0  0
   -5.9655   -1.4776   -3.2775 H   0  0  0  0  0  0  0  0  0  0  0  0
  1  2  1  0
  2  3  2  0
  3  4  1  0
  4  5  2  0
  5  6  1  0
  6  7  2  0
  7  8  1  0
  8  9  2  0
  9 10  1  0
 10 11  1  0
 11 12  2  0
 12 13  1  0
 13 14  2  0
 14 15  1  0
 15 16  2  0
 15 17  1  0
 17 18  1  0
 18 19  1  0
  9 20  1  0
 20 21  2  0
 21 22  1  0
 22 23  2  0
 23 24  1  0
 24 25  2  0
  5 26  1  0
 26 27  2  0
 27 28  1  0
 28 29  2  0
 28 30  2  0
 28 31  1  0
 31 32  1  0
 32 33  1  0
 33 34  1  0
 27  2  1  0
 25  6  1  0
 16 11  1  0
 25 20  1  0
 19 14  1  0
  1 35  1  0
  1 36  1  0
  1 37  1  0
  3 38  1  0
  4 39  1  0
 10 40  1  0
 12 41  1  0
 13 42  1  0
 16 43  1  0
 18 44  1  0
 18 45  1  0
 21 46  1  0
 22 47  1  0
 23 48  1  0
 24 49  1  0
 26 50  1  0
 31 51  1  0
 32 52  1  0
 32 53  1  0
 33 54  1  0
 33 55  1  0
 34 56  1  0
M  END
$$$$
