
     RDKit          3D

 44 46  0  0  0  0  0  0  0  0999 V2000
   -2.9813   -2.8432    3.4993 C   0  0  0  0  0  0  0  0  0  0  0  0
   -2.4862   -2.4943    2.1270 C   0  0  0  0  0  0  0  0  0  0  0  0
   -1.6314   -3.3557    1.4407 C   0  0  0  0  0  0  0  0  0  0  0  0
   -1.1297   -3.0339    0.1652 C   0  0  0  0  0  0  0  0  0  0  0  0
   -0.2543   -4.0682   -0.4935 C   0  0  0  0  0  0  0  0  0  0  0  0
   -1.5021   -1.7995   -0.4333 C   0  0  0  0  0  0  0  0  0  0  0  0
   -0.8625   -1.3900   -2.0757 S   0  0  0  0  0  6  0  0  0  0  0  0
   -1.5099   -0.2041   -2.5909 O   0  0  0  0  0  0  0  0  0  0  0  0
   -0.8585   -2.6024   -2.8686 O   0  0  0  0  0  0  0  0  0  0  0  0
    0.7601   -1.0189   -1.7792 N   0  0  0  0  0  0  0  0  0  0  0  0
    1.0933   -0.0418   -0.8036 C   0  0  0  0  0  0  0  0  0  0  0  0
    1.7070   -0.4513    0.3805 C   0  0  0  0  0  0  0  0  0  0  0  0
    2.0088    0.4852    1.3702 C   0  0  0  0  0  0  0  0  0  0  0  0
    1.6969    1.8302    1.1675 C   0  0  0  0  0  0  0  0  0  0  0  0
    1.9851    2.7425    2.1468 O   0  0  0  0  0  0  0  0  0  0  0  0
    1.0889    2.2531   -0.0231 C   0  0  0  0  0  0  0  0  0  0  0  0
    0.6617    3.9615   -0.3140 S   0  0  0  0  0  0  0  0  0  0  0  0
    2.1439    4.5914   -0.9870 C   0  0  0  0  0  0  0  0  0  0  0  0
    3.2206    3.8223   -1.3544 N   0  0  0  0  0  0  0  0  0  0  0  0
    4.0706    4.7028   -1.8248 C   0  0  0  0  0  0  0  0  0  0  0  0
    3.5250    5.9432   -1.7475 N   0  0  0  0  0  0  0  0  0  0  0  0
    2.2925    5.9012   -1.2235 N   0  0  0  0  0  0  0  0  0  0  0  0
    0.7844    1.3023   -1.0061 C   0  0  0  0  0  0  0  0  0  0  0  0
   -2.3713   -0.9168    0.2555 C   0  0  0  0  0  0  0  0  0  0  0  0
   -2.8639    0.3990   -0.2861 C   0  0  0  0  0  0  0  0  0  0  0  0
   -2.8380   -1.2815    1.5341 C   0  0  0  0  0  0  0  0  0  0  0  0
   -2.2854   -2.4657    4.2547 H   0  0  0  0  0  0  0  0  0  0  0  0
   -3.9706   -2.4101    3.6804 H   0  0  0  0  0  0  0  0  0  0  0  0
   -3.0766   -3.9276    3.6164 H   0  0  0  0  0  0  0  0  0  0  0  0
   -1.3577   -4.3026    1.9058 H   0  0  0  0  0  0  0  0  0  0  0  0
    0.0673   -4.8320    0.2239 H   0  0  0  0  0  0  0  0  0  0  0  0
   -0.8036   -4.5832   -1.2868 H   0  0  0  0  0  0  0  0  0  0  0  0
    0.6625   -3.6273   -0.8890 H   0  0  0  0  0  0  0  0  0  0  0  0
    1.3774   -1.8180   -1.8977 H   0  0  0  0  0  0  0  0  0  0  0  0
    1.9422   -1.4981    0.5512 H   0  0  0  0  0  0  0  0  0  0  0  0
    2.4772    0.1498    2.2903 H   0  0  0  0  0  0  0  0  0  0  0  0
    2.4411    2.2983    2.8786 H   0  0  0  0  0  0  0  0  0  0  0  0
    5.0563    4.5069   -2.2212 H   0  0  0  0  0  0  0  0  0  0  0  0
    3.9156    6.8352   -2.0283 H   0  0  0  0  0  0  0  0  0  0  0  0
    0.3131    1.6144   -1.9357 H   0  0  0  0  0  0  0  0  0  0  0  0
   -3.4930    0.2386   -1.1666 H   0  0  0  0  0  0  0  0  0  0  0  0
   -3.4840    0.9283    0.4467 H   0  0  0  0  0  0  0  0  0  0  0  0
   -2.0316    1.0671   -0.5157 H   0  0  0  0  0  0  0  0  0  0  0  0
   -3.5003   -0.6069    2.0766 H   0  0  0  0  0  0  0  0  0  0  0  0
  1  2  1  0
  2  3  2  0
  3  4  1  0
  4  5  1  0
  4  6  2  0
  6  7  1  0
  7  8  2  0
  7  9  2  0
  7 10  1  0
 10 11  1  0
 11 12  2  0
 12 13  1  0
 13 14  2  0
 14 15  1  0
 14 16  1  0
 16 17  1  0
 17 18  1  0
 18 19  1  0
 19 20  2  0
 20 21  1  0
 21 22  1  0
 16 23  2  0
  6 24  1  0
 24 25  1  0
 24 26  2  0
 26  2  1  0
 23 11  1  0
 22 18  2  0
  1 27  1  0
  1 28  1  0
  1 29  1  0
  3 30  1  0
  5 31  1  0
  5 32  1  0
  5 33  1  0
 10 34  1  0
 12 35  1  0
 13 36  1  0
 15 37  1  0
 20 38  1  0
 21 39  1  0
 23 40  1  0
 25 41  1  0
 25 42  1  0
 25 43  1  0
 26 44  1  0
M  END
$$$$
