
     RDKit          3D

 60 64  0  0  0  0  0  0  0  0999 V2000
   -0.2686   -2.7796    2.3710 C   0  0  0  0  0  0  0  0  0  0  0  0
   -1.3192   -1.8441    1.9806 N   0  0  0  0  0  0  0  0  0  0  0  0
   -2.5429   -2.3974    1.5984 C   0  0  0  0  0  0  0  0  0  0  0  0
   -2.7365   -3.6173    1.5992 O   0  0  0  0  0  0  0  0  0  0  0  0
   -3.6366   -1.4905    1.1173 C   0  0  0  0  0  0  0  0  0  0  0  0
   -4.5330   -2.0189    0.2616 C   0  0  0  0  0  0  0  0  0  0  0  0
   -5.7028   -1.3368   -0.3018 C   0  0  0  0  0  0  0  0  0  0  0  0
   -5.5587   -0.3851   -1.3163 C   0  0  0  0  0  0  0  0  0  0  0  0
   -6.6825    0.2556   -1.8450 C   0  0  0  0  0  0  0  0  0  0  0  0
   -7.9667   -0.0435   -1.3644 C   0  0  0  0  0  0  0  0  0  0  0  0
   -9.1816    0.6346   -1.9489 C   0  0  0  0  0  0  0  0  0  0  0  0
   -8.9287    1.9001   -2.3871 F   0  0  0  0  0  0  0  0  0  0  0  0
  -10.2106    0.7485   -1.0631 F   0  0  0  0  0  0  0  0  0  0  0  0
   -9.6837   -0.0381   -3.0211 F   0  0  0  0  0  0  0  0  0  0  0  0
   -8.1041   -1.0103   -0.3566 C   0  0  0  0  0  0  0  0  0  0  0  0
   -6.9800   -1.6510    0.1716 C   0  0  0  0  0  0  0  0  0  0  0  0
   -3.7534    0.0968    1.7626 S   0  0  0  0  0  0  0  0  0  0  0  0
   -2.0331    0.5180    1.8049 C   0  0  0  0  0  0  0  0  0  0  0  0
   -1.7191    1.8887    1.7774 C   0  0  0  0  0  0  0  0  0  0  0  0
   -0.3979    2.3191    1.8605 C   0  0  0  0  0  0  0  0  0  0  0  0
    0.6175    1.3742    1.9654 C   0  0  0  0  0  0  0  0  0  0  0  0
    2.0169    1.8421    2.0779 C   0  0  0  0  0  0  0  0  0  0  0  0
    2.2774    2.6495    2.9659 O   0  0  0  0  0  0  0  0  0  0  0  0
    2.9617    1.3513    1.1850 N   0  0  0  0  0  0  0  0  0  0  0  0
    2.6367    0.6691   -0.0783 C   0  0  0  0  0  0  0  0  0  0  0  0
    3.7409    0.8067   -1.1429 C   0  0  0  0  0  0  0  0  0  0  0  0
    5.0270    0.3418   -0.6026 N   0  0  0  0  0  0  0  0  0  0  0  0
    6.0644    0.2432   -1.5302 C   0  0  0  0  0  0  0  0  0  0  0  0
    7.2944   -0.3132   -1.1711 C   0  0  0  0  0  0  0  0  0  0  0  0
    8.3189   -0.4201   -2.1118 C   0  0  0  0  0  0  0  0  0  0  0  0
    8.0973    0.0228   -3.4049 C   0  0  0  0  0  0  0  0  0  0  0  0
    6.8534    0.5456   -3.6980 C   0  0  0  0  0  0  0  0  0  0  0  0
    5.8486    0.6560   -2.7994 N   0  0  0  0  0  0  0  0  0  0  0  0
    5.3713    0.7895    0.7608 C   0  0  0  0  0  0  0  0  0  0  0  0
    4.3506    1.7890    1.3369 C   0  0  0  0  0  0  0  0  0  0  0  0
    0.3122    0.0081    2.0273 C   0  0  0  0  0  0  0  0  0  0  0  0
   -1.0175   -0.4439    1.9324 C   0  0  0  0  0  0  0  0  0  0  0  0
    0.4665   -2.8506    1.5631 H   0  0  0  0  0  0  0  0  0  0  0  0
   -0.6586   -3.7837    2.5604 H   0  0  0  0  0  0  0  0  0  0  0  0
    0.2072   -2.4403    3.2968 H   0  0  0  0  0  0  0  0  0  0  0  0
   -4.4315   -3.0529   -0.0663 H   0  0  0  0  0  0  0  0  0  0  0  0
   -4.5725   -0.1352   -1.7014 H   0  0  0  0  0  0  0  0  0  0  0  0
   -6.5515    0.9944   -2.6346 H   0  0  0  0  0  0  0  0  0  0  0  0
   -9.0910   -1.2672    0.0263 H   0  0  0  0  0  0  0  0  0  0  0  0
   -7.1086   -2.3925    0.9578 H   0  0  0  0  0  0  0  0  0  0  0  0
   -2.5095    2.6344    1.7050 H   0  0  0  0  0  0  0  0  0  0  0  0
   -0.1644    3.3815    1.8537 H   0  0  0  0  0  0  0  0  0  0  0  0
    1.6926    1.0577   -0.4739 H   0  0  0  0  0  0  0  0  0  0  0  0
    2.4982   -0.3912    0.1620 H   0  0  0  0  0  0  0  0  0  0  0  0
    3.4444    0.2077   -2.0130 H   0  0  0  0  0  0  0  0  0  0  0  0
    3.8182    1.8559   -1.4571 H   0  0  0  0  0  0  0  0  0  0  0  0
    7.4593   -0.6882   -0.1669 H   0  0  0  0  0  0  0  0  0  0  0  0
    9.2745   -0.8537   -1.8329 H   0  0  0  0  0  0  0  0  0  0  0  0
    8.8669   -0.0452   -4.1648 H   0  0  0  0  0  0  0  0  0  0  0  0
    6.6176    0.9013   -4.6967 H   0  0  0  0  0  0  0  0  0  0  0  0
    5.4040   -0.0977    1.4046 H   0  0  0  0  0  0  0  0  0  0  0  0
    6.3583    1.2666    0.8019 H   0  0  0  0  0  0  0  0  0  0  0  0
    4.4370    2.7520    0.8180 H   0  0  0  0  0  0  0  0  0  0  0  0
    4.5720    1.9712    2.3945 H   0  0  0  0  0  0  0  0  0  0  0  0
    1.1393   -0.6846    2.1496 H   0  0  0  0  0  0  0  0  0  0  0  0
  1  2  1  0
  2  3  1  0
  3  4  2  0
  3  5  1  0
  5  6  2  3
  6  7  1  0
  7  8  2  0
  8  9  1  0
  9 10  2  0
 10 11  1  0
 11 12  1  0
 11 13  1  0
 11 14  1  0
 10 15  1  0
 15 16  2  0
  5 17  1  0
 17 18  1  0
 18 19  2  0
 19 20  1  0
 20 21  2  0
 21 22  1  0
 22 23  2  0
 22 24  1  0
 24 25  1  0
 25 26  1  0
 26 27  1  0
 27 28  1  0
 28 29  2  0
 29 30  1  0
 30 31  2  0
 31 32  1  0
 32 33  2  0
 27 34  1  0
 34 35  1  0
 21 36  1  0
 36 37  2  0
 37  2  1  0
 16  7  1  0
 37 18  1  0
 35 24  1  0
 33 28  1  0
  1 38  1  0
  1 39  1  0
  1 40  1  0
  6 41  1  0
  8 42  1  0
  9 43  1  0
 15 44  1  0
 16 45  1  0
 19 46  1  0
 20 47  1  0
 25 48  1  0
 25 49  1  0
 26 50  1  0
 26 51  1  0
 29 52  1  0
 30 53  1  0
 31 54  1  0
 32 55  1  0
 34 56  1  0
 34 57  1  0
 35 58  1  0
 35 59  1  0
 36 60  1  0
M  END
$$$$
