
     RDKit          3D

 47 50  0  0  0  0  0  0  0  0999 V2000
   -2.5790   -3.2627    1.7392 C   0  0  0  0  0  0  0  0  0  0  0  0
   -1.5703   -2.4738    0.9541 C   0  0  0  0  0  0  0  0  0  0  0  0
   -0.4498   -3.0543    0.6256 N   0  0  0  0  0  0  0  0  0  0  0  0
    0.5294   -2.3739   -0.1041 N   0  0  0  0  0  0  0  0  0  0  0  0
    1.7321   -3.1260   -0.4327 C   0  0  0  0  0  0  0  0  0  0  0  0
    2.8974   -2.6390    0.4270 C   0  0  0  0  0  0  0  0  0  0  0  0
    3.1229   -3.0687    1.5554 O   0  0  0  0  0  0  0  0  0  0  0  0
    3.6410   -1.6351   -0.1570 N   0  0  0  0  0  0  0  0  0  0  0  0
    4.6576   -0.9511    0.6059 C   0  0  0  0  0  0  0  0  0  0  0  0
    5.4617   -0.1057   -0.3297 C   0  0  0  0  0  0  0  0  0  0  0  0
    5.1219    1.1086   -0.8983 C   0  0  0  0  0  0  0  0  0  0  0  0
    6.1487    1.6183   -1.7464 C   0  0  0  0  0  0  0  0  0  0  0  0
    7.2384    0.7796   -1.7973 C   0  0  0  0  0  0  0  0  0  0  0  0
    7.0217   -0.6128   -0.8278 S   0  0  0  0  0  0  0  0  0  0  0  0
    0.4114   -1.0572   -0.5867 C   0  0  0  0  0  0  0  0  0  0  0  0
    1.2917   -0.5050   -1.2483 O   0  0  0  0  0  0  0  0  0  0  0  0
   -0.8428   -0.4265   -0.2028 C   0  0  0  0  0  0  0  0  0  0  0  0
   -1.2109    0.8267   -0.4686 N   0  0  0  0  0  0  0  0  0  0  0  0
   -2.4785    0.9351    0.0198 N   0  0  0  0  0  0  0  0  0  0  0  0
   -3.2349    2.1070   -0.2980 C   0  0  0  0  0  0  0  0  0  0  0  0
   -2.5580    3.2376   -0.7892 C   0  0  0  0  0  0  0  0  0  0  0  0
   -3.2581    4.4017   -1.1172 C   0  0  0  0  0  0  0  0  0  0  0  0
   -4.6414    4.4463   -0.9732 C   0  0  0  0  0  0  0  0  0  0  0  0
   -5.3262    3.3243   -0.5128 C   0  0  0  0  0  0  0  0  0  0  0  0
   -4.6296    2.1561   -0.1828 C   0  0  0  0  0  0  0  0  0  0  0  0
   -2.8184   -0.1929    0.7782 C   0  0  0  0  0  0  0  0  0  0  0  0
   -4.0039   -0.2876    1.6696 C   0  0  0  0  0  0  0  0  0  0  0  0
   -1.8035   -1.1078    0.5514 C   0  0  0  0  0  0  0  0  0  0  0  0
   -3.5649   -3.1816    1.2771 H   0  0  0  0  0  0  0  0  0  0  0  0
   -2.6179   -2.8882    2.7638 H   0  0  0  0  0  0  0  0  0  0  0  0
   -2.2957   -4.3181    1.7702 H   0  0  0  0  0  0  0  0  0  0  0  0
    1.5752   -4.1941   -0.2469 H   0  0  0  0  0  0  0  0  0  0  0  0
    1.9667   -2.9972   -1.4955 H   0  0  0  0  0  0  0  0  0  0  0  0
    3.1661   -1.0887   -0.8759 H   0  0  0  0  0  0  0  0  0  0  0  0
    5.2711   -1.6856    1.1416 H   0  0  0  0  0  0  0  0  0  0  0  0
    4.1572   -0.3260    1.3549 H   0  0  0  0  0  0  0  0  0  0  0  0
    4.1750    1.6052   -0.7187 H   0  0  0  0  0  0  0  0  0  0  0  0
    6.0892    2.5516   -2.2937 H   0  0  0  0  0  0  0  0  0  0  0  0
    8.1541    0.9142   -2.3578 H   0  0  0  0  0  0  0  0  0  0  0  0
   -1.4757    3.2326   -0.9136 H   0  0  0  0  0  0  0  0  0  0  0  0
   -2.7196    5.2696   -1.4890 H   0  0  0  0  0  0  0  0  0  0  0  0
   -5.1871    5.3507   -1.2320 H   0  0  0  0  0  0  0  0  0  0  0  0
   -6.4099    3.3531   -0.4228 H   0  0  0  0  0  0  0  0  0  0  0  0
   -5.2203    1.2984    0.1141 H   0  0  0  0  0  0  0  0  0  0  0  0
   -3.8045   -0.9442    2.5196 H   0  0  0  0  0  0  0  0  0  0  0  0
   -4.2663    0.6802    2.1058 H   0  0  0  0  0  0  0  0  0  0  0  0
   -4.8632   -0.6933    1.1293 H   0  0  0  0  0  0  0  0  0  0  0  0
  1  2  1  0
  2  3  2  0
  3  4  1  0
  4  5  1  0
  5  6  1  0
  6  7  2  0
  6  8  1  0
  8  9  1  0
  9 10  1  0
 10 11  2  0
 11 12  1  0
 12 13  2  0
 13 14  1  0
  4 15  1  0
 15 16  2  0
 15 17  1  0
 17 18  2  0
 18 19  1  0
 19 20  1  0
 20 21  2  0
 21 22  1  0
 22 23  2  0
 23 24  1  0
 24 25  2  0
 19 26  1  0
 26 27  1  0
 26 28  2  0
 28  2  1  0
 14 10  1  0
 28 17  1  0
 25 20  1  0
  1 29  1  0
  1 30  1  0
  1 31  1  0
  5 32  1  0
  5 33  1  0
  8 34  1  0
  9 35  1  0
  9 36  1  0
 11 37  1  0
 12 38  1  0
 13 39  1  0
 21 40  1  0
 22 41  1  0
 23 42  1  0
 24 43  1  0
 25 44  1  0
 27 45  1  0
 27 46  1  0
 27 47  1  0
M  END
$$$$
