
     RDKit          3D

 39 40  0  0  0  0  0  0  0  0999 V2000
   -1.0055   -3.1267    1.1107 C   0  0  0  0  0  0  0  0  0  0  0  0
   -1.3508   -1.7820    0.4738 C   0  0  0  0  0  0  0  0  0  0  0  0
   -2.6215   -1.3902    1.0059 O   0  0  0  0  0  0  0  0  0  0  0  0
   -3.3331   -0.6111    0.1316 C   0  0  0  0  0  0  0  0  0  0  0  0
   -3.3244    0.7697    0.3434 C   0  0  0  0  0  0  0  0  0  0  0  0
   -4.0681    1.6101   -0.4870 C   0  0  0  0  0  0  0  0  0  0  0  0
   -4.8372    1.0550   -1.5188 C   0  0  0  0  0  0  0  0  0  0  0  0
   -5.6218    1.9347   -2.3942 N   0  0  0  0  0  4  0  0  0  0  0  0
   -6.2558    1.4073   -3.3187 O   0  0  0  0  0  0  0  0  0  0  0  0
   -5.5997    3.1506   -2.1592 O   0  0  0  0  0  1  0  0  0  0  0  0
   -4.8730   -0.3317   -1.7202 C   0  0  0  0  0  0  0  0  0  0  0  0
   -4.1254   -1.1631   -0.8840 C   0  0  0  0  0  0  0  0  0  0  0  0
   -4.2167   -2.8689   -1.1312 Cl  0  0  0  0  0  0  0  0  0  0  0  0
   -0.2176   -0.7697    0.7749 C   0  0  0  0  0  0  0  0  0  0  0  0
   -0.3715    0.1650    1.5559 O   0  0  0  0  0  0  0  0  0  0  0  0
    0.9439   -1.0431    0.0608 N   0  0  0  0  0  0  0  0  0  0  0  0
    2.1597   -0.3285    0.0894 C   0  0  0  0  0  0  0  0  0  0  0  0
    3.1968   -0.8039   -0.7231 C   0  0  0  0  0  0  0  0  0  0  0  0
    4.4354   -0.1544   -0.7537 C   0  0  0  0  0  0  0  0  0  0  0  0
    4.6584    0.9786    0.0348 C   0  0  0  0  0  0  0  0  0  0  0  0
    5.9916    1.6347   -0.0335 C   0  0  0  0  0  0  0  0  0  0  0  0
    6.3537    2.4477    1.0044 N   0  0  0  0  0  0  0  0  0  0  0  0
    6.7585    1.4321   -0.9665 O   0  0  0  0  0  0  0  0  0  0  0  0
    3.6221    1.4653    0.8369 C   0  0  0  0  0  0  0  0  0  0  0  0
    2.3823    0.8111    0.8650 C   0  0  0  0  0  0  0  0  0  0  0  0
   -0.0694   -3.5377    0.7208 H   0  0  0  0  0  0  0  0  0  0  0  0
   -1.8043   -3.8543    0.9321 H   0  0  0  0  0  0  0  0  0  0  0  0
   -0.9045   -3.0256    2.1975 H   0  0  0  0  0  0  0  0  0  0  0  0
   -1.4031   -1.9165   -0.6154 H   0  0  0  0  0  0  0  0  0  0  0  0
   -2.7389    1.1917    1.1588 H   0  0  0  0  0  0  0  0  0  0  0  0
   -4.0416    2.6843   -0.3115 H   0  0  0  0  0  0  0  0  0  0  0  0
   -5.4814   -0.7681   -2.5096 H   0  0  0  0  0  0  0  0  0  0  0  0
    0.9254   -1.8455   -0.5569 H   0  0  0  0  0  0  0  0  0  0  0  0
    3.0626   -1.6838   -1.3474 H   0  0  0  0  0  0  0  0  0  0  0  0
    5.2279   -0.5368   -1.3949 H   0  0  0  0  0  0  0  0  0  0  0  0
    7.3093    2.7816    0.9899 H   0  0  0  0  0  0  0  0  0  0  0  0
    5.8855    2.4265    1.8985 H   0  0  0  0  0  0  0  0  0  0  0  0
    3.7433    2.3664    1.4309 H   0  0  0  0  0  0  0  0  0  0  0  0
    1.6090    1.2292    1.5022 H   0  0  0  0  0  0  0  0  0  0  0  0
  1  2  1  0
  2  3  1  0
  3  4  1  0
  4  5  2  0
  5  6  1  0
  6  7  2  0
  7  8  1  0
  8  9  2  0
  8 10  1  0
  7 11  1  0
 11 12  2  0
 12 13  1  0
  2 14  1  0
 14 15  2  0
 14 16  1  0
 16 17  1  0
 17 18  2  0
 18 19  1  0
 19 20  2  0
 20 21  1  0
 21 22  1  0
 21 23  2  0
 20 24  1  0
 24 25  2  0
 12  4  1  0
 25 17  1  0
  1 26  1  0
  1 27  1  0
  1 28  1  0
  2 29  1  0
  5 30  1  0
  6 31  1  0
 11 32  1  0
 16 33  1  0
 18 34  1  0
 19 35  1  0
 22 36  1  0
 22 37  1  0
 24 38  1  0
 25 39  1  0
M  CHG  2   8   1  10  -1
M  END
$$$$
