
     RDKit          3D

 46 49  0  0  0  0  0  0  0  0999 V2000
   -6.2224    0.5714   -2.0187 C   0  0  0  0  0  0  0  0  0  0  0  0
   -4.9859    1.1458   -1.6142 O   0  0  0  0  0  0  0  0  0  0  0  0
   -4.0612    0.3015   -1.0640 C   0  0  0  0  0  0  0  0  0  0  0  0
   -4.2442   -1.0501   -0.7951 C   0  0  0  0  0  0  0  0  0  0  0  0
   -3.2068   -1.7914   -0.2269 C   0  0  0  0  0  0  0  0  0  0  0  0
   -1.9841   -1.1828    0.0894 C   0  0  0  0  0  0  0  0  0  0  0  0
   -0.9779   -1.9434    0.6308 O   0  0  0  0  0  0  0  0  0  0  0  0
   -1.3353   -2.5105    1.8903 C   0  0  0  0  0  0  0  0  0  0  0  0
   -1.7562    0.1769   -0.1971 C   0  0  0  0  0  0  0  0  0  0  0  0
   -0.4811    0.8662    0.0774 C   0  0  0  0  0  0  0  0  0  0  0  0
   -0.5515    2.1830    0.3900 N   0  0  0  0  0  0  0  0  0  0  0  0
    0.6267    2.8141    0.6224 C   0  0  0  0  0  0  0  0  0  0  0  0
    0.5595    4.2588    0.9785 C   0  0  0  0  0  0  0  0  0  0  0  0
   -0.6977    4.7959    1.0361 N   0  0  0  0  0  0  0  0  0  0  0  0
    1.5601    4.9264    1.2099 O   0  0  0  0  0  0  0  0  0  0  0  0
    1.8217    2.1647    0.5426 C   0  0  0  0  0  0  0  0  0  0  0  0
    3.1294    2.5757    0.7397 N   0  0  0  0  0  0  0  0  0  0  0  0
    3.9784    1.4796    0.5353 C   0  0  0  0  0  0  0  0  0  0  0  0
    5.1916    1.5513    0.6427 O   0  0  0  0  0  0  0  0  0  0  0  0
    3.1402    0.3706    0.1996 N   0  0  0  0  0  0  0  0  0  0  0  0
    3.5516   -0.9631   -0.0810 C   0  0  0  0  0  0  0  0  0  0  0  0
    4.9080   -1.3281    0.0256 C   0  0  0  0  0  0  0  0  0  0  0  0
    5.3473   -2.6322   -0.2390 C   0  0  0  0  0  0  0  0  0  0  0  0
    4.4325   -3.5991   -0.6169 C   0  0  0  0  0  0  0  0  0  0  0  0
    4.8477   -4.8464   -0.8703 F   0  0  0  0  0  0  0  0  0  0  0  0
    3.0904   -3.2821   -0.7375 C   0  0  0  0  0  0  0  0  0  0  0  0
    2.6567   -1.9756   -0.4717 C   0  0  0  0  0  0  0  0  0  0  0  0
    1.7976    0.8326    0.2109 C   0  0  0  0  0  0  0  0  0  0  0  0
    0.6665    0.1655   -0.0302 N   0  0  0  0  0  0  0  0  0  0  0  0
   -2.8304    0.8980   -0.7653 C   0  0  0  0  0  0  0  0  0  0  0  0
   -6.0692   -0.2017   -2.7791 H   0  0  0  0  0  0  0  0  0  0  0  0
   -6.7727    0.1768   -1.1579 H   0  0  0  0  0  0  0  0  0  0  0  0
   -6.8288    1.3648   -2.4672 H   0  0  0  0  0  0  0  0  0  0  0  0
   -5.1751   -1.5602   -1.0194 H   0  0  0  0  0  0  0  0  0  0  0  0
   -3.3540   -2.8529   -0.0479 H   0  0  0  0  0  0  0  0  0  0  0  0
   -1.8276   -1.7774    2.5410 H   0  0  0  0  0  0  0  0  0  0  0  0
   -0.4133   -2.8349    2.3833 H   0  0  0  0  0  0  0  0  0  0  0  0
   -1.9698   -3.3927    1.7559 H   0  0  0  0  0  0  0  0  0  0  0  0
   -0.8126    5.7674    1.2910 H   0  0  0  0  0  0  0  0  0  0  0  0
   -1.5131    4.2173    0.8678 H   0  0  0  0  0  0  0  0  0  0  0  0
    3.4275    3.5111    0.9925 H   0  0  0  0  0  0  0  0  0  0  0  0
    5.6704   -0.6147    0.3260 H   0  0  0  0  0  0  0  0  0  0  0  0
    6.3984   -2.8885   -0.1476 H   0  0  0  0  0  0  0  0  0  0  0  0
    2.3796   -4.0456   -1.0370 H   0  0  0  0  0  0  0  0  0  0  0  0
    1.5944   -1.7965   -0.5939 H   0  0  0  0  0  0  0  0  0  0  0  0
   -2.7053    1.9546   -1.0010 H   0  0  0  0  0  0  0  0  0  0  0  0
  1  2  1  0
  2  3  1  0
  3  4  2  0
  4  5  1  0
  5  6  2  0
  6  7  1  0
  7  8  1  0
  6  9  1  0
  9 10  1  0
 10 11  2  0
 11 12  1  0
 12 13  1  0
 13 14  1  0
 13 15  2  0
 12 16  2  0
 16 17  1  0
 17 18  1  0
 18 19  2  0
 18 20  1  0
 20 21  1  0
 21 22  2  0
 22 23  1  0
 23 24  2  0
 24 25  1  0
 24 26  1  0
 26 27  2  0
 20 28  1  0
 28 29  2  0
  9 30  2  0
 30  3  1  0
 29 10  1  0
 28 16  1  0
 27 21  1  0
  1 31  1  0
  1 32  1  0
  1 33  1  0
  4 34  1  0
  5 35  1  0
  8 36  1  0
  8 37  1  0
  8 38  1  0
 14 39  1  0
 14 40  1  0
 17 41  1  0
 22 42  1  0
 23 43  1  0
 26 44  1  0
 27 45  1  0
 30 46  1  0
M  END
$$$$
