
     RDKit          3D

 49 52  0  0  0  0  0  0  0  0999 V2000
    2.7530   -0.3326    2.5715 C   0  0  0  0  0  0  0  0  0  0  0  0
    4.1228   -0.4487    1.9555 C   0  0  0  0  0  0  0  0  0  0  0  0
    5.2395   -0.1837    2.7719 C   0  0  0  0  0  0  0  0  0  0  0  0
    6.5296   -0.2626    2.2567 C   0  0  0  0  0  0  0  0  0  0  0  0
    7.8807    0.0499    3.2742 Cl  0  0  0  0  0  0  0  0  0  0  0  0
    6.7287   -0.5984    0.9247 C   0  0  0  0  0  0  0  0  0  0  0  0
    5.6290   -0.8581    0.1022 C   0  0  0  0  0  0  0  0  0  0  0  0
    4.3197   -0.7829    0.5964 C   0  0  0  0  0  0  0  0  0  0  0  0
    3.1953   -1.0742   -0.2137 N   0  0  0  0  0  0  0  0  0  0  0  0
    3.1713   -1.2532   -1.5885 C   0  0  0  0  0  0  0  0  0  0  0  0
    4.0996   -1.0311   -2.3628 O   0  0  0  0  0  0  0  0  0  0  0  0
    1.8433   -1.7834   -2.1088 C   0  0  0  0  0  0  0  0  0  0  0  0
    0.7269   -0.4244   -2.5461 S   0  0  0  0  0  0  0  0  0  0  0  0
    0.0247   -0.0640   -1.0109 C   0  0  0  0  0  0  0  0  0  0  0  0
    0.4126   -0.5627    0.1391 N   0  0  0  0  0  0  0  0  0  0  0  0
   -0.3661   -0.0101    1.1194 N   0  0  0  0  0  0  0  0  0  0  0  0
   -1.2278    0.8110    0.5491 C   0  0  0  0  0  0  0  0  0  0  0  0
   -2.2689    1.6065    1.2688 C   0  0  0  0  0  0  0  0  0  0  0  0
   -3.6267    0.9572    1.2643 C   0  0  0  0  0  0  0  0  0  0  0  0
   -3.9540   -0.3866    1.2789 C   0  0  0  0  0  0  0  0  0  0  0  0
   -5.3620   -0.6055    1.2807 C   0  0  0  0  0  0  0  0  0  0  0  0
   -6.0692    0.5769    1.2757 C   0  0  0  0  0  0  0  0  0  0  0  0
   -5.0346    1.9387    1.2843 S   0  0  0  0  0  0  0  0  0  0  0  0
   -1.0151    0.8034   -0.8153 N   0  0  0  0  0  0  0  0  0  0  0  0
   -1.7222    1.5803   -1.8169 C   0  0  0  0  0  0  0  0  0  0  0  0
   -2.9700    0.9100   -2.2627 C   0  0  0  0  0  0  0  0  0  0  0  0
   -4.2687    1.3481   -2.4260 C   0  0  0  0  0  0  0  0  0  0  0  0
   -5.0120    0.2356   -2.8893 C   0  0  0  0  0  0  0  0  0  0  0  0
   -4.1210   -0.8060   -2.9907 C   0  0  0  0  0  0  0  0  0  0  0  0
   -2.8789   -0.4036   -2.6225 O   0  0  0  0  0  0  0  0  0  0  0  0
    2.1872   -1.2621    2.4381 H   0  0  0  0  0  0  0  0  0  0  0  0
    2.8117   -0.1458    3.6492 H   0  0  0  0  0  0  0  0  0  0  0  0
    2.2129    0.5057    2.1215 H   0  0  0  0  0  0  0  0  0  0  0  0
    5.0997    0.0839    3.8180 H   0  0  0  0  0  0  0  0  0  0  0  0
    7.7318   -0.6676    0.5134 H   0  0  0  0  0  0  0  0  0  0  0  0
    5.8333   -1.1341   -0.9283 H   0  0  0  0  0  0  0  0  0  0  0  0
    2.2829   -1.0482    0.2412 H   0  0  0  0  0  0  0  0  0  0  0  0
    1.3870   -2.4775   -1.3934 H   0  0  0  0  0  0  0  0  0  0  0  0
    2.0508   -2.3614   -3.0164 H   0  0  0  0  0  0  0  0  0  0  0  0
   -2.3186    2.6171    0.8460 H   0  0  0  0  0  0  0  0  0  0  0  0
   -1.9530    1.7300    2.3130 H   0  0  0  0  0  0  0  0  0  0  0  0
   -3.2186   -1.1848    1.2761 H   0  0  0  0  0  0  0  0  0  0  0  0
   -5.8301   -1.5819    1.2844 H   0  0  0  0  0  0  0  0  0  0  0  0
   -7.1449    0.7045    1.2766 H   0  0  0  0  0  0  0  0  0  0  0  0
   -1.9398    2.5622   -1.3848 H   0  0  0  0  0  0  0  0  0  0  0  0
   -1.0601    1.7596   -2.6679 H   0  0  0  0  0  0  0  0  0  0  0  0
   -4.6382    2.3457   -2.2281 H   0  0  0  0  0  0  0  0  0  0  0  0
   -6.0678    0.1960   -3.1216 H   0  0  0  0  0  0  0  0  0  0  0  0
   -4.2060   -1.8399   -3.2964 H   0  0  0  0  0  0  0  0  0  0  0  0
  1  2  1  0
  2  3  2  0
  3  4  1  0
  4  5  1  0
  4  6  2  0
  6  7  1  0
  7  8  2  0
  8  9  1  0
  9 10  1  0
 10 11  2  0
 10 12  1  0
 12 13  1  0
 13 14  1  0
 14 15  2  0
 15 16  1  0
 16 17  2  0
 17 18  1  0
 18 19  1  0
 19 20  2  0
 20 21  1  0
 21 22  2  0
 22 23  1  0
 17 24  1  0
 24 25  1  0
 25 26  1  0
 26 27  2  0
 27 28  1  0
 28 29  2  0
 29 30  1  0
  8  2  1  0
 24 14  1  0
 30 26  1  0
 23 19  1  0
  1 31  1  0
  1 32  1  0
  1 33  1  0
  3 34  1  0
  6 35  1  0
  7 36  1  0
  9 37  1  0
 12 38  1  0
 12 39  1  0
 18 40  1  0
 18 41  1  0
 20 42  1  0
 21 43  1  0
 22 44  1  0
 25 45  1  0
 25 46  1  0
 27 47  1  0
 28 48  1  0
 29 49  1  0
M  END
$$$$
