
     RDKit          3D

 32 33  0  0  0  0  0  0  0  0999 V2000
    3.9715   -2.2377   -0.3449 C   0  0  0  0  0  0  0  0  0  0  0  0
    4.2943   -0.7612   -0.4979 C   0  0  0  0  0  0  0  0  0  0  0  0
    3.1759    0.2787    0.4873 S   0  0  0  0  0  0  0  0  0  0  0  0
    1.6803    0.1824   -0.3875 C   0  0  0  0  0  0  0  0  0  0  0  0
    1.4052    0.0228   -1.7245 C   0  0  0  0  0  0  0  0  0  0  0  0
    0.0561   -0.0059   -1.9472 N   0  0  0  0  0  0  0  0  0  0  0  0
   -0.5132    0.1705   -0.7689 C   0  0  0  0  0  0  0  0  0  0  0  0
   -1.9564    0.1977   -0.5454 C   0  0  0  0  0  0  0  0  0  0  0  0
   -2.6976   -0.9859   -0.6427 C   0  0  0  0  0  0  0  0  0  0  0  0
   -4.0762   -0.9751   -0.4221 C   0  0  0  0  0  0  0  0  0  0  0  0
   -4.7231    0.2207   -0.1131 C   0  0  0  0  0  0  0  0  0  0  0  0
   -3.9952    1.4075   -0.0334 C   0  0  0  0  0  0  0  0  0  0  0  0
   -2.6163    1.3974   -0.2538 C   0  0  0  0  0  0  0  0  0  0  0  0
    0.4499    0.2893    0.2219 N   0  0  0  0  0  0  0  0  0  0  0  0
    0.1854    0.4147    1.6456 C   0  0  0  0  0  0  0  0  0  0  0  0
    0.2587    1.8500    2.1404 C   0  0  0  0  0  0  0  0  0  0  0  0
    4.6932   -2.8352   -0.9119 H   0  0  0  0  0  0  0  0  0  0  0  0
    2.9744   -2.4808   -0.7253 H   0  0  0  0  0  0  0  0  0  0  0  0
    4.0310   -2.5546    0.7018 H   0  0  0  0  0  0  0  0  0  0  0  0
    4.2694   -0.4629   -1.5502 H   0  0  0  0  0  0  0  0  0  0  0  0
    5.3125   -0.5792   -0.1384 H   0  0  0  0  0  0  0  0  0  0  0  0
    2.1018   -0.0794   -2.5453 H   0  0  0  0  0  0  0  0  0  0  0  0
   -2.2002   -1.9191   -0.8984 H   0  0  0  0  0  0  0  0  0  0  0  0
   -4.6450   -1.8979   -0.5007 H   0  0  0  0  0  0  0  0  0  0  0  0
   -5.7976    0.2299    0.0518 H   0  0  0  0  0  0  0  0  0  0  0  0
   -4.5028    2.3426    0.1887 H   0  0  0  0  0  0  0  0  0  0  0  0
   -2.0628    2.3323   -0.2151 H   0  0  0  0  0  0  0  0  0  0  0  0
   -0.8037   -0.0052    1.8548 H   0  0  0  0  0  0  0  0  0  0  0  0
    0.9010   -0.2169    2.1827 H   0  0  0  0  0  0  0  0  0  0  0  0
   -0.4628    2.4890    1.6231 H   0  0  0  0  0  0  0  0  0  0  0  0
    1.2522    2.2806    1.9823 H   0  0  0  0  0  0  0  0  0  0  0  0
    0.0401    1.8906    3.2120 H   0  0  0  0  0  0  0  0  0  0  0  0
  1  2  1  0
  2  3  1  0
  3  4  1  0
  4  5  2  0
  5  6  1  0
  6  7  2  0
  7  8  1  0
  8  9  2  0
  9 10  1  0
 10 11  2  0
 11 12  1  0
 12 13  2  0
  7 14  1  0
 14 15  1  0
 15 16  1  0
 14  4  1  0
 13  8  1  0
  1 17  1  0
  1 18  1  0
  1 19  1  0
  2 20  1  0
  2 21  1  0
  5 22  1  0
  9 23  1  0
 10 24  1  0
 11 25  1  0
 12 26  1  0
 13 27  1  0
 15 28  1  0
 15 29  1  0
 16 30  1  0
 16 31  1  0
 16 32  1  0
M  END
$$$$
