
     RDKit          3D

 42 43  0  0  0  0  0  0  0  0999 V2000
   -5.1878    1.3275    0.7925 C   0  0  0  0  0  0  0  0  0  0  0  0
   -5.0790    0.0203    0.0726 C   0  0  0  0  0  0  0  0  0  0  0  0
   -4.0711   -0.3825   -0.7290 C   0  0  0  0  0  0  0  0  0  0  0  0
   -4.1178   -1.7360   -1.3885 C   0  0  0  0  0  0  0  0  0  0  0  0
   -2.8597    0.4645   -1.0684 C   0  0  0  0  0  0  0  0  0  0  0  0
   -1.9106    0.6015    0.0429 N   0  0  0  0  0  0  0  0  0  0  0  0
   -0.8828    1.6266   -0.2379 C   0  0  0  0  0  0  0  0  0  0  0  0
    0.4853    1.0969   -0.7296 C   0  0  0  0  0  0  0  0  0  0  0  0
    1.0491    0.1167    0.2129 N   0  0  0  0  0  0  0  0  0  0  0  0
    2.4174   -0.0401    0.3566 C   0  0  0  0  0  0  0  0  0  0  0  0
    2.9897   -0.5740    1.5214 C   0  0  0  0  0  0  0  0  0  0  0  0
    4.3751   -0.7352    1.6662 C   0  0  0  0  0  0  0  0  0  0  0  0
    5.2435   -0.3585    0.6425 C   0  0  0  0  0  0  0  0  0  0  0  0
    6.7219   -0.5611    0.7783 C   0  0  0  0  0  0  0  0  0  0  0  0
    4.6989    0.1556   -0.5334 C   0  0  0  0  0  0  0  0  0  0  0  0
    3.3122    0.3138   -0.6658 C   0  0  0  0  0  0  0  0  0  0  0  0
    0.0888   -0.5597    1.1000 C   0  0  0  0  0  0  0  0  0  0  0  0
   -1.2864   -0.6900    0.4046 C   0  0  0  0  0  0  0  0  0  0  0  0
   -6.1073    1.8380    0.4890 H   0  0  0  0  0  0  0  0  0  0  0  0
   -4.3518    2.0037    0.6002 H   0  0  0  0  0  0  0  0  0  0  0  0
   -5.2368    1.1504    1.8714 H   0  0  0  0  0  0  0  0  0  0  0  0
   -5.9137   -0.6564    0.2480 H   0  0  0  0  0  0  0  0  0  0  0  0
   -3.2640   -2.3464   -1.0800 H   0  0  0  0  0  0  0  0  0  0  0  0
   -5.0274   -2.2902   -1.1337 H   0  0  0  0  0  0  0  0  0  0  0  0
   -4.0928   -1.6272   -2.4778 H   0  0  0  0  0  0  0  0  0  0  0  0
   -2.3574    0.0715   -1.9627 H   0  0  0  0  0  0  0  0  0  0  0  0
   -3.2316    1.4553   -1.3631 H   0  0  0  0  0  0  0  0  0  0  0  0
   -0.7131    2.1650    0.7044 H   0  0  0  0  0  0  0  0  0  0  0  0
   -1.2524    2.3851   -0.9390 H   0  0  0  0  0  0  0  0  0  0  0  0
    0.3721    0.6303   -1.7155 H   0  0  0  0  0  0  0  0  0  0  0  0
    1.1483    1.9640   -0.8364 H   0  0  0  0  0  0  0  0  0  0  0  0
    2.3648   -0.8614    2.3620 H   0  0  0  0  0  0  0  0  0  0  0  0
    4.7637   -1.1543    2.5913 H   0  0  0  0  0  0  0  0  0  0  0  0
    7.0355   -0.4622    1.8229 H   0  0  0  0  0  0  0  0  0  0  0  0
    7.2737    0.1889    0.2018 H   0  0  0  0  0  0  0  0  0  0  0  0
    6.9982   -1.5570    0.4188 H   0  0  0  0  0  0  0  0  0  0  0  0
    5.3441    0.4353   -1.3627 H   0  0  0  0  0  0  0  0  0  0  0  0
    2.9414    0.7005   -1.6108 H   0  0  0  0  0  0  0  0  0  0  0  0
    0.4307   -1.5741    1.3386 H   0  0  0  0  0  0  0  0  0  0  0  0
   -0.0114   -0.0015    2.0388 H   0  0  0  0  0  0  0  0  0  0  0  0
   -1.9639   -1.2394    1.0684 H   0  0  0  0  0  0  0  0  0  0  0  0
   -1.1356   -1.3043   -0.4937 H   0  0  0  0  0  0  0  0  0  0  0  0
  1  2  1  0
  2  3  2  3
  3  4  1  0
  3  5  1  0
  5  6  1  0
  6  7  1  0
  7  8  1  0
  8  9  1  0
  9 10  1  0
 10 11  2  0
 11 12  1  0
 12 13  2  0
 13 14  1  0
 13 15  1  0
 15 16  2  0
  9 17  1  0
 17 18  1  0
 18  6  1  0
 16 10  1  0
  1 19  1  0
  1 20  1  0
  1 21  1  0
  2 22  1  0
  4 23  1  0
  4 24  1  0
  4 25  1  0
  5 26  1  0
  5 27  1  0
  7 28  1  0
  7 29  1  0
  8 30  1  0
  8 31  1  0
 11 32  1  0
 12 33  1  0
 14 34  1  0
 14 35  1  0
 14 36  1  0
 15 37  1  0
 16 38  1  0
 17 39  1  0
 17 40  1  0
 18 41  1  0
 18 42  1  0
M  END
$$$$
