
     RDKit          3D

102104  0  0  0  0  0  0  0  0999 V2000
    7.4236    3.5267   -2.2526 C   0  0  0  0  0  0  0  0  0  0  0  0
    7.3583    3.7621   -0.7504 C   0  0  0  0  0  0  0  0  0  0  0  0
    6.7374    2.5963    0.0211 C   0  0  0  0  0  0  0  0  0  0  0  0
    5.2550    2.3817   -0.2973 C   0  0  0  0  0  0  0  0  0  0  0  0
    4.6643    1.2690    0.5703 C   0  0  0  0  0  0  0  0  0  0  0  0
    3.2009    0.9400    0.2428 C   0  0  0  0  0  0  0  0  0  0  0  0
    2.2415    2.0923    0.5756 C   0  0  0  0  0  0  0  0  0  0  0  0
    0.7970    1.7214    0.2956 C   0  0  0  0  0  0  0  0  0  0  0  0
    0.4231    0.5872    0.0268 O   0  0  0  0  0  0  0  0  0  0  0  0
   -0.0848    2.7836    0.3332 N   0  0  0  0  0  0  0  0  0  0  0  0
   -1.5097    2.5528    0.6781 C   0  0  0  0  0  0  0  0  0  0  0  0
   -2.2360    3.9126    0.6057 C   0  0  0  0  0  0  0  0  0  0  0  0
   -3.6692    3.9547    1.1739 C   0  0  0  0  0  0  0  0  0  0  0  0
   -3.7253    3.5552    2.6488 C   0  0  0  0  0  0  0  0  0  0  0  0
   -4.2487    5.3617    0.9946 C   0  0  0  0  0  0  0  0  0  0  0  0
   -2.2692    1.5200   -0.1979 C   0  0  0  0  0  0  0  0  0  0  0  0
   -3.3006    0.9673    0.1878 O   0  0  0  0  0  0  0  0  0  0  0  0
   -1.7777    1.3274   -1.4670 N   0  0  0  0  0  0  0  0  0  0  0  0
   -2.3476    0.3092   -2.3529 C   0  0  0  0  0  0  0  0  0  0  0  0
   -2.0221    0.6136   -3.8248 C   0  0  0  0  0  0  0  0  0  0  0  0
   -2.6279    1.9161   -4.3080 C   0  0  0  0  0  0  0  0  0  0  0  0
   -4.0039    2.0157   -4.5596 C   0  0  0  0  0  0  0  0  0  0  0  0
   -4.5620    3.2257   -4.9775 C   0  0  0  0  0  0  0  0  0  0  0  0
   -3.7519    4.3464   -5.1489 C   0  0  0  0  0  0  0  0  0  0  0  0
   -2.3828    4.2582   -4.9058 C   0  0  0  0  0  0  0  0  0  0  0  0
   -1.8230    3.0495   -4.4878 C   0  0  0  0  0  0  0  0  0  0  0  0
   -1.7898   -1.0821   -1.9562 C   0  0  0  0  0  0  0  0  0  0  0  0
   -0.9581   -1.6954   -2.6238 O   0  0  0  0  0  0  0  0  0  0  0  0
   -2.3123   -1.5813   -0.7801 N   0  0  0  0  0  0  0  0  0  0  0  0
   -1.8084   -2.8082   -0.1634 C   0  0  0  0  0  0  0  0  0  0  0  0
   -2.9701   -3.5362    0.5353 C   0  0  0  0  0  0  0  0  0  0  0  0
   -2.7978   -5.0665    0.6316 C   0  0  0  0  0  0  0  0  0  0  0  0
   -4.0683   -5.6930    1.2142 C   0  0  0  0  0  0  0  0  0  0  0  0
   -1.5922   -5.4808    1.4709 C   0  0  0  0  0  0  0  0  0  0  0  0
   -0.7189   -2.3838    0.8485 C   0  0  0  0  0  0  0  0  0  0  0  0
   -0.9761   -1.7267    1.8588 O   0  0  0  0  0  0  0  0  0  0  0  0
    0.5642   -2.7652    0.5045 N   0  0  0  0  0  0  0  0  0  0  0  0
    1.7264   -2.2970    1.2708 C   0  0  0  0  0  0  0  0  0  0  0  0
    2.6619   -3.4484    1.6672 C   0  0  0  0  0  0  0  0  0  0  0  0
    2.0673   -4.4844    2.5975 C   0  0  0  0  0  0  0  0  0  0  0  0
    1.3687   -4.1184    3.7567 C   0  0  0  0  0  0  0  0  0  0  0  0
    0.8554   -5.0929    4.6156 C   0  0  0  0  0  0  0  0  0  0  0  0
    1.0435   -6.4447    4.3345 C   0  0  0  0  0  0  0  0  0  0  0  0
    1.7456   -6.8223    3.1930 C   0  0  0  0  0  0  0  0  0  0  0  0
    2.2587   -5.8492    2.3324 C   0  0  0  0  0  0  0  0  0  0  0  0
    2.5181   -1.3364    0.3837 C   0  0  0  0  0  0  0  0  0  0  0  0
    2.8162   -1.5703   -0.7828 O   0  0  0  0  0  0  0  0  0  0  0  0
    2.8363   -0.1940    1.0632 O   0  0  0  0  0  0  0  0  0  0  0  0
    7.9346    2.5844   -2.4803 H   0  0  0  0  0  0  0  0  0  0  0  0
    7.9781    4.3384   -2.7374 H   0  0  0  0  0  0  0  0  0  0  0  0
    6.4244    3.4968   -2.6982 H   0  0  0  0  0  0  0  0  0  0  0  0
    8.3777    3.9197   -0.3788 H   0  0  0  0  0  0  0  0  0  0  0  0
    6.8006    4.6847   -0.5502 H   0  0  0  0  0  0  0  0  0  0  0  0
    6.8470    2.7987    1.0943 H   0  0  0  0  0  0  0  0  0  0  0  0
    7.2999    1.6768   -0.1852 H   0  0  0  0  0  0  0  0  0  0  0  0
    4.7159    3.3201   -0.1265 H   0  0  0  0  0  0  0  0  0  0  0  0
    5.1299    2.1173   -1.3534 H   0  0  0  0  0  0  0  0  0  0  0  0
    4.7509    1.5345    1.6317 H   0  0  0  0  0  0  0  0  0  0  0  0
    5.2630    0.3561    0.4494 H   0  0  0  0  0  0  0  0  0  0  0  0
    3.1096    0.7092   -0.8255 H   0  0  0  0  0  0  0  0  0  0  0  0
    2.4873    2.9814   -0.0136 H   0  0  0  0  0  0  0  0  0  0  0  0
    2.3076    2.3420    1.6412 H   0  0  0  0  0  0  0  0  0  0  0  0
    0.3022    3.6307    0.7282 H   0  0  0  0  0  0  0  0  0  0  0  0
   -1.4964    2.1576    1.7001 H   0  0  0  0  0  0  0  0  0  0  0  0
   -1.6353    4.6631    1.1388 H   0  0  0  0  0  0  0  0  0  0  0  0
   -2.2632    4.2413   -0.4429 H   0  0  0  0  0  0  0  0  0  0  0  0
   -4.3083    3.2697    0.6059 H   0  0  0  0  0  0  0  0  0  0  0  0
   -4.7382    3.6787    3.0464 H   0  0  0  0  0  0  0  0  0  0  0  0
   -3.0480    4.1690    3.2522 H   0  0  0  0  0  0  0  0  0  0  0  0
   -3.4507    2.5055    2.7874 H   0  0  0  0  0  0  0  0  0  0  0  0
   -3.6620    6.1070    1.5423 H   0  0  0  0  0  0  0  0  0  0  0  0
   -4.2577    5.6456   -0.0635 H   0  0  0  0  0  0  0  0  0  0  0  0
   -5.2803    5.4078    1.3600 H   0  0  0  0  0  0  0  0  0  0  0  0
   -0.7736    1.4533   -1.5351 H   0  0  0  0  0  0  0  0  0  0  0  0
   -3.4355    0.2850   -2.2101 H   0  0  0  0  0  0  0  0  0  0  0  0
   -2.3894   -0.1984   -4.4670 H   0  0  0  0  0  0  0  0  0  0  0  0
   -0.9335    0.6391   -3.9747 H   0  0  0  0  0  0  0  0  0  0  0  0
   -4.6524    1.1523   -4.4272 H   0  0  0  0  0  0  0  0  0  0  0  0
   -5.6303    3.2944   -5.1649 H   0  0  0  0  0  0  0  0  0  0  0  0
   -4.1875    5.2883   -5.4715 H   0  0  0  0  0  0  0  0  0  0  0  0
   -1.7500    5.1319   -5.0396 H   0  0  0  0  0  0  0  0  0  0  0  0
   -0.7538    2.9986   -4.2971 H   0  0  0  0  0  0  0  0  0  0  0  0
   -2.7589   -0.9054   -0.1577 H   0  0  0  0  0  0  0  0  0  0  0  0
   -1.3779   -3.4459   -0.9440 H   0  0  0  0  0  0  0  0  0  0  0  0
   -3.8929   -3.3483   -0.0314 H   0  0  0  0  0  0  0  0  0  0  0  0
   -3.1425   -3.1190    1.5360 H   0  0  0  0  0  0  0  0  0  0  0  0
   -2.6645   -5.4672   -0.3820 H   0  0  0  0  0  0  0  0  0  0  0  0
   -4.9415   -5.4480    0.5998 H   0  0  0  0  0  0  0  0  0  0  0  0
   -4.2562   -5.3352    2.2329 H   0  0  0  0  0  0  0  0  0  0  0  0
   -3.9836   -6.7849    1.2486 H   0  0  0  0  0  0  0  0  0  0  0  0
   -1.5669   -6.5669    1.6107 H   0  0  0  0  0  0  0  0  0  0  0  0
   -0.6581   -5.2042    0.9766 H   0  0  0  0  0  0  0  0  0  0  0  0
   -1.6161   -5.0128    2.4600 H   0  0  0  0  0  0  0  0  0  0  0  0
    0.7290   -2.9673   -0.4791 H   0  0  0  0  0  0  0  0  0  0  0  0
    1.3844   -1.7471    2.1537 H   0  0  0  0  0  0  0  0  0  0  0  0
    3.0159   -3.9470    0.7544 H   0  0  0  0  0  0  0  0  0  0  0  0
    3.5585   -3.0425    2.1544 H   0  0  0  0  0  0  0  0  0  0  0  0
    1.2070   -3.0719    4.0063 H   0  0  0  0  0  0  0  0  0  0  0  0
    0.3074   -4.7935    5.5050 H   0  0  0  0  0  0  0  0  0  0  0  0
    0.6415   -7.2003    5.0041 H   0  0  0  0  0  0  0  0  0  0  0  0
    1.8950   -7.8761    2.9721 H   0  0  0  0  0  0  0  0  0  0  0  0
    2.8086   -6.1664    1.4488 H   0  0  0  0  0  0  0  0  0  0  0  0
  1  2  1  0
  2  3  1  0
  3  4  1  0
  4  5  1  0
  5  6  1  0
  6  7  1  0
  7  8  1  0
  8  9  2  0
  8 10  1  0
 10 11  1  0
 11 12  1  0
 12 13  1  0
 13 14  1  0
 13 15  1  0
 11 16  1  0
 16 17  2  0
 16 18  1  0
 18 19  1  0
 19 20  1  0
 20 21  1  0
 21 22  2  0
 22 23  1  0
 23 24  2  0
 24 25  1  0
 25 26  2  0
 19 27  1  0
 27 28  2  0
 27 29  1  0
 29 30  1  0
 30 31  1  0
 31 32  1  0
 32 33  1  0
 32 34  1  0
 30 35  1  0
 35 36  2  0
 35 37  1  0
 37 38  1  0
 38 39  1  0
 39 40  1  0
 40 41  2  0
 41 42  1  0
 42 43  2  0
 43 44  1  0
 44 45  2  0
 38 46  1  0
 46 47  2  0
 46 48  1  0
 48  6  1  0
 26 21  1  0
 45 40  1  0
  1 49  1  0
  1 50  1  0
  1 51  1  0
  2 52  1  0
  2 53  1  0
  3 54  1  0
  3 55  1  0
  4 56  1  0
  4 57  1  0
  5 58  1  0
  5 59  1  0
  6 60  1  0
  7 61  1  0
  7 62  1  0
 10 63  1  0
 11 64  1  0
 12 65  1  0
 12 66  1  0
 13 67  1  0
 14 68  1  0
 14 69  1  0
 14 70  1  0
 15 71  1  0
 15 72  1  0
 15 73  1  0
 18 74  1  0
 19 75  1  0
 20 76  1  0
 20 77  1  0
 22 78  1  0
 23 79  1  0
 24 80  1  0
 25 81  1  0
 26 82  1  0
 29 83  1  0
 30 84  1  0
 31 85  1  0
 31 86  1  0
 32 87  1  0
 33 88  1  0
 33 89  1  0
 33 90  1  0
 34 91  1  0
 34 92  1  0
 34 93  1  0
 37 94  1  0
 38 95  1  0
 39 96  1  0
 39 97  1  0
 41 98  1  0
 42 99  1  0
 43100  1  0
 44101  1  0
 45102  1  0
M  END
$$$$
