
     RDKit          3D

 56 61  0  0  0  0  0  0  0  0999 V2000
   -5.0314   -2.7817    1.6782 C   0  0  0  0  0  0  0  0  0  0  0  0
   -3.8960   -1.8256    1.8909 C   0  0  0  0  0  0  0  0  0  0  0  0
   -3.9043   -0.8932    2.9456 C   0  0  0  0  0  0  0  0  0  0  0  0
   -5.2309   -0.8031    4.0528 Cl  0  0  0  0  0  0  0  0  0  0  0  0
   -2.8410    0.0107    3.1411 C   0  0  0  0  0  0  0  0  0  0  0  0
   -1.7369    0.0138    2.2882 C   0  0  0  0  0  0  0  0  0  0  0  0
   -1.7222   -0.8927    1.2401 C   0  0  0  0  0  0  0  0  0  0  0  0
   -2.7875   -1.7879    1.0535 C   0  0  0  0  0  0  0  0  0  0  0  0
   -2.5430   -2.5760   -0.0689 N   0  0  0  0  0  0  0  0  0  0  0  0
   -1.3206   -2.2667   -0.6707 C   0  0  0  0  0  0  0  0  0  0  0  0
   -0.8837   -2.8138   -1.6719 O   0  0  0  0  0  0  0  0  0  0  0  0
   -0.6903   -1.1257    0.1722 C   0  0  0  0  0  0  0  0  0  0  0  0
    0.6661   -1.4981    0.6769 N   0  0  0  0  0  0  0  0  0  0  0  0
    1.6935   -0.8151   -0.1923 C   0  0  2  0  0  0  0  0  0  0  0  0
    2.9080   -0.3166    0.6151 C   0  0  0  0  0  0  0  0  0  0  0  0
    3.6713   -1.3982    1.3452 C   0  0  0  0  0  0  0  0  0  0  0  0
    4.2607   -2.4609    0.6465 C   0  0  0  0  0  0  0  0  0  0  0  0
    4.9729   -3.4495    1.3281 C   0  0  0  0  0  0  0  0  0  0  0  0
    5.1102   -3.3833    2.7124 C   0  0  0  0  0  0  0  0  0  0  0  0
    4.5373   -2.3272    3.4169 C   0  0  0  0  0  0  0  0  0  0  0  0
    3.8236   -1.3381    2.7377 C   0  0  0  0  0  0  0  0  0  0  0  0
    0.9060    0.2855   -0.8085 C   0  0  0  0  0  0  0  0  0  0  0  0
   -0.4579    0.1159   -0.5822 C   0  0  0  0  0  0  0  0  0  0  0  0
   -1.1373    1.1566   -1.1618 C   0  0  0  0  0  0  0  0  0  0  0  0
   -2.4484    1.3749   -1.2392 O   0  0  0  0  0  0  0  0  0  0  0  0
   -0.1802    2.0065   -1.7628 N   0  0  0  0  0  0  0  0  0  0  0  0
   -0.4526    3.2347   -2.4631 C   0  0  0  0  0  0  0  0  0  0  0  0
   -1.6207    3.9668   -2.2018 C   0  0  0  0  0  0  0  0  0  0  0  0
   -1.8840    5.1631   -2.8783 C   0  0  0  0  0  0  0  0  0  0  0  0
   -0.9863    5.6444   -3.8255 C   0  0  0  0  0  0  0  0  0  0  0  0
    0.1757    4.9294   -4.0973 C   0  0  0  0  0  0  0  0  0  0  0  0
    0.4424    3.7337   -3.4209 C   0  0  0  0  0  0  0  0  0  0  0  0
    1.0915    1.4232   -1.5504 C   0  0  0  0  0  0  0  0  0  0  0  0
    2.2214    1.9759   -1.9838 O   0  0  0  0  0  0  0  0  0  0  0  0
   -5.9331   -2.2369    1.3812 H   0  0  0  0  0  0  0  0  0  0  0  0
   -4.8172   -3.5177    0.8981 H   0  0  0  0  0  0  0  0  0  0  0  0
   -5.2330   -3.3482    2.5933 H   0  0  0  0  0  0  0  0  0  0  0  0
   -2.8773    0.7206    3.9655 H   0  0  0  0  0  0  0  0  0  0  0  0
   -0.9239    0.7181    2.4393 H   0  0  0  0  0  0  0  0  0  0  0  0
   -3.1363   -3.3078   -0.4301 H   0  0  0  0  0  0  0  0  0  0  0  0
    0.7619   -1.1159    1.6147 H   0  0  0  0  0  0  0  0  0  0  0  0
    2.0033   -1.5210   -0.9720 H   0  0  0  0  0  0  0  0  0  0  0  0
    3.6159    0.1916   -0.0522 H   0  0  0  0  0  0  0  0  0  0  0  0
    2.5820    0.4512    1.3308 H   0  0  0  0  0  0  0  0  0  0  0  0
    4.1693   -2.5331   -0.4346 H   0  0  0  0  0  0  0  0  0  0  0  0
    5.4199   -4.2729    0.7772 H   0  0  0  0  0  0  0  0  0  0  0  0
    5.6640   -4.1542    3.2414 H   0  0  0  0  0  0  0  0  0  0  0  0
    4.6467   -2.2737    4.4967 H   0  0  0  0  0  0  0  0  0  0  0  0
    3.3886   -0.5204    3.3073 H   0  0  0  0  0  0  0  0  0  0  0  0
   -2.9119    0.6416   -0.7993 H   0  0  0  0  0  0  0  0  0  0  0  0
   -2.3356    3.6525   -1.4482 H   0  0  0  0  0  0  0  0  0  0  0  0
   -2.7911    5.7196   -2.6566 H   0  0  0  0  0  0  0  0  0  0  0  0
   -1.1921    6.5725   -4.3512 H   0  0  0  0  0  0  0  0  0  0  0  0
    0.8778    5.2952   -4.8421 H   0  0  0  0  0  0  0  0  0  0  0  0
    1.3444    3.1969   -3.6960 H   0  0  0  0  0  0  0  0  0  0  0  0
    2.9526    1.3606   -1.8087 H   0  0  0  0  0  0  0  0  0  0  0  0
  1  2  1  0
  2  3  2  0
  3  4  1  0
  3  5  1  0
  5  6  2  0
  6  7  1  0
  7  8  2  0
  8  9  1  0
  9 10  1  0
 10 11  2  0
 10 12  1  0
 12 13  1  0
 13 14  1  0
 14 15  1  0
 15 16  1  0
 16 17  2  0
 17 18  1  0
 18 19  2  0
 19 20  1  0
 20 21  2  0
 14 22  1  0
 22 23  1  0
 23 24  2  0
 24 25  1  0
 24 26  1  0
 26 27  1  0
 27 28  2  0
 28 29  1  0
 29 30  2  0
 30 31  1  0
 31 32  2  0
 26 33  1  0
 33 34  1  0
  8  2  1  0
 23 12  1  0
 32 27  1  0
 12  7  1  0
 21 16  1  0
 33 22  2  0
  1 35  1  0
  1 36  1  0
  1 37  1  0
  5 38  1  0
  6 39  1  0
  9 40  1  0
 13 41  1  0
 14 42  1  6
 15 43  1  0
 15 44  1  0
 17 45  1  0
 18 46  1  0
 19 47  1  0
 20 48  1  0
 21 49  1  0
 25 50  1  0
 28 51  1  0
 29 52  1  0
 30 53  1  0
 31 54  1  0
 32 55  1  0
 34 56  1  0
M  END
$$$$
