
     RDKit          3D

 50 53  0  0  0  0  0  0  0  0999 V2000
   -4.5588   -3.1586    4.7955 C   0  0  0  0  0  0  0  0  0  0  0  0
   -3.9709   -2.4130    3.6333 C   0  0  0  0  0  0  0  0  0  0  0  0
   -2.9818   -3.0065    2.8438 C   0  0  0  0  0  0  0  0  0  0  0  0
   -2.4124   -2.3063    1.7754 C   0  0  0  0  0  0  0  0  0  0  0  0
   -2.8351   -1.0025    1.4646 C   0  0  0  0  0  0  0  0  0  0  0  0
   -2.2392   -0.3313    0.3515 N   0  0  0  0  0  0  0  0  0  0  0  0
   -1.0588   -0.8042   -0.1352 N   0  0  0  0  0  0  0  0  0  0  0  0
   -0.6424    0.1262   -0.9963 C   0  0  0  0  0  0  0  0  0  0  0  0
    0.6258    0.1388   -1.7112 C   0  0  0  0  0  0  0  0  0  0  0  0
    1.4988   -0.7195   -1.5897 O   0  0  0  0  0  0  0  0  0  0  0  0
    0.7538    1.2473   -2.5689 N   0  0  0  0  0  0  0  0  0  0  0  0
    2.0124    1.4161   -3.2752 C   0  0  0  0  0  0  0  0  0  0  0  0
    3.0478    2.0290   -2.3273 C   0  0  0  0  0  0  0  0  0  0  0  0
    2.8627    3.0936   -1.7382 O   0  0  0  0  0  0  0  0  0  0  0  0
    4.2076    1.2874   -2.1946 N   0  0  0  0  0  0  0  0  0  0  0  0
    5.2468    1.6611   -1.2585 C   0  0  0  0  0  0  0  0  0  0  0  0
    5.6416    0.4429   -0.4834 C   0  0  0  0  0  0  0  0  0  0  0  0
    6.7117   -0.4047   -0.6960 C   0  0  0  0  0  0  0  0  0  0  0  0
    6.7505   -1.4774    0.2411 C   0  0  0  0  0  0  0  0  0  0  0  0
    5.7053   -1.4155    1.1386 C   0  0  0  0  0  0  0  0  0  0  0  0
    4.7034   -0.0589    0.8663 S   0  0  0  0  0  0  0  0  0  0  0  0
   -0.2208    2.2279   -2.7777 N   0  0  0  0  0  0  0  0  0  0  0  0
   -1.3474    2.2011   -2.1223 C   0  0  0  0  0  0  0  0  0  0  0  0
   -2.3471    3.2912   -2.3841 C   0  0  0  0  0  0  0  0  0  0  0  0
   -1.5989    1.1298   -1.1872 C   0  0  0  0  0  0  0  0  0  0  0  0
   -2.6689    0.7861   -0.3771 C   0  0  0  0  0  0  0  0  0  0  0  0
   -4.0242    1.3878   -0.2829 C   0  0  0  0  0  0  0  0  0  0  0  0
   -3.7986   -0.3984    2.2780 C   0  0  0  0  0  0  0  0  0  0  0  0
   -4.3564   -1.0970    3.3562 C   0  0  0  0  0  0  0  0  0  0  0  0
   -4.7301   -4.2105    4.5312 H   0  0  0  0  0  0  0  0  0  0  0  0
   -5.5275   -2.7348    5.0840 H   0  0  0  0  0  0  0  0  0  0  0  0
   -3.8808   -3.1092    5.6562 H   0  0  0  0  0  0  0  0  0  0  0  0
   -2.6446   -4.0211    3.0515 H   0  0  0  0  0  0  0  0  0  0  0  0
   -1.6472   -2.8029    1.1797 H   0  0  0  0  0  0  0  0  0  0  0  0
    1.8760    2.0882   -4.1281 H   0  0  0  0  0  0  0  0  0  0  0  0
    2.3518    0.4472   -3.6563 H   0  0  0  0  0  0  0  0  0  0  0  0
    4.2341    0.3394   -2.5570 H   0  0  0  0  0  0  0  0  0  0  0  0
    6.0943    2.0259   -1.8513 H   0  0  0  0  0  0  0  0  0  0  0  0
    4.9245    2.4733   -0.5955 H   0  0  0  0  0  0  0  0  0  0  0  0
    7.4345   -0.2656   -1.4927 H   0  0  0  0  0  0  0  0  0  0  0  0
    7.4989   -2.2609    0.2558 H   0  0  0  0  0  0  0  0  0  0  0  0
    5.4785   -2.1024    1.9437 H   0  0  0  0  0  0  0  0  0  0  0  0
   -1.8942    4.0886   -2.9841 H   0  0  0  0  0  0  0  0  0  0  0  0
   -3.1961    2.8829   -2.9398 H   0  0  0  0  0  0  0  0  0  0  0  0
   -2.6948    3.7198   -1.4399 H   0  0  0  0  0  0  0  0  0  0  0  0
   -4.7908    0.6434   -0.0414 H   0  0  0  0  0  0  0  0  0  0  0  0
   -4.3303    1.8226   -1.2376 H   0  0  0  0  0  0  0  0  0  0  0  0
   -4.0403    2.1807    0.4704 H   0  0  0  0  0  0  0  0  0  0  0  0
   -4.1168    0.6282    2.1404 H   0  0  0  0  0  0  0  0  0  0  0  0
   -5.1057   -0.6053    3.9726 H   0  0  0  0  0  0  0  0  0  0  0  0
  1  2  1  0
  2  3  2  0
  3  4  1  0
  4  5  2  0
  5  6  1  0
  6  7  1  0
  7  8  2  0
  8  9  1  0
  9 10  2  0
  9 11  1  0
 11 12  1  0
 12 13  1  0
 13 14  2  0
 13 15  1  0
 15 16  1  0
 16 17  1  0
 17 18  2  0
 18 19  1  0
 19 20  2  0
 20 21  1  0
 11 22  1  0
 22 23  2  0
 23 24  1  0
 23 25  1  0
 25 26  2  0
 26 27  1  0
  5 28  1  0
 28 29  2  0
 29  2  1  0
 26  6  1  0
 25  8  1  0
 21 17  1  0
  1 30  1  0
  1 31  1  0
  1 32  1  0
  3 33  1  0
  4 34  1  0
 12 35  1  0
 12 36  1  0
 15 37  1  0
 16 38  1  0
 16 39  1  0
 18 40  1  0
 19 41  1  0
 20 42  1  0
 24 43  1  0
 24 44  1  0
 24 45  1  0
 27 46  1  0
 27 47  1  0
 27 48  1  0
 28 49  1  0
 29 50  1  0
M  END
$$$$
