
     RDKit          3D

 36 37  0  0  0  0  0  0  0  0999 V2000
   -1.1610   -1.5479    2.3530 O   0  0  0  0  0  0  0  0  0  0  0  0
   -0.9248   -0.3525    2.2043 C   0  0  0  0  0  0  0  0  0  0  0  0
    0.1430    0.3785    3.0196 C   0  0  0  0  0  0  0  0  0  0  0  0
    1.4027    0.4494    2.3467 O   0  0  0  0  0  0  0  0  0  0  0  0
    1.4846    1.3887    1.3753 C   0  0  0  0  0  0  0  0  0  0  0  0
    0.5850    2.1453    1.0428 O   0  0  0  0  0  0  0  0  0  0  0  0
    2.8317    1.3882    0.7479 C   0  0  0  0  0  0  0  0  0  0  0  0
    3.8035    0.4290    1.0610 C   0  0  0  0  0  0  0  0  0  0  0  0
    5.0498    0.4794    0.4361 C   0  0  0  0  0  0  0  0  0  0  0  0
    6.2418   -0.7005    0.8219 Cl  0  0  0  0  0  0  0  0  0  0  0  0
    5.3412    1.4722   -0.4960 C   0  0  0  0  0  0  0  0  0  0  0  0
    4.3715    2.4222   -0.8047 C   0  0  0  0  0  0  0  0  0  0  0  0
    4.7223    3.6539   -1.9532 Cl  0  0  0  0  0  0  0  0  0  0  0  0
    3.1200    2.3867   -0.1919 C   0  0  0  0  0  0  0  0  0  0  0  0
   -1.5823    0.4417    1.2898 N   0  0  0  0  0  0  0  0  0  0  0  0
   -2.5470   -0.1079    0.3559 C   0  0  0  0  0  0  0  0  0  0  0  0
   -1.8863   -0.8475   -0.8132 C   0  0  0  0  0  0  0  0  0  0  0  0
   -2.8537   -1.2668   -1.8116 N   0  0  0  0  0  0  0  0  0  0  0  0
   -3.4998   -2.4774   -1.7837 C   0  0  0  0  0  0  0  0  0  0  0  0
   -3.1885   -3.3667   -0.8017 O   0  0  0  0  0  0  0  0  0  0  0  0
   -4.4017   -2.6497   -2.7567 C   0  0  0  0  0  0  0  0  0  0  0  0
   -4.4957   -1.2490   -3.7818 S   0  0  0  0  0  0  0  0  0  0  0  0
   -3.2704   -0.4059   -2.8136 C   0  0  0  0  0  0  0  0  0  0  0  0
   -2.9074    0.7395   -3.0248 O   0  0  0  0  0  0  0  0  0  0  0  0
   -0.2099    1.3777    3.3048 H   0  0  0  0  0  0  0  0  0  0  0  0
    0.2942   -0.1757    3.9526 H   0  0  0  0  0  0  0  0  0  0  0  0
    3.5999   -0.3589    1.7819 H   0  0  0  0  0  0  0  0  0  0  0  0
    6.3145    1.5042   -0.9779 H   0  0  0  0  0  0  0  0  0  0  0  0
    2.3711    3.1357   -0.4450 H   0  0  0  0  0  0  0  0  0  0  0  0
   -1.1558    1.3416    1.0619 H   0  0  0  0  0  0  0  0  0  0  0  0
   -3.1468    0.7325   -0.0095 H   0  0  0  0  0  0  0  0  0  0  0  0
   -3.2177   -0.7830    0.8991 H   0  0  0  0  0  0  0  0  0  0  0  0
   -1.1661   -0.1754   -1.2974 H   0  0  0  0  0  0  0  0  0  0  0  0
   -1.3141   -1.7136   -0.4626 H   0  0  0  0  0  0  0  0  0  0  0  0
   -3.7319   -4.1643   -0.9161 H   0  0  0  0  0  0  0  0  0  0  0  0
   -5.0160   -3.5240   -2.9129 H   0  0  0  0  0  0  0  0  0  0  0  0
  1  2  2  0
  2  3  1  0
  3  4  1  0
  4  5  1  0
  5  6  2  0
  5  7  1  0
  7  8  2  0
  8  9  1  0
  9 10  1  0
  9 11  2  0
 11 12  1  0
 12 13  1  0
 12 14  2  0
  2 15  1  0
 15 16  1  0
 16 17  1  0
 17 18  1  0
 18 19  1  0
 19 20  1  0
 19 21  2  0
 21 22  1  0
 22 23  1  0
 23 24  2  0
 14  7  1  0
 23 18  1  0
  3 25  1  0
  3 26  1  0
  8 27  1  0
 11 28  1  0
 14 29  1  0
 15 30  1  0
 16 31  1  0
 16 32  1  0
 17 33  1  0
 17 34  1  0
 20 35  1  0
 21 36  1  0
M  END
$$$$
