
     RDKit          3D

 64 67  0  0  0  0  0  0  0  0999 V2000
    4.2882   -1.2622   -7.6157 C   0  0  0  0  0  0  0  0  0  0  0  0
    5.0944   -1.2701   -6.4449 O   0  0  0  0  0  0  0  0  0  0  0  0
    4.4752   -1.5937   -5.2707 C   0  0  0  0  0  0  0  0  0  0  0  0
    5.3159   -1.6489   -4.1580 C   0  0  0  0  0  0  0  0  0  0  0  0
    4.8085   -1.9510   -2.8870 C   0  0  0  0  0  0  0  0  0  0  0  0
    3.4507   -2.2078   -2.7158 C   0  0  0  0  0  0  0  0  0  0  0  0
    2.8533   -2.4928   -1.4758 N   0  0  0  0  0  0  0  0  0  0  0  0
    3.4560   -2.5708   -0.2354 C   0  0  0  0  0  0  0  0  0  0  0  0
    4.6550   -2.4699    0.0003 O   0  0  0  0  0  0  0  0  0  0  0  0
    2.4610   -2.7888    0.9148 C   0  0  0  0  0  0  0  0  0  0  0  0
    1.0539   -2.8675    0.4912 N   0  0  0  0  0  0  0  0  0  0  0  0
    0.5094   -4.2098    0.3247 C   0  0  0  0  0  0  0  0  0  0  0  0
    0.1860   -1.7832    0.4208 C   0  0  0  0  0  0  0  0  0  0  0  0
   -1.0110   -1.9131    0.1829 O   0  0  0  0  0  0  0  0  0  0  0  0
    0.7924   -0.4342    0.5744 C   0  0  0  0  0  0  0  0  0  0  0  0
    0.2190    0.6381    1.1419 C   0  0  0  0  0  0  0  0  0  0  0  0
   -1.0378    0.7608    1.8043 C   0  0  0  0  0  0  0  0  0  0  0  0
   -1.6435   -0.1826    2.5984 C   0  0  0  0  0  0  0  0  0  0  0  0
   -2.8127    0.3722    3.0663 N   0  0  0  0  0  0  0  0  0  0  0  0
   -3.8015   -0.2338    3.8966 C   0  0  0  0  0  0  0  0  0  0  0  0
   -4.9277    0.5109    4.2841 C   0  0  0  0  0  0  0  0  0  0  0  0
   -5.9103   -0.0627    5.0964 C   0  0  0  0  0  0  0  0  0  0  0  0
   -5.7782   -1.3812    5.5259 C   0  0  0  0  0  0  0  0  0  0  0  0
   -4.6642   -2.1287    5.1448 C   0  0  0  0  0  0  0  0  0  0  0  0
   -3.6769   -1.5614    4.3316 C   0  0  0  0  0  0  0  0  0  0  0  0
   -2.9438    1.6603    2.6617 N   0  0  0  0  0  0  0  0  0  0  0  0
   -1.8966    1.8970    1.8615 C   0  0  0  0  0  0  0  0  0  0  0  0
   -1.7497    3.1932    1.1976 C   0  0  0  0  0  0  0  0  0  0  0  0
   -1.9729    4.3787    1.9092 C   0  0  0  0  0  0  0  0  0  0  0  0
   -1.8220    5.6213    1.2849 C   0  0  0  0  0  0  0  0  0  0  0  0
   -1.4405    5.6976   -0.0590 C   0  0  0  0  0  0  0  0  0  0  0  0
   -1.2844    7.0229   -0.7453 C   0  0  0  0  0  0  0  0  0  0  0  0
   -1.2364    4.5130   -0.7769 C   0  0  0  0  0  0  0  0  0  0  0  0
   -1.3953    3.2710   -0.1562 C   0  0  0  0  0  0  0  0  0  0  0  0
    2.6101   -2.1608   -3.8335 C   0  0  0  0  0  0  0  0  0  0  0  0
    3.1160   -1.8506   -5.1027 C   0  0  0  0  0  0  0  0  0  0  0  0
    3.8765   -2.2564   -7.8141 H   0  0  0  0  0  0  0  0  0  0  0  0
    3.4968   -0.5099   -7.5460 H   0  0  0  0  0  0  0  0  0  0  0  0
    4.9280   -0.9925   -8.4605 H   0  0  0  0  0  0  0  0  0  0  0  0
    6.3782   -1.4475   -4.2762 H   0  0  0  0  0  0  0  0  0  0  0  0
    5.5069   -1.9775   -2.0574 H   0  0  0  0  0  0  0  0  0  0  0  0
    1.8542   -2.6620   -1.4860 H   0  0  0  0  0  0  0  0  0  0  0  0
    2.7280   -3.7207    1.4255 H   0  0  0  0  0  0  0  0  0  0  0  0
    2.5844   -1.9659    1.6252 H   0  0  0  0  0  0  0  0  0  0  0  0
   -0.4926   -4.1950   -0.1152 H   0  0  0  0  0  0  0  0  0  0  0  0
    0.4576   -4.6884    1.3086 H   0  0  0  0  0  0  0  0  0  0  0  0
    1.1703   -4.7861   -0.3310 H   0  0  0  0  0  0  0  0  0  0  0  0
    1.7632   -0.2960    0.1113 H   0  0  0  0  0  0  0  0  0  0  0  0
    0.7951    1.5629    1.0867 H   0  0  0  0  0  0  0  0  0  0  0  0
   -1.3473   -1.1867    2.8548 H   0  0  0  0  0  0  0  0  0  0  0  0
   -5.0567    1.5418    3.9580 H   0  0  0  0  0  0  0  0  0  0  0  0
   -6.7796    0.5217    5.3899 H   0  0  0  0  0  0  0  0  0  0  0  0
   -6.5438   -1.8265    6.1559 H   0  0  0  0  0  0  0  0  0  0  0  0
   -4.5656   -3.1587    5.4796 H   0  0  0  0  0  0  0  0  0  0  0  0
   -2.8312   -2.1819    4.0558 H   0  0  0  0  0  0  0  0  0  0  0  0
   -2.2688    4.3383    2.9565 H   0  0  0  0  0  0  0  0  0  0  0  0
   -2.0067    6.5257    1.8590 H   0  0  0  0  0  0  0  0  0  0  0  0
   -0.3189    7.0721   -1.2577 H   0  0  0  0  0  0  0  0  0  0  0  0
   -2.0859    7.1639   -1.4759 H   0  0  0  0  0  0  0  0  0  0  0  0
   -1.3233    7.8523   -0.0328 H   0  0  0  0  0  0  0  0  0  0  0  0
   -0.9600    4.5505   -1.8277 H   0  0  0  0  0  0  0  0  0  0  0  0
   -1.2598    2.3657   -0.7452 H   0  0  0  0  0  0  0  0  0  0  0  0
    1.5415   -2.3419   -3.7340 H   0  0  0  0  0  0  0  0  0  0  0  0
    2.4199   -1.8126   -5.9340 H   0  0  0  0  0  0  0  0  0  0  0  0
  1  2  1  0
  2  3  1  0
  3  4  2  0
  4  5  1  0
  5  6  2  0
  6  7  1  0
  7  8  1  0
  8  9  2  0
  8 10  1  0
 10 11  1  0
 11 12  1  0
 11 13  1  0
 13 14  2  0
 13 15  1  0
 15 16  2  3
 16 17  1  0
 17 18  2  0
 18 19  1  0
 19 20  1  0
 20 21  2  0
 21 22  1  0
 22 23  2  0
 23 24  1  0
 24 25  2  0
 19 26  1  0
 26 27  2  0
 27 28  1  0
 28 29  2  0
 29 30  1  0
 30 31  2  0
 31 32  1  0
 31 33  1  0
 33 34  2  0
  6 35  1  0
 35 36  2  0
 36  3  1  0
 27 17  1  0
 34 28  1  0
 25 20  1  0
  1 37  1  0
  1 38  1  0
  1 39  1  0
  4 40  1  0
  5 41  1  0
  7 42  1  0
 10 43  1  0
 10 44  1  0
 12 45  1  0
 12 46  1  0
 12 47  1  0
 15 48  1  0
 16 49  1  0
 18 50  1  0
 21 51  1  0
 22 52  1  0
 23 53  1  0
 24 54  1  0
 25 55  1  0
 29 56  1  0
 30 57  1  0
 32 58  1  0
 32 59  1  0
 32 60  1  0
 33 61  1  0
 34 62  1  0
 35 63  1  0
 36 64  1  0
M  END
$$$$
