
     RDKit          3D

 58 59  0  0  0  0  0  0  0  0999 V2000
    6.1131   -2.6881   -3.3450 C   0  0  0  0  0  0  0  0  0  0  0  0
    6.5393   -2.4285   -1.9083 C   0  0  0  0  0  0  0  0  0  0  0  0
    6.6817   -0.9303   -1.6293 C   0  0  0  0  0  0  0  0  0  0  0  0
    7.1511   -0.6493   -0.2007 C   0  0  0  0  0  0  0  0  0  0  0  0
    6.2577   -1.1935    0.7705 O   0  0  0  0  0  0  0  0  0  0  0  0
    5.1780   -0.4573    1.1666 C   0  0  0  0  0  0  0  0  0  0  0  0
    4.8032    0.7943    0.6806 C   0  0  0  0  0  0  0  0  0  0  0  0
    3.6608    1.4301    1.1816 C   0  0  0  0  0  0  0  0  0  0  0  0
    2.8779    0.8147    2.1650 C   0  0  0  0  0  0  0  0  0  0  0  0
    1.6697    1.5295    2.6607 C   0  0  0  0  0  0  0  0  0  0  0  0
    1.5909    2.7495    2.5745 O   0  0  0  0  0  0  0  0  0  0  0  0
    0.6528    0.7413    3.1599 N   0  0  0  0  0  0  0  0  0  0  0  0
   -0.6357    1.3407    3.4811 C   0  0  0  0  0  0  0  0  0  0  0  0
   -1.5962    1.4386    2.2978 C   0  0  0  0  0  0  0  0  0  0  0  0
   -2.7053    1.9578    2.3624 O   0  0  0  0  0  0  0  0  0  0  0  0
   -1.0996    0.8342    1.1799 O   0  0  0  0  0  0  0  0  0  0  0  0
   -1.9987    0.8390    0.0668 C   0  0  0  0  0  0  0  0  0  0  0  0
   -3.1516   -0.1463    0.2674 C   0  0  0  0  0  0  0  0  0  0  0  0
   -3.0385   -1.1197    1.0228 O   0  0  0  0  0  0  0  0  0  0  0  0
   -4.4423    0.1139   -0.4505 C   0  0  0  0  0  0  0  0  0  0  0  0
   -5.6202   -0.2456    0.1077 C   0  0  0  0  0  0  0  0  0  0  0  0
   -5.6865   -0.8776    1.3461 N   0  0  0  0  0  0  0  0  0  0  0  0
   -6.8049    0.0287   -0.5719 N   0  0  0  0  0  0  0  0  0  0  0  0
   -8.0834   -0.3298    0.0414 C   0  0  0  0  0  0  0  0  0  0  0  0
   -6.8591    0.6777   -1.8036 C   0  0  0  0  0  0  0  0  0  0  0  0
   -7.9162    0.8621   -2.4101 O   0  0  0  0  0  0  0  0  0  0  0  0
   -5.6472    1.0976   -2.3228 N   0  0  0  0  0  0  0  0  0  0  0  0
   -5.6642    1.7649   -3.6119 C   0  0  0  0  0  0  0  0  0  0  0  0
   -4.4311    0.7608   -1.7784 C   0  0  0  0  0  0  0  0  0  0  0  0
   -3.3597    0.9508   -2.3533 O   0  0  0  0  0  0  0  0  0  0  0  0
    3.2592   -0.4344    2.6633 C   0  0  0  0  0  0  0  0  0  0  0  0
    4.4016   -1.0635    2.1595 C   0  0  0  0  0  0  0  0  0  0  0  0
    5.1455   -2.2226   -3.5573 H   0  0  0  0  0  0  0  0  0  0  0  0
    6.0188   -3.7637   -3.5239 H   0  0  0  0  0  0  0  0  0  0  0  0
    6.8489   -2.2899   -4.0509 H   0  0  0  0  0  0  0  0  0  0  0  0
    7.4937   -2.9336   -1.7200 H   0  0  0  0  0  0  0  0  0  0  0  0
    5.7984   -2.8705   -1.2325 H   0  0  0  0  0  0  0  0  0  0  0  0
    5.7149   -0.4470   -1.8091 H   0  0  0  0  0  0  0  0  0  0  0  0
    7.4010   -0.4909   -2.3305 H   0  0  0  0  0  0  0  0  0  0  0  0
    7.3399    0.4173   -0.0341 H   0  0  0  0  0  0  0  0  0  0  0  0
    8.1167   -1.1448   -0.0435 H   0  0  0  0  0  0  0  0  0  0  0  0
    5.3691    1.3078   -0.0889 H   0  0  0  0  0  0  0  0  0  0  0  0
    3.3803    2.4090    0.7964 H   0  0  0  0  0  0  0  0  0  0  0  0
    0.6410   -0.2341    2.8909 H   0  0  0  0  0  0  0  0  0  0  0  0
   -1.0990    0.6997    4.2369 H   0  0  0  0  0  0  0  0  0  0  0  0
   -0.4822    2.3450    3.8871 H   0  0  0  0  0  0  0  0  0  0  0  0
   -1.4209    0.5150   -0.8039 H   0  0  0  0  0  0  0  0  0  0  0  0
   -2.3646    1.8562   -0.1106 H   0  0  0  0  0  0  0  0  0  0  0  0
   -4.7713   -1.2319    1.6536 H   0  0  0  0  0  0  0  0  0  0  0  0
   -6.3610   -1.6358    1.3616 H   0  0  0  0  0  0  0  0  0  0  0  0
   -8.9392    0.0615   -0.5155 H   0  0  0  0  0  0  0  0  0  0  0  0
   -8.1699   -1.4207    0.0720 H   0  0  0  0  0  0  0  0  0  0  0  0
   -8.1345    0.0816    1.0551 H   0  0  0  0  0  0  0  0  0  0  0  0
   -5.7470    1.0033   -4.3938 H   0  0  0  0  0  0  0  0  0  0  0  0
   -4.7497    2.3431   -3.7727 H   0  0  0  0  0  0  0  0  0  0  0  0
   -6.5226    2.4399   -3.6836 H   0  0  0  0  0  0  0  0  0  0  0  0
    2.7000   -0.9216    3.4564 H   0  0  0  0  0  0  0  0  0  0  0  0
    4.6970   -2.0348    2.5505 H   0  0  0  0  0  0  0  0  0  0  0  0
  1  2  1  0
  2  3  1  0
  3  4  1  0
  4  5  1  0
  5  6  1  0
  6  7  2  0
  7  8  1  0
  8  9  2  0
  9 10  1  0
 10 11  2  0
 10 12  1  0
 12 13  1  0
 13 14  1  0
 14 15  2  0
 14 16  1  0
 16 17  1  0
 17 18  1  0
 18 19  2  0
 18 20  1  0
 20 21  2  0
 21 22  1  0
 21 23  1  0
 23 24  1  0
 23 25  1  0
 25 26  2  0
 25 27  1  0
 27 28  1  0
 27 29  1  0
 29 30  2  0
  9 31  1  0
 31 32  2  0
 32  6  1  0
 29 20  1  0
  1 33  1  0
  1 34  1  0
  1 35  1  0
  2 36  1  0
  2 37  1  0
  3 38  1  0
  3 39  1  0
  4 40  1  0
  4 41  1  0
  7 42  1  0
  8 43  1  0
 12 44  1  0
 13 45  1  0
 13 46  1  0
 17 47  1  0
 17 48  1  0
 22 49  1  0
 22 50  1  0
 24 51  1  0
 24 52  1  0
 24 53  1  0
 28 54  1  0
 28 55  1  0
 28 56  1  0
 31 57  1  0
 32 58  1  0
M  END
$$$$
