
     RDKit          3D

 35 35  0  0  0  0  0  0  0  0999 V2000
   -3.0648    0.4039   -1.6697 C   0  0  0  0  0  0  0  0  0  0  0  0
   -3.1263    0.6739   -0.1610 C   0  0  0  0  0  0  0  0  0  0  0  0
   -4.5798    0.9356    0.2616 C   0  0  0  0  0  0  0  0  0  0  0  0
   -2.4950   -0.3550    0.6963 N   0  0  0  0  0  0  0  0  0  0  0  0
   -3.1021   -1.6833    0.5668 C   0  0  0  0  0  0  0  0  0  0  0  0
   -1.0330   -0.4683    0.5126 C   0  0  0  0  0  0  0  0  0  0  0  0
   -0.2343    0.8022    0.8506 C   0  0  0  0  0  0  0  0  0  0  0  0
    1.1779    0.5196    0.8771 O   0  0  0  0  0  0  0  0  0  0  0  0
    1.7788    0.4828   -0.3379 C   0  0  0  0  0  0  0  0  0  0  0  0
    1.2574    0.6768   -1.4209 O   0  0  0  0  0  0  0  0  0  0  0  0
    3.2005    0.1503   -0.1379 C   0  0  0  0  0  0  0  0  0  0  0  0
    3.9736    0.9970    0.6719 C   0  0  0  0  0  0  0  0  0  0  0  0
    5.3300    0.7339    0.8645 C   0  0  0  0  0  0  0  0  0  0  0  0
    5.9174   -0.3710    0.2504 C   0  0  0  0  0  0  0  0  0  0  0  0
    5.1502   -1.2171   -0.5539 C   0  0  0  0  0  0  0  0  0  0  0  0
    3.7889   -0.9600   -0.7516 C   0  0  0  0  0  0  0  0  0  0  0  0
    2.8108   -2.1917   -1.8142 Br  0  0  0  0  0  0  0  0  0  0  0  0
   -3.5079    1.2403   -2.2222 H   0  0  0  0  0  0  0  0  0  0  0  0
   -3.6177   -0.4989   -1.9479 H   0  0  0  0  0  0  0  0  0  0  0  0
   -2.0340    0.2996   -2.0211 H   0  0  0  0  0  0  0  0  0  0  0  0
   -2.6119    1.6246    0.0205 H   0  0  0  0  0  0  0  0  0  0  0  0
   -4.9626    1.8349   -0.2345 H   0  0  0  0  0  0  0  0  0  0  0  0
   -5.2460    0.1090   -0.0052 H   0  0  0  0  0  0  0  0  0  0  0  0
   -4.6510    1.1038    1.3419 H   0  0  0  0  0  0  0  0  0  0  0  0
   -4.1732   -1.6640    0.7880 H   0  0  0  0  0  0  0  0  0  0  0  0
   -2.6639   -2.3733    1.2977 H   0  0  0  0  0  0  0  0  0  0  0  0
   -2.9572   -2.1163   -0.4286 H   0  0  0  0  0  0  0  0  0  0  0  0
   -0.7853   -0.8110   -0.4992 H   0  0  0  0  0  0  0  0  0  0  0  0
   -0.6544   -1.2566    1.1783 H   0  0  0  0  0  0  0  0  0  0  0  0
   -0.5000    1.1540    1.8536 H   0  0  0  0  0  0  0  0  0  0  0  0
   -0.4350    1.6240    0.1543 H   0  0  0  0  0  0  0  0  0  0  0  0
    3.5217    1.8644    1.1484 H   0  0  0  0  0  0  0  0  0  0  0  0
    5.9288    1.3912    1.4910 H   0  0  0  0  0  0  0  0  0  0  0  0
    6.9752   -0.5770    0.3995 H   0  0  0  0  0  0  0  0  0  0  0  0
    5.6240   -2.0786   -1.0194 H   0  0  0  0  0  0  0  0  0  0  0  0
  1  2  1  0
  2  3  1  0
  2  4  1  0
  4  5  1  0
  4  6  1  0
  6  7  1  0
  7  8  1  0
  8  9  1  0
  9 10  2  0
  9 11  1  0
 11 12  2  0
 12 13  1  0
 13 14  2  0
 14 15  1  0
 15 16  2  0
 16 17  1  0
 16 11  1  0
  1 18  1  0
  1 19  1  0
  1 20  1  0
  2 21  1  0
  3 22  1  0
  3 23  1  0
  3 24  1  0
  5 25  1  0
  5 26  1  0
  5 27  1  0
  6 28  1  0
  6 29  1  0
  7 30  1  0
  7 31  1  0
 12 32  1  0
 13 33  1  0
 14 34  1  0
 15 35  1  0
M  END
$$$$
