
     RDKit          3D

 34 34  0  0  0  0  0  0  0  0999 V2000
    5.9288    1.4960   -0.3062 C   0  0  0  0  0  0  0  0  0  0  0  0
    5.3919    0.2405   -0.9758 C   0  0  0  0  0  0  0  0  0  0  0  0
    3.8683    0.2121   -1.0820 C   0  0  0  0  0  0  0  0  0  0  0  0
    3.1618    0.1512    0.2685 C   0  0  0  0  0  0  0  0  0  0  0  0
    1.7528    0.0335    0.0230 O   0  0  0  0  0  0  0  0  0  0  0  0
    0.9955   -0.0423    1.1450 C   0  0  0  0  0  0  0  0  0  0  0  0
    1.4124   -0.0177    2.2924 O   0  0  0  0  0  0  0  0  0  0  0  0
   -0.4468   -0.1622    0.7989 C   0  0  0  0  0  0  0  0  0  0  0  0
   -0.9066   -0.1883   -0.5221 C   0  0  0  0  0  0  0  0  0  0  0  0
   -2.2769   -0.3028   -0.7943 C   0  0  0  0  0  0  0  0  0  0  0  0
   -3.2042   -0.3930    0.2456 C   0  0  0  0  0  0  0  0  0  0  0  0
   -4.5961   -0.5093    0.0545 N   0  0  0  0  0  0  0  0  0  0  0  0
   -5.2795   -0.5664   -1.1471 C   0  0  0  0  0  0  0  0  0  0  0  0
   -6.7697   -0.6950   -0.9504 C   0  0  0  0  0  0  0  0  0  0  0  0
   -4.7956   -0.5471   -2.2729 O   0  0  0  0  0  0  0  0  0  0  0  0
   -2.7408   -0.3659    1.5671 C   0  0  0  0  0  0  0  0  0  0  0  0
   -1.3738   -0.2517    1.8432 C   0  0  0  0  0  0  0  0  0  0  0  0
    7.0230    1.5023   -0.3427 H   0  0  0  0  0  0  0  0  0  0  0  0
    5.5679    2.3967   -0.8128 H   0  0  0  0  0  0  0  0  0  0  0  0
    5.6326    1.5475    0.7455 H   0  0  0  0  0  0  0  0  0  0  0  0
    5.7444   -0.6426   -0.4305 H   0  0  0  0  0  0  0  0  0  0  0  0
    5.8124    0.1774   -1.9865 H   0  0  0  0  0  0  0  0  0  0  0  0
    3.5690   -0.6597   -1.6777 H   0  0  0  0  0  0  0  0  0  0  0  0
    3.5114    1.0855   -1.6421 H   0  0  0  0  0  0  0  0  0  0  0  0
    3.5074   -0.7207    0.8359 H   0  0  0  0  0  0  0  0  0  0  0  0
    3.3490    1.0647    0.8433 H   0  0  0  0  0  0  0  0  0  0  0  0
   -0.2147   -0.1206   -1.3584 H   0  0  0  0  0  0  0  0  0  0  0  0
   -2.5840   -0.3177   -1.8359 H   0  0  0  0  0  0  0  0  0  0  0  0
   -5.1552   -0.5649    0.8965 H   0  0  0  0  0  0  0  0  0  0  0  0
   -7.1049   -0.0979   -0.0974 H   0  0  0  0  0  0  0  0  0  0  0  0
   -7.2865   -0.3301   -1.8428 H   0  0  0  0  0  0  0  0  0  0  0  0
   -7.0241   -1.7455   -0.7873 H   0  0  0  0  0  0  0  0  0  0  0  0
   -3.4324   -0.4332    2.4032 H   0  0  0  0  0  0  0  0  0  0  0  0
   -1.0366   -0.2330    2.8781 H   0  0  0  0  0  0  0  0  0  0  0  0
  1  2  1  0
  2  3  1  0
  3  4  1  0
  4  5  1  0
  5  6  1  0
  6  7  2  0
  6  8  1  0
  8  9  2  0
  9 10  1  0
 10 11  2  0
 11 12  1  0
 12 13  1  0
 13 14  1  0
 13 15  2  0
 11 16  1  0
 16 17  2  0
 17  8  1  0
  1 18  1  0
  1 19  1  0
  1 20  1  0
  2 21  1  0
  2 22  1  0
  3 23  1  0
  3 24  1  0
  4 25  1  0
  4 26  1  0
  9 27  1  0
 10 28  1  0
 12 29  1  0
 14 30  1  0
 14 31  1  0
 14 32  1  0
 16 33  1  0
 17 34  1  0
M  END
$$$$
