
     RDKit          3D

 36 37  0  0  0  0  0  0  0  0999 V2000
    0.4051    0.6094   -0.2311 O   0  0  0  0  0  0  0  0  0  0  0  0
    0.2832    0.1372    0.8952 C   0  0  0  0  0  0  0  0  0  0  0  0
   -1.0572   -0.2711    1.5030 C   0  0  0  0  0  0  0  0  0  0  0  0
   -2.1348    0.0877    0.6408 O   0  0  0  0  0  0  0  0  0  0  0  0
   -3.3388   -0.3724    1.0523 C   0  0  0  0  0  0  0  0  0  0  0  0
   -3.5528   -1.0400    2.0478 O   0  0  0  0  0  0  0  0  0  0  0  0
   -4.3661    0.0681    0.0865 C   0  0  0  0  0  0  0  0  0  0  0  0
   -4.1198   -0.1088   -1.2855 C   0  0  0  0  0  0  0  0  0  0  0  0
   -5.0853    0.2670   -2.2164 C   0  0  0  0  0  0  0  0  0  0  0  0
   -4.7866    0.0453   -3.8952 Cl  0  0  0  0  0  0  0  0  0  0  0  0
   -6.2945    0.8174   -1.7971 C   0  0  0  0  0  0  0  0  0  0  0  0
   -6.5395    0.9978   -0.4335 C   0  0  0  0  0  0  0  0  0  0  0  0
   -5.5781    0.6243    0.5131 C   0  0  0  0  0  0  0  0  0  0  0  0
   -5.9419    0.9306    2.1727 Cl  0  0  0  0  0  0  0  0  0  0  0  0
    1.3590   -0.0843    1.7331 N   0  0  0  0  0  0  0  0  0  0  0  0
    2.7201    0.2149    1.3227 C   0  0  0  0  0  0  0  0  0  0  0  0
    3.2973   -0.8293    0.3600 C   0  0  0  0  0  0  0  0  0  0  0  0
    4.7221   -0.6467    0.1488 N   0  0  0  0  0  0  0  0  0  0  0  0
    5.2515    0.1406   -0.8426 C   0  0  0  0  0  0  0  0  0  0  0  0
    4.4077    0.7590   -1.7124 O   0  0  0  0  0  0  0  0  0  0  0  0
    6.5870    0.2199   -0.8361 C   0  0  0  0  0  0  0  0  0  0  0  0
    7.2657   -0.7082    0.4679 S   0  0  0  0  0  0  0  0  0  0  0  0
    5.6507   -1.1933    1.0190 C   0  0  0  0  0  0  0  0  0  0  0  0
    5.4450   -1.8741    2.0101 O   0  0  0  0  0  0  0  0  0  0  0  0
   -1.1734    0.2447    2.4630 H   0  0  0  0  0  0  0  0  0  0  0  0
   -1.0367   -1.3573    1.6521 H   0  0  0  0  0  0  0  0  0  0  0  0
   -3.1802   -0.5412   -1.6239 H   0  0  0  0  0  0  0  0  0  0  0  0
   -7.0482    1.1111   -2.5240 H   0  0  0  0  0  0  0  0  0  0  0  0
   -7.4831    1.4362   -0.1150 H   0  0  0  0  0  0  0  0  0  0  0  0
    1.2191   -0.5621    2.6154 H   0  0  0  0  0  0  0  0  0  0  0  0
    3.3188    0.2691    2.2386 H   0  0  0  0  0  0  0  0  0  0  0  0
    2.7377    1.2071    0.8571 H   0  0  0  0  0  0  0  0  0  0  0  0
    2.7721   -0.8183   -0.6019 H   0  0  0  0  0  0  0  0  0  0  0  0
    3.1436   -1.8296    0.7848 H   0  0  0  0  0  0  0  0  0  0  0  0
    4.9336    1.2659   -2.3534 H   0  0  0  0  0  0  0  0  0  0  0  0
    7.1983    0.7835   -1.5251 H   0  0  0  0  0  0  0  0  0  0  0  0
  1  2  2  0
  2  3  1  0
  3  4  1  0
  4  5  1  0
  5  6  2  0
  5  7  1  0
  7  8  2  0
  8  9  1  0
  9 10  1  0
  9 11  2  0
 11 12  1  0
 12 13  2  0
 13 14  1  0
  2 15  1  0
 15 16  1  0
 16 17  1  0
 17 18  1  0
 18 19  1  0
 19 20  1  0
 19 21  2  0
 21 22  1  0
 22 23  1  0
 23 24  2  0
 13  7  1  0
 23 18  1  0
  3 25  1  0
  3 26  1  0
  8 27  1  0
 11 28  1  0
 12 29  1  0
 15 30  1  0
 16 31  1  0
 16 32  1  0
 17 33  1  0
 17 34  1  0
 20 35  1  0
 21 36  1  0
M  END
$$$$
