
     RDKit          3D

 43 45  0  0  0  0  0  0  0  0999 V2000
    6.3026    0.4496    2.6959 C   0  0  0  0  0  0  0  0  0  0  0  0
    5.5404    0.2648    1.4164 C   0  0  0  0  0  0  0  0  0  0  0  0
    6.2134    0.2183    0.1904 C   0  0  0  0  0  0  0  0  0  0  0  0
    5.5041    0.0720   -1.0060 C   0  0  0  0  0  0  0  0  0  0  0  0
    6.2281    0.0497   -2.3196 C   0  0  0  0  0  0  0  0  0  0  0  0
    4.1042    0.0069   -0.9651 C   0  0  0  0  0  0  0  0  0  0  0  0
    3.4118    0.0631    0.2523 C   0  0  0  0  0  0  0  0  0  0  0  0
    2.0031   -0.0047    0.1942 N   0  0  0  0  0  0  0  0  0  0  0  0
    1.1183   -0.0423    1.2565 C   0  0  0  0  0  0  0  0  0  0  0  0
    1.3966   -0.0938    2.4484 O   0  0  0  0  0  0  0  0  0  0  0  0
   -0.3220   -0.0653    0.8713 C   0  0  0  0  0  0  0  0  0  0  0  0
   -0.8045    0.6389   -0.2370 C   0  0  0  0  0  0  0  0  0  0  0  0
   -2.1659    0.5900   -0.5649 C   0  0  0  0  0  0  0  0  0  0  0  0
   -3.0589   -0.1506    0.2129 C   0  0  0  0  0  0  0  0  0  0  0  0
   -4.4366   -0.2502   -0.0502 N   0  0  0  0  0  0  0  0  0  0  0  0
   -5.1581    0.3088   -1.0907 C   0  0  0  0  0  0  0  0  0  0  0  0
   -4.6912    1.0003   -1.9898 O   0  0  0  0  0  0  0  0  0  0  0  0
   -6.5730   -0.0139   -1.0222 C   0  0  0  0  0  0  0  0  0  0  0  0
   -7.6276    0.3360   -1.8442 C   0  0  0  0  0  0  0  0  0  0  0  0
   -8.7882   -0.2608   -1.2967 C   0  0  0  0  0  0  0  0  0  0  0  0
   -8.3765   -0.9396   -0.1747 C   0  0  0  0  0  0  0  0  0  0  0  0
   -7.0374   -0.7995    0.0039 O   0  0  0  0  0  0  0  0  0  0  0  0
   -2.5732   -0.8360    1.3336 C   0  0  0  0  0  0  0  0  0  0  0  0
   -1.2153   -0.7911    1.6647 C   0  0  0  0  0  0  0  0  0  0  0  0
    4.1385    0.1980    1.4362 C   0  0  0  0  0  0  0  0  0  0  0  0
    6.3876    1.5152    2.9299 H   0  0  0  0  0  0  0  0  0  0  0  0
    5.8001   -0.0578    3.5261 H   0  0  0  0  0  0  0  0  0  0  0  0
    7.3085    0.0237    2.6175 H   0  0  0  0  0  0  0  0  0  0  0  0
    7.2988    0.2960    0.1691 H   0  0  0  0  0  0  0  0  0  0  0  0
    6.3276    1.0675   -2.7092 H   0  0  0  0  0  0  0  0  0  0  0  0
    5.6885   -0.5593   -3.0525 H   0  0  0  0  0  0  0  0  0  0  0  0
    7.2266   -0.3861   -2.2086 H   0  0  0  0  0  0  0  0  0  0  0  0
    3.5572   -0.0874   -1.9001 H   0  0  0  0  0  0  0  0  0  0  0  0
    1.6121   -0.1033   -0.7330 H   0  0  0  0  0  0  0  0  0  0  0  0
   -0.1469    1.2577   -0.8417 H   0  0  0  0  0  0  0  0  0  0  0  0
   -2.4974    1.1560   -1.4304 H   0  0  0  0  0  0  0  0  0  0  0  0
   -4.9924   -0.8025    0.5949 H   0  0  0  0  0  0  0  0  0  0  0  0
   -7.5527    0.9512   -2.7312 H   0  0  0  0  0  0  0  0  0  0  0  0
   -9.8001   -0.2032   -1.6732 H   0  0  0  0  0  0  0  0  0  0  0  0
   -8.8879   -1.5399    0.5655 H   0  0  0  0  0  0  0  0  0  0  0  0
   -3.2419   -1.4130    1.9680 H   0  0  0  0  0  0  0  0  0  0  0  0
   -0.8556   -1.3252    2.5425 H   0  0  0  0  0  0  0  0  0  0  0  0
    3.6352    0.2619    2.3963 H   0  0  0  0  0  0  0  0  0  0  0  0
  1  2  1  0
  2  3  2  0
  3  4  1  0
  4  5  1  0
  4  6  2  0
  6  7  1  0
  7  8  1  0
  8  9  1  0
  9 10  2  0
  9 11  1  0
 11 12  2  0
 12 13  1  0
 13 14  2  0
 14 15  1  0
 15 16  1  0
 16 17  2  0
 16 18  1  0
 18 19  2  0
 19 20  1  0
 20 21  2  0
 21 22  1  0
 14 23  1  0
 23 24  2  0
  7 25  2  0
 25  2  1  0
 24 11  1  0
 22 18  1  0
  1 26  1  0
  1 27  1  0
  1 28  1  0
  3 29  1  0
  5 30  1  0
  5 31  1  0
  5 32  1  0
  6 33  1  0
  8 34  1  0
 12 35  1  0
 13 36  1  0
 15 37  1  0
 19 38  1  0
 20 39  1  0
 21 40  1  0
 23 41  1  0
 24 42  1  0
 25 43  1  0
M  END
$$$$
