
     RDKit          3D

 38 38  0  0  0  0  0  0  0  0999 V2000
    5.4601    0.7595   -2.8254 C   0  0  0  0  0  0  0  0  0  0  0  0
    4.9347   -0.3280   -1.9074 C   0  0  0  0  0  0  0  0  0  0  0  0
    3.5570   -0.0826   -1.5901 O   0  0  0  0  0  0  0  0  0  0  0  0
    2.6472   -0.6100   -2.4554 C   0  0  0  0  0  0  0  0  0  0  0  0
    2.9125   -1.1912   -3.4997 O   0  0  0  0  0  0  0  0  0  0  0  0
    1.2503   -0.3151   -1.9973 C   0  0  0  0  0  0  0  0  0  0  0  0
    0.8716   -1.0144   -0.7180 C   0  0  0  0  0  0  0  0  0  0  0  0
    1.5432   -1.9262   -0.2402 O   0  0  0  0  0  0  0  0  0  0  0  0
   -0.3793   -0.5947   -0.0123 C   0  0  0  0  0  0  0  0  0  0  0  0
   -1.3236    0.2522   -0.6103 C   0  0  0  0  0  0  0  0  0  0  0  0
   -2.4758    0.6220    0.0886 C   0  0  0  0  0  0  0  0  0  0  0  0
   -3.4487    1.4532   -0.4041 O   0  0  0  0  0  0  0  0  0  0  0  0
   -3.5022    1.6301   -1.8133 C   0  0  0  0  0  0  0  0  0  0  0  0
   -2.6616    0.1532    1.4004 C   0  0  0  0  0  0  0  0  0  0  0  0
   -3.8159    0.4872    2.0738 O   0  0  0  0  0  0  0  0  0  0  0  0
   -3.5982    1.6590    2.8576 C   0  0  0  0  0  0  0  0  0  0  0  0
   -1.7401   -0.7203    2.0003 C   0  0  0  0  0  0  0  0  0  0  0  0
   -2.0366   -1.1413    3.2704 O   0  0  0  0  0  0  0  0  0  0  0  0
   -1.2269   -2.1708    3.8235 C   0  0  0  0  0  0  0  0  0  0  0  0
   -0.5966   -1.0826    1.2871 C   0  0  0  0  0  0  0  0  0  0  0  0
    6.5246    0.6140   -3.0298 H   0  0  0  0  0  0  0  0  0  0  0  0
    5.3192    1.7462   -2.3721 H   0  0  0  0  0  0  0  0  0  0  0  0
    4.9190    0.7661   -3.7768 H   0  0  0  0  0  0  0  0  0  0  0  0
    5.0727   -1.3236   -2.3448 H   0  0  0  0  0  0  0  0  0  0  0  0
    5.4884   -0.3121   -0.9629 H   0  0  0  0  0  0  0  0  0  0  0  0
    1.1656    0.7711   -1.8843 H   0  0  0  0  0  0  0  0  0  0  0  0
    0.5630   -0.6397   -2.7866 H   0  0  0  0  0  0  0  0  0  0  0  0
   -1.1626    0.6219   -1.6154 H   0  0  0  0  0  0  0  0  0  0  0  0
   -3.5209    0.6689   -2.3381 H   0  0  0  0  0  0  0  0  0  0  0  0
   -4.4315    2.1574   -2.0494 H   0  0  0  0  0  0  0  0  0  0  0  0
   -2.6702    2.2518   -2.1587 H   0  0  0  0  0  0  0  0  0  0  0  0
   -2.8326    1.4923    3.6231 H   0  0  0  0  0  0  0  0  0  0  0  0
   -3.3256    2.5143    2.2296 H   0  0  0  0  0  0  0  0  0  0  0  0
   -4.5365    1.8999    3.3663 H   0  0  0  0  0  0  0  0  0  0  0  0
   -1.2269   -3.0626    3.1880 H   0  0  0  0  0  0  0  0  0  0  0  0
   -1.6570   -2.4509    4.7899 H   0  0  0  0  0  0  0  0  0  0  0  0
   -0.2083   -1.8127    4.0047 H   0  0  0  0  0  0  0  0  0  0  0  0
    0.1485   -1.7417    1.7242 H   0  0  0  0  0  0  0  0  0  0  0  0
  1  2  1  0
  2  3  1  0
  3  4  1  0
  4  5  2  0
  4  6  1  0
  6  7  1  0
  7  8  2  0
  7  9  1  0
  9 10  2  0
 10 11  1  0
 11 12  1  0
 12 13  1  0
 11 14  2  0
 14 15  1  0
 15 16  1  0
 14 17  1  0
 17 18  1  0
 18 19  1  0
 17 20  2  0
 20  9  1  0
  1 21  1  0
  1 22  1  0
  1 23  1  0
  2 24  1  0
  2 25  1  0
  6 26  1  0
  6 27  1  0
 10 28  1  0
 13 29  1  0
 13 30  1  0
 13 31  1  0
 16 32  1  0
 16 33  1  0
 16 34  1  0
 19 35  1  0
 19 36  1  0
 19 37  1  0
 20 38  1  0
M  END
$$$$
