
     RDKit          3D

 39 39  0  0  0  0  0  0  0  0999 V2000
   -2.1542    3.2754   -1.2132 C   0  0  0  0  0  0  0  0  0  0  0  0
   -1.8735    2.7795    0.1717 C   0  0  0  0  0  0  0  0  0  0  0  0
   -2.6647    2.8407    1.1015 O   0  0  0  0  0  0  0  0  0  0  0  0
   -0.6245    2.2400    0.2309 O   0  0  0  0  0  0  0  0  0  0  0  0
   -0.2131    1.7575    1.5197 C   0  0  0  0  0  0  0  0  0  0  0  0
   -0.6611    0.3128    1.7392 C   0  0  0  0  0  0  0  0  0  0  0  0
   -0.0676   -0.6653    0.7042 C   0  0  0  0  0  0  0  0  0  0  0  0
    1.3768   -0.8258    0.9814 N   0  0  0  0  0  0  0  0  0  0  0  0
    2.4191   -0.6231   -0.3127 S   0  0  0  0  0  6  0  0  0  0  0  0
    1.9015   -1.3659   -1.4370 O   0  0  0  0  0  0  0  0  0  0  0  0
    3.7526   -0.8552    0.1899 O   0  0  0  0  0  0  0  0  0  0  0  0
    2.2869    0.9513   -0.6573 O   0  0  0  0  0  0  0  0  0  0  0  0
    3.1354    1.4734   -1.6767 C   0  0  0  0  0  0  0  0  0  0  0  0
    2.4755    2.6538   -2.4010 C   0  0  0  0  0  0  0  0  0  0  0  0
    0.9465    2.1403   -3.1812 Cl  0  0  0  0  0  0  0  0  0  0  0  0
    2.1236    3.9876   -1.2583 Cl  0  0  0  0  0  0  0  0  0  0  0  0
    3.5814    3.2718   -3.6688 Cl  0  0  0  0  0  0  0  0  0  0  0  0
   -0.7559   -2.0232    0.7312 C   0  0  0  0  0  0  0  0  0  0  0  0
   -1.0683   -2.6632   -0.4792 C   0  0  0  0  0  0  0  0  0  0  0  0
   -1.6737   -3.9212   -0.4878 C   0  0  0  0  0  0  0  0  0  0  0  0
   -1.9682   -4.5621    0.7126 C   0  0  0  0  0  0  0  0  0  0  0  0
   -1.6513   -3.9491    1.9221 C   0  0  0  0  0  0  0  0  0  0  0  0
   -1.0439   -2.6914    1.9329 C   0  0  0  0  0  0  0  0  0  0  0  0
   -3.1369    3.7554   -1.2335 H   0  0  0  0  0  0  0  0  0  0  0  0
   -2.1600    2.4358   -1.9124 H   0  0  0  0  0  0  0  0  0  0  0  0
   -1.4037    4.0151   -1.5025 H   0  0  0  0  0  0  0  0  0  0  0  0
   -0.5977    2.4056    2.3166 H   0  0  0  0  0  0  0  0  0  0  0  0
    0.8779    1.8359    1.5628 H   0  0  0  0  0  0  0  0  0  0  0  0
   -1.7561    0.2725    1.6785 H   0  0  0  0  0  0  0  0  0  0  0  0
   -0.3804    0.0188    2.7579 H   0  0  0  0  0  0  0  0  0  0  0  0
   -0.2235   -0.2229   -0.2875 H   0  0  0  0  0  0  0  0  0  0  0  0
    1.6010   -1.6950    1.4670 H   0  0  0  0  0  0  0  0  0  0  0  0
    4.0736    1.7844   -1.2015 H   0  0  0  0  0  0  0  0  0  0  0  0
    3.3817    0.6871   -2.4024 H   0  0  0  0  0  0  0  0  0  0  0  0
   -0.8325   -2.1897   -1.4312 H   0  0  0  0  0  0  0  0  0  0  0  0
   -1.9097   -4.4025   -1.4336 H   0  0  0  0  0  0  0  0  0  0  0  0
   -2.4390   -5.5417    0.7049 H   0  0  0  0  0  0  0  0  0  0  0  0
   -1.8751   -4.4527    2.8594 H   0  0  0  0  0  0  0  0  0  0  0  0
   -0.7988   -2.2446    2.8935 H   0  0  0  0  0  0  0  0  0  0  0  0
  1  2  1  0
  2  3  2  0
  2  4  1  0
  4  5  1  0
  5  6  1  0
  6  7  1  0
  7  8  1  0
  8  9  1  0
  9 10  2  0
  9 11  2  0
  9 12  1  0
 12 13  1  0
 13 14  1  0
 14 15  1  0
 14 16  1  0
 14 17  1  0
  7 18  1  0
 18 19  2  0
 19 20  1  0
 20 21  2  0
 21 22  1  0
 22 23  2  0
 23 18  1  0
  1 24  1  0
  1 25  1  0
  1 26  1  0
  5 27  1  0
  5 28  1  0
  6 29  1  0
  6 30  1  0
  7 31  1  0
  8 32  1  0
 13 33  1  0
 13 34  1  0
 19 35  1  0
 20 36  1  0
 21 37  1  0
 22 38  1  0
 23 39  1  0
M  END
$$$$
