
     RDKit          3D

 56 61  0  0  0  0  0  0  0  0999 V2000
   -5.8484   -2.6191    0.3116 C   0  0  0  0  0  0  0  0  0  0  0  0
   -4.5162   -2.2167    0.8696 C   0  0  0  0  0  0  0  0  0  0  0  0
   -4.3438   -1.9460    2.2404 C   0  0  0  0  0  0  0  0  0  0  0  0
   -5.6675   -2.0577    3.3497 Cl  0  0  0  0  0  0  0  0  0  0  0  0
   -3.0913   -1.5762    2.7680 C   0  0  0  0  0  0  0  0  0  0  0  0
   -1.9702   -1.4689    1.9441 C   0  0  0  0  0  0  0  0  0  0  0  0
   -2.1243   -1.7346    0.5935 C   0  0  0  0  0  0  0  0  0  0  0  0
   -3.3783   -2.1042    0.0791 C   0  0  0  0  0  0  0  0  0  0  0  0
   -3.2713   -2.3320   -1.2919 N   0  0  0  0  0  0  0  0  0  0  0  0
   -1.9631   -2.1661   -1.7424 C   0  0  0  0  0  0  0  0  0  0  0  0
   -1.5761   -2.3876   -2.8798 O   0  0  0  0  0  0  0  0  0  0  0  0
   -1.1201   -1.7057   -0.5257 C   0  0  0  0  0  0  0  0  0  0  0  0
    0.0837   -2.5805   -0.3311 N   0  0  0  0  0  0  0  0  0  0  0  0
    1.3212   -1.7164   -0.2370 C   0  0  2  0  0  0  0  0  0  0  0  0
    1.9762   -1.9312    1.1384 C   0  0  0  0  0  0  0  0  0  0  0  0
    3.3429   -1.2962    1.2625 C   0  0  0  0  0  0  0  0  0  0  0  0
    4.4362   -1.8137    0.5537 C   0  0  0  0  0  0  0  0  0  0  0  0
    5.6893   -1.2069    0.6459 C   0  0  0  0  0  0  0  0  0  0  0  0
    5.8628   -0.0818    1.4493 C   0  0  0  0  0  0  0  0  0  0  0  0
    4.7854    0.4345    2.1660 C   0  0  0  0  0  0  0  0  0  0  0  0
    3.5315   -0.1710    2.0767 C   0  0  0  0  0  0  0  0  0  0  0  0
    0.8020   -0.3498   -0.4807 C   0  0  0  0  0  0  0  0  0  0  0  0
   -0.5791   -0.3454   -0.6450 C   0  0  0  0  0  0  0  0  0  0  0  0
   -0.9975    0.9411   -0.8717 C   0  0  0  0  0  0  0  0  0  0  0  0
   -2.2328    1.4192   -1.0052 O   0  0  0  0  0  0  0  0  0  0  0  0
    0.1515    1.7630   -0.8902 N   0  0  0  0  0  0  0  0  0  0  0  0
    0.1795    3.1869   -1.0986 C   0  0  0  0  0  0  0  0  0  0  0  0
   -0.8573    3.8348   -1.7863 C   0  0  0  0  0  0  0  0  0  0  0  0
   -0.8290    5.2194   -1.9859 C   0  0  0  0  0  0  0  0  0  0  0  0
    0.2332    5.9758   -1.5009 C   0  0  0  0  0  0  0  0  0  0  0  0
    1.2692    5.3479   -0.8167 C   0  0  0  0  0  0  0  0  0  0  0  0
    1.2443    3.9632   -0.6170 C   0  0  0  0  0  0  0  0  0  0  0  0
    1.2680    0.9274   -0.6608 C   0  0  0  0  0  0  0  0  0  0  0  0
    2.5199    1.3777   -0.6958 O   0  0  0  0  0  0  0  0  0  0  0  0
   -6.6054   -1.8635    0.5462 H   0  0  0  0  0  0  0  0  0  0  0  0
   -6.1564   -3.5844    0.7264 H   0  0  0  0  0  0  0  0  0  0  0  0
   -5.8329   -2.7210   -0.7769 H   0  0  0  0  0  0  0  0  0  0  0  0
   -2.9886   -1.3716    3.8321 H   0  0  0  0  0  0  0  0  0  0  0  0
   -1.0079   -1.1825    2.3558 H   0  0  0  0  0  0  0  0  0  0  0  0
   -4.0056   -2.6608   -1.9013 H   0  0  0  0  0  0  0  0  0  0  0  0
    0.1803   -3.1009   -1.2077 H   0  0  0  0  0  0  0  0  0  0  0  0
    2.0031   -2.0050   -1.0461 H   0  0  0  0  0  0  0  0  0  0  0  0
    2.0973   -3.0066    1.3284 H   0  0  0  0  0  0  0  0  0  0  0  0
    1.3252   -1.5589    1.9397 H   0  0  0  0  0  0  0  0  0  0  0  0
    4.3214   -2.6961   -0.0726 H   0  0  0  0  0  0  0  0  0  0  0  0
    6.5328   -1.6143    0.0939 H   0  0  0  0  0  0  0  0  0  0  0  0
    6.8395    0.3901    1.5215 H   0  0  0  0  0  0  0  0  0  0  0  0
    4.9206    1.3114    2.7943 H   0  0  0  0  0  0  0  0  0  0  0  0
    2.6992    0.2526    2.6356 H   0  0  0  0  0  0  0  0  0  0  0  0
   -2.8638    0.6956   -0.8506 H   0  0  0  0  0  0  0  0  0  0  0  0
   -1.6888    3.2850   -2.2158 H   0  0  0  0  0  0  0  0  0  0  0  0
   -1.6374    5.7022   -2.5287 H   0  0  0  0  0  0  0  0  0  0  0  0
    0.2544    7.0507   -1.6570 H   0  0  0  0  0  0  0  0  0  0  0  0
    2.0999    5.9331   -0.4311 H   0  0  0  0  0  0  0  0  0  0  0  0
    2.0593    3.5253   -0.0493 H   0  0  0  0  0  0  0  0  0  0  0  0
    3.1236    0.6366   -0.5057 H   0  0  0  0  0  0  0  0  0  0  0  0
  1  2  1  0
  2  3  2  0
  3  4  1  0
  3  5  1  0
  5  6  2  0
  6  7  1  0
  7  8  2  0
  8  9  1  0
  9 10  1  0
 10 11  2  0
 10 12  1  0
 12 13  1  0
 13 14  1  0
 14 15  1  0
 15 16  1  0
 16 17  2  0
 17 18  1  0
 18 19  2  0
 19 20  1  0
 20 21  2  0
 14 22  1  0
 22 23  1  0
 23 24  2  0
 24 25  1  0
 24 26  1  0
 26 27  1  0
 27 28  2  0
 28 29  1  0
 29 30  2  0
 30 31  1  0
 31 32  2  0
 26 33  1  0
 33 34  1  0
  8  2  1  0
 23 12  1  0
 32 27  1  0
 12  7  1  0
 21 16  1  0
 33 22  2  0
  1 35  1  0
  1 36  1  0
  1 37  1  0
  5 38  1  0
  6 39  1  0
  9 40  1  0
 13 41  1  0
 14 42  1  6
 15 43  1  0
 15 44  1  0
 17 45  1  0
 18 46  1  0
 19 47  1  0
 20 48  1  0
 21 49  1  0
 25 50  1  0
 28 51  1  0
 29 52  1  0
 30 53  1  0
 31 54  1  0
 32 55  1  0
 34 56  1  0
M  END
$$$$
