
     RDKit          3D

 59 62  0  0  0  0  0  0  0  0999 V2000
   10.0790    0.5288    0.7819 C   0  0  0  0  0  0  0  0  0  0  0  0
    8.5903    0.4705    0.9515 C   0  0  0  0  0  0  0  0  0  0  0  0
    7.7823   -0.0417   -0.0670 C   0  0  0  0  0  0  0  0  0  0  0  0
    6.3971   -0.1251    0.1018 C   0  0  0  0  0  0  0  0  0  0  0  0
    5.7941    0.2774    1.3052 C   0  0  0  0  0  0  0  0  0  0  0  0
    4.3732    0.1786    1.4309 N   0  0  0  0  0  0  0  0  0  0  0  0
    3.6302    0.0252    0.3014 N   0  0  0  0  0  0  0  0  0  0  0  0
    2.3644    0.1945    0.6907 C   0  0  0  0  0  0  0  0  0  0  0  0
    1.1872    0.2014   -0.1703 C   0  0  0  0  0  0  0  0  0  0  0  0
    1.2369    0.0454   -1.3879 O   0  0  0  0  0  0  0  0  0  0  0  0
   -0.0092    0.4044    0.5498 N   0  0  0  0  0  0  0  0  0  0  0  0
   -1.2855    0.4062   -0.1617 C   0  0  0  0  0  0  0  0  0  0  0  0
   -1.8873   -0.9997   -0.2270 C   0  0  0  0  0  0  0  0  0  0  0  0
   -3.3760   -0.9921   -0.5693 C   0  0  0  0  0  0  0  0  0  0  0  0
   -3.6812   -0.5648   -1.9907 C   0  0  0  0  0  0  0  0  0  0  0  0
   -2.8263   -0.2604   -2.8123 O   0  0  0  0  0  0  0  0  0  0  0  0
   -5.0274   -0.5628   -2.2701 N   0  0  0  0  0  0  0  0  0  0  0  0
   -5.5124   -0.0707   -3.5385 C   0  0  0  0  0  0  0  0  0  0  0  0
   -6.9477   -0.4162   -3.6588 C   0  0  0  0  0  0  0  0  0  0  0  0
   -7.6540   -1.2556   -4.4942 C   0  0  0  0  0  0  0  0  0  0  0  0
   -9.0114   -1.1597   -4.1034 C   0  0  0  0  0  0  0  0  0  0  0  0
   -9.0515   -0.2701   -3.0520 C   0  0  0  0  0  0  0  0  0  0  0  0
  -10.1422    0.2647   -2.2127 C   0  0  0  0  0  0  0  0  0  0  0  0
   -7.7980    0.1837   -2.7735 O   0  0  0  0  0  0  0  0  0  0  0  0
   -0.1005    0.5298    1.9429 N   0  0  0  0  0  0  0  0  0  0  0  0
    0.9666    0.5098    2.6913 C   0  0  0  0  0  0  0  0  0  0  0  0
    0.7978    0.6616    4.1763 C   0  0  0  0  0  0  0  0  0  0  0  0
    2.2605    0.3385    2.0779 C   0  0  0  0  0  0  0  0  0  0  0  0
    3.5521    0.2182    2.5653 C   0  0  0  0  0  0  0  0  0  0  0  0
    4.0340    0.0875    3.9645 C   0  0  0  0  0  0  0  0  0  0  0  0
    6.6037    0.8020    2.3180 C   0  0  0  0  0  0  0  0  0  0  0  0
    7.9915    0.8845    2.1453 C   0  0  0  0  0  0  0  0  0  0  0  0
   10.3434    0.7499   -0.2590 H   0  0  0  0  0  0  0  0  0  0  0  0
   10.5151    1.3206    1.4026 H   0  0  0  0  0  0  0  0  0  0  0  0
   10.5262   -0.4297    1.0679 H   0  0  0  0  0  0  0  0  0  0  0  0
    8.2205   -0.3745   -1.0052 H   0  0  0  0  0  0  0  0  0  0  0  0
    5.7997   -0.5216   -0.7183 H   0  0  0  0  0  0  0  0  0  0  0  0
   -1.1341    0.8103   -1.1678 H   0  0  0  0  0  0  0  0  0  0  0  0
   -1.9573    1.0928    0.3673 H   0  0  0  0  0  0  0  0  0  0  0  0
   -1.3280   -1.6073   -0.9484 H   0  0  0  0  0  0  0  0  0  0  0  0
   -1.7701   -1.4902    0.7472 H   0  0  0  0  0  0  0  0  0  0  0  0
   -3.9170   -0.3336    0.1200 H   0  0  0  0  0  0  0  0  0  0  0  0
   -3.7706   -2.0070   -0.4403 H   0  0  0  0  0  0  0  0  0  0  0  0
   -5.6925   -0.5940   -1.5076 H   0  0  0  0  0  0  0  0  0  0  0  0
   -4.9240   -0.5135   -4.3491 H   0  0  0  0  0  0  0  0  0  0  0  0
   -5.3698    1.0149   -3.5630 H   0  0  0  0  0  0  0  0  0  0  0  0
   -7.2375   -1.8621   -5.2867 H   0  0  0  0  0  0  0  0  0  0  0  0
   -9.8581   -1.6748   -4.5353 H   0  0  0  0  0  0  0  0  0  0  0  0
   -9.8576    0.2555   -1.1552 H   0  0  0  0  0  0  0  0  0  0  0  0
  -10.3723    1.2964   -2.4999 H   0  0  0  0  0  0  0  0  0  0  0  0
  -11.0515   -0.3341   -2.3244 H   0  0  0  0  0  0  0  0  0  0  0  0
    0.9586   -0.3043    4.6618 H   0  0  0  0  0  0  0  0  0  0  0  0
   -0.2146    1.0026    4.4099 H   0  0  0  0  0  0  0  0  0  0  0  0
    1.5082    1.3945    4.5667 H   0  0  0  0  0  0  0  0  0  0  0  0
    3.2890   -0.4136    4.5887 H   0  0  0  0  0  0  0  0  0  0  0  0
    4.2306    1.0709    4.4007 H   0  0  0  0  0  0  0  0  0  0  0  0
    4.9338   -0.5308    4.0334 H   0  0  0  0  0  0  0  0  0  0  0  0
    6.1980    1.1989    3.2400 H   0  0  0  0  0  0  0  0  0  0  0  0
    8.6016    1.2901    2.9495 H   0  0  0  0  0  0  0  0  0  0  0  0
  1  2  1  0
  2  3  2  0
  3  4  1  0
  4  5  2  0
  5  6  1  0
  6  7  1  0
  7  8  2  0
  8  9  1  0
  9 10  2  0
  9 11  1  0
 11 12  1  0
 12 13  1  0
 13 14  1  0
 14 15  1  0
 15 16  2  0
 15 17  1  0
 17 18  1  0
 18 19  1  0
 19 20  2  0
 20 21  1  0
 21 22  2  0
 22 23  1  0
 22 24  1  0
 11 25  1  0
 25 26  2  0
 26 27  1  0
 26 28  1  0
 28 29  2  0
 29 30  1  0
  5 31  1  0
 31 32  2  0
 32  2  1  0
 29  6  1  0
 28  8  1  0
 24 19  1  0
  1 33  1  0
  1 34  1  0
  1 35  1  0
  3 36  1  0
  4 37  1  0
 12 38  1  0
 12 39  1  0
 13 40  1  0
 13 41  1  0
 14 42  1  0
 14 43  1  0
 17 44  1  0
 18 45  1  0
 18 46  1  0
 20 47  1  0
 21 48  1  0
 23 49  1  0
 23 50  1  0
 23 51  1  0
 27 52  1  0
 27 53  1  0
 27 54  1  0
 30 55  1  0
 30 56  1  0
 30 57  1  0
 31 58  1  0
 32 59  1  0
M  END
$$$$
