
     RDKit          3D

 32 32  0  0  0  0  0  0  0  0999 V2000
    1.4546    3.1347   -3.7767 C   0  0  0  0  0  0  0  0  0  0  0  0
    0.4170    2.5487   -3.6239 C   0  0  0  0  0  0  0  0  0  0  0  0
   -0.8588    1.8347   -3.4440 C   0  0  0  0  0  0  0  0  0  0  0  0
   -0.7253    0.7023   -2.5147 N   0  0  0  0  0  0  0  0  0  0  0  0
   -1.9236   -0.1387   -2.5839 C   0  0  0  0  0  0  0  0  0  0  0  0
   -0.4825    1.1389   -1.1277 C   0  0  0  0  0  0  0  0  0  0  0  0
    0.8939    0.6703   -0.6383 C   0  0  0  0  0  0  0  0  0  0  0  0
    1.0287   -0.8501   -0.5483 C   0  0  0  0  0  0  0  0  0  0  0  0
    0.0347   -1.4236    0.3020 O   0  0  0  0  0  0  0  0  0  0  0  0
    0.2159   -1.4483    1.6580 C   0  0  0  0  0  0  0  0  0  0  0  0
    1.3650   -1.0077    2.3214 C   0  0  0  0  0  0  0  0  0  0  0  0
    1.4429   -1.0819    3.7152 C   0  0  0  0  0  0  0  0  0  0  0  0
    2.8637   -0.5324    4.5177 Cl  0  0  0  0  0  0  0  0  0  0  0  0
    0.3863   -1.5928    4.4646 C   0  0  0  0  0  0  0  0  0  0  0  0
   -0.7645   -2.0345    3.8146 C   0  0  0  0  0  0  0  0  0  0  0  0
   -0.8489   -1.9622    2.4206 C   0  0  0  0  0  0  0  0  0  0  0  0
   -2.3076   -2.5160    1.6722 Cl  0  0  0  0  0  0  0  0  0  0  0  0
    2.3776    3.6489   -3.9125 H   0  0  0  0  0  0  0  0  0  0  0  0
   -1.6414    2.5287   -3.1120 H   0  0  0  0  0  0  0  0  0  0  0  0
   -1.1633    1.4640   -4.4313 H   0  0  0  0  0  0  0  0  0  0  0  0
   -1.8212   -1.0143   -1.9333 H   0  0  0  0  0  0  0  0  0  0  0  0
   -2.0663   -0.5243   -3.5996 H   0  0  0  0  0  0  0  0  0  0  0  0
   -2.8278    0.4073   -2.2911 H   0  0  0  0  0  0  0  0  0  0  0  0
   -1.2550    0.7668   -0.4417 H   0  0  0  0  0  0  0  0  0  0  0  0
   -0.5285    2.2320   -1.0346 H   0  0  0  0  0  0  0  0  0  0  0  0
    1.0597    1.1125    0.3508 H   0  0  0  0  0  0  0  0  0  0  0  0
    1.6814    1.0615   -1.2927 H   0  0  0  0  0  0  0  0  0  0  0  0
    0.8802   -1.2904   -1.5408 H   0  0  0  0  0  0  0  0  0  0  0  0
    2.0396   -1.1519   -0.2530 H   0  0  0  0  0  0  0  0  0  0  0  0
    2.2140   -0.6007    1.7839 H   0  0  0  0  0  0  0  0  0  0  0  0
    0.4518   -1.6488    5.5481 H   0  0  0  0  0  0  0  0  0  0  0  0
   -1.5923   -2.4329    4.3958 H   0  0  0  0  0  0  0  0  0  0  0  0
  1  2  3  0
  2  3  1  0
  3  4  1  0
  4  5  1  0
  4  6  1  0
  6  7  1  0
  7  8  1  0
  8  9  1  0
  9 10  1  0
 10 11  2  0
 11 12  1  0
 12 13  1  0
 12 14  2  0
 14 15  1  0
 15 16  2  0
 16 17  1  0
 16 10  1  0
  1 18  1  0
  3 19  1  0
  3 20  1  0
  5 21  1  0
  5 22  1  0
  5 23  1  0
  6 24  1  0
  6 25  1  0
  7 26  1  0
  7 27  1  0
  8 28  1  0
  8 29  1  0
 11 30  1  0
 14 31  1  0
 15 32  1  0
M  END
$$$$
