
     RDKit          3D

 39 41  0  0  0  0  0  0  0  0999 V2000
   -5.4574   -0.8074   -0.3458 C   0  0  0  0  0  0  0  0  0  0  0  0
   -4.6781    0.3767   -0.4574 O   0  0  0  0  0  0  0  0  0  0  0  0
   -3.6477    0.5274    0.4289 C   0  0  0  0  0  0  0  0  0  0  0  0
   -3.3203   -0.3520    1.4639 C   0  0  0  0  0  0  0  0  0  0  0  0
   -2.2347   -0.0783    2.3026 C   0  0  0  0  0  0  0  0  0  0  0  0
   -1.4724    1.0747    2.0946 C   0  0  0  0  0  0  0  0  0  0  0  0
   -0.0944    1.4185    3.1655 S   0  0  0  0  0  6  0  0  0  0  0  0
   -0.3757    0.8029    4.4458 O   0  0  0  0  0  0  0  0  0  0  0  0
    0.2173    2.8281    3.0643 O   0  0  0  0  0  0  0  0  0  0  0  0
    1.1568    0.5153    2.4760 N   0  0  0  0  0  0  0  0  0  0  0  0
    1.4730    0.7035    1.1016 C   0  0  0  0  0  0  0  0  0  0  0  0
    1.9956    1.9151    0.6517 C   0  0  0  0  0  0  0  0  0  0  0  0
    2.2678    2.0984   -0.7046 C   0  0  0  0  0  0  0  0  0  0  0  0
    2.0138    1.0644   -1.6066 C   0  0  0  0  0  0  0  0  0  0  0  0
    2.2751    1.2522   -2.9365 O   0  0  0  0  0  0  0  0  0  0  0  0
    1.4918   -0.1597   -1.1643 C   0  0  0  0  0  0  0  0  0  0  0  0
    1.1319   -1.5025   -2.2859 S   0  0  0  0  0  0  0  0  0  0  0  0
    2.6913   -2.2726   -2.4436 C   0  0  0  0  0  0  0  0  0  0  0  0
    3.0369   -2.9962   -3.5569 N   0  0  0  0  0  0  0  0  0  0  0  0
    4.2448   -3.4214   -3.2756 C   0  0  0  0  0  0  0  0  0  0  0  0
    4.5988   -2.9885   -2.0391 N   0  0  0  0  0  0  0  0  0  0  0  0
    3.6159   -2.2726   -1.4733 N   0  0  0  0  0  0  0  0  0  0  0  0
    1.2182   -0.3300    0.1993 C   0  0  0  0  0  0  0  0  0  0  0  0
   -1.8038    1.9707    1.0772 C   0  0  0  0  0  0  0  0  0  0  0  0
   -2.8877    1.6876    0.2448 C   0  0  0  0  0  0  0  0  0  0  0  0
   -4.8433   -1.7010   -0.4993 H   0  0  0  0  0  0  0  0  0  0  0  0
   -5.9792   -0.8460    0.6160 H   0  0  0  0  0  0  0  0  0  0  0  0
   -6.2152   -0.7846   -1.1348 H   0  0  0  0  0  0  0  0  0  0  0  0
   -3.8931   -1.2552    1.6481 H   0  0  0  0  0  0  0  0  0  0  0  0
   -1.9963   -0.7643    3.1124 H   0  0  0  0  0  0  0  0  0  0  0  0
    1.1858   -0.4348    2.8428 H   0  0  0  0  0  0  0  0  0  0  0  0
    2.2011    2.7215    1.3524 H   0  0  0  0  0  0  0  0  0  0  0  0
    2.6746    3.0490   -1.0359 H   0  0  0  0  0  0  0  0  0  0  0  0
    2.6317    2.1443   -3.0729 H   0  0  0  0  0  0  0  0  0  0  0  0
    4.8838   -4.0243   -3.9045 H   0  0  0  0  0  0  0  0  0  0  0  0
    5.4607   -3.1423   -1.5282 H   0  0  0  0  0  0  0  0  0  0  0  0
    0.8058   -1.2723    0.5490 H   0  0  0  0  0  0  0  0  0  0  0  0
   -1.2273    2.8793    0.9202 H   0  0  0  0  0  0  0  0  0  0  0  0
   -3.1459    2.3768   -0.5563 H   0  0  0  0  0  0  0  0  0  0  0  0
  1  2  1  0
  2  3  1  0
  3  4  2  0
  4  5  1  0
  5  6  2  0
  6  7  1  0
  7  8  2  0
  7  9  2  0
  7 10  1  0
 10 11  1  0
 11 12  2  0
 12 13  1  0
 13 14  2  0
 14 15  1  0
 14 16  1  0
 16 17  1  0
 17 18  1  0
 18 19  1  0
 19 20  2  0
 20 21  1  0
 21 22  1  0
 16 23  2  0
  6 24  1  0
 24 25  2  0
 25  3  1  0
 23 11  1  0
 22 18  2  0
  1 26  1  0
  1 27  1  0
  1 28  1  0
  4 29  1  0
  5 30  1  0
 10 31  1  0
 12 32  1  0
 13 33  1  0
 15 34  1  0
 20 35  1  0
 21 36  1  0
 23 37  1  0
 24 38  1  0
 25 39  1  0
M  END
$$$$
