
     RDKit          3D

 36 39  0  0  0  0  0  0  0  0999 V2000
   -6.6471    2.5400   -0.5750 C   0  0  0  0  0  0  0  0  0  0  0  0
   -5.6195    1.5684   -1.0747 C   0  0  0  0  0  0  0  0  0  0  0  0
   -5.3153    1.4317   -2.2517 O   0  0  0  0  0  0  0  0  0  0  0  0
   -5.0972    0.8745    0.0126 O   0  0  0  0  0  0  0  0  0  0  0  0
   -4.1103   -0.0800   -0.2709 C   0  0  0  0  0  0  0  0  0  0  0  0
   -4.3291   -1.3763    0.1898 C   0  0  0  0  0  0  0  0  0  0  0  0
   -3.3573   -2.3509   -0.0269 C   0  0  0  0  0  0  0  0  0  0  0  0
   -2.1710   -2.0216   -0.6887 C   0  0  0  0  0  0  0  0  0  0  0  0
   -1.9426   -0.7097   -1.1249 C   0  0  0  0  0  0  0  0  0  0  0  0
   -0.7151   -0.3510   -1.8392 C   0  0  0  0  0  0  0  0  0  0  0  0
    0.5188   -0.3033   -1.3155 C   0  0  0  0  0  0  0  0  0  0  0  0
    1.9134    0.1549   -2.2966 S   0  0  0  0  0  0  0  0  0  0  0  0
    2.9291   -0.0277   -0.9301 C   0  0  0  0  0  0  0  0  0  0  0  0
    4.2030    0.1085   -0.7012 N   0  0  0  0  0  0  0  0  0  0  0  0
    4.2742   -0.2146    0.6475 C   0  0  0  0  0  0  0  0  0  0  0  0
    5.6272   -0.2035    1.4310 C   0  0  0  0  0  0  0  0  0  0  0  0
    6.8594    0.1168    0.8936 C   0  0  0  0  0  0  0  0  0  0  0  0
    7.8045    0.0003    1.9417 C   0  0  0  0  0  0  0  0  0  0  0  0
    7.0933   -0.3834    3.0535 C   0  0  0  0  0  0  0  0  0  0  0  0
    5.7751   -0.5096    2.7556 O   0  0  0  0  0  0  0  0  0  0  0  0
    3.0984   -0.5362    1.2239 N   0  0  0  0  0  0  0  0  0  0  0  0
    2.2640   -0.4030    0.1795 N   0  0  0  0  0  0  0  0  0  0  0  0
    0.8996   -0.5938    0.1078 C   0  0  0  0  0  0  0  0  0  0  0  0
    0.2210   -0.9310    1.0588 O   0  0  0  0  0  0  0  0  0  0  0  0
   -2.9198    0.2676   -0.9108 C   0  0  0  0  0  0  0  0  0  0  0  0
   -6.1817    3.2511    0.1120 H   0  0  0  0  0  0  0  0  0  0  0  0
   -7.0626    3.0945   -1.4213 H   0  0  0  0  0  0  0  0  0  0  0  0
   -7.4583    1.9998   -0.0805 H   0  0  0  0  0  0  0  0  0  0  0  0
   -5.2467   -1.6278    0.7132 H   0  0  0  0  0  0  0  0  0  0  0  0
   -3.5179   -3.3670    0.3245 H   0  0  0  0  0  0  0  0  0  0  0  0
   -1.4259   -2.7975   -0.8484 H   0  0  0  0  0  0  0  0  0  0  0  0
   -0.8781   -0.0919   -2.8846 H   0  0  0  0  0  0  0  0  0  0  0  0
    7.0437    0.3996   -0.1339 H   0  0  0  0  0  0  0  0  0  0  0  0
    8.8702    0.1740    1.8936 H   0  0  0  0  0  0  0  0  0  0  0  0
    7.3612   -0.5971    4.0790 H   0  0  0  0  0  0  0  0  0  0  0  0
   -2.7607    1.2895   -1.2431 H   0  0  0  0  0  0  0  0  0  0  0  0
  1  2  1  0
  2  3  2  0
  2  4  1  0
  4  5  1  0
  5  6  2  0
  6  7  1  0
  7  8  2  0
  8  9  1  0
  9 10  1  0
 10 11  2  3
 11 12  1  0
 12 13  1  0
 13 14  2  0
 14 15  1  0
 15 16  1  0
 16 17  2  0
 17 18  1  0
 18 19  2  0
 19 20  1  0
 15 21  2  0
 21 22  1  0
 22 23  1  0
 23 24  2  0
  9 25  2  0
 25  5  1  0
 23 11  1  0
 22 13  1  0
 20 16  1  0
  1 26  1  0
  1 27  1  0
  1 28  1  0
  6 29  1  0
  7 30  1  0
  8 31  1  0
 10 32  1  0
 17 33  1  0
 18 34  1  0
 19 35  1  0
 25 36  1  0
M  END
$$$$
