
     RDKit          3D

 42 44  0  0  0  0  0  0  0  0999 V2000
   -0.3656   -2.9747    0.0083 C   0  0  0  0  0  0  0  0  0  0  0  0
   -0.7797   -1.5409   -0.0187 C   0  0  0  0  0  0  0  0  0  0  0  0
   -0.1156   -0.4963   -0.5403 C   0  0  0  0  0  0  0  0  0  0  0  0
    1.0757   -0.3050   -1.1912 N   0  0  0  0  0  0  0  0  0  0  0  0
    2.0622   -1.2080   -1.5243 C   0  0  0  0  0  0  0  0  0  0  0  0
    2.0594   -2.4112   -1.2773 O   0  0  0  0  0  0  0  0  0  0  0  0
    3.2286   -0.5788   -2.2518 C   0  0  0  0  0  0  0  0  0  0  0  0
    4.2333   -0.1409   -1.3064 N   0  0  0  0  0  0  0  0  0  0  0  0
    5.2592   -0.8857   -0.7981 C   0  0  0  0  0  0  0  0  0  0  0  0
    5.9599   -0.0577    0.0443 C   0  0  0  0  0  0  0  0  0  0  0  0
    5.2757    1.1765   -0.0229 C   0  0  0  0  0  0  0  0  0  0  0  0
    5.5888    2.4082    0.6827 N   0  0  0  0  0  4  0  0  0  0  0  0
    6.6644    2.4111    1.2989 O   0  0  0  0  0  0  0  0  0  0  0  0
    4.7852    3.3494    0.6274 O   0  0  0  0  0  1  0  0  0  0  0  0
    4.2163    1.1300   -0.8517 N   0  0  0  0  0  0  0  0  0  0  0  0
   -0.9979    0.6955   -0.3126 C   0  0  0  0  0  0  0  0  0  0  0  0
   -0.6901    1.8055   -0.7230 O   0  0  0  0  0  0  0  0  0  0  0  0
   -2.1383    0.2345    0.3427 N   0  0  0  0  0  0  0  0  0  0  0  0
   -3.4103    0.8583    0.3306 C   0  0  0  0  0  0  0  0  0  0  0  0
   -4.5873    0.1134    0.4922 C   0  0  0  0  0  0  0  0  0  0  0  0
   -5.8414    0.7313    0.4852 C   0  0  0  0  0  0  0  0  0  0  0  0
   -5.9390    2.1070    0.3136 C   0  0  0  0  0  0  0  0  0  0  0  0
   -4.7854    2.8630    0.1411 C   0  0  0  0  0  0  0  0  0  0  0  0
   -3.5327    2.2426    0.1492 C   0  0  0  0  0  0  0  0  0  0  0  0
   -1.9905   -1.1603    0.6001 N   0  0  0  0  0  0  0  0  0  0  0  0
   -2.1607   -1.4988    2.0281 C   0  0  0  0  0  0  0  0  0  0  0  0
    0.5372   -3.1077    0.6133 H   0  0  0  0  0  0  0  0  0  0  0  0
   -1.1437   -3.6115    0.4459 H   0  0  0  0  0  0  0  0  0  0  0  0
   -0.1993   -3.3567   -1.0021 H   0  0  0  0  0  0  0  0  0  0  0  0
    1.2505    0.6797   -1.4017 H   0  0  0  0  0  0  0  0  0  0  0  0
    2.9102    0.2773   -2.8519 H   0  0  0  0  0  0  0  0  0  0  0  0
    3.6815   -1.3113   -2.9292 H   0  0  0  0  0  0  0  0  0  0  0  0
    5.3951   -1.9238   -1.0638 H   0  0  0  0  0  0  0  0  0  0  0  0
    6.8342   -0.3026    0.6288 H   0  0  0  0  0  0  0  0  0  0  0  0
   -4.5510   -0.9686    0.5944 H   0  0  0  0  0  0  0  0  0  0  0  0
   -6.7425    0.1381    0.6101 H   0  0  0  0  0  0  0  0  0  0  0  0
   -6.9136    2.5908    0.3089 H   0  0  0  0  0  0  0  0  0  0  0  0
   -4.8552    3.9381    0.0035 H   0  0  0  0  0  0  0  0  0  0  0  0
   -2.6546    2.8688    0.0222 H   0  0  0  0  0  0  0  0  0  0  0  0
   -2.2169   -2.5824    2.1614 H   0  0  0  0  0  0  0  0  0  0  0  0
   -1.3237   -1.1154    2.6243 H   0  0  0  0  0  0  0  0  0  0  0  0
   -3.0824   -1.0813    2.4421 H   0  0  0  0  0  0  0  0  0  0  0  0
  1  2  1  0
  2  3  2  0
  3  4  1  0
  4  5  1  0
  5  6  2  0
  5  7  1  0
  7  8  1  0
  8  9  1  0
  9 10  2  0
 10 11  1  0
 11 12  1  0
 12 13  2  0
 12 14  1  0
 11 15  2  0
  3 16  1  0
 16 17  2  0
 16 18  1  0
 18 19  1  0
 19 20  2  0
 20 21  1  0
 21 22  2  0
 22 23  1  0
 23 24  2  0
 18 25  1  0
 25 26  1  0
 25  2  1  0
 15  8  1  0
 24 19  1  0
  1 27  1  0
  1 28  1  0
  1 29  1  0
  4 30  1  0
  7 31  1  0
  7 32  1  0
  9 33  1  0
 10 34  1  0
 20 35  1  0
 21 36  1  0
 22 37  1  0
 23 38  1  0
 24 39  1  0
 26 40  1  0
 26 41  1  0
 26 42  1  0
M  CHG  2  12   1  14  -1
M  END
$$$$
