
     RDKit          3D

 53 55  0  0  0  0  0  0  0  0999 V2000
   -8.2573   -3.7896    2.3983 C   0  0  0  0  0  0  0  0  0  0  0  0
   -7.7490   -2.6669    1.6885 O   0  0  0  0  0  0  0  0  0  0  0  0
   -6.3979   -2.6234    1.4820 C   0  0  0  0  0  0  0  0  0  0  0  0
   -5.4652   -3.5500    1.9554 C   0  0  0  0  0  0  0  0  0  0  0  0
   -4.1047   -3.3859    1.6742 C   0  0  0  0  0  0  0  0  0  0  0  0
   -3.6828   -2.2876    0.9215 C   0  0  0  0  0  0  0  0  0  0  0  0
   -1.9597   -2.0616    0.5572 S   0  0  0  0  0  6  0  0  0  0  0  0
   -1.8577   -1.7180   -0.8431 O   0  0  0  0  0  0  0  0  0  0  0  0
   -1.2260   -3.1756    1.1180 O   0  0  0  0  0  0  0  0  0  0  0  0
   -1.5809   -0.6877    1.4635 N   0  0  0  0  0  0  0  0  0  0  0  0
   -1.7083   -0.7855    2.9237 C   0  0  0  0  0  0  0  0  0  0  0  0
   -0.8836    0.3948    3.3767 C   0  0  0  0  0  0  0  0  0  0  0  0
    0.2207    0.4342    2.4706 O   0  0  0  0  0  0  0  0  0  0  0  0
   -0.2128   -0.1695    1.2253 C   0  0  0  0  0  0  0  0  0  0  0  0
   -0.2140    0.9152    0.1262 C   0  0  0  0  0  0  0  0  0  0  0  0
    1.0664    1.5851   -0.0282 N   0  0  0  0  0  0  0  0  0  0  0  0
    2.1574    0.9399   -0.5603 C   0  0  0  0  0  0  0  0  0  0  0  0
    2.1546   -0.1719   -1.0689 O   0  0  0  0  0  0  0  0  0  0  0  0
    3.4743    1.7419   -0.4491 C   0  0  0  0  0  0  0  0  0  0  0  0
    3.4847    2.8332    0.1030 O   0  0  0  0  0  0  0  0  0  0  0  0
    4.5497    1.1049   -1.0199 N   0  0  0  0  0  0  0  0  0  0  0  0
    5.8344    1.7361   -1.1645 C   0  0  0  0  0  0  0  0  0  0  0  0
    5.9749    2.3636   -2.5278 C   0  0  0  0  0  0  0  0  0  0  0  0
    6.5377    1.6423   -3.5928 C   0  0  0  0  0  0  0  0  0  0  0  0
    6.6440    2.2221   -4.8582 C   0  0  0  0  0  0  0  0  0  0  0  0
    6.1818    3.5171   -5.0611 C   0  0  0  0  0  0  0  0  0  0  0  0
    6.2844    4.0708   -6.2765 F   0  0  0  0  0  0  0  0  0  0  0  0
    5.6116    4.2440   -4.0236 C   0  0  0  0  0  0  0  0  0  0  0  0
    5.5044    3.6671   -2.7576 C   0  0  0  0  0  0  0  0  0  0  0  0
   -4.6060   -1.3606    0.4351 C   0  0  0  0  0  0  0  0  0  0  0  0
   -5.9608   -1.5321    0.7228 C   0  0  0  0  0  0  0  0  0  0  0  0
   -9.3454   -3.6862    2.4523 H   0  0  0  0  0  0  0  0  0  0  0  0
   -8.0371   -4.7237    1.8711 H   0  0  0  0  0  0  0  0  0  0  0  0
   -7.8738   -3.8134    3.4236 H   0  0  0  0  0  0  0  0  0  0  0  0
   -5.7641   -4.4124    2.5427 H   0  0  0  0  0  0  0  0  0  0  0  0
   -3.3889   -4.1185    2.0413 H   0  0  0  0  0  0  0  0  0  0  0  0
   -2.7442   -0.7062    3.2604 H   0  0  0  0  0  0  0  0  0  0  0  0
   -1.2653   -1.7160    3.2940 H   0  0  0  0  0  0  0  0  0  0  0  0
   -1.4377    1.3351    3.2799 H   0  0  0  0  0  0  0  0  0  0  0  0
   -0.5254    0.2971    4.4048 H   0  0  0  0  0  0  0  0  0  0  0  0
    0.5012   -0.9692    1.0021 H   0  0  0  0  0  0  0  0  0  0  0  0
   -0.4907    0.4851   -0.8412 H   0  0  0  0  0  0  0  0  0  0  0  0
   -0.9391    1.7000    0.3695 H   0  0  0  0  0  0  0  0  0  0  0  0
    1.2654    2.4185    0.5194 H   0  0  0  0  0  0  0  0  0  0  0  0
    4.3470    0.2488   -1.5284 H   0  0  0  0  0  0  0  0  0  0  0  0
    5.9787    2.4904   -0.3825 H   0  0  0  0  0  0  0  0  0  0  0  0
    6.5994    0.9657   -1.0183 H   0  0  0  0  0  0  0  0  0  0  0  0
    6.8950    0.6258   -3.4431 H   0  0  0  0  0  0  0  0  0  0  0  0
    7.0800    1.6726   -5.6862 H   0  0  0  0  0  0  0  0  0  0  0  0
    5.2510    5.2511   -4.2063 H   0  0  0  0  0  0  0  0  0  0  0  0
    5.0471    4.2345   -1.9482 H   0  0  0  0  0  0  0  0  0  0  0  0
   -4.2806   -0.5137   -0.1645 H   0  0  0  0  0  0  0  0  0  0  0  0
   -6.6866   -0.8139    0.3473 H   0  0  0  0  0  0  0  0  0  0  0  0
  1  2  1  0
  2  3  1  0
  3  4  2  0
  4  5  1  0
  5  6  2  0
  6  7  1  0
  7  8  2  0
  7  9  2  0
  7 10  1  0
 10 11  1  0
 11 12  1  0
 12 13  1  0
 13 14  1  0
 14 15  1  0
 15 16  1  0
 16 17  1  0
 17 18  2  0
 17 19  1  0
 19 20  2  0
 19 21  1  0
 21 22  1  0
 22 23  1  0
 23 24  2  0
 24 25  1  0
 25 26  2  0
 26 27  1  0
 26 28  1  0
 28 29  2  0
  6 30  1  0
 30 31  2  0
 31  3  1  0
 14 10  1  0
 29 23  1  0
  1 32  1  0
  1 33  1  0
  1 34  1  0
  4 35  1  0
  5 36  1  0
 11 37  1  0
 11 38  1  0
 12 39  1  0
 12 40  1  0
 14 41  1  0
 15 42  1  0
 15 43  1  0
 16 44  1  0
 21 45  1  0
 22 46  1  0
 22 47  1  0
 24 48  1  0
 25 49  1  0
 28 50  1  0
 29 51  1  0
 30 52  1  0
 31 53  1  0
M  END
$$$$
