
     RDKit          3D

 59 62  0  0  0  0  0  0  0  0999 V2000
   -3.5644   -0.3108    0.9212 C   0  0  0  0  0  0  0  0  0  0  0  0
   -2.6353   -0.4074   -0.1656 O   0  0  0  0  0  0  0  0  0  0  0  0
   -3.2373   -0.0285   -1.3420 C   0  0  0  0  0  0  0  0  0  0  0  0
   -3.7369   -1.0447   -2.1781 C   0  0  0  0  0  0  0  0  0  0  0  0
   -3.6454   -2.4942   -1.7921 C   0  0  0  0  0  0  0  0  0  0  0  0
   -4.3789   -0.6865   -3.3720 C   0  0  0  0  0  0  0  0  0  0  0  0
   -4.4911    0.6547   -3.7354 C   0  0  0  0  0  0  0  0  0  0  0  0
   -5.3586    1.1156   -5.3515 Br  0  0  0  0  0  0  0  0  0  0  0  0
   -3.9592    1.6554   -2.9277 C   0  0  0  0  0  0  0  0  0  0  0  0
   -3.3076    1.3226   -1.7303 C   0  0  0  0  0  0  0  0  0  0  0  0
   -2.7188    2.4540   -0.9468 C   0  0  0  0  0  0  0  0  0  0  0  0
   -3.2074    3.5709   -1.0834 O   0  0  0  0  0  0  0  0  0  0  0  0
   -1.6447    2.1287   -0.1543 N   0  0  0  0  0  0  0  0  0  0  0  0
   -0.8689    2.9600    0.6798 C   0  0  0  0  0  0  0  0  0  0  0  0
   -1.0825    4.3300    0.8318 C   0  0  0  0  0  0  0  0  0  0  0  0
   -0.2700    5.0713    1.6913 C   0  0  0  0  0  0  0  0  0  0  0  0
    0.7577    4.4483    2.3965 C   0  0  0  0  0  0  0  0  0  0  0  0
    0.9806    3.0781    2.2471 C   0  0  0  0  0  0  0  0  0  0  0  0
    0.1731    2.3137    1.3938 C   0  0  0  0  0  0  0  0  0  0  0  0
    0.3714    0.9235    1.1827 N   0  0  0  0  0  0  0  0  0  0  0  0
    0.5718    0.1288    2.4223 C   0  0  0  0  0  0  0  0  0  0  0  0
    0.6315   -1.3685    2.0574 C   0  0  0  0  0  0  0  0  0  0  0  0
    1.6838   -1.6275    1.0656 N   0  0  0  0  0  0  0  0  0  0  0  0
    2.9547   -1.9325    1.5585 C   0  0  0  0  0  0  0  0  0  0  0  0
    3.2341   -1.9090    2.7547 O   0  0  0  0  0  0  0  0  0  0  0  0
    4.0088   -2.3375    0.5947 C   0  0  0  0  0  0  0  0  0  0  0  0
    3.7228   -3.2277   -0.4479 C   0  0  0  0  0  0  0  0  0  0  0  0
    4.7354   -3.6181   -1.3252 C   0  0  0  0  0  0  0  0  0  0  0  0
    6.0324   -3.1338   -1.1529 C   0  0  0  0  0  0  0  0  0  0  0  0
    6.3233   -2.2653   -0.0996 C   0  0  0  0  0  0  0  0  0  0  0  0
    5.3137   -1.8708    0.7798 C   0  0  0  0  0  0  0  0  0  0  0  0
    1.5167   -0.8257   -0.1596 C   0  0  0  0  0  0  0  0  0  0  0  0
    1.4385    0.6841    0.1740 C   0  0  0  0  0  0  0  0  0  0  0  0
   -3.8634    0.7272    1.1010 H   0  0  0  0  0  0  0  0  0  0  0  0
   -3.0624   -0.6797    1.8207 H   0  0  0  0  0  0  0  0  0  0  0  0
   -4.4495   -0.9314    0.7454 H   0  0  0  0  0  0  0  0  0  0  0  0
   -2.6585   -2.7293   -1.3795 H   0  0  0  0  0  0  0  0  0  0  0  0
   -4.4137   -2.7342   -1.0506 H   0  0  0  0  0  0  0  0  0  0  0  0
   -3.7925   -3.1451   -2.6611 H   0  0  0  0  0  0  0  0  0  0  0  0
   -4.7938   -1.4567   -4.0189 H   0  0  0  0  0  0  0  0  0  0  0  0
   -4.0392    2.6980   -3.2282 H   0  0  0  0  0  0  0  0  0  0  0  0
   -1.3580    1.1515   -0.0986 H   0  0  0  0  0  0  0  0  0  0  0  0
   -1.8743    4.8434    0.2962 H   0  0  0  0  0  0  0  0  0  0  0  0
   -0.4413    6.1386    1.8062 H   0  0  0  0  0  0  0  0  0  0  0  0
    1.3907    5.0315    3.0605 H   0  0  0  0  0  0  0  0  0  0  0  0
    1.8037    2.6243    2.7908 H   0  0  0  0  0  0  0  0  0  0  0  0
   -0.2644    0.2944    3.1123 H   0  0  0  0  0  0  0  0  0  0  0  0
    1.5031    0.4130    2.9270 H   0  0  0  0  0  0  0  0  0  0  0  0
    0.7972   -1.9726    2.9556 H   0  0  0  0  0  0  0  0  0  0  0  0
   -0.3191   -1.6870    1.6123 H   0  0  0  0  0  0  0  0  0  0  0  0
    2.7206   -3.6286   -0.5710 H   0  0  0  0  0  0  0  0  0  0  0  0
    4.5166   -4.3082   -2.1357 H   0  0  0  0  0  0  0  0  0  0  0  0
    6.8220   -3.4439   -1.8324 H   0  0  0  0  0  0  0  0  0  0  0  0
    7.3374   -1.9016    0.0422 H   0  0  0  0  0  0  0  0  0  0  0  0
    5.5444   -1.2083    1.6107 H   0  0  0  0  0  0  0  0  0  0  0  0
    2.3335   -0.9886   -0.8657 H   0  0  0  0  0  0  0  0  0  0  0  0
    0.5849   -1.1540   -0.6356 H   0  0  0  0  0  0  0  0  0  0  0  0
    1.2248    1.2341   -0.7507 H   0  0  0  0  0  0  0  0  0  0  0  0
    2.4080    1.0263    0.5604 H   0  0  0  0  0  0  0  0  0  0  0  0
  1  2  1  0
  2  3  1  0
  3  4  2  0
  4  5  1  0
  4  6  1  0
  6  7  2  0
  7  8  1  0
  7  9  1  0
  9 10  2  0
 10 11  1  0
 11 12  2  0
 11 13  1  0
 13 14  1  0
 14 15  2  0
 15 16  1  0
 16 17  2  0
 17 18  1  0
 18 19  2  0
 19 20  1  0
 20 21  1  0
 21 22  1  0
 22 23  1  0
 23 24  1  0
 24 25  2  0
 24 26  1  0
 26 27  2  0
 27 28  1  0
 28 29  2  0
 29 30  1  0
 30 31  2  0
 23 32  1  0
 32 33  1  0
 10  3  1  0
 19 14  1  0
 33 20  1  0
 31 26  1  0
  1 34  1  0
  1 35  1  0
  1 36  1  0
  5 37  1  0
  5 38  1  0
  5 39  1  0
  6 40  1  0
  9 41  1  0
 13 42  1  0
 15 43  1  0
 16 44  1  0
 17 45  1  0
 18 46  1  0
 21 47  1  0
 21 48  1  0
 22 49  1  0
 22 50  1  0
 27 51  1  0
 28 52  1  0
 29 53  1  0
 30 54  1  0
 31 55  1  0
 32 56  1  0
 32 57  1  0
 33 58  1  0
 33 59  1  0
M  END
$$$$
