
     RDKit          3D

 44 45  0  0  0  0  0  0  0  0999 V2000
   -7.1685   -1.6186    1.4691 C   0  0  0  0  0  0  0  0  0  0  0  0
   -6.7957   -0.4080    2.3131 C   0  0  0  0  0  0  0  0  0  0  0  0
   -6.4443    0.8085    1.4604 C   0  0  0  0  0  0  0  0  0  0  0  0
   -5.3444    0.5261    0.5819 O   0  0  0  0  0  0  0  0  0  0  0  0
   -4.1068    0.6820    1.1170 C   0  0  0  0  0  0  0  0  0  0  0  0
   -3.8633    1.0430    2.2566 O   0  0  0  0  0  0  0  0  0  0  0  0
   -3.0603    0.3407    0.1123 C   0  0  0  0  0  0  0  0  0  0  0  0
   -3.3836   -0.0881   -1.1818 C   0  0  0  0  0  0  0  0  0  0  0  0
   -2.3703   -0.3987   -2.0869 C   0  0  0  0  0  0  0  0  0  0  0  0
   -1.0336   -0.2828   -1.7028 C   0  0  0  0  0  0  0  0  0  0  0  0
   -0.6924    0.1442   -0.4129 C   0  0  0  0  0  0  0  0  0  0  0  0
    0.6802    0.2322   -0.1156 N   0  0  0  0  0  0  0  0  0  0  0  0
    1.2788    0.6169    1.0697 C   0  0  0  0  0  0  0  0  0  0  0  0
    0.7080    0.9543    2.1026 O   0  0  0  0  0  0  0  0  0  0  0  0
    2.8096    0.5931    1.0031 C   0  0  0  0  0  0  0  0  0  0  0  0
    3.2709    0.1485   -0.2722 O   0  0  0  0  0  0  0  0  0  0  0  0
    4.6246    0.0954   -0.4581 C   0  0  0  0  0  0  0  0  0  0  0  0
    5.5970    0.4196    0.4910 C   0  0  0  0  0  0  0  0  0  0  0  0
    6.9566    0.3221    0.1695 C   0  0  0  0  0  0  0  0  0  0  0  0
    7.3401   -0.1021   -1.1090 C   0  0  0  0  0  0  0  0  0  0  0  0
    8.7648   -0.2045   -1.4477 N   0  0  0  0  0  4  0  0  0  0  0  0
    9.5868   -0.0197   -0.5391 O   0  0  0  0  0  0  0  0  0  0  0  0
    9.0601   -0.4698   -2.6219 O   0  0  0  0  0  1  0  0  0  0  0  0
    6.3734   -0.4288   -2.0655 C   0  0  0  0  0  0  0  0  0  0  0  0
    5.0199   -0.3284   -1.7322 C   0  0  0  0  0  0  0  0  0  0  0  0
   -1.7117    0.4545    0.4907 C   0  0  0  0  0  0  0  0  0  0  0  0
   -6.3269   -1.9470    0.8505 H   0  0  0  0  0  0  0  0  0  0  0  0
   -7.4560   -2.4544    2.1146 H   0  0  0  0  0  0  0  0  0  0  0  0
   -8.0130   -1.3922    0.8102 H   0  0  0  0  0  0  0  0  0  0  0  0
   -7.6324   -0.1551    2.9737 H   0  0  0  0  0  0  0  0  0  0  0  0
   -5.9447   -0.6787    2.9484 H   0  0  0  0  0  0  0  0  0  0  0  0
   -6.2285    1.6813    2.0886 H   0  0  0  0  0  0  0  0  0  0  0  0
   -7.2964    1.0800    0.8272 H   0  0  0  0  0  0  0  0  0  0  0  0
   -4.4192   -0.1853   -1.4981 H   0  0  0  0  0  0  0  0  0  0  0  0
   -2.6217   -0.7316   -3.0910 H   0  0  0  0  0  0  0  0  0  0  0  0
   -0.2625   -0.5319   -2.4278 H   0  0  0  0  0  0  0  0  0  0  0  0
    1.3315   -0.0190   -0.8538 H   0  0  0  0  0  0  0  0  0  0  0  0
    3.1533    1.6166    1.1925 H   0  0  0  0  0  0  0  0  0  0  0  0
    3.1528   -0.0924    1.7865 H   0  0  0  0  0  0  0  0  0  0  0  0
    5.3366    0.7523    1.4916 H   0  0  0  0  0  0  0  0  0  0  0  0
    7.6980    0.5812    0.9232 H   0  0  0  0  0  0  0  0  0  0  0  0
    6.6519   -0.7604   -3.0636 H   0  0  0  0  0  0  0  0  0  0  0  0
    4.2675   -0.5830   -2.4760 H   0  0  0  0  0  0  0  0  0  0  0  0
   -1.4861    0.7882    1.4999 H   0  0  0  0  0  0  0  0  0  0  0  0
  1  2  1  0
  2  3  1  0
  3  4  1  0
  4  5  1  0
  5  6  2  0
  5  7  1  0
  7  8  2  0
  8  9  1  0
  9 10  2  0
 10 11  1  0
 11 12  1  0
 12 13  1  0
 13 14  2  0
 13 15  1  0
 15 16  1  0
 16 17  1  0
 17 18  2  0
 18 19  1  0
 19 20  2  0
 20 21  1  0
 21 22  2  0
 21 23  1  0
 20 24  1  0
 24 25  2  0
 11 26  2  0
 26  7  1  0
 25 17  1  0
  1 27  1  0
  1 28  1  0
  1 29  1  0
  2 30  1  0
  2 31  1  0
  3 32  1  0
  3 33  1  0
  8 34  1  0
  9 35  1  0
 10 36  1  0
 12 37  1  0
 15 38  1  0
 15 39  1  0
 18 40  1  0
 19 41  1  0
 24 42  1  0
 25 43  1  0
 26 44  1  0
M  CHG  2  21   1  23  -1
M  END
$$$$
