
     RDKit          3D

 44 45  0  0  0  0  0  0  0  0999 V2000
   -7.1759   -1.7674    2.4219 C   0  0  0  0  0  0  0  0  0  0  0  0
   -6.2716   -0.8020    1.6773 C   0  0  0  0  0  0  0  0  0  0  0  0
   -4.9214   -1.4275    1.3499 C   0  0  0  0  0  0  0  0  0  0  0  0
   -4.1380   -0.4499    0.6519 O   0  0  0  0  0  0  0  0  0  0  0  0
   -2.9017   -0.8773    0.2962 C   0  0  0  0  0  0  0  0  0  0  0  0
   -2.4352   -1.9837    0.5183 O   0  0  0  0  0  0  0  0  0  0  0  0
   -2.1583    0.1949   -0.4184 C   0  0  0  0  0  0  0  0  0  0  0  0
   -2.7115    1.4550   -0.6686 C   0  0  0  0  0  0  0  0  0  0  0  0
   -1.9635    2.4185   -1.3443 C   0  0  0  0  0  0  0  0  0  0  0  0
   -0.6635    2.1315   -1.7719 C   0  0  0  0  0  0  0  0  0  0  0  0
   -0.0974    0.8794   -1.5282 C   0  0  0  0  0  0  0  0  0  0  0  0
    1.2023    0.5131   -1.9248 N   0  0  0  0  0  0  0  0  0  0  0  0
    2.1542    1.2949   -2.5556 C   0  0  0  0  0  0  0  0  0  0  0  0
    2.0322    2.4658   -2.9023 O   0  0  0  0  0  0  0  0  0  0  0  0
    3.4514    0.5268   -2.8371 C   0  0  0  0  0  0  0  0  0  0  0  0
    3.6938   -0.5670   -1.9587 O   0  0  0  0  0  0  0  0  0  0  0  0
    4.2293   -0.2983   -0.7288 C   0  0  0  0  0  0  0  0  0  0  0  0
    4.5644   -1.4357    0.0147 C   0  0  0  0  0  0  0  0  0  0  0  0
    5.1092   -1.3193    1.2962 C   0  0  0  0  0  0  0  0  0  0  0  0
    5.3166   -0.0471    1.8391 C   0  0  0  0  0  0  0  0  0  0  0  0
    5.8892    0.0884    3.1843 N   0  0  0  0  0  4  0  0  0  0  0  0
    6.0598    1.2339    3.6251 O   0  0  0  0  0  0  0  0  0  0  0  0
    6.1691   -0.9507    3.7988 O   0  0  0  0  0  1  0  0  0  0  0  0
    4.9800    1.0981    1.1066 C   0  0  0  0  0  0  0  0  0  0  0  0
    4.4351    0.9685   -0.1771 C   0  0  0  0  0  0  0  0  0  0  0  0
   -0.8528   -0.0858   -0.8512 C   0  0  0  0  0  0  0  0  0  0  0  0
   -7.3696   -2.6637    1.8241 H   0  0  0  0  0  0  0  0  0  0  0  0
   -8.1368   -1.2929    2.6438 H   0  0  0  0  0  0  0  0  0  0  0  0
   -6.7233   -2.0773    3.3693 H   0  0  0  0  0  0  0  0  0  0  0  0
   -6.1212    0.1045    2.2758 H   0  0  0  0  0  0  0  0  0  0  0  0
   -6.7589   -0.4740    0.7513 H   0  0  0  0  0  0  0  0  0  0  0  0
   -4.4060   -1.7176    2.2730 H   0  0  0  0  0  0  0  0  0  0  0  0
   -5.0585   -2.3091    0.7127 H   0  0  0  0  0  0  0  0  0  0  0  0
   -3.7200    1.7012   -0.3457 H   0  0  0  0  0  0  0  0  0  0  0  0
   -2.3905    3.3993   -1.5418 H   0  0  0  0  0  0  0  0  0  0  0  0
   -0.1200    2.9118   -2.2964 H   0  0  0  0  0  0  0  0  0  0  0  0
    1.5086   -0.4244   -1.6792 H   0  0  0  0  0  0  0  0  0  0  0  0
    3.3515    0.1088   -3.8455 H   0  0  0  0  0  0  0  0  0  0  0  0
    4.3037    1.2157   -2.8653 H   0  0  0  0  0  0  0  0  0  0  0  0
    4.4033   -2.4252   -0.4095 H   0  0  0  0  0  0  0  0  0  0  0  0
    5.3626   -2.2214    1.8493 H   0  0  0  0  0  0  0  0  0  0  0  0
    5.1312    2.0951    1.5172 H   0  0  0  0  0  0  0  0  0  0  0  0
    4.1796    1.8816   -0.7077 H   0  0  0  0  0  0  0  0  0  0  0  0
   -0.4318   -1.0694   -0.6509 H   0  0  0  0  0  0  0  0  0  0  0  0
  1  2  1  0
  2  3  1  0
  3  4  1  0
  4  5  1  0
  5  6  2  0
  5  7  1  0
  7  8  2  0
  8  9  1  0
  9 10  2  0
 10 11  1  0
 11 12  1  0
 12 13  1  0
 13 14  2  0
 13 15  1  0
 15 16  1  0
 16 17  1  0
 17 18  2  0
 18 19  1  0
 19 20  2  0
 20 21  1  0
 21 22  2  0
 21 23  1  0
 20 24  1  0
 24 25  2  0
 11 26  2  0
 26  7  1  0
 25 17  1  0
  1 27  1  0
  1 28  1  0
  1 29  1  0
  2 30  1  0
  2 31  1  0
  3 32  1  0
  3 33  1  0
  8 34  1  0
  9 35  1  0
 10 36  1  0
 12 37  1  0
 15 38  1  0
 15 39  1  0
 18 40  1  0
 19 41  1  0
 24 42  1  0
 25 43  1  0
 26 44  1  0
M  CHG  2  21   1  23  -1
M  END
$$$$
