
     RDKit          3D

 64 69  0  0  0  0  0  0  0  0999 V2000
    8.1705   -0.7841    0.2849 F   0  0  0  0  0  0  0  0  0  0  0  0
    7.4232   -0.3343    1.3319 C   0  0  0  0  0  0  0  0  0  0  0  0
    8.2862   -0.2385    2.3839 F   0  0  0  0  0  0  0  0  0  0  0  0
    6.5753   -1.3528    1.6518 F   0  0  0  0  0  0  0  0  0  0  0  0
    6.7008    0.9576    1.0183 C   0  0  0  0  0  0  0  0  0  0  0  0
    7.0854    2.1335    1.6932 C   0  0  0  0  0  0  0  0  0  0  0  0
    6.4500    3.3484    1.4428 C   0  0  0  0  0  0  0  0  0  0  0  0
    5.4238    3.4119    0.5086 C   0  0  0  0  0  0  0  0  0  0  0  0
    5.0342    2.2623   -0.1767 C   0  0  0  0  0  0  0  0  0  0  0  0
    5.6621    1.0266    0.0606 C   0  0  0  0  0  0  0  0  0  0  0  0
    5.1793   -0.1857   -0.7153 C   0  0  0  0  0  0  0  0  0  0  0  0
    3.9437   -0.8683   -0.0924 C   0  0  0  0  0  0  0  0  0  0  0  0
    2.6935   -0.1068   -0.2628 N   0  0  0  0  0  0  0  0  0  0  0  0
    1.6810   -0.5483    0.7200 C   0  0  0  0  0  0  0  0  0  0  0  0
    0.2479   -0.0946    0.3705 C   0  0  0  0  0  0  0  0  0  0  0  0
   -0.1880   -0.6219   -0.9324 N   0  0  0  0  0  0  0  0  0  0  0  0
   -1.4611   -1.1564   -1.1103 C   0  0  0  0  0  0  0  0  0  0  0  0
   -1.5809   -2.2231   -1.8634 N   0  0  0  0  0  0  0  0  0  0  0  0
   -2.8317   -2.8429   -2.0452 C   0  0  0  0  0  0  0  0  0  0  0  0
   -2.8959   -3.9820   -2.8505 C   0  0  0  0  0  0  0  0  0  0  0  0
   -4.1087   -4.6474   -3.0505 C   0  0  0  0  0  0  0  0  0  0  0  0
   -5.2736   -4.1769   -2.4430 C   0  0  0  0  0  0  0  0  0  0  0  0
   -5.2324   -3.0391   -1.6361 C   0  0  0  0  0  0  0  0  0  0  0  0
   -4.0117   -2.3840   -1.4454 C   0  0  0  0  0  0  0  0  0  0  0  0
   -3.8835   -1.2212   -0.6681 N   0  0  0  0  0  0  0  0  0  0  0  0
   -4.8486   -0.5209    0.0171 C   0  0  0  0  0  0  0  0  0  0  0  0
   -4.2715    0.6134    0.5561 C   0  0  0  0  0  0  0  0  0  0  0  0
   -4.9929    1.6131    1.3334 C   0  0  0  0  0  0  0  0  0  0  0  0
   -4.3314    2.3275    2.3431 C   0  0  0  0  0  0  0  0  0  0  0  0
   -5.0064    3.2957    3.0909 C   0  0  0  0  0  0  0  0  0  0  0  0
   -6.3498    3.5618    2.8362 C   0  0  0  0  0  0  0  0  0  0  0  0
   -7.0195    2.8620    1.8344 C   0  0  0  0  0  0  0  0  0  0  0  0
   -6.3448    1.8930    1.0868 C   0  0  0  0  0  0  0  0  0  0  0  0
   -2.8948    0.5677    0.1996 C   0  0  0  0  0  0  0  0  0  0  0  0
   -2.6665   -0.5953   -0.5149 C   0  0  0  0  0  0  0  0  0  0  0  0
    0.9035   -1.0578   -1.8207 C   0  0  0  0  0  0  0  0  0  0  0  0
    2.1559   -0.1723   -1.6420 C   0  0  0  0  0  0  0  0  0  0  0  0
    7.8875    2.1055    2.4301 H   0  0  0  0  0  0  0  0  0  0  0  0
    6.7542    4.2442    1.9785 H   0  0  0  0  0  0  0  0  0  0  0  0
    4.9198    4.3542    0.3148 H   0  0  0  0  0  0  0  0  0  0  0  0
    4.2218    2.3303   -0.8988 H   0  0  0  0  0  0  0  0  0  0  0  0
    5.9854   -0.9239   -0.7868 H   0  0  0  0  0  0  0  0  0  0  0  0
    4.9893    0.1089   -1.7546 H   0  0  0  0  0  0  0  0  0  0  0  0
    4.1418   -1.0108    0.9784 H   0  0  0  0  0  0  0  0  0  0  0  0
    3.8263   -1.8708   -0.5253 H   0  0  0  0  0  0  0  0  0  0  0  0
    1.9472   -0.1451    1.7044 H   0  0  0  0  0  0  0  0  0  0  0  0
    1.6831   -1.6444    0.8064 H   0  0  0  0  0  0  0  0  0  0  0  0
   -0.4127   -0.4419    1.1733 H   0  0  0  0  0  0  0  0  0  0  0  0
    0.2049    1.0002    0.3455 H   0  0  0  0  0  0  0  0  0  0  0  0
   -1.9894   -4.3506   -3.3223 H   0  0  0  0  0  0  0  0  0  0  0  0
   -4.1428   -5.5338   -3.6790 H   0  0  0  0  0  0  0  0  0  0  0  0
   -6.2153   -4.6975   -2.6015 H   0  0  0  0  0  0  0  0  0  0  0  0
   -6.1518   -2.6899   -1.1775 H   0  0  0  0  0  0  0  0  0  0  0  0
   -5.8684   -0.8739    0.0624 H   0  0  0  0  0  0  0  0  0  0  0  0
   -3.2860    2.1319    2.5674 H   0  0  0  0  0  0  0  0  0  0  0  0
   -4.4826    3.8402    3.8725 H   0  0  0  0  0  0  0  0  0  0  0  0
   -6.8736    4.3158    3.4176 H   0  0  0  0  0  0  0  0  0  0  0  0
   -8.0663    3.0707    1.6304 H   0  0  0  0  0  0  0  0  0  0  0  0
   -6.8874    1.3724    0.3012 H   0  0  0  0  0  0  0  0  0  0  0  0
   -2.1517    1.3161    0.4365 H   0  0  0  0  0  0  0  0  0  0  0  0
    1.1580   -2.1053   -1.6153 H   0  0  0  0  0  0  0  0  0  0  0  0
    0.5798   -0.9888   -2.8662 H   0  0  0  0  0  0  0  0  0  0  0  0
    2.9179   -0.4886   -2.3639 H   0  0  0  0  0  0  0  0  0  0  0  0
    1.8885    0.8550   -1.9227 H   0  0  0  0  0  0  0  0  0  0  0  0
  1  2  1  0
  2  3  1  0
  2  4  1  0
  2  5  1  0
  5  6  2  0
  6  7  1  0
  7  8  2  0
  8  9  1  0
  9 10  2  0
 10 11  1  0
 11 12  1  0
 12 13  1  0
 13 14  1  0
 14 15  1  0
 15 16  1  0
 16 17  1  0
 17 18  2  0
 18 19  1  0
 19 20  2  0
 20 21  1  0
 21 22  2  0
 22 23  1  0
 23 24  2  0
 24 25  1  0
 25 26  1  0
 26 27  2  0
 27 28  1  0
 28 29  2  0
 29 30  1  0
 30 31  2  0
 31 32  1  0
 32 33  2  0
 27 34  1  0
 34 35  2  0
 16 36  1  0
 36 37  1  0
 10  5  1  0
 37 13  1  0
 35 17  1  0
 24 19  1  0
 35 25  1  0
 33 28  1  0
  6 38  1  0
  7 39  1  0
  8 40  1  0
  9 41  1  0
 11 42  1  0
 11 43  1  0
 12 44  1  0
 12 45  1  0
 14 46  1  0
 14 47  1  0
 15 48  1  0
 15 49  1  0
 20 50  1  0
 21 51  1  0
 22 52  1  0
 23 53  1  0
 26 54  1  0
 29 55  1  0
 30 56  1  0
 31 57  1  0
 32 58  1  0
 33 59  1  0
 34 60  1  0
 36 61  1  0
 36 62  1  0
 37 63  1  0
 37 64  1  0
M  END
$$$$
