
     RDKit          3D

 85 88  0  0  0  0  0  0  0  0999 V2000
    9.2404   -5.9491    0.2434 C   0  0  0  0  0  0  0  0  0  0  0  0
    7.8470   -6.0634    0.4921 O   0  0  0  0  0  0  0  0  0  0  0  0
    7.1354   -4.8964    0.5434 C   0  0  0  0  0  0  0  0  0  0  0  0
    5.7631   -5.0500    0.7461 C   0  0  0  0  0  0  0  0  0  0  0  0
    4.9176   -3.9372    0.7975 C   0  0  0  0  0  0  0  0  0  0  0  0
    5.4344   -2.6447    0.6433 C   0  0  0  0  0  0  0  0  0  0  0  0
    4.5126   -1.5767    0.6595 N   0  0  0  0  0  0  0  0  0  0  0  0
    4.7743   -0.2242    0.4968 C   0  0  0  0  0  0  0  0  0  0  0  0
    5.8914    0.2739    0.4478 O   0  0  0  0  0  0  0  0  0  0  0  0
    3.5909    0.4866    0.3754 N   0  0  0  0  0  0  0  0  0  0  0  0
    3.4078    1.8593    0.0696 C   0  0  0  0  0  0  0  0  0  0  0  0
    4.4726    2.7503   -0.0856 C   0  0  0  0  0  0  0  0  0  0  0  0
    4.2305    4.0777   -0.4166 C   0  0  0  0  0  0  0  0  0  0  0  0
    2.9194    4.5133   -0.5938 C   0  0  0  0  0  0  0  0  0  0  0  0
    1.8241    3.6421   -0.4353 C   0  0  0  0  0  0  0  0  0  0  0  0
    2.0625    2.3015   -0.0990 C   0  0  0  0  0  0  0  0  0  0  0  0
    1.1711    1.2905    0.1310 O   0  0  0  0  0  0  0  0  0  0  0  0
   -0.2421    1.3795   -0.1034 C   0  0  0  0  0  0  0  0  0  0  0  0
   -0.6206   -0.0858   -0.4185 C   0  0  0  0  0  0  0  0  0  0  0  0
   -1.9769   -0.3475   -0.8992 N   0  0  0  0  0  0  0  0  0  0  0  0
   -2.3675    0.2762   -2.1605 C   0  0  0  0  0  0  0  0  0  0  0  0
   -2.6772   -1.3768   -0.2772 C   0  0  0  0  0  0  0  0  0  0  0  0
   -2.1775   -2.0790    0.5983 O   0  0  0  0  0  0  0  0  0  0  0  0
   -3.9739   -1.5464   -0.6923 N   0  0  0  0  0  0  0  0  0  0  0  0
   -4.8367   -2.5670   -0.1076 C   0  0  0  0  0  0  0  0  0  0  0  0
   -5.3777   -3.4952   -1.2017 C   0  0  0  0  0  0  0  0  0  0  0  0
   -6.3123   -4.5501   -0.6115 C   0  0  0  0  0  0  0  0  0  0  0  0
   -7.4467   -3.9165    0.1912 C   0  0  0  0  0  0  0  0  0  0  0  0
   -6.9244   -2.9595    1.2616 C   0  0  0  0  0  0  0  0  0  0  0  0
   -5.9826   -1.9122    0.6732 C   0  0  0  0  0  0  0  0  0  0  0  0
   -0.9068    1.9377    1.1816 C   0  0  0  0  0  0  0  0  0  0  0  0
   -2.4354    1.8758    1.1868 C   0  0  0  0  0  0  0  0  0  0  0  0
   -0.4247    3.3735    1.4714 C   0  0  0  0  0  0  0  0  0  0  0  0
   -0.5064    4.2270    0.2812 N   0  0  0  0  0  0  0  0  0  0  0  0
   -1.7466    5.0291    0.0961 C   0  0  0  0  0  0  0  0  0  0  0  0
   -1.4718    6.5171    0.3168 C   0  0  0  0  0  0  0  0  0  0  0  0
   -2.4789    4.7456   -1.2344 C   0  0  0  0  0  0  0  0  0  0  0  0
   -2.0289    5.5327   -2.3294 O   0  0  0  0  0  0  0  0  0  0  0  0
    0.5171    4.3039   -0.6651 C   0  0  0  0  0  0  0  0  0  0  0  0
    0.4115    4.9778   -1.6933 O   0  0  0  0  0  0  0  0  0  0  0  0
    6.8092   -2.4947    0.4543 C   0  0  0  0  0  0  0  0  0  0  0  0
    7.6563   -3.6112    0.4079 C   0  0  0  0  0  0  0  0  0  0  0  0
    9.7390   -5.4087    1.0617 H   0  0  0  0  0  0  0  0  0  0  0  0
    9.6622   -6.9641    0.2123 H   0  0  0  0  0  0  0  0  0  0  0  0
    9.4375   -5.4706   -0.7275 H   0  0  0  0  0  0  0  0  0  0  0  0
    5.3423   -6.0465    0.8535 H   0  0  0  0  0  0  0  0  0  0  0  0
    3.8564   -4.1072    0.9458 H   0  0  0  0  0  0  0  0  0  0  0  0
    3.5485   -1.8368    0.7971 H   0  0  0  0  0  0  0  0  0  0  0  0
    2.7232   -0.0374    0.3967 H   0  0  0  0  0  0  0  0  0  0  0  0
    5.5073    2.4456    0.0387 H   0  0  0  0  0  0  0  0  0  0  0  0
    5.0616    4.7672   -0.5456 H   0  0  0  0  0  0  0  0  0  0  0  0
    2.7545    5.5579   -0.8611 H   0  0  0  0  0  0  0  0  0  0  0  0
   -0.4506    1.9771   -0.9951 H   0  0  0  0  0  0  0  0  0  0  0  0
    0.0603   -0.4715   -1.1918 H   0  0  0  0  0  0  0  0  0  0  0  0
   -0.3911   -0.6861    0.4714 H   0  0  0  0  0  0  0  0  0  0  0  0
   -2.6353    1.3161   -1.9677 H   0  0  0  0  0  0  0  0  0  0  0  0
   -3.2083   -0.2287   -2.6393 H   0  0  0  0  0  0  0  0  0  0  0  0
   -1.5212    0.2626   -2.8552 H   0  0  0  0  0  0  0  0  0  0  0  0
   -4.4205   -0.7692   -1.1497 H   0  0  0  0  0  0  0  0  0  0  0  0
   -4.2506   -3.1764    0.5946 H   0  0  0  0  0  0  0  0  0  0  0  0
   -5.9130   -2.9135   -1.9615 H   0  0  0  0  0  0  0  0  0  0  0  0
   -4.5453   -3.9906   -1.7177 H   0  0  0  0  0  0  0  0  0  0  0  0
   -6.7281   -5.1676   -1.4150 H   0  0  0  0  0  0  0  0  0  0  0  0
   -5.7367   -5.2164    0.0422 H   0  0  0  0  0  0  0  0  0  0  0  0
   -8.1095   -3.3673   -0.4888 H   0  0  0  0  0  0  0  0  0  0  0  0
   -8.0522   -4.7006    0.6562 H   0  0  0  0  0  0  0  0  0  0  0  0
   -6.3962   -3.5305    2.0369 H   0  0  0  0  0  0  0  0  0  0  0  0
   -7.7662   -2.4643    1.7611 H   0  0  0  0  0  0  0  0  0  0  0  0
   -6.5551   -1.2458    0.0119 H   0  0  0  0  0  0  0  0  0  0  0  0
   -5.5776   -1.2855    1.4778 H   0  0  0  0  0  0  0  0  0  0  0  0
   -0.5658    1.3325    2.0314 H   0  0  0  0  0  0  0  0  0  0  0  0
   -2.8506    2.4452    2.0276 H   0  0  0  0  0  0  0  0  0  0  0  0
   -2.7904    0.8521    1.3246 H   0  0  0  0  0  0  0  0  0  0  0  0
   -2.8676    2.2707    0.2642 H   0  0  0  0  0  0  0  0  0  0  0  0
   -0.9977    3.8345    2.2883 H   0  0  0  0  0  0  0  0  0  0  0  0
    0.6094    3.3519    1.8283 H   0  0  0  0  0  0  0  0  0  0  0  0
   -2.4326    4.7104    0.8883 H   0  0  0  0  0  0  0  0  0  0  0  0
   -2.3939    7.1031    0.2039 H   0  0  0  0  0  0  0  0  0  0  0  0
   -0.7339    6.9107   -0.3899 H   0  0  0  0  0  0  0  0  0  0  0  0
   -1.0850    6.6956    1.3266 H   0  0  0  0  0  0  0  0  0  0  0  0
   -2.3903    3.6932   -1.5207 H   0  0  0  0  0  0  0  0  0  0  0  0
   -3.5425    4.9707   -1.1116 H   0  0  0  0  0  0  0  0  0  0  0  0
   -1.0513    5.4532   -2.3470 H   0  0  0  0  0  0  0  0  0  0  0  0
    7.2689   -1.5189    0.3410 H   0  0  0  0  0  0  0  0  0  0  0  0
    8.7141   -3.4333    0.2612 H   0  0  0  0  0  0  0  0  0  0  0  0
  1  2  1  0
  2  3  1  0
  3  4  2  0
  4  5  1  0
  5  6  2  0
  6  7  1  0
  7  8  1  0
  8  9  2  0
  8 10  1  0
 10 11  1  0
 11 12  2  0
 12 13  1  0
 13 14  2  0
 14 15  1  0
 15 16  2  0
 16 17  1  0
 17 18  1  0
 18 19  1  0
 19 20  1  0
 20 21  1  0
 20 22  1  0
 22 23  2  0
 22 24  1  0
 24 25  1  0
 25 26  1  0
 26 27  1  0
 27 28  1  0
 28 29  1  0
 29 30  1  0
 18 31  1  0
 31 32  1  0
 31 33  1  0
 33 34  1  0
 34 35  1  0
 35 36  1  0
 35 37  1  0
 37 38  1  0
 34 39  1  0
 39 40  2  0
  6 41  1  0
 41 42  2  0
 42  3  1  0
 16 11  1  0
 30 25  1  0
 39 15  1  0
  1 43  1  0
  1 44  1  0
  1 45  1  0
  4 46  1  0
  5 47  1  0
  7 48  1  0
 10 49  1  0
 12 50  1  0
 13 51  1  0
 14 52  1  0
 18 53  1  0
 19 54  1  0
 19 55  1  0
 21 56  1  0
 21 57  1  0
 21 58  1  0
 24 59  1  0
 25 60  1  0
 26 61  1  0
 26 62  1  0
 27 63  1  0
 27 64  1  0
 28 65  1  0
 28 66  1  0
 29 67  1  0
 29 68  1  0
 30 69  1  0
 30 70  1  0
 31 71  1  0
 32 72  1  0
 32 73  1  0
 32 74  1  0
 33 75  1  0
 33 76  1  0
 35 77  1  0
 36 78  1  0
 36 79  1  0
 36 80  1  0
 37 81  1  0
 37 82  1  0
 38 83  1  0
 41 84  1  0
 42 85  1  0
M  END
$$$$
