
     RDKit          3D

 33 33  0  0  0  0  0  0  0  0999 V2000
   -3.7912   -1.5063   -0.5400 C   0  0  0  0  0  0  0  0  0  0  0  0
   -3.5852   -0.0053   -0.3294 C   0  0  0  0  0  0  0  0  0  0  0  0
   -4.9348    0.6626   -0.0507 C   0  0  0  0  0  0  0  0  0  0  0  0
   -2.6882    0.2754    0.8015 N   0  0  0  0  0  0  0  0  0  0  0  0
   -1.2914   -0.0703    0.5182 C   0  0  0  0  0  0  0  0  0  0  0  0
   -0.4139    0.3468    1.7025 C   0  0  0  0  0  0  0  0  0  0  0  0
    1.0444   -0.0597    1.4989 C   0  0  0  0  0  0  0  0  0  0  0  0
    1.5547    0.6209    0.3541 O   0  0  0  0  0  0  0  0  0  0  0  0
    2.8379    0.3513   -0.0388 C   0  0  0  0  0  0  0  0  0  0  0  0
    3.7272   -0.4659    0.6671 C   0  0  0  0  0  0  0  0  0  0  0  0
    5.0247   -0.6792    0.1886 C   0  0  0  0  0  0  0  0  0  0  0  0
    5.4395   -0.0756   -0.9961 C   0  0  0  0  0  0  0  0  0  0  0  0
    7.0365   -0.3434   -1.5765 Cl  0  0  0  0  0  0  0  0  0  0  0  0
    4.5712    0.7423   -1.7110 C   0  0  0  0  0  0  0  0  0  0  0  0
    3.2756    0.9537   -1.2312 C   0  0  0  0  0  0  0  0  0  0  0  0
    2.1290    2.0769   -2.2515 Br  0  0  0  0  0  0  0  0  0  0  0  0
   -2.8668   -2.0021   -0.8517 H   0  0  0  0  0  0  0  0  0  0  0  0
   -4.5338   -1.6871   -1.3252 H   0  0  0  0  0  0  0  0  0  0  0  0
   -4.1475   -1.9934    0.3747 H   0  0  0  0  0  0  0  0  0  0  0  0
   -3.1792    0.4376   -1.2472 H   0  0  0  0  0  0  0  0  0  0  0  0
   -4.8220    1.7466    0.0643 H   0  0  0  0  0  0  0  0  0  0  0  0
   -5.6299    0.4910   -0.8799 H   0  0  0  0  0  0  0  0  0  0  0  0
   -5.3972    0.2707    0.8625 H   0  0  0  0  0  0  0  0  0  0  0  0
   -2.7369    1.2710    1.0221 H   0  0  0  0  0  0  0  0  0  0  0  0
   -0.9542    0.4392   -0.3918 H   0  0  0  0  0  0  0  0  0  0  0  0
   -1.1876   -1.1496    0.3660 H   0  0  0  0  0  0  0  0  0  0  0  0
   -0.4704    1.4357    1.8262 H   0  0  0  0  0  0  0  0  0  0  0  0
   -0.7853   -0.1137    2.6260 H   0  0  0  0  0  0  0  0  0  0  0  0
    1.6153    0.2318    2.3883 H   0  0  0  0  0  0  0  0  0  0  0  0
    1.1062   -1.1457    1.3585 H   0  0  0  0  0  0  0  0  0  0  0  0
    3.4462   -0.9504    1.5968 H   0  0  0  0  0  0  0  0  0  0  0  0
    5.7058   -1.3165    0.7475 H   0  0  0  0  0  0  0  0  0  0  0  0
    4.9011    1.2108   -2.6341 H   0  0  0  0  0  0  0  0  0  0  0  0
  1  2  1  0
  2  3  1  0
  2  4  1  0
  4  5  1  0
  5  6  1  0
  6  7  1  0
  7  8  1  0
  8  9  1  0
  9 10  2  0
 10 11  1  0
 11 12  2  0
 12 13  1  0
 12 14  1  0
 14 15  2  0
 15 16  1  0
 15  9  1  0
  1 17  1  0
  1 18  1  0
  1 19  1  0
  2 20  1  0
  3 21  1  0
  3 22  1  0
  3 23  1  0
  4 24  1  0
  5 25  1  0
  5 26  1  0
  6 27  1  0
  6 28  1  0
  7 29  1  0
  7 30  1  0
 10 31  1  0
 11 32  1  0
 14 33  1  0
M  END
$$$$
