
     RDKit          3D

 41 44  0  0  0  0  0  0  0  0999 V2000
    0.5855   -1.3151   -1.8871 O   0  0  0  0  0  0  0  0  0  0  0  0
    0.3928   -0.1584   -1.5230 C   0  0  0  0  0  0  0  0  0  0  0  0
   -0.9506    0.5345   -1.7858 C   0  0  0  0  0  0  0  0  0  0  0  0
   -1.7778    0.6175   -0.5761 N   0  0  0  0  0  0  0  0  0  0  0  0
   -1.4672    1.6080    0.3501 C   0  0  0  0  0  0  0  0  0  0  0  0
   -0.5668    2.4308    0.1487 O   0  0  0  0  0  0  0  0  0  0  0  0
   -2.1943    1.5876    1.6745 C   0  0  0  0  0  0  0  0  0  0  0  0
   -3.5187    2.3154    1.6152 C   0  0  0  0  0  0  0  0  0  0  0  0
   -4.6018    1.8709    0.2254 S   0  0  0  0  0  0  0  0  0  0  0  0
   -4.1625    0.1509   -0.0138 C   0  0  0  0  0  0  0  0  0  0  0  0
   -5.2111   -0.7767    0.0935 C   0  0  0  0  0  0  0  0  0  0  0  0
   -5.0106   -2.1196   -0.2214 C   0  0  0  0  0  0  0  0  0  0  0  0
   -3.7654   -2.5434   -0.6693 C   0  0  0  0  0  0  0  0  0  0  0  0
   -2.7168   -1.6291   -0.7917 C   0  0  0  0  0  0  0  0  0  0  0  0
   -2.8885   -0.2769   -0.4507 C   0  0  0  0  0  0  0  0  0  0  0  0
    1.2875    0.6461   -0.8383 N   0  0  0  0  0  0  0  0  0  0  0  0
    2.6016    0.3367   -0.4389 C   0  0  0  0  0  0  0  0  0  0  0  0
    3.2663    1.3020    0.3517 C   0  0  0  0  0  0  0  0  0  0  0  0
    4.5736    1.0928    0.8042 C   0  0  0  0  0  0  0  0  0  0  0  0
    5.1907   -0.0837    0.4464 C   0  0  0  0  0  0  0  0  0  0  0  0
    4.5535   -1.0247   -0.3264 C   0  0  0  0  0  0  0  0  0  0  0  0
    3.2626   -0.8460   -0.7850 C   0  0  0  0  0  0  0  0  0  0  0  0
    5.3366   -2.1117   -0.5660 O   0  0  0  0  0  0  0  0  0  0  0  0
    6.5385   -1.7432    0.1399 C   0  0  0  0  0  0  0  0  0  0  0  0
    6.4509   -0.4583    0.7911 O   0  0  0  0  0  0  0  0  0  0  0  0
   -1.4798    0.0070   -2.5879 H   0  0  0  0  0  0  0  0  0  0  0  0
   -0.7552    1.5467   -2.1619 H   0  0  0  0  0  0  0  0  0  0  0  0
   -1.5488    2.0689    2.4200 H   0  0  0  0  0  0  0  0  0  0  0  0
   -2.3117    0.5557    2.0249 H   0  0  0  0  0  0  0  0  0  0  0  0
   -3.3445    3.3944    1.5439 H   0  0  0  0  0  0  0  0  0  0  0  0
   -4.0695    2.1412    2.5461 H   0  0  0  0  0  0  0  0  0  0  0  0
   -6.2034   -0.4542    0.4034 H   0  0  0  0  0  0  0  0  0  0  0  0
   -5.8306   -2.8285   -0.1341 H   0  0  0  0  0  0  0  0  0  0  0  0
   -3.6044   -3.5881   -0.9252 H   0  0  0  0  0  0  0  0  0  0  0  0
   -1.7536   -2.0091   -1.1253 H   0  0  0  0  0  0  0  0  0  0  0  0
    0.9196    1.5458   -0.5216 H   0  0  0  0  0  0  0  0  0  0  0  0
    2.7630    2.2271    0.6273 H   0  0  0  0  0  0  0  0  0  0  0  0
    5.0828    1.8289    1.4155 H   0  0  0  0  0  0  0  0  0  0  0  0
    2.8098   -1.6169   -1.3954 H   0  0  0  0  0  0  0  0  0  0  0  0
    6.7483   -2.5070    0.8974 H   0  0  0  0  0  0  0  0  0  0  0  0
    7.3704   -1.7183   -0.5736 H   0  0  0  0  0  0  0  0  0  0  0  0
  1  2  2  0
  2  3  1  0
  3  4  1  0
  4  5  1  0
  5  6  2  0
  5  7  1  0
  7  8  1  0
  8  9  1  0
  9 10  1  0
 10 11  2  0
 11 12  1  0
 12 13  2  0
 13 14  1  0
 14 15  2  0
  2 16  1  0
 16 17  1  0
 17 18  2  0
 18 19  1  0
 19 20  2  0
 20 21  1  0
 21 22  2  0
 21 23  1  0
 23 24  1  0
 24 25  1  0
 15  4  1  0
 22 17  1  0
 15 10  1  0
 25 20  1  0
  3 26  1  0
  3 27  1  0
  7 28  1  0
  7 29  1  0
  8 30  1  0
  8 31  1  0
 11 32  1  0
 12 33  1  0
 13 34  1  0
 14 35  1  0
 16 36  1  0
 18 37  1  0
 19 38  1  0
 22 39  1  0
 24 40  1  0
 24 41  1  0
M  END
$$$$
