
     RDKit          3D

 35 35  0  0  0  0  0  0  0  0999 V2000
   -4.7021   -0.2880   -1.0714 C   0  0  0  0  0  0  0  0  0  0  0  0
   -3.3422   -0.1793   -0.3584 C   0  0  0  0  0  0  0  0  0  0  0  0
   -3.4641    0.9540    0.6762 C   0  0  0  0  0  0  0  0  0  0  0  0
   -2.1971    0.0849   -1.2677 N   0  0  0  0  0  0  0  0  0  0  0  0
   -2.2663   -0.6856   -2.5149 C   0  0  0  0  0  0  0  0  0  0  0  0
   -0.9037   -0.1808   -0.5951 C   0  0  0  0  0  0  0  0  0  0  0  0
    0.2501    0.6579   -1.1710 C   0  0  0  0  0  0  0  0  0  0  0  0
    1.5040    0.2651   -0.5812 O   0  0  0  0  0  0  0  0  0  0  0  0
    1.7713    0.8081    0.6315 C   0  0  0  0  0  0  0  0  0  0  0  0
    1.0807    1.5877    1.2613 O   0  0  0  0  0  0  0  0  0  0  0  0
    3.0664    0.2795    1.0912 C   0  0  0  0  0  0  0  0  0  0  0  0
    4.2064    0.5537    0.3203 C   0  0  0  0  0  0  0  0  0  0  0  0
    5.4566    0.0940    0.7348 C   0  0  0  0  0  0  0  0  0  0  0  0
    5.5714   -0.6371    1.9164 C   0  0  0  0  0  0  0  0  0  0  0  0
    4.4373   -0.9133    2.6842 C   0  0  0  0  0  0  0  0  0  0  0  0
    3.1801   -0.4559    2.2749 C   0  0  0  0  0  0  0  0  0  0  0  0
    1.6844   -0.9192    3.3474 Br  0  0  0  0  0  0  0  0  0  0  0  0
   -4.7516   -1.1716   -1.7160 H   0  0  0  0  0  0  0  0  0  0  0  0
   -4.9073    0.6001   -1.6795 H   0  0  0  0  0  0  0  0  0  0  0  0
   -5.5148   -0.3871   -0.3427 H   0  0  0  0  0  0  0  0  0  0  0  0
   -3.1796   -1.1275    0.1715 H   0  0  0  0  0  0  0  0  0  0  0  0
   -3.6037    1.9237    0.1846 H   0  0  0  0  0  0  0  0  0  0  0  0
   -4.3257    0.7865    1.3327 H   0  0  0  0  0  0  0  0  0  0  0  0
   -2.5875    1.0301    1.3253 H   0  0  0  0  0  0  0  0  0  0  0  0
   -2.3486   -1.7622   -2.3269 H   0  0  0  0  0  0  0  0  0  0  0  0
   -1.3834   -0.5196   -3.1407 H   0  0  0  0  0  0  0  0  0  0  0  0
   -3.1146   -0.3664   -3.1290 H   0  0  0  0  0  0  0  0  0  0  0  0
   -0.6501   -1.2490   -0.6377 H   0  0  0  0  0  0  0  0  0  0  0  0
   -0.9555    0.0407    0.4754 H   0  0  0  0  0  0  0  0  0  0  0  0
    0.3598    0.4922   -2.2468 H   0  0  0  0  0  0  0  0  0  0  0  0
    0.0754    1.7318   -1.0298 H   0  0  0  0  0  0  0  0  0  0  0  0
    4.1222    1.1299   -0.5987 H   0  0  0  0  0  0  0  0  0  0  0  0
    6.3409    0.3081    0.1389 H   0  0  0  0  0  0  0  0  0  0  0  0
    6.5460   -0.9951    2.2411 H   0  0  0  0  0  0  0  0  0  0  0  0
    4.5451   -1.4902    3.6001 H   0  0  0  0  0  0  0  0  0  0  0  0
  1  2  1  0
  2  3  1  0
  2  4  1  0
  4  5  1  0
  4  6  1  0
  6  7  1  0
  7  8  1  0
  8  9  1  0
  9 10  2  0
  9 11  1  0
 11 12  2  0
 12 13  1  0
 13 14  2  0
 14 15  1  0
 15 16  2  0
 16 17  1  0
 16 11  1  0
  1 18  1  0
  1 19  1  0
  1 20  1  0
  2 21  1  0
  3 22  1  0
  3 23  1  0
  3 24  1  0
  5 25  1  0
  5 26  1  0
  5 27  1  0
  6 28  1  0
  6 29  1  0
  7 30  1  0
  7 31  1  0
 12 32  1  0
 13 33  1  0
 14 34  1  0
 15 35  1  0
M  END
$$$$
