
     RDKit          3D

 52 55  0  0  0  0  0  0  0  0999 V2000
    4.5162    1.3282    6.2316 C   0  0  0  0  0  0  0  0  0  0  0  0
    4.6863    1.9381    4.9588 O   0  0  0  0  0  0  0  0  0  0  0  0
    4.0574    1.3457    3.8996 C   0  0  0  0  0  0  0  0  0  0  0  0
    4.2289    1.9963    2.6770 C   0  0  0  0  0  0  0  0  0  0  0  0
    3.6382    1.5011    1.5083 C   0  0  0  0  0  0  0  0  0  0  0  0
    2.8639    0.3431    1.5488 C   0  0  0  0  0  0  0  0  0  0  0  0
    2.2297   -0.2232    0.4276 N   0  0  0  0  0  0  0  0  0  0  0  0
    2.1519    0.2822   -0.8564 C   0  0  0  0  0  0  0  0  0  0  0  0
    2.6901    1.3135   -1.2574 O   0  0  0  0  0  0  0  0  0  0  0  0
    1.3998   -0.6025   -1.8465 C   0  0  0  0  0  0  0  0  0  0  0  0
    0.1423   -1.6889   -1.1066 S   0  0  0  0  0  0  0  0  0  0  0  0
   -1.1219   -0.4907   -0.8298 C   0  0  0  0  0  0  0  0  0  0  0  0
   -0.7572    0.5469   -0.1429 N   0  0  0  0  0  0  0  0  0  0  0  0
   -1.7349    1.4357    0.1823 C   0  0  0  0  0  0  0  0  0  0  0  0
   -3.0283    1.2851   -0.0936 C   0  0  0  0  0  0  0  0  0  0  0  0
   -3.4768    0.0923   -0.8420 C   0  0  0  0  0  0  0  0  0  0  0  0
   -4.6692   -0.0864   -1.0852 O   0  0  0  0  0  0  0  0  0  0  0  0
   -2.4316   -0.7534   -1.2375 N   0  0  0  0  0  0  0  0  0  0  0  0
   -2.7649   -1.8383   -2.1088 C   0  0  0  0  0  0  0  0  0  0  0  0
   -3.6720   -2.8148   -1.6691 C   0  0  0  0  0  0  0  0  0  0  0  0
   -4.0087   -3.8870   -2.4933 C   0  0  0  0  0  0  0  0  0  0  0  0
   -3.4536   -3.9835   -3.7660 C   0  0  0  0  0  0  0  0  0  0  0  0
   -2.5745   -3.0000   -4.2287 C   0  0  0  0  0  0  0  0  0  0  0  0
   -2.2335   -1.9140   -3.4149 C   0  0  0  0  0  0  0  0  0  0  0  0
   -1.4377   -0.8669   -3.8101 O   0  0  0  0  0  0  0  0  0  0  0  0
   -0.9736   -0.8684   -5.1547 C   0  0  0  0  0  0  0  0  0  0  0  0
   -4.0557    2.5390    0.4690 S   0  0  0  0  0  0  0  0  0  0  0  0
   -2.6251    3.5969    0.8969 C   0  0  0  0  0  0  0  0  0  0  0  0
   -1.3994    2.6786    0.9506 C   0  0  0  0  0  0  0  0  0  0  0  0
    2.6969   -0.3116    2.7752 C   0  0  0  0  0  0  0  0  0  0  0  0
    3.2883    0.1852    3.9444 C   0  0  0  0  0  0  0  0  0  0  0  0
    4.9344    0.3167    6.2436 H   0  0  0  0  0  0  0  0  0  0  0  0
    5.0674    1.9254    6.9648 H   0  0  0  0  0  0  0  0  0  0  0  0
    3.4624    1.3244    6.5301 H   0  0  0  0  0  0  0  0  0  0  0  0
    4.8283    2.9026    2.6285 H   0  0  0  0  0  0  0  0  0  0  0  0
    3.8065    2.0461    0.5852 H   0  0  0  0  0  0  0  0  0  0  0  0
    1.6582   -1.0435    0.5989 H   0  0  0  0  0  0  0  0  0  0  0  0
    2.1396   -1.2335   -2.3492 H   0  0  0  0  0  0  0  0  0  0  0  0
    0.9285    0.0370   -2.5995 H   0  0  0  0  0  0  0  0  0  0  0  0
   -4.1170   -2.7489   -0.6789 H   0  0  0  0  0  0  0  0  0  0  0  0
   -4.7079   -4.6424   -2.1435 H   0  0  0  0  0  0  0  0  0  0  0  0
   -3.7188   -4.8193   -4.4096 H   0  0  0  0  0  0  0  0  0  0  0  0
   -2.1861   -3.1071   -5.2361 H   0  0  0  0  0  0  0  0  0  0  0  0
   -0.3876    0.0435   -5.3051 H   0  0  0  0  0  0  0  0  0  0  0  0
   -1.8083   -0.8483   -5.8626 H   0  0  0  0  0  0  0  0  0  0  0  0
   -0.3131   -1.7215   -5.3410 H   0  0  0  0  0  0  0  0  0  0  0  0
   -2.7904    4.1093    1.8491 H   0  0  0  0  0  0  0  0  0  0  0  0
   -2.5061    4.3515    0.1116 H   0  0  0  0  0  0  0  0  0  0  0  0
   -0.5274    3.1897    0.5281 H   0  0  0  0  0  0  0  0  0  0  0  0
   -1.1608    2.4173    1.9886 H   0  0  0  0  0  0  0  0  0  0  0  0
    2.1000   -1.2176    2.8421 H   0  0  0  0  0  0  0  0  0  0  0  0
    3.1270   -0.3597    4.8685 H   0  0  0  0  0  0  0  0  0  0  0  0
  1  2  1  0
  2  3  1  0
  3  4  2  0
  4  5  1  0
  5  6  2  0
  6  7  1  0
  7  8  1  0
  8  9  2  0
  8 10  1  0
 10 11  1  0
 11 12  1  0
 12 13  2  0
 13 14  1  0
 14 15  2  0
 15 16  1  0
 16 17  2  0
 16 18  1  0
 18 19  1  0
 19 20  2  0
 20 21  1  0
 21 22  2  0
 22 23  1  0
 23 24  2  0
 24 25  1  0
 25 26  1  0
 15 27  1  0
 27 28  1  0
 28 29  1  0
  6 30  1  0
 30 31  2  0
 31  3  1  0
 18 12  1  0
 24 19  1  0
 29 14  1  0
  1 32  1  0
  1 33  1  0
  1 34  1  0
  4 35  1  0
  5 36  1  0
  7 37  1  0
 10 38  1  0
 10 39  1  0
 20 40  1  0
 21 41  1  0
 22 42  1  0
 23 43  1  0
 26 44  1  0
 26 45  1  0
 26 46  1  0
 28 47  1  0
 28 48  1  0
 29 49  1  0
 29 50  1  0
 30 51  1  0
 31 52  1  0
M  END
$$$$
