
     RDKit          3D

 57 59  0  0  0  0  0  0  0  0999 V2000
   -4.8828   -0.5947    1.0899 C   0  0  0  0  0  0  0  0  0  0  0  0
   -4.4216   -0.6808   -0.3621 C   0  0  0  0  0  0  0  0  0  0  0  0
   -3.0326   -1.1620   -0.4391 N   0  0  0  0  0  0  0  0  0  0  0  0
   -2.9980   -2.6354   -0.4199 C   0  0  0  0  0  0  0  0  0  0  0  0
   -1.6344   -3.1781   -0.0045 C   0  0  0  0  0  0  0  0  0  0  0  0
   -2.3281   -0.6153   -1.6208 C   0  0  0  0  0  0  0  0  0  0  0  0
   -1.9331    0.8685   -1.4671 C   0  0  0  0  0  0  0  0  0  0  0  0
   -1.0062    0.9996   -0.3836 O   0  0  0  0  0  0  0  0  0  0  0  0
   -0.7729    2.2523    0.1257 C   0  0  0  0  0  0  0  0  0  0  0  0
   -1.1410    3.4230   -0.4425 C   0  0  0  0  0  0  0  0  0  0  0  0
   -0.9572    4.6864    0.3482 C   0  0  2  0  0  0  0  0  0  0  0  0
   -0.8907    5.8745   -0.4273 O   0  0  0  0  0  0  0  0  0  0  0  0
   -0.4337    6.8466    0.4353 C   0  0  0  0  0  0  0  0  0  0  0  0
   -0.4712    8.0407    0.1850 O   0  0  0  0  0  0  0  0  0  0  0  0
    0.2755    6.2125    1.9410 S   0  0  0  0  0  0  0  0  0  0  0  0
    0.3385    4.6169    1.1520 C   0  0  1  0  0  0  0  0  0  0  0  0
    0.3863    3.3869    1.9856 C   0  0  0  0  0  0  0  0  0  0  0  0
   -0.1161    2.2520    1.4480 C   0  0  0  0  0  0  0  0  0  0  0  0
    0.0184    1.0186    2.2757 C   0  0  0  0  0  0  0  0  0  0  0  0
   -0.5487    0.9234    3.3620 O   0  0  0  0  0  0  0  0  0  0  0  0
    0.9012   -0.0837    1.8009 C   0  0  0  0  0  0  0  0  0  0  0  0
    1.8005    0.0208    0.8102 C   0  0  0  0  0  0  0  0  0  0  0  0
    2.6669   -1.0780    0.3576 C   0  0  0  0  0  0  0  0  0  0  0  0
    2.2464   -2.4111    0.3475 C   0  0  0  0  0  0  0  0  0  0  0  0
    3.0828   -3.4165   -0.1470 C   0  0  0  0  0  0  0  0  0  0  0  0
    4.3500   -3.1116   -0.6433 C   0  0  0  0  0  0  0  0  0  0  0  0
    5.0581   -4.1864   -1.1028 O   0  0  0  0  0  0  0  0  0  0  0  0
    6.3645   -3.9301   -1.6026 C   0  0  0  0  0  0  0  0  0  0  0  0
    4.7768   -1.7852   -0.6413 C   0  0  0  0  0  0  0  0  0  0  0  0
    3.9377   -0.7761   -0.1500 C   0  0  0  0  0  0  0  0  0  0  0  0
   -5.8966   -0.1808    1.1375 H   0  0  0  0  0  0  0  0  0  0  0  0
   -4.9019   -1.5726    1.5767 H   0  0  0  0  0  0  0  0  0  0  0  0
   -4.2231    0.0664    1.6628 H   0  0  0  0  0  0  0  0  0  0  0  0
   -5.1007   -1.3145   -0.9457 H   0  0  0  0  0  0  0  0  0  0  0  0
   -4.5193    0.3256   -0.7778 H   0  0  0  0  0  0  0  0  0  0  0  0
   -3.2899   -3.0504   -1.3934 H   0  0  0  0  0  0  0  0  0  0  0  0
   -3.7180   -3.0221    0.3126 H   0  0  0  0  0  0  0  0  0  0  0  0
   -0.8636   -2.9749   -0.7520 H   0  0  0  0  0  0  0  0  0  0  0  0
   -1.3155   -2.7481    0.9525 H   0  0  0  0  0  0  0  0  0  0  0  0
   -1.6891   -4.2649    0.1203 H   0  0  0  0  0  0  0  0  0  0  0  0
   -1.3938   -1.1628   -1.7842 H   0  0  0  0  0  0  0  0  0  0  0  0
   -2.9383   -0.7449   -2.5236 H   0  0  0  0  0  0  0  0  0  0  0  0
   -2.8222    1.4838   -1.2965 H   0  0  0  0  0  0  0  0  0  0  0  0
   -1.4444    1.2027   -2.3900 H   0  0  0  0  0  0  0  0  0  0  0  0
   -1.6484    3.4866   -1.3952 H   0  0  0  0  0  0  0  0  0  0  0  0
   -1.8569    4.7651    0.9812 H   0  0  0  0  0  0  0  0  0  0  0  0
    1.2197    4.6316    0.4965 H   0  0  0  0  0  0  0  0  0  0  0  0
    0.8628    3.3963    2.9593 H   0  0  0  0  0  0  0  0  0  0  0  0
    0.7779   -0.9996    2.3695 H   0  0  0  0  0  0  0  0  0  0  0  0
    1.9425    0.9591    0.2815 H   0  0  0  0  0  0  0  0  0  0  0  0
    1.2619   -2.6900    0.7081 H   0  0  0  0  0  0  0  0  0  0  0  0
    2.7376   -4.4474   -0.1489 H   0  0  0  0  0  0  0  0  0  0  0  0
    6.3361   -3.2537   -2.4626 H   0  0  0  0  0  0  0  0  0  0  0  0
    6.7820   -4.8799   -1.9462 H   0  0  0  0  0  0  0  0  0  0  0  0
    7.0171   -3.5426   -0.8157 H   0  0  0  0  0  0  0  0  0  0  0  0
    5.7532   -1.4971   -1.0165 H   0  0  0  0  0  0  0  0  0  0  0  0
    4.2955    0.2511   -0.1653 H   0  0  0  0  0  0  0  0  0  0  0  0
  1  2  1  0
  2  3  1  0
  3  4  1  0
  4  5  1  0
  3  6  1  0
  6  7  1  0
  7  8  1  0
  8  9  1  0
  9 10  2  0
 10 11  1  0
 11 12  1  0
 12 13  1  0
 13 14  2  0
 13 15  1  0
 15 16  1  0
 16 17  1  0
 17 18  2  0
 18 19  1  0
 19 20  2  0
 19 21  1  0
 21 22  2  0
 22 23  1  0
 23 24  2  0
 24 25  1  0
 25 26  2  0
 26 27  1  0
 27 28  1  0
 26 29  1  0
 29 30  2  0
 18  9  1  0
 30 23  1  0
 16 11  1  0
  1 31  1  0
  1 32  1  0
  1 33  1  0
  2 34  1  0
  2 35  1  0
  4 36  1  0
  4 37  1  0
  5 38  1  0
  5 39  1  0
  5 40  1  0
  6 41  1  0
  6 42  1  0
  7 43  1  0
  7 44  1  0
 10 45  1  0
 11 46  1  1
 16 47  1  6
 17 48  1  0
 21 49  1  0
 22 50  1  0
 24 51  1  0
 25 52  1  0
 28 53  1  0
 28 54  1  0
 28 55  1  0
 29 56  1  0
 30 57  1  0
M  END
$$$$
