
     RDKit          3D

 55 58  0  0  0  0  0  0  0  0999 V2000
    8.9340   -0.4054   -0.7938 C   0  0  0  0  0  0  0  0  0  0  0  0
    7.9584    0.0948    0.1089 O   0  0  0  0  0  0  0  0  0  0  0  0
    6.6363   -0.0948   -0.2070 C   0  0  0  0  0  0  0  0  0  0  0  0
    6.1850   -0.7444   -1.3608 C   0  0  0  0  0  0  0  0  0  0  0  0
    4.8155   -0.8899   -1.6032 C   0  0  0  0  0  0  0  0  0  0  0  0
    3.8851   -0.3764   -0.6959 C   0  0  0  0  0  0  0  0  0  0  0  0
    2.4156   -0.5094   -0.9145 C   0  0  0  0  0  0  0  0  0  0  0  0
    1.9308   -0.4188   -2.3292 C   0  0  0  0  0  0  0  0  0  0  0  0
    0.6025   -0.5452   -2.5193 C   0  0  0  0  0  0  0  0  0  0  0  0
   -0.0494   -0.4704   -3.8471 C   0  0  0  0  0  0  0  0  0  0  0  0
   -0.6934   -1.6135   -4.1863 F   0  0  0  0  0  0  0  0  0  0  0  0
    0.8705   -0.2593   -4.8330 F   0  0  0  0  0  0  0  0  0  0  0  0
   -0.9321    0.5541   -3.9450 F   0  0  0  0  0  0  0  0  0  0  0  0
   -0.2321   -0.7441   -1.4265 N   0  0  0  0  0  0  0  0  0  0  0  0
   -1.5766   -0.8909   -1.4085 N   0  0  0  0  0  0  0  0  0  0  0  0
   -1.9071   -1.0566   -0.1171 C   0  0  0  0  0  0  0  0  0  0  0  0
   -3.2991   -1.2928    0.3018 C   0  0  0  0  0  0  0  0  0  0  0  0
   -3.9367   -2.2394   -0.1589 O   0  0  0  0  0  0  0  0  0  0  0  0
   -3.8402   -0.4342    1.2664 N   0  0  0  0  0  0  0  0  0  0  0  0
   -3.2331    0.8204    1.6924 C   0  0  0  0  0  0  0  0  0  0  0  0
   -5.1469   -0.7632    1.8291 C   0  0  0  0  0  0  0  0  0  0  0  0
   -6.2643    0.0822    1.2625 C   0  0  0  0  0  0  0  0  0  0  0  0
   -6.9447    1.0048    2.0712 C   0  0  0  0  0  0  0  0  0  0  0  0
   -7.9752    1.7854    1.5435 C   0  0  0  0  0  0  0  0  0  0  0  0
   -8.3375    1.6514    0.2046 C   0  0  0  0  0  0  0  0  0  0  0  0
   -7.6718    0.7362   -0.6079 C   0  0  0  0  0  0  0  0  0  0  0  0
   -6.6418   -0.0453   -0.0823 C   0  0  0  0  0  0  0  0  0  0  0  0
   -0.7614   -1.0116    0.7107 C   0  0  0  0  0  0  0  0  0  0  0  0
    0.2996   -0.8003   -0.1348 C   0  0  0  0  0  0  0  0  0  0  0  0
    1.6343   -0.6708    0.1163 N   0  0  0  0  0  0  0  0  0  0  0  0
    4.3311    0.2585    0.4713 C   0  0  0  0  0  0  0  0  0  0  0  0
    5.7001    0.4045    0.7215 C   0  0  0  0  0  0  0  0  0  0  0  0
    6.2225    1.0232    1.8308 O   0  0  0  0  0  0  0  0  0  0  0  0
    5.3177    1.4183    2.8525 C   0  0  0  0  0  0  0  0  0  0  0  0
    8.8666   -1.4945   -0.8843 H   0  0  0  0  0  0  0  0  0  0  0  0
    8.8527    0.0796   -1.7720 H   0  0  0  0  0  0  0  0  0  0  0  0
    9.9209   -0.1667   -0.3859 H   0  0  0  0  0  0  0  0  0  0  0  0
    6.8757   -1.1574   -2.0889 H   0  0  0  0  0  0  0  0  0  0  0  0
    4.5026   -1.4293   -2.4929 H   0  0  0  0  0  0  0  0  0  0  0  0
    2.6220   -0.2300   -3.1407 H   0  0  0  0  0  0  0  0  0  0  0  0
   -3.9855    1.6137    1.6985 H   0  0  0  0  0  0  0  0  0  0  0  0
   -2.8432    0.6877    2.7055 H   0  0  0  0  0  0  0  0  0  0  0  0
   -2.4276    1.1400    1.0294 H   0  0  0  0  0  0  0  0  0  0  0  0
   -5.3895   -1.8199    1.6658 H   0  0  0  0  0  0  0  0  0  0  0  0
   -5.0765   -0.6342    2.9163 H   0  0  0  0  0  0  0  0  0  0  0  0
   -6.6767    1.1232    3.1184 H   0  0  0  0  0  0  0  0  0  0  0  0
   -8.4967    2.4979    2.1772 H   0  0  0  0  0  0  0  0  0  0  0  0
   -9.1398    2.2585   -0.2062 H   0  0  0  0  0  0  0  0  0  0  0  0
   -7.9530    0.6277   -1.6522 H   0  0  0  0  0  0  0  0  0  0  0  0
   -6.1329   -0.7589   -0.7289 H   0  0  0  0  0  0  0  0  0  0  0  0
   -0.7113   -1.1303    1.7830 H   0  0  0  0  0  0  0  0  0  0  0  0
    3.5898    0.6381    1.1675 H   0  0  0  0  0  0  0  0  0  0  0  0
    5.9058    1.8267    3.6800 H   0  0  0  0  0  0  0  0  0  0  0  0
    4.6479    2.2090    2.4996 H   0  0  0  0  0  0  0  0  0  0  0  0
    4.7535    0.5620    3.2369 H   0  0  0  0  0  0  0  0  0  0  0  0
  1  2  1  0
  2  3  1  0
  3  4  2  0
  4  5  1  0
  5  6  2  0
  6  7  1  0
  7  8  1  0
  8  9  2  0
  9 10  1  0
 10 11  1  0
 10 12  1  0
 10 13  1  0
  9 14  1  0
 14 15  1  0
 15 16  2  0
 16 17  1  0
 17 18  2  0
 17 19  1  0
 19 20  1  0
 19 21  1  0
 21 22  1  0
 22 23  2  0
 23 24  1  0
 24 25  2  0
 25 26  1  0
 26 27  2  0
 16 28  1  0
 28 29  2  0
 29 30  1  0
  6 31  1  0
 31 32  2  0
 32 33  1  0
 33 34  1  0
 32  3  1  0
 30  7  2  0
 29 14  1  0
 27 22  1  0
  1 35  1  0
  1 36  1  0
  1 37  1  0
  4 38  1  0
  5 39  1  0
  8 40  1  0
 20 41  1  0
 20 42  1  0
 20 43  1  0
 21 44  1  0
 21 45  1  0
 23 46  1  0
 24 47  1  0
 25 48  1  0
 26 49  1  0
 27 50  1  0
 28 51  1  0
 31 52  1  0
 34 53  1  0
 34 54  1  0
 34 55  1  0
M  END
$$$$
