
     RDKit          3D

 58 61  0  0  0  0  0  0  0  0999 V2000
   -4.9447    4.8831    1.9326 C   0  0  0  0  0  0  0  0  0  0  0  0
   -4.7833    3.4755    1.8140 O   0  0  0  0  0  0  0  0  0  0  0  0
   -3.9150    3.0307    0.8547 C   0  0  0  0  0  0  0  0  0  0  0  0
   -3.1724    3.8311   -0.0135 C   0  0  0  0  0  0  0  0  0  0  0  0
   -2.3152    3.2443   -0.9476 C   0  0  0  0  0  0  0  0  0  0  0  0
   -2.1972    1.8559   -1.0181 C   0  0  0  0  0  0  0  0  0  0  0  0
   -2.9367    1.0390   -0.1552 C   0  0  0  0  0  0  0  0  0  0  0  0
   -2.7980   -0.4214   -0.2168 C   0  0  0  0  0  0  0  0  0  0  0  0
   -4.1604   -1.3471   -0.6810 S   0  0  0  0  0  0  0  0  0  0  0  0
   -3.3064   -2.8313   -0.5671 C   0  0  0  0  0  0  0  0  0  0  0  0
   -3.8154   -4.1198   -0.8196 C   0  0  0  0  0  0  0  0  0  0  0  0
   -2.9753   -5.2294   -0.6724 C   0  0  0  0  0  0  0  0  0  0  0  0
   -1.6542   -5.0684   -0.2787 C   0  0  0  0  0  0  0  0  0  0  0  0
   -0.7398   -6.0702   -0.0990 O   0  0  0  0  0  0  0  0  0  0  0  0
   -1.1942   -7.4021   -0.3026 C   0  0  0  0  0  0  0  0  0  0  0  0
   -1.1611   -3.7815   -0.0314 C   0  0  0  0  0  0  0  0  0  0  0  0
   -1.9822   -2.6319   -0.1769 C   0  0  0  0  0  0  0  0  0  0  0  0
   -1.6934   -1.2267    0.0198 C   0  0  0  0  0  0  0  0  0  0  0  0
   -0.4044   -0.6699    0.4214 C   0  0  0  0  0  0  0  0  0  0  0  0
   -0.2550   -0.0360    1.6574 C   0  0  0  0  0  0  0  0  0  0  0  0
    0.9849    0.4920    2.0258 C   0  0  0  0  0  0  0  0  0  0  0  0
    2.0888    0.3903    1.1744 C   0  0  0  0  0  0  0  0  0  0  0  0
    3.2323    0.9554    1.6644 O   0  0  0  0  0  0  0  0  0  0  0  0
    4.4333    0.8647    0.8907 C   0  0  0  0  0  0  0  0  0  0  0  0
    4.5169    2.0183   -0.1242 C   0  0  0  0  0  0  0  0  0  0  0  0
    5.7852    2.0635   -0.8778 N   0  0  0  0  0  0  0  0  0  0  0  0
    5.8955    3.3394   -1.5912 C   0  0  0  0  0  0  0  0  0  0  0  0
    5.8913    0.9565   -1.8305 C   0  0  0  0  0  0  0  0  0  0  0  0
    1.9402   -0.2467   -0.0575 C   0  0  0  0  0  0  0  0  0  0  0  0
    0.6992   -0.7756   -0.4321 C   0  0  0  0  0  0  0  0  0  0  0  0
   -3.7929    1.6395    0.7789 C   0  0  0  0  0  0  0  0  0  0  0  0
   -5.6653    5.0705    2.7346 H   0  0  0  0  0  0  0  0  0  0  0  0
   -5.3525    5.3129    1.0117 H   0  0  0  0  0  0  0  0  0  0  0  0
   -4.0026    5.3663    2.2121 H   0  0  0  0  0  0  0  0  0  0  0  0
   -3.2350    4.9137    0.0110 H   0  0  0  0  0  0  0  0  0  0  0  0
   -1.7358    3.8707   -1.6211 H   0  0  0  0  0  0  0  0  0  0  0  0
   -1.5245    1.4150   -1.7501 H   0  0  0  0  0  0  0  0  0  0  0  0
   -4.8499   -4.2534   -1.1243 H   0  0  0  0  0  0  0  0  0  0  0  0
   -3.3962   -6.2089   -0.8747 H   0  0  0  0  0  0  0  0  0  0  0  0
   -1.9970   -7.6573    0.3971 H   0  0  0  0  0  0  0  0  0  0  0  0
   -0.3545   -8.0755   -0.1055 H   0  0  0  0  0  0  0  0  0  0  0  0
   -1.5087   -7.5571   -1.3399 H   0  0  0  0  0  0  0  0  0  0  0  0
   -0.1266   -3.6654    0.2844 H   0  0  0  0  0  0  0  0  0  0  0  0
   -1.0964    0.0537    2.3403 H   0  0  0  0  0  0  0  0  0  0  0  0
    1.0909    0.9871    2.9882 H   0  0  0  0  0  0  0  0  0  0  0  0
    4.5464   -0.1278    0.4428 H   0  0  0  0  0  0  0  0  0  0  0  0
    5.2615    0.9657    1.6027 H   0  0  0  0  0  0  0  0  0  0  0  0
    3.6586    1.9934   -0.8074 H   0  0  0  0  0  0  0  0  0  0  0  0
    4.4024    2.9483    0.4498 H   0  0  0  0  0  0  0  0  0  0  0  0
    6.8513    3.4020   -2.1236 H   0  0  0  0  0  0  0  0  0  0  0  0
    5.8773    4.1782   -0.8864 H   0  0  0  0  0  0  0  0  0  0  0  0
    5.0857    3.4789   -2.3166 H   0  0  0  0  0  0  0  0  0  0  0  0
    5.9160   -0.0088   -1.3159 H   0  0  0  0  0  0  0  0  0  0  0  0
    5.0622    0.9470   -2.5473 H   0  0  0  0  0  0  0  0  0  0  0  0
    6.8296    1.0230   -2.3934 H   0  0  0  0  0  0  0  0  0  0  0  0
    2.7627   -0.3492   -0.7564 H   0  0  0  0  0  0  0  0  0  0  0  0
    0.6001   -1.2671   -1.3976 H   0  0  0  0  0  0  0  0  0  0  0  0
   -4.3698    1.0230    1.4650 H   0  0  0  0  0  0  0  0  0  0  0  0
  1  2  1  0
  2  3  1  0
  3  4  2  0
  4  5  1  0
  5  6  2  0
  6  7  1  0
  7  8  1  0
  8  9  1  0
  9 10  1  0
 10 11  2  0
 11 12  1  0
 12 13  2  0
 13 14  1  0
 14 15  1  0
 13 16  1  0
 16 17  2  0
 17 18  1  0
 18 19  1  0
 19 20  2  0
 20 21  1  0
 21 22  2  0
 22 23  1  0
 23 24  1  0
 24 25  1  0
 25 26  1  0
 26 27  1  0
 26 28  1  0
 22 29  1  0
 29 30  2  0
  7 31  2  0
 31  3  1  0
 18  8  2  0
 30 19  1  0
 17 10  1  0
  1 32  1  0
  1 33  1  0
  1 34  1  0
  4 35  1  0
  5 36  1  0
  6 37  1  0
 11 38  1  0
 12 39  1  0
 15 40  1  0
 15 41  1  0
 15 42  1  0
 16 43  1  0
 20 44  1  0
 21 45  1  0
 24 46  1  0
 24 47  1  0
 25 48  1  0
 25 49  1  0
 27 50  1  0
 27 51  1  0
 27 52  1  0
 28 53  1  0
 28 54  1  0
 28 55  1  0
 29 56  1  0
 30 57  1  0
 31 58  1  0
M  END
$$$$
