
     RDKit          3D

 56 60  0  0  0  0  0  0  0  0999 V2000
   -6.2344    0.5669    1.6172 C   0  0  0  0  0  0  0  0  0  0  0  0
   -4.7658    0.5664    1.2958 C   0  0  0  0  0  0  0  0  0  0  0  0
   -4.0293    1.7398    1.5204 C   0  0  0  0  0  0  0  0  0  0  0  0
   -2.6603    1.7966    1.2406 C   0  0  0  0  0  0  0  0  0  0  0  0
   -1.9815    0.6854    0.7233 C   0  0  0  0  0  0  0  0  0  0  0  0
   -0.5410    0.7534    0.4317 C   0  0  0  0  0  0  0  0  0  0  0  0
    0.2249    0.9713    1.5220 N   0  0  0  0  0  0  0  0  0  0  0  0
    1.5866    1.0210    1.4091 N   0  0  0  0  0  0  0  0  0  0  0  0
    2.1959    0.8513    0.2172 C   0  0  0  0  0  0  0  0  0  0  0  0
    3.6128    0.9301    0.1212 N   0  0  0  0  0  0  0  0  0  0  0  0
    4.5631    0.9136    1.1695 C   0  0  0  0  0  0  0  0  0  0  0  0
    4.3397    0.2284    2.3847 C   0  0  0  0  0  0  0  0  0  0  0  0
    5.3208    0.1652    3.3832 C   0  0  0  0  0  0  0  0  0  0  0  0
    6.5287    0.7727    3.1327 C   0  0  0  0  0  0  0  0  0  0  0  0
    6.7759    1.4129    1.9438 C   0  0  0  0  0  0  0  0  0  0  0  0
    5.8260    1.4889    0.9447 C   0  0  0  0  0  0  0  0  0  0  0  0
    8.0326    1.9311    1.8847 O   0  0  0  0  0  0  0  0  0  0  0  0
    8.5410    1.5542    3.1818 C   0  0  0  0  0  0  0  0  0  0  0  0
    7.5948    0.8088    3.9748 O   0  0  0  0  0  0  0  0  0  0  0  0
    1.4355    0.6168   -0.9532 C   0  0  0  0  0  0  0  0  0  0  0  0
    2.0190    0.3996   -2.2283 C   0  0  0  0  0  0  0  0  0  0  0  0
    1.2433    0.1920   -3.3695 C   0  0  0  0  0  0  0  0  0  0  0  0
   -0.1383    0.2009   -3.2708 C   0  0  0  0  0  0  0  0  0  0  0  0
   -0.7397    0.4004   -2.0287 C   0  0  0  0  0  0  0  0  0  0  0  0
    0.0246    0.5875   -0.8478 C   0  0  0  0  0  0  0  0  0  0  0  0
   -2.7126   -0.4941    0.5108 C   0  0  0  0  0  0  0  0  0  0  0  0
   -4.0930   -0.5496    0.7675 C   0  0  0  0  0  0  0  0  0  0  0  0
   -4.9698   -2.0499    0.3710 S   0  0  0  0  0  6  0  0  0  0  0  0
   -6.2247   -1.7162   -0.2651 O   0  0  0  0  0  0  0  0  0  0  0  0
   -4.8945   -2.9097    1.5296 O   0  0  0  0  0  0  0  0  0  0  0  0
   -4.0188   -2.7861   -0.8105 N   0  0  0  0  0  0  0  0  0  0  0  0
   -4.1728   -2.3311   -2.1960 C   0  0  0  0  0  0  0  0  0  0  0  0
   -2.9660   -2.7628   -3.0298 C   0  0  0  0  0  0  0  0  0  0  0  0
   -3.0292   -2.2096   -4.3396 O   0  0  0  0  0  0  0  0  0  0  0  0
   -6.4911    1.3954    2.2866 H   0  0  0  0  0  0  0  0  0  0  0  0
   -6.5247   -0.3515    2.1365 H   0  0  0  0  0  0  0  0  0  0  0  0
   -6.8236    0.6812    0.7028 H   0  0  0  0  0  0  0  0  0  0  0  0
   -4.5162    2.6259    1.9254 H   0  0  0  0  0  0  0  0  0  0  0  0
   -2.1178    2.7209    1.4376 H   0  0  0  0  0  0  0  0  0  0  0  0
    3.8490    1.6239   -0.5813 H   0  0  0  0  0  0  0  0  0  0  0  0
    3.3924   -0.2744    2.5667 H   0  0  0  0  0  0  0  0  0  0  0  0
    5.1349   -0.3528    4.3171 H   0  0  0  0  0  0  0  0  0  0  0  0
    6.0674    1.9896    0.0142 H   0  0  0  0  0  0  0  0  0  0  0  0
    8.8169    2.4639    3.7273 H   0  0  0  0  0  0  0  0  0  0  0  0
    9.4394    0.9425    3.0413 H   0  0  0  0  0  0  0  0  0  0  0  0
    3.1012    0.3721   -2.3431 H   0  0  0  0  0  0  0  0  0  0  0  0
    1.7208    0.0234   -4.3316 H   0  0  0  0  0  0  0  0  0  0  0  0
   -0.7537    0.0432   -4.1543 H   0  0  0  0  0  0  0  0  0  0  0  0
   -1.8275    0.4098   -1.9957 H   0  0  0  0  0  0  0  0  0  0  0  0
   -2.1905   -1.3768    0.1461 H   0  0  0  0  0  0  0  0  0  0  0  0
   -3.8992   -3.7827   -0.6262 H   0  0  0  0  0  0  0  0  0  0  0  0
   -4.2650   -1.2403   -2.2411 H   0  0  0  0  0  0  0  0  0  0  0  0
   -5.0845   -2.7574   -2.6287 H   0  0  0  0  0  0  0  0  0  0  0  0
   -2.9095   -3.8539   -3.1091 H   0  0  0  0  0  0  0  0  0  0  0  0
   -2.0363   -2.4189   -2.5656 H   0  0  0  0  0  0  0  0  0  0  0  0
   -3.7758   -2.6294   -4.8025 H   0  0  0  0  0  0  0  0  0  0  0  0
  1  2  1  0
  2  3  2  0
  3  4  1  0
  4  5  2  0
  5  6  1  0
  6  7  2  0
  7  8  1  0
  8  9  2  0
  9 10  1  0
 10 11  1  0
 11 12  2  0
 12 13  1  0
 13 14  2  0
 14 15  1  0
 15 16  2  0
 15 17  1  0
 17 18  1  0
 18 19  1  0
  9 20  1  0
 20 21  2  0
 21 22  1  0
 22 23  2  0
 23 24  1  0
 24 25  2  0
  5 26  1  0
 26 27  2  0
 27 28  1  0
 28 29  2  0
 28 30  2  0
 28 31  1  0
 31 32  1  0
 32 33  1  0
 33 34  1  0
 27  2  1  0
 25  6  1  0
 16 11  1  0
 25 20  1  0
 19 14  1  0
  1 35  1  0
  1 36  1  0
  1 37  1  0
  3 38  1  0
  4 39  1  0
 10 40  1  0
 12 41  1  0
 13 42  1  0
 16 43  1  0
 18 44  1  0
 18 45  1  0
 21 46  1  0
 22 47  1  0
 23 48  1  0
 24 49  1  0
 26 50  1  0
 31 51  1  0
 32 52  1  0
 32 53  1  0
 33 54  1  0
 33 55  1  0
 34 56  1  0
M  END
$$$$
