
     RDKit          3D

 51 54  0  0  0  0  0  0  0  0999 V2000
    5.6545    0.1506   -2.9213 C   0  0  0  0  0  0  0  0  0  0  0  0
    5.5644    0.0887   -1.4046 C   0  0  0  0  0  0  0  0  0  0  0  0
    4.1920    0.4611   -0.9075 C   0  0  0  0  0  0  0  0  0  0  0  0
    3.1777   -0.4963   -0.8306 C   0  0  0  0  0  0  0  0  0  0  0  0
    1.8982   -0.1449   -0.3829 C   0  0  0  0  0  0  0  0  0  0  0  0
    1.5917    1.1717    0.0010 C   0  0  0  0  0  0  0  0  0  0  0  0
    0.2663    1.5320    0.4673 N   0  0  0  0  0  0  0  0  0  0  0  0
   -0.2533    2.7794    0.0996 C   0  0  0  0  0  0  0  0  0  0  0  0
    0.3156    3.6250   -0.5910 O   0  0  0  0  0  0  0  0  0  0  0  0
   -1.6306    3.0911    0.5186 C   0  0  0  0  0  0  0  0  0  0  0  0
   -2.2161    4.3041    0.1125 C   0  0  0  0  0  0  0  0  0  0  0  0
   -3.5287    4.6045    0.4618 C   0  0  0  0  0  0  0  0  0  0  0  0
   -4.2597    3.6906    1.2087 C   0  0  0  0  0  0  0  0  0  0  0  0
   -3.6742    2.4863    1.6144 C   0  0  0  0  0  0  0  0  0  0  0  0
   -2.3440    2.1764    1.2843 C   0  0  0  0  0  0  0  0  0  0  0  0
   -1.7090    0.9805    1.6972 N   0  0  0  0  0  0  0  0  0  0  0  0
   -2.3987    0.0317    2.5802 C   0  0  0  0  0  0  0  0  0  0  0  0
   -3.1620   -0.9970    1.7486 C   0  0  0  0  0  0  0  0  0  0  0  0
   -4.3650   -0.8975    1.5204 O   0  0  0  0  0  0  0  0  0  0  0  0
   -2.3745   -2.0064    1.2430 N   0  0  0  0  0  0  0  0  0  0  0  0
   -2.8965   -2.9174    0.2546 C   0  0  0  0  0  0  0  0  0  0  0  0
   -1.8676   -3.9419   -0.0348 C   0  0  0  0  0  0  0  0  0  0  0  0
   -1.7315   -5.2734    0.2993 C   0  0  0  0  0  0  0  0  0  0  0  0
   -0.5115   -5.7060   -0.2747 C   0  0  0  0  0  0  0  0  0  0  0  0
    0.0204   -4.6127   -0.9164 C   0  0  0  0  0  0  0  0  0  0  0  0
   -0.7936   -3.5355   -0.7750 O   0  0  0  0  0  0  0  0  0  0  0  0
   -0.4313    0.6192    1.2687 C   0  0  0  0  0  0  0  0  0  0  0  0
    0.0243   -0.4715    1.6335 O   0  0  0  0  0  0  0  0  0  0  0  0
    2.6187    2.1244   -0.0937 C   0  0  0  0  0  0  0  0  0  0  0  0
    3.8990    1.7766   -0.5427 C   0  0  0  0  0  0  0  0  0  0  0  0
    4.9496   -0.5442   -3.3902 H   0  0  0  0  0  0  0  0  0  0  0  0
    5.4310    1.1561   -3.2934 H   0  0  0  0  0  0  0  0  0  0  0  0
    6.6633   -0.1165   -3.2517 H   0  0  0  0  0  0  0  0  0  0  0  0
    5.8178   -0.9213   -1.0594 H   0  0  0  0  0  0  0  0  0  0  0  0
    6.3136    0.7571   -0.9627 H   0  0  0  0  0  0  0  0  0  0  0  0
    3.3701   -1.5258   -1.1233 H   0  0  0  0  0  0  0  0  0  0  0  0
    1.1402   -0.9256   -0.3759 H   0  0  0  0  0  0  0  0  0  0  0  0
   -1.6505    5.0148   -0.4880 H   0  0  0  0  0  0  0  0  0  0  0  0
   -3.9806    5.5395    0.1409 H   0  0  0  0  0  0  0  0  0  0  0  0
   -5.2930    3.9057    1.4722 H   0  0  0  0  0  0  0  0  0  0  0  0
   -4.3077    1.8014    2.1711 H   0  0  0  0  0  0  0  0  0  0  0  0
   -1.6758   -0.4968    3.2140 H   0  0  0  0  0  0  0  0  0  0  0  0
   -3.0720    0.5341    3.2804 H   0  0  0  0  0  0  0  0  0  0  0  0
   -1.3634   -1.8672    1.2639 H   0  0  0  0  0  0  0  0  0  0  0  0
   -3.1443   -2.3464   -0.6469 H   0  0  0  0  0  0  0  0  0  0  0  0
   -3.8180   -3.3696    0.6359 H   0  0  0  0  0  0  0  0  0  0  0  0
   -2.4253   -5.8567    0.8897 H   0  0  0  0  0  0  0  0  0  0  0  0
   -0.0721   -6.6918   -0.2244 H   0  0  0  0  0  0  0  0  0  0  0  0
    0.9211   -4.4452   -1.4911 H   0  0  0  0  0  0  0  0  0  0  0  0
    2.4567    3.1575    0.2038 H   0  0  0  0  0  0  0  0  0  0  0  0
    4.6644    2.5474   -0.6012 H   0  0  0  0  0  0  0  0  0  0  0  0
  1  2  1  0
  2  3  1  0
  3  4  2  0
  4  5  1  0
  5  6  2  0
  6  7  1  0
  7  8  1  0
  8  9  2  0
  8 10  1  0
 10 11  2  0
 11 12  1  0
 12 13  2  0
 13 14  1  0
 14 15  2  0
 15 16  1  0
 16 17  1  0
 17 18  1  0
 18 19  2  0
 18 20  1  0
 20 21  1  0
 21 22  1  0
 22 23  2  0
 23 24  1  0
 24 25  2  0
 25 26  1  0
 16 27  1  0
 27 28  2  0
  6 29  1  0
 29 30  2  0
 30  3  1  0
 27  7  1  0
 15 10  1  0
 26 22  1  0
  1 31  1  0
  1 32  1  0
  1 33  1  0
  2 34  1  0
  2 35  1  0
  4 36  1  0
  5 37  1  0
 11 38  1  0
 12 39  1  0
 13 40  1  0
 14 41  1  0
 17 42  1  0
 17 43  1  0
 20 44  1  0
 21 45  1  0
 21 46  1  0
 23 47  1  0
 24 48  1  0
 25 49  1  0
 29 50  1  0
 30 51  1  0
M  END
$$$$
