
     RDKit          3D

 43 45  0  0  0  0  0  0  0  0999 V2000
   -7.7280    0.2623    0.6571 C   0  0  0  0  0  0  0  0  0  0  0  0
   -6.8060   -0.4851   -0.1965 N   0  0  0  0  0  0  0  0  0  0  0  0
   -7.1674   -1.8800   -0.4437 C   0  0  0  0  0  0  0  0  0  0  0  0
   -5.4530   -0.1239   -0.2114 C   0  0  0  0  0  0  0  0  0  0  0  0
   -4.4641   -0.9486   -0.7749 C   0  0  0  0  0  0  0  0  0  0  0  0
   -3.1075   -0.5858   -0.8056 C   0  0  0  0  0  0  0  0  0  0  0  0
   -2.6826    0.6288   -0.2695 C   0  0  0  0  0  0  0  0  0  0  0  0
   -1.2801    1.0654   -0.3071 C   0  0  0  0  0  0  0  0  0  0  0  0
   -0.2346    0.2439   -0.1197 C   0  0  0  0  0  0  0  0  0  0  0  0
    1.1386    0.7094   -0.1559 C   0  0  0  0  0  0  0  0  0  0  0  0
    2.2411   -0.0342    0.0196 C   0  0  0  0  0  0  0  0  0  0  0  0
    2.3364   -1.7126    0.3356 S   0  0  0  0  0  0  0  0  0  0  0  0
    4.1013   -1.7182    0.2991 C   0  0  0  0  0  0  0  0  0  0  0  0
    4.9162   -3.1815    0.3338 S   0  0  0  0  0  0  0  0  0  0  0  0
    4.5778   -0.4184    0.1565 N   0  0  0  0  0  0  0  0  0  0  0  0
    5.9654   -0.0505    0.1794 C   0  0  0  0  0  0  0  0  0  0  0  0
    6.8619   -0.6201    1.0966 C   0  0  0  0  0  0  0  0  0  0  0  0
    8.2107   -0.2482    1.1164 C   0  0  0  0  0  0  0  0  0  0  0  0
    8.6856    0.7084    0.2253 C   0  0  0  0  0  0  0  0  0  0  0  0
    7.8106    1.2996   -0.6795 C   0  0  0  0  0  0  0  0  0  0  0  0
    6.4625    0.9274   -0.6978 C   0  0  0  0  0  0  0  0  0  0  0  0
    3.6045    0.5637   -0.0357 C   0  0  0  0  0  0  0  0  0  0  0  0
    3.7684    1.7677   -0.1984 O   0  0  0  0  0  0  0  0  0  0  0  0
   -3.6474    1.4815    0.2640 C   0  0  0  0  0  0  0  0  0  0  0  0
   -5.0011    1.1086    0.2906 C   0  0  0  0  0  0  0  0  0  0  0  0
   -7.4297    0.1995    1.7094 H   0  0  0  0  0  0  0  0  0  0  0  0
   -7.7879    1.3127    0.3524 H   0  0  0  0  0  0  0  0  0  0  0  0
   -8.7483   -0.1299    0.5789 H   0  0  0  0  0  0  0  0  0  0  0  0
   -6.7083   -2.5435    0.2975 H   0  0  0  0  0  0  0  0  0  0  0  0
   -6.8744   -2.1933   -1.4514 H   0  0  0  0  0  0  0  0  0  0  0  0
   -8.2524   -2.0250   -0.3895 H   0  0  0  0  0  0  0  0  0  0  0  0
   -4.7210   -1.9047   -1.2204 H   0  0  0  0  0  0  0  0  0  0  0  0
   -2.3995   -1.2666   -1.2714 H   0  0  0  0  0  0  0  0  0  0  0  0
   -1.1273    2.1284   -0.4808 H   0  0  0  0  0  0  0  0  0  0  0  0
   -0.4076   -0.8111    0.0810 H   0  0  0  0  0  0  0  0  0  0  0  0
    1.2670    1.7761   -0.3465 H   0  0  0  0  0  0  0  0  0  0  0  0
    6.5299   -1.3322    1.8473 H   0  0  0  0  0  0  0  0  0  0  0  0
    8.8867   -0.7014    1.8376 H   0  0  0  0  0  0  0  0  0  0  0  0
    9.7329    0.9986    0.2417 H   0  0  0  0  0  0  0  0  0  0  0  0
    8.1730    2.0532   -1.3745 H   0  0  0  0  0  0  0  0  0  0  0  0
    5.8170    1.4047   -1.4320 H   0  0  0  0  0  0  0  0  0  0  0  0
   -3.3647    2.4488    0.6731 H   0  0  0  0  0  0  0  0  0  0  0  0
   -5.6945    1.8262    0.7180 H   0  0  0  0  0  0  0  0  0  0  0  0
  1  2  1  0
  2  3  1  0
  2  4  1  0
  4  5  2  0
  5  6  1  0
  6  7  2  0
  7  8  1  0
  8  9  2  3
  9 10  1  0
 10 11  2  3
 11 12  1  0
 12 13  1  0
 13 14  2  0
 13 15  1  0
 15 16  1  0
 16 17  2  0
 17 18  1  0
 18 19  2  0
 19 20  1  0
 20 21  2  0
 15 22  1  0
 22 23  2  0
  7 24  1  0
 24 25  2  0
 25  4  1  0
 22 11  1  0
 21 16  1  0
  1 26  1  0
  1 27  1  0
  1 28  1  0
  3 29  1  0
  3 30  1  0
  3 31  1  0
  5 32  1  0
  6 33  1  0
  8 34  1  0
  9 35  1  0
 10 36  1  0
 17 37  1  0
 18 38  1  0
 19 39  1  0
 20 40  1  0
 21 41  1  0
 24 42  1  0
 25 43  1  0
M  END
$$$$
