
     RDKit          3D

 38 40  0  0  0  0  0  0  0  0999 V2000
   -2.1156   -0.4275    2.1401 C   0  0  0  0  0  0  0  0  0  0  0  0
   -2.0110    0.3385    0.8515 C   0  0  0  0  0  0  0  0  0  0  0  0
   -1.6258    1.6909    0.9241 C   0  0  0  0  0  0  0  0  0  0  0  0
   -1.5193    2.4674   -0.2261 C   0  0  0  0  0  0  0  0  0  0  0  0
   -1.1372    3.7463   -0.1212 F   0  0  0  0  0  0  0  0  0  0  0  0
   -1.8068    1.9362   -1.4738 C   0  0  0  0  0  0  0  0  0  0  0  0
   -2.1974    0.6015   -1.5737 C   0  0  0  0  0  0  0  0  0  0  0  0
   -2.2775   -0.2067   -0.4211 C   0  0  0  0  0  0  0  0  0  0  0  0
   -2.7163   -1.9260   -0.6986 S   0  0  0  0  0  6  0  0  0  0  0  0
   -3.7753   -1.9344   -1.6872 O   0  0  0  0  0  0  0  0  0  0  0  0
   -2.8760   -2.6108    0.5642 O   0  0  0  0  0  0  0  0  0  0  0  0
   -1.3460   -2.5494   -1.4817 N   0  0  0  0  0  0  0  0  0  0  0  0
   -0.0653   -2.3052   -0.9120 C   0  0  0  0  0  0  0  0  0  0  0  0
    0.2858   -2.8522    0.3208 C   0  0  0  0  0  0  0  0  0  0  0  0
    1.5023   -2.5086    0.9106 C   0  0  0  0  0  0  0  0  0  0  0  0
    2.3547   -1.6124    0.2702 C   0  0  0  0  0  0  0  0  0  0  0  0
    3.4998   -1.2731    0.9386 O   0  0  0  0  0  0  0  0  0  0  0  0
    2.0282   -1.0838   -0.9859 C   0  0  0  0  0  0  0  0  0  0  0  0
    3.1068    0.0174   -1.8848 S   0  0  0  0  0  0  0  0  0  0  0  0
    2.9416    1.4625   -0.9303 C   0  0  0  0  0  0  0  0  0  0  0  0
    2.1343    2.5060   -1.2763 N   0  0  0  0  0  0  0  0  0  0  0  0
    2.3046    3.3493   -0.2842 C   0  0  0  0  0  0  0  0  0  0  0  0
    3.1816    2.8246    0.6124 N   0  0  0  0  0  0  0  0  0  0  0  0
    3.6012    1.6052    0.2254 N   0  0  0  0  0  0  0  0  0  0  0  0
    0.8104   -1.4438   -1.5749 C   0  0  0  0  0  0  0  0  0  0  0  0
   -3.1394   -0.7768    2.2955 H   0  0  0  0  0  0  0  0  0  0  0  0
   -1.4147   -1.2656    2.1543 H   0  0  0  0  0  0  0  0  0  0  0  0
   -1.8648    0.2011    3.0021 H   0  0  0  0  0  0  0  0  0  0  0  0
   -1.4077    2.1571    1.8826 H   0  0  0  0  0  0  0  0  0  0  0  0
   -1.7231    2.5606   -2.3557 H   0  0  0  0  0  0  0  0  0  0  0  0
   -2.4295    0.1908   -2.5549 H   0  0  0  0  0  0  0  0  0  0  0  0
   -1.4373   -2.4980   -2.4949 H   0  0  0  0  0  0  0  0  0  0  0  0
   -0.3847   -3.5355    0.8353 H   0  0  0  0  0  0  0  0  0  0  0  0
    1.7762   -2.9194    1.8768 H   0  0  0  0  0  0  0  0  0  0  0  0
    3.8419   -0.4425    0.5484 H   0  0  0  0  0  0  0  0  0  0  0  0
    1.8361    4.3152   -0.1661 H   0  0  0  0  0  0  0  0  0  0  0  0
    3.5300    3.2271    1.4777 H   0  0  0  0  0  0  0  0  0  0  0  0
    0.5353   -1.0261   -2.5389 H   0  0  0  0  0  0  0  0  0  0  0  0
  1  2  1  0
  2  3  2  0
  3  4  1  0
  4  5  1  0
  4  6  2  0
  6  7  1  0
  7  8  2  0
  8  9  1  0
  9 10  2  0
  9 11  2  0
  9 12  1  0
 12 13  1  0
 13 14  2  0
 14 15  1  0
 15 16  2  0
 16 17  1  0
 16 18  1  0
 18 19  1  0
 19 20  1  0
 20 21  1  0
 21 22  2  0
 22 23  1  0
 23 24  1  0
 18 25  2  0
  8  2  1  0
 25 13  1  0
 24 20  2  0
  1 26  1  0
  1 27  1  0
  1 28  1  0
  3 29  1  0
  6 30  1  0
  7 31  1  0
 12 32  1  0
 14 33  1  0
 15 34  1  0
 17 35  1  0
 22 36  1  0
 23 37  1  0
 25 38  1  0
M  END
$$$$
