
     RDKit          3D

 42 41  0  0  0  0  0  0  0  0999 V2000
   -5.3216   -0.0728    0.8262 C   0  0  0  0  0  0  0  0  0  0  0  0
   -4.4115   -0.8618    1.7264 C   0  0  0  0  0  0  0  0  0  0  0  0
   -5.0887   -1.9995    2.4467 C   0  0  0  0  0  0  0  0  0  0  0  0
   -3.0950   -0.6305    1.8947 C   0  0  0  0  0  0  0  0  0  0  0  0
   -2.2627    0.4549    1.2656 C   0  0  0  0  0  0  0  0  0  0  0  0
   -1.4644   -0.0811    0.0729 C   0  0  0  0  0  0  0  0  0  0  0  0
   -0.5725    0.9728   -0.5499 C   0  0  0  0  0  0  0  0  0  0  0  0
   -1.2580    1.8989   -1.5224 C   0  0  0  0  0  0  0  0  0  0  0  0
    0.7502    1.0851   -0.3127 C   0  0  0  0  0  0  0  0  0  0  0  0
    1.5759    0.2638    0.6450 C   0  0  0  0  0  0  0  0  0  0  0  0
    2.3641   -0.8621   -0.0448 C   0  0  0  0  0  0  0  0  0  0  0  0
    3.5625   -0.5215   -0.9252 C   0  0  0  0  0  0  0  0  0  0  0  0
    4.0574   -1.7106   -1.7120 C   0  0  0  0  0  0  0  0  0  0  0  0
    4.1316    0.6996   -0.9896 C   0  0  0  0  0  0  0  0  0  0  0  0
    5.2797    1.1468   -1.8397 C   0  0  0  0  0  0  0  0  0  0  0  0
    6.3501    1.5075   -0.9836 O   0  0  0  0  0  0  0  0  0  0  0  0
   -4.8208    0.7512    0.3141 H   0  0  0  0  0  0  0  0  0  0  0  0
   -5.7399   -0.7269    0.0539 H   0  0  0  0  0  0  0  0  0  0  0  0
   -6.1500    0.3508    1.4034 H   0  0  0  0  0  0  0  0  0  0  0  0
   -5.8789   -1.6168    3.1020 H   0  0  0  0  0  0  0  0  0  0  0  0
   -5.5383   -2.6905    1.7252 H   0  0  0  0  0  0  0  0  0  0  0  0
   -4.3920   -2.5759    3.0658 H   0  0  0  0  0  0  0  0  0  0  0  0
   -2.5343   -1.2866    2.5606 H   0  0  0  0  0  0  0  0  0  0  0  0
   -1.5768    0.8404    2.0308 H   0  0  0  0  0  0  0  0  0  0  0  0
   -2.8788    1.3086    0.9668 H   0  0  0  0  0  0  0  0  0  0  0  0
   -0.8743   -0.9527    0.3816 H   0  0  0  0  0  0  0  0  0  0  0  0
   -2.1511   -0.4636   -0.6949 H   0  0  0  0  0  0  0  0  0  0  0  0
   -1.7043    1.3264   -2.3421 H   0  0  0  0  0  0  0  0  0  0  0  0
   -2.0496    2.4646   -1.0207 H   0  0  0  0  0  0  0  0  0  0  0  0
   -0.5651    2.6231   -1.9635 H   0  0  0  0  0  0  0  0  0  0  0  0
    1.3064    1.8596   -0.8393 H   0  0  0  0  0  0  0  0  0  0  0  0
    0.9303   -0.1857    1.4087 H   0  0  0  0  0  0  0  0  0  0  0  0
    2.2469    0.9282    1.2023 H   0  0  0  0  0  0  0  0  0  0  0  0
    2.7296   -1.5349    0.7429 H   0  0  0  0  0  0  0  0  0  0  0  0
    1.6566   -1.4504   -0.6455 H   0  0  0  0  0  0  0  0  0  0  0  0
    3.3691   -1.9264   -2.5365 H   0  0  0  0  0  0  0  0  0  0  0  0
    4.1108   -2.5970   -1.0695 H   0  0  0  0  0  0  0  0  0  0  0  0
    5.0575   -1.5710   -2.1277 H   0  0  0  0  0  0  0  0  0  0  0  0
    3.7364    1.5069   -0.3776 H   0  0  0  0  0  0  0  0  0  0  0  0
    4.9913    2.0305   -2.4173 H   0  0  0  0  0  0  0  0  0  0  0  0
    5.6364    0.3963   -2.5465 H   0  0  0  0  0  0  0  0  0  0  0  0
    6.4860    0.7619   -0.3748 H   0  0  0  0  0  0  0  0  0  0  0  0
  1  2  1  0
  2  3  1  0
  2  4  2  3
  4  5  1  0
  5  6  1  0
  6  7  1  0
  7  8  1  0
  7  9  2  3
  9 10  1  0
 10 11  1  0
 11 12  1  0
 12 13  1  0
 12 14  2  3
 14 15  1  0
 15 16  1  0
  1 17  1  0
  1 18  1  0
  1 19  1  0
  3 20  1  0
  3 21  1  0
  3 22  1  0
  4 23  1  0
  5 24  1  0
  5 25  1  0
  6 26  1  0
  6 27  1  0
  8 28  1  0
  8 29  1  0
  8 30  1  0
  9 31  1  0
 10 32  1  0
 10 33  1  0
 11 34  1  0
 11 35  1  0
 13 36  1  0
 13 37  1  0
 13 38  1  0
 14 39  1  0
 15 40  1  0
 15 41  1  0
 16 42  1  0
M  END
$$$$
