
     RDKit          3D

 33 35  0  0  0  0  0  0  0  0999 V2000
    5.0458    2.0837   -0.3085 C   0  0  0  0  0  0  0  0  0  0  0  0
    4.3341    0.8682    0.0123 N   0  0  0  0  0  0  0  0  0  0  0  0
    4.8789   -0.3241    0.3786 C   0  0  0  0  0  0  0  0  0  0  0  0
    3.8098   -1.1751    0.5689 C   0  0  0  0  0  0  0  0  0  0  0  0
    3.8980   -2.5527    0.9166 N   0  0  0  0  0  4  0  0  0  0  0  0
    3.3451   -3.3529    0.1551 O   0  0  0  0  0  0  0  0  0  0  0  0
    4.5893   -2.8278    1.9050 O   0  0  0  0  0  1  0  0  0  0  0  0
    2.6519   -0.4037    0.3312 C   0  0  0  0  0  0  0  0  0  0  0  0
    1.2450   -0.8074    0.4754 C   0  0  0  0  0  0  0  0  0  0  0  0
    0.9295   -1.8671    0.9931 O   0  0  0  0  0  0  0  0  0  0  0  0
    0.3890    0.1552   -0.0034 N   0  0  0  0  0  0  0  0  0  0  0  0
   -0.9846    0.1105   -0.0165 C   0  0  0  0  0  0  0  0  0  0  0  0
   -1.6193    1.5705   -0.7000 S   0  0  0  0  0  0  0  0  0  0  0  0
   -3.1788    1.0241   -0.4889 C   0  0  0  0  0  0  0  0  0  0  0  0
   -3.2577   -0.2165    0.0762 C   0  0  0  0  0  0  0  0  0  0  0  0
   -1.9830   -0.7766    0.3626 C   0  0  0  0  0  0  0  0  0  0  0  0
   -1.8438   -2.0735    0.9555 C   0  0  0  0  0  0  0  0  0  0  0  0
   -1.8639   -3.1297    1.4380 N   0  0  0  0  0  0  0  0  0  0  0  0
   -4.6741   -0.6417    0.2307 C   0  0  0  0  0  0  0  0  0  0  0  0
   -5.4490    0.6920   -0.0105 C   0  0  0  0  0  0  0  0  0  0  0  0
   -4.4914    1.6337   -0.8032 C   0  0  0  0  0  0  0  0  0  0  0  0
    2.9864    0.8543   -0.0450 N   0  0  0  0  0  0  0  0  0  0  0  0
    4.7243    2.8634    0.3865 H   0  0  0  0  0  0  0  0  0  0  0  0
    4.8052    2.3609   -1.3378 H   0  0  0  0  0  0  0  0  0  0  0  0
    6.1204    1.9128   -0.2082 H   0  0  0  0  0  0  0  0  0  0  0  0
    5.9466   -0.4781    0.4608 H   0  0  0  0  0  0  0  0  0  0  0  0
    0.8321    0.9971   -0.3646 H   0  0  0  0  0  0  0  0  0  0  0  0
   -4.8902   -1.0497    1.2220 H   0  0  0  0  0  0  0  0  0  0  0  0
   -4.9369   -1.3807   -0.5335 H   0  0  0  0  0  0  0  0  0  0  0  0
   -6.3995    0.5327   -0.5290 H   0  0  0  0  0  0  0  0  0  0  0  0
   -5.6769    1.1513    0.9606 H   0  0  0  0  0  0  0  0  0  0  0  0
   -4.5822    2.6688   -0.4632 H   0  0  0  0  0  0  0  0  0  0  0  0
   -4.6997    1.5780   -1.8765 H   0  0  0  0  0  0  0  0  0  0  0  0
  1  2  1  0
  2  3  1  0
  3  4  2  0
  4  5  1  0
  5  6  2  0
  5  7  1  0
  4  8  1  0
  8  9  1  0
  9 10  2  0
  9 11  1  0
 11 12  1  0
 12 13  1  0
 13 14  1  0
 14 15  2  0
 15 16  1  0
 16 17  1  0
 17 18  3  0
 15 19  1  0
 19 20  1  0
 20 21  1  0
  8 22  2  0
 22  2  1  0
 16 12  2  0
 21 14  1  0
  1 23  1  0
  1 24  1  0
  1 25  1  0
  3 26  1  0
 11 27  1  0
 19 28  1  0
 19 29  1  0
 20 30  1  0
 20 31  1  0
 21 32  1  0
 21 33  1  0
M  CHG  2   5   1   7  -1
M  END
$$$$
