
     RDKit          3D

 44 46  0  0  0  0  0  0  0  0999 V2000
   -7.0677   -1.0814   -0.7033 C   0  0  0  0  0  0  0  0  0  0  0  0
   -5.7515   -0.3612   -0.6783 C   0  0  0  0  0  0  0  0  0  0  0  0
   -4.8899   -0.4249   -1.7805 C   0  0  0  0  0  0  0  0  0  0  0  0
   -3.6737    0.2711   -1.7848 C   0  0  0  0  0  0  0  0  0  0  0  0
   -2.7620    0.1822   -2.9757 C   0  0  0  0  0  0  0  0  0  0  0  0
   -3.3199    1.0182   -0.6507 C   0  0  0  0  0  0  0  0  0  0  0  0
   -2.1179    1.6793   -0.6434 O   0  0  0  0  0  0  0  0  0  0  0  0
   -1.1095    0.8844   -0.0245 C   0  0  0  0  0  0  0  0  0  0  0  0
    0.2366    0.9983   -0.7527 C   0  0  0  0  0  0  0  0  0  0  0  0
    0.3419    1.5223   -1.8560 O   0  0  0  0  0  0  0  0  0  0  0  0
    1.2551    0.4286   -0.0113 N   0  0  0  0  0  0  0  0  0  0  0  0
    2.5818    0.3458   -0.3466 C   0  0  0  0  0  0  0  0  0  0  0  0
    3.4378   -0.2258    0.4681 N   0  0  0  0  0  0  0  0  0  0  0  0
    4.7150   -0.1832   -0.0879 C   0  0  0  0  0  0  0  0  0  0  0  0
    5.8826   -0.7416    0.5921 C   0  0  0  0  0  0  0  0  0  0  0  0
    5.7501   -1.3543    1.8353 C   0  0  0  0  0  0  0  0  0  0  0  0
    6.8849   -1.8742    2.4535 C   0  0  0  0  0  0  0  0  0  0  0  0
    8.1149   -1.7686    1.8165 C   0  0  0  0  0  0  0  0  0  0  0  0
    8.1602   -1.1447    0.5813 C   0  0  0  0  0  0  0  0  0  0  0  0
    7.0778   -0.6310   -0.0435 N   0  0  0  0  0  0  0  0  0  0  0  0
    4.7805    0.4280   -1.3263 C   0  0  0  0  0  0  0  0  0  0  0  0
    3.2222    0.9550   -1.7994 S   0  0  0  0  0  0  0  0  0  0  0  0
   -4.1934    1.1473    0.4391 C   0  0  0  0  0  0  0  0  0  0  0  0
   -3.8500    1.9947    1.6295 C   0  0  0  0  0  0  0  0  0  0  0  0
   -5.4029    0.4382    0.4178 C   0  0  0  0  0  0  0  0  0  0  0  0
   -6.9995   -1.9992   -1.2968 H   0  0  0  0  0  0  0  0  0  0  0  0
   -7.8388   -0.4366   -1.1357 H   0  0  0  0  0  0  0  0  0  0  0  0
   -7.3735   -1.3712    0.3075 H   0  0  0  0  0  0  0  0  0  0  0  0
   -5.1726   -1.0186   -2.6482 H   0  0  0  0  0  0  0  0  0  0  0  0
   -3.2929   -0.1994   -3.8545 H   0  0  0  0  0  0  0  0  0  0  0  0
   -1.9268   -0.4914   -2.7606 H   0  0  0  0  0  0  0  0  0  0  0  0
   -2.3726    1.1705   -3.2409 H   0  0  0  0  0  0  0  0  0  0  0  0
   -1.3696   -0.1829    0.0092 H   0  0  0  0  0  0  0  0  0  0  0  0
   -0.9768    1.2480    1.0011 H   0  0  0  0  0  0  0  0  0  0  0  0
    1.0550    0.0163    0.8886 H   0  0  0  0  0  0  0  0  0  0  0  0
    4.7812   -1.4280    2.3186 H   0  0  0  0  0  0  0  0  0  0  0  0
    6.8071   -2.3568    3.4236 H   0  0  0  0  0  0  0  0  0  0  0  0
    9.0170   -2.1628    2.2711 H   0  0  0  0  0  0  0  0  0  0  0  0
    9.0983   -1.0377    0.0437 H   0  0  0  0  0  0  0  0  0  0  0  0
    5.6460    0.5846   -1.9549 H   0  0  0  0  0  0  0  0  0  0  0  0
   -3.3652    2.9265    1.3205 H   0  0  0  0  0  0  0  0  0  0  0  0
   -3.1829    1.4463    2.3013 H   0  0  0  0  0  0  0  0  0  0  0  0
   -4.7495    2.2739    2.1886 H   0  0  0  0  0  0  0  0  0  0  0  0
   -6.0870    0.5159    1.2610 H   0  0  0  0  0  0  0  0  0  0  0  0
  1  2  1  0
  2  3  2  0
  3  4  1  0
  4  5  1  0
  4  6  2  0
  6  7  1  0
  7  8  1  0
  8  9  1  0
  9 10  2  0
  9 11  1  0
 11 12  1  0
 12 13  2  0
 13 14  1  0
 14 15  1  0
 15 16  2  0
 16 17  1  0
 17 18  2  0
 18 19  1  0
 19 20  2  0
 14 21  2  0
 21 22  1  0
  6 23  1  0
 23 24  1  0
 23 25  2  0
 25  2  1  0
 22 12  1  0
 20 15  1  0
  1 26  1  0
  1 27  1  0
  1 28  1  0
  3 29  1  0
  5 30  1  0
  5 31  1  0
  5 32  1  0
  8 33  1  0
  8 34  1  0
 11 35  1  0
 16 36  1  0
 17 37  1  0
 18 38  1  0
 19 39  1  0
 21 40  1  0
 24 41  1  0
 24 42  1  0
 24 43  1  0
 25 44  1  0
M  END
$$$$
