
     RDKit          3D

 32 33  0  0  0  0  0  0  0  0999 V2000
    4.1852    0.5978   -0.6824 C   0  0  0  0  0  0  0  0  0  0  0  0
    4.2110   -0.8587   -0.2511 C   0  0  0  0  0  0  0  0  0  0  0  0
    2.9205   -1.2170    0.9787 S   0  0  0  0  0  0  0  0  0  0  0  0
    1.4737   -1.1596    0.0236 C   0  0  0  0  0  0  0  0  0  0  0  0
    1.1892   -1.6445   -1.2299 C   0  0  0  0  0  0  0  0  0  0  0  0
   -0.1063   -1.3740   -1.5754 N   0  0  0  0  0  0  0  0  0  0  0  0
   -0.6310   -0.7250   -0.5517 C   0  0  0  0  0  0  0  0  0  0  0  0
   -2.0143   -0.2599   -0.4908 C   0  0  0  0  0  0  0  0  0  0  0  0
   -2.3201    1.1031   -0.5829 C   0  0  0  0  0  0  0  0  0  0  0  0
   -3.6467    1.5339   -0.5144 C   0  0  0  0  0  0  0  0  0  0  0  0
   -4.6751    0.6042   -0.3636 C   0  0  0  0  0  0  0  0  0  0  0  0
   -4.3803   -0.7566   -0.2905 C   0  0  0  0  0  0  0  0  0  0  0  0
   -3.0541   -1.1878   -0.3591 C   0  0  0  0  0  0  0  0  0  0  0  0
    0.3025   -0.5874    0.4647 N   0  0  0  0  0  0  0  0  0  0  0  0
    0.0503   -0.0066    1.7727 C   0  0  0  0  0  0  0  0  0  0  0  0
    0.5104    1.4382    1.8807 C   0  0  0  0  0  0  0  0  0  0  0  0
    3.2508    0.8577   -1.1899 H   0  0  0  0  0  0  0  0  0  0  0  0
    5.0038    0.7910   -1.3837 H   0  0  0  0  0  0  0  0  0  0  0  0
    4.3161    1.2712    0.1714 H   0  0  0  0  0  0  0  0  0  0  0  0
    5.1781   -1.0787    0.2127 H   0  0  0  0  0  0  0  0  0  0  0  0
    4.1107   -1.5218   -1.1158 H   0  0  0  0  0  0  0  0  0  0  0  0
    1.8423   -2.1822   -1.9037 H   0  0  0  0  0  0  0  0  0  0  0  0
   -1.5288    1.8343   -0.7273 H   0  0  0  0  0  0  0  0  0  0  0  0
   -3.8786    2.5930   -0.5904 H   0  0  0  0  0  0  0  0  0  0  0  0
   -5.7083    0.9391   -0.3169 H   0  0  0  0  0  0  0  0  0  0  0  0
   -5.1820   -1.4834   -0.1893 H   0  0  0  0  0  0  0  0  0  0  0  0
   -2.8306   -2.2518   -0.3166 H   0  0  0  0  0  0  0  0  0  0  0  0
   -1.0214   -0.0772    1.9849 H   0  0  0  0  0  0  0  0  0  0  0  0
    0.5492   -0.6286    2.5235 H   0  0  0  0  0  0  0  0  0  0  0  0
    0.2869    1.8311    2.8775 H   0  0  0  0  0  0  0  0  0  0  0  0
    1.5881    1.5319    1.7152 H   0  0  0  0  0  0  0  0  0  0  0  0
    0.0086    2.0741    1.1457 H   0  0  0  0  0  0  0  0  0  0  0  0
  1  2  1  0
  2  3  1  0
  3  4  1  0
  4  5  2  0
  5  6  1  0
  6  7  2  0
  7  8  1  0
  8  9  2  0
  9 10  1  0
 10 11  2  0
 11 12  1  0
 12 13  2  0
  7 14  1  0
 14 15  1  0
 15 16  1  0
 14  4  1  0
 13  8  1  0
  1 17  1  0
  1 18  1  0
  1 19  1  0
  2 20  1  0
  2 21  1  0
  5 22  1  0
  9 23  1  0
 10 24  1  0
 11 25  1  0
 12 26  1  0
 13 27  1  0
 15 28  1  0
 15 29  1  0
 16 30  1  0
 16 31  1  0
 16 32  1  0
M  END
$$$$
