
     RDKit          3D

 36 37  0  0  0  0  0  0  0  0999 V2000
   -2.1611   -0.1229    1.4744 O   0  0  0  0  0  0  0  0  0  0  0  0
   -1.0436    0.1291    1.0247 C   0  0  0  0  0  0  0  0  0  0  0  0
   -0.0211    0.9843    1.7699 C   0  0  0  0  0  0  0  0  0  0  0  0
    1.2276    1.0167    1.0713 O   0  0  0  0  0  0  0  0  0  0  0  0
    2.1796    1.7349    1.7166 C   0  0  0  0  0  0  0  0  0  0  0  0
    2.0583    2.3298    2.7708 O   0  0  0  0  0  0  0  0  0  0  0  0
    3.4135    1.6802    0.9164 C   0  0  0  0  0  0  0  0  0  0  0  0
    3.3977    2.2525   -0.3646 C   0  0  0  0  0  0  0  0  0  0  0  0
    4.5519    2.2384   -1.1478 C   0  0  0  0  0  0  0  0  0  0  0  0
    5.7194    1.6567   -0.6551 C   0  0  0  0  0  0  0  0  0  0  0  0
    5.7363    1.0865    0.6204 C   0  0  0  0  0  0  0  0  0  0  0  0
    4.5833    1.0968    1.4119 C   0  0  0  0  0  0  0  0  0  0  0  0
    4.6742    0.2610    3.1125 Br  0  0  0  0  0  0  0  0  0  0  0  0
   -0.6353   -0.3244   -0.2128 N   0  0  0  0  0  0  0  0  0  0  0  0
   -1.4310   -1.2899   -0.9470 C   0  0  0  0  0  0  0  0  0  0  0  0
   -2.7683   -0.7177   -1.4423 C   0  0  0  0  0  0  0  0  0  0  0  0
   -3.8395   -1.6864   -1.3397 N   0  0  0  0  0  0  0  0  0  0  0  0
   -4.7049   -1.8035   -0.2777 C   0  0  0  0  0  0  0  0  0  0  0  0
   -4.6227   -0.9982    0.8187 O   0  0  0  0  0  0  0  0  0  0  0  0
   -5.6223   -2.7652   -0.4159 C   0  0  0  0  0  0  0  0  0  0  0  0
   -5.4272   -3.6240   -1.9117 S   0  0  0  0  0  0  0  0  0  0  0  0
   -4.0349   -2.6205   -2.3482 C   0  0  0  0  0  0  0  0  0  0  0  0
   -3.3772   -2.7681   -3.3657 O   0  0  0  0  0  0  0  0  0  0  0  0
   -0.4286    1.9982    1.8480 H   0  0  0  0  0  0  0  0  0  0  0  0
    0.1205    0.5413    2.7620 H   0  0  0  0  0  0  0  0  0  0  0  0
    2.4935    2.7187   -0.7496 H   0  0  0  0  0  0  0  0  0  0  0  0
    4.5444    2.6855   -2.1396 H   0  0  0  0  0  0  0  0  0  0  0  0
    6.6208    1.6473   -1.2644 H   0  0  0  0  0  0  0  0  0  0  0  0
    6.6557    0.6344    0.9866 H   0  0  0  0  0  0  0  0  0  0  0  0
    0.3569   -0.2450   -0.4165 H   0  0  0  0  0  0  0  0  0  0  0  0
   -0.8306   -1.6321   -1.7967 H   0  0  0  0  0  0  0  0  0  0  0  0
   -1.5869   -2.1491   -0.2837 H   0  0  0  0  0  0  0  0  0  0  0  0
   -2.6547   -0.4351   -2.4968 H   0  0  0  0  0  0  0  0  0  0  0  0
   -3.0626    0.2003   -0.9223 H   0  0  0  0  0  0  0  0  0  0  0  0
   -3.6947   -0.7078    0.9516 H   0  0  0  0  0  0  0  0  0  0  0  0
   -6.3867   -3.0027    0.3101 H   0  0  0  0  0  0  0  0  0  0  0  0
  1  2  2  0
  2  3  1  0
  3  4  1  0
  4  5  1  0
  5  6  2  0
  5  7  1  0
  7  8  2  0
  8  9  1  0
  9 10  2  0
 10 11  1  0
 11 12  2  0
 12 13  1  0
  2 14  1  0
 14 15  1  0
 15 16  1  0
 16 17  1  0
 17 18  1  0
 18 19  1  0
 18 20  2  0
 20 21  1  0
 21 22  1  0
 22 23  2  0
 12  7  1  0
 22 17  1  0
  3 24  1  0
  3 25  1  0
  8 26  1  0
  9 27  1  0
 10 28  1  0
 11 29  1  0
 14 30  1  0
 15 31  1  0
 15 32  1  0
 16 33  1  0
 16 34  1  0
 19 35  1  0
 20 36  1  0
M  END
$$$$
