
     RDKit          3D

 59 63  0  0  0  0  0  0  0  0999 V2000
   -2.7472   -1.3691    3.2034 C   0  0  0  0  0  0  0  0  0  0  0  0
   -4.1068   -0.8073    2.8098 C   0  0  0  0  0  0  0  0  0  0  0  0
   -4.2446   -0.3081    1.3652 C   0  0  0  0  0  0  0  0  0  0  0  0
   -4.1791   -1.3822    0.3855 N   0  0  0  0  0  0  0  0  0  0  0  0
   -2.9243   -1.7240   -0.0895 C   0  0  0  0  0  0  0  0  0  0  0  0
   -2.8291   -2.9780   -0.5533 N   0  0  0  0  0  0  0  0  0  0  0  0
   -1.6420   -3.3262   -1.0476 C   0  0  0  0  0  0  0  0  0  0  0  0
   -0.5413   -2.5689   -1.0543 N   0  0  0  0  0  0  0  0  0  0  0  0
   -0.6393   -1.3252   -0.5368 C   0  0  0  0  0  0  0  0  0  0  0  0
    0.5731   -0.6367   -0.3324 N   0  0  0  0  0  0  0  0  0  0  0  0
    1.6696   -1.0529   -1.2296 C   0  0  0  0  0  0  0  0  0  0  0  0
    2.9154   -0.1641   -1.0025 C   0  0  0  0  0  0  0  0  0  0  0  0
    3.2827   -0.0586    0.4263 N   0  0  0  0  0  0  0  0  0  0  0  0
    4.6507   -0.0291    0.7095 C   0  0  0  0  0  0  0  0  0  0  0  0
    5.5037    0.8116   -0.0099 C   0  0  0  0  0  0  0  0  0  0  0  0
    6.8660    0.8485    0.2860 C   0  0  0  0  0  0  0  0  0  0  0  0
    7.3573    0.0493    1.3048 C   0  0  0  0  0  0  0  0  0  0  0  0
    6.4571   -0.7465    1.9858 C   0  0  0  0  0  0  0  0  0  0  0  0
    5.1333   -0.7955    1.7129 N   0  0  0  0  0  0  0  0  0  0  0  0
    2.4699   -0.8701    1.3478 C   0  0  0  0  0  0  0  0  0  0  0  0
    0.9575   -0.6352    1.1111 C   0  0  0  0  0  0  0  0  0  0  0  0
   -1.8697   -0.8053   -0.0994 C   0  0  0  0  0  0  0  0  0  0  0  0
   -2.1143    0.5435    0.3507 N   0  0  0  0  0  0  0  0  0  0  0  0
   -1.3459    1.6698   -0.1813 C   0  0  0  0  0  0  0  0  0  0  0  0
   -1.8216    2.0941   -1.5590 C   0  0  0  0  0  0  0  0  0  0  0  0
   -1.2140    1.5821   -2.7147 C   0  0  0  0  0  0  0  0  0  0  0  0
   -1.6657    1.9567   -3.9822 C   0  0  0  0  0  0  0  0  0  0  0  0
   -2.7307    2.8463   -4.1010 C   0  0  0  0  0  0  0  0  0  0  0  0
   -3.3424    3.3536   -5.8162 Br  0  0  0  0  0  0  0  0  0  0  0  0
   -3.3481    3.3640   -2.9652 C   0  0  0  0  0  0  0  0  0  0  0  0
   -2.8954    2.9871   -1.6988 C   0  0  0  0  0  0  0  0  0  0  0  0
   -3.2914    0.8539    1.0404 C   0  0  0  0  0  0  0  0  0  0  0  0
   -3.5579    1.9940    1.4340 O   0  0  0  0  0  0  0  0  0  0  0  0
   -2.5032   -2.2719    2.6372 H   0  0  0  0  0  0  0  0  0  0  0  0
   -2.7541   -1.6432    4.2637 H   0  0  0  0  0  0  0  0  0  0  0  0
   -1.9499   -0.6341    3.0599 H   0  0  0  0  0  0  0  0  0  0  0  0
   -4.3310    0.0258    3.4883 H   0  0  0  0  0  0  0  0  0  0  0  0
   -4.8659   -1.5767    2.9985 H   0  0  0  0  0  0  0  0  0  0  0  0
   -5.2537    0.1140    1.2670 H   0  0  0  0  0  0  0  0  0  0  0  0
   -4.7680   -2.1973    0.5085 H   0  0  0  0  0  0  0  0  0  0  0  0
   -1.5558   -4.3226   -1.4665 H   0  0  0  0  0  0  0  0  0  0  0  0
    1.3613   -0.9562   -2.2780 H   0  0  0  0  0  0  0  0  0  0  0  0
    1.9444   -2.1021   -1.0560 H   0  0  0  0  0  0  0  0  0  0  0  0
    2.7062    0.8463   -1.3741 H   0  0  0  0  0  0  0  0  0  0  0  0
    3.7332   -0.5807   -1.6042 H   0  0  0  0  0  0  0  0  0  0  0  0
    5.1124    1.4585   -0.7874 H   0  0  0  0  0  0  0  0  0  0  0  0
    7.5290    1.5039   -0.2705 H   0  0  0  0  0  0  0  0  0  0  0  0
    8.4086    0.0520    1.5673 H   0  0  0  0  0  0  0  0  0  0  0  0
    6.7822   -1.3885    2.7991 H   0  0  0  0  0  0  0  0  0  0  0  0
    2.6836   -0.6125    2.3931 H   0  0  0  0  0  0  0  0  0  0  0  0
    2.6986   -1.9357    1.2124 H   0  0  0  0  0  0  0  0  0  0  0  0
    0.4067   -1.3932    1.6843 H   0  0  0  0  0  0  0  0  0  0  0  0
    0.6907    0.3418    1.5306 H   0  0  0  0  0  0  0  0  0  0  0  0
   -1.4502    2.5283    0.4953 H   0  0  0  0  0  0  0  0  0  0  0  0
   -0.2733    1.4892   -0.1995 H   0  0  0  0  0  0  0  0  0  0  0  0
   -0.3842    0.8850   -2.6342 H   0  0  0  0  0  0  0  0  0  0  0  0
   -1.1836    1.5472   -4.8656 H   0  0  0  0  0  0  0  0  0  0  0  0
   -4.1810    4.0566   -3.0511 H   0  0  0  0  0  0  0  0  0  0  0  0
   -3.3885    3.3942   -0.8172 H   0  0  0  0  0  0  0  0  0  0  0  0
  1  2  1  0
  2  3  1  0
  3  4  1  0
  4  5  1  0
  5  6  2  0
  6  7  1  0
  7  8  2  0
  8  9  1  0
  9 10  1  0
 10 11  1  0
 11 12  1  0
 12 13  1  0
 13 14  1  0
 14 15  2  0
 15 16  1  0
 16 17  2  0
 17 18  1  0
 18 19  2  0
 13 20  1  0
 20 21  1  0
  9 22  2  0
 22 23  1  0
 23 24  1  0
 24 25  1  0
 25 26  2  0
 26 27  1  0
 27 28  2  0
 28 29  1  0
 28 30  1  0
 30 31  2  0
 23 32  1  0
 32 33  2  0
 32  3  1  0
 22  5  1  0
 31 25  1  0
 21 10  1  0
 19 14  1  0
  1 34  1  0
  1 35  1  0
  1 36  1  0
  2 37  1  0
  2 38  1  0
  3 39  1  0
  4 40  1  0
  7 41  1  0
 11 42  1  0
 11 43  1  0
 12 44  1  0
 12 45  1  0
 15 46  1  0
 16 47  1  0
 17 48  1  0
 18 49  1  0
 20 50  1  0
 20 51  1  0
 21 52  1  0
 21 53  1  0
 24 54  1  0
 24 55  1  0
 26 56  1  0
 27 57  1  0
 30 58  1  0
 31 59  1  0
M  END
$$$$
