
     RDKit          3D

 43 43  0  0  0  0  0  0  0  0999 V2000
   -5.9423    1.7400    1.7462 C   0  0  0  0  0  0  0  0  0  0  0  0
   -4.8494    1.1814    2.6032 C   0  0  0  0  0  0  0  0  0  0  0  0
   -4.8206    1.8413    4.2117 Cl  0  0  0  0  0  0  0  0  0  0  0  0
   -3.9170    0.2698    2.2779 C   0  0  0  0  0  0  0  0  0  0  0  0
   -3.7598   -0.4486    0.9773 C   0  0  0  0  0  0  0  0  0  0  0  0
   -2.5641   -0.0031    0.1180 N   0  0  0  0  0  4  0  0  0  0  0  0
   -2.5787   -0.8353   -1.1668 C   0  0  0  0  0  0  0  0  0  0  0  0
   -2.6962    1.4716   -0.2521 C   0  0  0  0  0  0  0  0  0  0  0  0
   -1.2218   -0.2538    0.8982 C   0  0  0  0  0  0  0  0  0  0  0  0
    0.0841    0.0567    0.1672 C   0  0  0  0  0  0  0  0  0  0  0  0
    0.1635    0.5364   -0.9542 O   0  0  0  0  0  0  0  0  0  0  0  0
    1.1384   -0.2824    0.9578 O   0  0  0  0  0  0  0  0  0  0  0  0
    2.4475   -0.0086    0.4170 C   0  0  0  0  0  0  0  0  0  0  0  0
    2.9008   -1.1503   -0.4912 C   0  0  0  0  0  0  0  0  0  0  0  0
    4.2812   -0.9149   -1.0406 C   0  0  0  0  0  0  0  0  0  0  0  0
    4.4599   -0.1586   -2.2071 C   0  0  0  0  0  0  0  0  0  0  0  0
    5.7416    0.0784   -2.7056 C   0  0  0  0  0  0  0  0  0  0  0  0
    6.8545   -0.4341   -2.0423 C   0  0  0  0  0  0  0  0  0  0  0  0
    6.6876   -1.1835   -0.8795 C   0  0  0  0  0  0  0  0  0  0  0  0
    5.4070   -1.4222   -0.3784 C   0  0  0  0  0  0  0  0  0  0  0  0
   -5.9183    1.3548    0.7240 H   0  0  0  0  0  0  0  0  0  0  0  0
   -5.8581    2.8302    1.6816 H   0  0  0  0  0  0  0  0  0  0  0  0
   -6.9221    1.4932    2.1684 H   0  0  0  0  0  0  0  0  0  0  0  0
   -3.2211   -0.0340    3.0596 H   0  0  0  0  0  0  0  0  0  0  0  0
   -4.6520   -0.3553    0.3494 H   0  0  0  0  0  0  0  0  0  0  0  0
   -3.6227   -1.5190    1.1756 H   0  0  0  0  0  0  0  0  0  0  0  0
   -1.8045   -0.4790   -1.8479 H   0  0  0  0  0  0  0  0  0  0  0  0
   -2.4063   -1.8819   -0.8997 H   0  0  0  0  0  0  0  0  0  0  0  0
   -3.5588   -0.7188   -1.6396 H   0  0  0  0  0  0  0  0  0  0  0  0
   -3.6962    1.6325   -0.6658 H   0  0  0  0  0  0  0  0  0  0  0  0
   -2.5488    2.0757    0.6471 H   0  0  0  0  0  0  0  0  0  0  0  0
   -1.9474    1.7276   -1.0041 H   0  0  0  0  0  0  0  0  0  0  0  0
   -1.2601    0.3743    1.7935 H   0  0  0  0  0  0  0  0  0  0  0  0
   -1.2279   -1.3141    1.1732 H   0  0  0  0  0  0  0  0  0  0  0  0
    2.4542    0.9591   -0.1002 H   0  0  0  0  0  0  0  0  0  0  0  0
    3.1260    0.0892    1.2722 H   0  0  0  0  0  0  0  0  0  0  0  0
    2.8687   -2.0977    0.0622 H   0  0  0  0  0  0  0  0  0  0  0  0
    2.1924   -1.2880   -1.3177 H   0  0  0  0  0  0  0  0  0  0  0  0
    3.6035    0.2507   -2.7385 H   0  0  0  0  0  0  0  0  0  0  0  0
    5.8742    0.6626   -3.6130 H   0  0  0  0  0  0  0  0  0  0  0  0
    7.8528   -0.2503   -2.4321 H   0  0  0  0  0  0  0  0  0  0  0  0
    7.5575   -1.5830   -0.3637 H   0  0  0  0  0  0  0  0  0  0  0  0
    5.2991   -2.0092    0.5309 H   0  0  0  0  0  0  0  0  0  0  0  0
  1  2  1  0
  2  3  1  0
  2  4  2  3
  4  5  1  0
  5  6  1  0
  6  7  1  0
  6  8  1  0
  6  9  1  0
  9 10  1  0
 10 11  2  0
 10 12  1  0
 12 13  1  0
 13 14  1  0
 14 15  1  0
 15 16  2  0
 16 17  1  0
 17 18  2  0
 18 19  1  0
 19 20  2  0
 20 15  1  0
  1 21  1  0
  1 22  1  0
  1 23  1  0
  4 24  1  0
  5 25  1  0
  5 26  1  0
  7 27  1  0
  7 28  1  0
  7 29  1  0
  8 30  1  0
  8 31  1  0
  8 32  1  0
  9 33  1  0
  9 34  1  0
 13 35  1  0
 13 36  1  0
 14 37  1  0
 14 38  1  0
 16 39  1  0
 17 40  1  0
 18 41  1  0
 19 42  1  0
 20 43  1  0
M  CHG  1   6   1
M  END
$$$$
