
     RDKit          3D

 57 62  0  0  0  0  0  0  0  0999 V2000
    1.7492   -1.6578   -5.2507 C   0  0  0  0  0  0  0  0  0  0  0  0
    1.0665   -1.3549   -4.0407 O   0  0  0  0  0  0  0  0  0  0  0  0
    1.7923   -1.4328   -2.8823 C   0  0  0  0  0  0  0  0  0  0  0  0
    3.1350   -1.8434   -2.7808 C   0  0  0  0  0  0  0  0  0  0  0  0
    3.7801   -1.8911   -1.5389 C   0  0  0  0  0  0  0  0  0  0  0  0
    3.0535   -1.5249   -0.4263 C   0  0  0  0  0  0  0  0  0  0  0  0
    1.7224   -1.1116   -0.5034 C   0  0  0  0  0  0  0  0  0  0  0  0
    1.0811   -1.0649   -1.7330 C   0  0  0  0  0  0  0  0  0  0  0  0
    1.2320   -0.8049    0.8846 C   0  0  0  0  0  0  0  0  0  0  0  0
    0.0609   -1.6296    1.3191 N   0  0  0  0  0  0  0  0  0  0  0  0
   -1.1423   -0.7564    1.5233 C   0  0  2  0  0  0  0  0  0  0  0  0
   -2.3009   -1.0756    0.5553 C   0  0  0  0  0  0  0  0  0  0  0  0
   -2.8193   -2.4923    0.6441 C   0  0  0  0  0  0  0  0  0  0  0  0
   -3.4445   -2.9560    1.8095 C   0  0  0  0  0  0  0  0  0  0  0  0
   -3.9180   -4.2669    1.8845 C   0  0  0  0  0  0  0  0  0  0  0  0
   -3.7751   -5.1251    0.7962 C   0  0  0  0  0  0  0  0  0  0  0  0
   -3.1601   -4.6734   -0.3693 C   0  0  0  0  0  0  0  0  0  0  0  0
   -2.6854   -3.3632   -0.4469 C   0  0  0  0  0  0  0  0  0  0  0  0
   -0.6028    0.6085    1.3164 C   0  0  0  0  0  0  0  0  0  0  0  0
    0.7338    0.5735    0.9305 C   0  0  0  0  0  0  0  0  0  0  0  0
    1.1914    1.8560    0.7998 C   0  0  0  0  0  0  0  0  0  0  0  0
    2.4431    2.2613    0.5897 O   0  0  0  0  0  0  0  0  0  0  0  0
    0.0900    2.7123    1.0018 N   0  0  0  0  0  0  0  0  0  0  0  0
    0.0866    4.1310    0.8084 C   0  0  0  0  0  0  0  0  0  0  0  0
   -0.7401    4.9585    1.5778 C   0  0  0  0  0  0  0  0  0  0  0  0
   -0.7290    6.3426    1.3835 C   0  0  0  0  0  0  0  0  0  0  0  0
    0.0969    6.9090    0.4150 C   0  0  0  0  0  0  0  0  0  0  0  0
    0.9106    6.0925   -0.3666 C   0  0  0  0  0  0  0  0  0  0  0  0
    0.9058    4.7086   -0.1747 C   0  0  0  0  0  0  0  0  0  0  0  0
   -1.0024    1.9174    1.4046 C   0  0  0  0  0  0  0  0  0  0  0  0
   -2.1881    2.4281    1.7260 O   0  0  0  0  0  0  0  0  0  0  0  0
    2.4886   -1.0752    1.7598 C   0  0  0  0  0  0  0  0  0  0  0  0
    2.6256   -0.9610    2.9694 O   0  0  0  0  0  0  0  0  0  0  0  0
    3.4943   -1.5093    0.8893 N   0  0  0  0  0  0  0  0  0  0  0  0
    1.0433   -1.5213   -6.0757 H   0  0  0  0  0  0  0  0  0  0  0  0
    2.0801   -2.7014   -5.2654 H   0  0  0  0  0  0  0  0  0  0  0  0
    2.5882   -0.9733   -5.4139 H   0  0  0  0  0  0  0  0  0  0  0  0
    3.7053   -2.1340   -3.6573 H   0  0  0  0  0  0  0  0  0  0  0  0
    4.8141   -2.2079   -1.4634 H   0  0  0  0  0  0  0  0  0  0  0  0
    0.0495   -0.7385   -1.8129 H   0  0  0  0  0  0  0  0  0  0  0  0
   -0.1302   -2.3392    0.6173 H   0  0  0  0  0  0  0  0  0  0  0  0
   -1.4685   -0.8732    2.5632 H   0  0  0  0  0  0  0  0  0  0  0  0
   -3.1419   -0.3963    0.7505 H   0  0  0  0  0  0  0  0  0  0  0  0
   -1.9958   -0.8614   -0.4778 H   0  0  0  0  0  0  0  0  0  0  0  0
   -3.5660   -2.3031    2.6706 H   0  0  0  0  0  0  0  0  0  0  0  0
   -4.3971   -4.6196    2.7942 H   0  0  0  0  0  0  0  0  0  0  0  0
   -4.1432   -6.1459    0.8567 H   0  0  0  0  0  0  0  0  0  0  0  0
   -3.0498   -5.3420   -1.2191 H   0  0  0  0  0  0  0  0  0  0  0  0
   -2.2094   -3.0297   -1.3669 H   0  0  0  0  0  0  0  0  0  0  0  0
    2.5381    3.1623    0.9493 H   0  0  0  0  0  0  0  0  0  0  0  0
   -1.3786    4.5564    2.3596 H   0  0  0  0  0  0  0  0  0  0  0  0
   -1.3671    6.9781    1.9926 H   0  0  0  0  0  0  0  0  0  0  0  0
    0.0987    7.9853    0.2638 H   0  0  0  0  0  0  0  0  0  0  0  0
    1.5388    6.5313   -1.1379 H   0  0  0  0  0  0  0  0  0  0  0  0
    1.5106    4.0971   -0.8415 H   0  0  0  0  0  0  0  0  0  0  0  0
   -2.7702    1.6943    1.9874 H   0  0  0  0  0  0  0  0  0  0  0  0
    4.4192   -1.7473    1.2110 H   0  0  0  0  0  0  0  0  0  0  0  0
  1  2  1  0
  2  3  1  0
  3  4  2  0
  4  5  1  0
  5  6  2  0
  6  7  1  0
  7  8  2  0
  7  9  1  0
  9 10  1  0
 10 11  1  0
 11 12  1  0
 12 13  1  0
 13 14  2  0
 14 15  1  0
 15 16  2  0
 16 17  1  0
 17 18  2  0
 11 19  1  0
 19 20  1  0
 20 21  2  0
 21 22  1  0
 21 23  1  0
 23 24  1  0
 24 25  2  0
 25 26  1  0
 26 27  2  0
 27 28  1  0
 28 29  2  0
 23 30  1  0
 30 31  1  0
  9 32  1  0
 32 33  2  0
 32 34  1  0
  8  3  1  0
 20  9  1  0
 29 24  1  0
 34  6  1  0
 18 13  1  0
 30 19  2  0
  1 35  1  0
  1 36  1  0
  1 37  1  0
  4 38  1  0
  5 39  1  0
  8 40  1  0
 10 41  1  0
 11 42  1  1
 12 43  1  0
 12 44  1  0
 14 45  1  0
 15 46  1  0
 16 47  1  0
 17 48  1  0
 18 49  1  0
 22 50  1  0
 25 51  1  0
 26 52  1  0
 27 53  1  0
 28 54  1  0
 29 55  1  0
 31 56  1  0
 34 57  1  0
M  END
$$$$
