
     RDKit          3D

 41 43  0  0  0  0  0  0  0  0999 V2000
   -5.2703    0.6167    1.5877 C   0  0  0  0  0  0  0  0  0  0  0  0
   -4.1751   -0.2467    1.0362 C   0  0  0  0  0  0  0  0  0  0  0  0
   -3.7302   -1.3658    1.7402 C   0  0  0  0  0  0  0  0  0  0  0  0
   -2.7004   -2.1613    1.2305 C   0  0  0  0  0  0  0  0  0  0  0  0
   -2.0683   -1.8530    0.0126 C   0  0  0  0  0  0  0  0  0  0  0  0
   -0.9919   -2.7813   -0.4729 C   0  0  0  0  0  0  0  0  0  0  0  0
   -2.4942   -0.7039   -0.6772 C   0  0  0  0  0  0  0  0  0  0  0  0
   -1.7851   -0.1505   -2.2269 S   0  0  0  0  0  6  0  0  0  0  0  0
   -2.8703    0.3944   -3.0184 O   0  0  0  0  0  0  0  0  0  0  0  0
   -0.9152   -1.1670   -2.7736 O   0  0  0  0  0  0  0  0  0  0  0  0
   -0.8502    1.1817   -1.7576 N   0  0  0  0  0  0  0  0  0  0  0  0
    0.1556    1.0087   -0.7677 C   0  0  0  0  0  0  0  0  0  0  0  0
   -0.0430    1.5456    0.5034 C   0  0  0  0  0  0  0  0  0  0  0  0
    0.9169    1.3478    1.4941 C   0  0  0  0  0  0  0  0  0  0  0  0
    2.0725    0.6221    1.2090 C   0  0  0  0  0  0  0  0  0  0  0  0
    2.9592    0.4840    2.2418 O   0  0  0  0  0  0  0  0  0  0  0  0
    2.2849    0.0734   -0.0640 C   0  0  0  0  0  0  0  0  0  0  0  0
    3.6874   -0.9526   -0.4782 S   0  0  0  0  0  0  0  0  0  0  0  0
    5.0147    0.1614   -0.3265 C   0  0  0  0  0  0  0  0  0  0  0  0
    5.7591    0.6017   -1.3832 N   0  0  0  0  0  0  0  0  0  0  0  0
    6.6429    1.3879   -0.8160 C   0  0  0  0  0  0  0  0  0  0  0  0
    6.4368    1.4083    0.5268 N   0  0  0  0  0  0  0  0  0  0  0  0
    5.3986    0.6247    0.8710 N   0  0  0  0  0  0  0  0  0  0  0  0
    1.3083    0.2732   -1.0499 C   0  0  0  0  0  0  0  0  0  0  0  0
   -3.5468    0.0833   -0.1686 C   0  0  0  0  0  0  0  0  0  0  0  0
   -4.8434    1.4132    2.2048 H   0  0  0  0  0  0  0  0  0  0  0  0
   -5.9626    0.0282    2.1990 H   0  0  0  0  0  0  0  0  0  0  0  0
   -5.8550    1.0687    0.7796 H   0  0  0  0  0  0  0  0  0  0  0  0
   -4.1890   -1.6379    2.6888 H   0  0  0  0  0  0  0  0  0  0  0  0
   -2.3935   -3.0376    1.8002 H   0  0  0  0  0  0  0  0  0  0  0  0
   -0.0487   -2.2494   -0.6134 H   0  0  0  0  0  0  0  0  0  0  0  0
   -1.2993   -3.2699   -1.4023 H   0  0  0  0  0  0  0  0  0  0  0  0
   -0.7935   -3.5780    0.2531 H   0  0  0  0  0  0  0  0  0  0  0  0
   -1.4026    2.0365   -1.7309 H   0  0  0  0  0  0  0  0  0  0  0  0
   -0.9428    2.1050    0.7418 H   0  0  0  0  0  0  0  0  0  0  0  0
    0.7676    1.7555    2.4904 H   0  0  0  0  0  0  0  0  0  0  0  0
    3.8370    0.2673    1.8588 H   0  0  0  0  0  0  0  0  0  0  0  0
    7.4271    1.9450   -1.3087 H   0  0  0  0  0  0  0  0  0  0  0  0
    6.9456    1.9119    1.2455 H   0  0  0  0  0  0  0  0  0  0  0  0
    1.4425   -0.1503   -2.0438 H   0  0  0  0  0  0  0  0  0  0  0  0
   -3.8855    0.9590   -0.7209 H   0  0  0  0  0  0  0  0  0  0  0  0
  1  2  1  0
  2  3  2  0
  3  4  1  0
  4  5  2  0
  5  6  1  0
  5  7  1  0
  7  8  1  0
  8  9  2  0
  8 10  2  0
  8 11  1  0
 11 12  1  0
 12 13  2  0
 13 14  1  0
 14 15  2  0
 15 16  1  0
 15 17  1  0
 17 18  1  0
 18 19  1  0
 19 20  1  0
 20 21  2  0
 21 22  1  0
 22 23  1  0
 17 24  2  0
  7 25  2  0
 25  2  1  0
 24 12  1  0
 23 19  2  0
  1 26  1  0
  1 27  1  0
  1 28  1  0
  3 29  1  0
  4 30  1  0
  6 31  1  0
  6 32  1  0
  6 33  1  0
 11 34  1  0
 13 35  1  0
 14 36  1  0
 16 37  1  0
 21 38  1  0
 22 39  1  0
 24 40  1  0
 25 41  1  0
M  END
$$$$
