
     RDKit          3D

 47 49  0  0  0  0  0  0  0  0999 V2000
    7.3325    1.8121   -1.0406 C   0  0  0  0  0  0  0  0  0  0  0  0
    7.5215    0.5365   -0.2305 C   0  0  0  0  0  0  0  0  0  0  0  0
    6.2044   -0.0805    0.1639 C   0  0  0  0  0  0  0  0  0  0  0  0
    5.6343    0.1945    1.4113 C   0  0  0  0  0  0  0  0  0  0  0  0
    4.4113   -0.3771    1.7727 C   0  0  0  0  0  0  0  0  0  0  0  0
    3.7343   -1.2178    0.8888 C   0  0  0  0  0  0  0  0  0  0  0  0
    2.5236   -1.8133    1.2641 N   0  0  0  0  0  0  0  0  0  0  0  0
    1.4125   -1.2329    0.9680 C   0  0  0  0  0  0  0  0  0  0  0  0
    0.2385   -1.8142    1.3126 N   0  0  0  0  0  0  0  0  0  0  0  0
   -0.9225   -1.2036    0.9347 C   0  0  0  0  0  0  0  0  0  0  0  0
   -2.0328   -1.6637    1.1455 O   0  0  0  0  0  0  0  0  0  0  0  0
   -0.6064    0.0722    0.2252 C   0  0  0  0  0  0  0  0  0  0  0  0
   -1.4651    0.9559   -0.3018 C   0  0  0  0  0  0  0  0  0  0  0  0
   -2.9238    0.8242   -0.2831 C   0  0  0  0  0  0  0  0  0  0  0  0
   -3.6497    1.1490    0.8679 C   0  0  0  0  0  0  0  0  0  0  0  0
   -5.0329    0.9909    0.8795 C   0  0  0  0  0  0  0  0  0  0  0  0
   -5.7131    1.3276    2.0217 O   0  0  0  0  0  0  0  0  0  0  0  0
   -6.0318    0.1398    2.7561 C   0  0  0  0  0  0  0  0  0  0  0  0
   -5.6938    0.5556   -0.2668 C   0  0  0  0  0  0  0  0  0  0  0  0
   -7.0584    0.4355   -0.2605 O   0  0  0  0  0  0  0  0  0  0  0  0
   -4.9809    0.2365   -1.4308 C   0  0  0  0  0  0  0  0  0  0  0  0
   -5.7524   -0.1758   -2.4826 O   0  0  0  0  0  0  0  0  0  0  0  0
   -5.0636   -0.5759   -3.6538 C   0  0  0  0  0  0  0  0  0  0  0  0
   -3.5916    0.3675   -1.4335 C   0  0  0  0  0  0  0  0  0  0  0  0
    1.1146    0.2704    0.1376 S   0  0  0  0  0  0  0  0  0  0  0  0
    4.3066   -1.5027   -0.3515 C   0  0  0  0  0  0  0  0  0  0  0  0
    5.5281   -0.9320   -0.7173 C   0  0  0  0  0  0  0  0  0  0  0  0
    6.7748    1.6238   -1.9656 H   0  0  0  0  0  0  0  0  0  0  0  0
    6.7852    2.5698   -0.4641 H   0  0  0  0  0  0  0  0  0  0  0  0
    8.3062    2.2318   -1.3135 H   0  0  0  0  0  0  0  0  0  0  0  0
    8.1091   -0.1915   -0.8073 H   0  0  0  0  0  0  0  0  0  0  0  0
    8.1127    0.7560    0.6695 H   0  0  0  0  0  0  0  0  0  0  0  0
    6.1424    0.8503    2.1151 H   0  0  0  0  0  0  0  0  0  0  0  0
    3.9888   -0.1728    2.7506 H   0  0  0  0  0  0  0  0  0  0  0  0
    0.2257   -2.7017    1.7874 H   0  0  0  0  0  0  0  0  0  0  0  0
   -1.0997    1.8474   -0.8083 H   0  0  0  0  0  0  0  0  0  0  0  0
   -3.1495    1.5086    1.7618 H   0  0  0  0  0  0  0  0  0  0  0  0
   -6.5180   -0.6265    2.1387 H   0  0  0  0  0  0  0  0  0  0  0  0
   -5.1252   -0.2682    3.2181 H   0  0  0  0  0  0  0  0  0  0  0  0
   -6.7278    0.4152    3.5559 H   0  0  0  0  0  0  0  0  0  0  0  0
   -7.2877    0.1601   -1.1691 H   0  0  0  0  0  0  0  0  0  0  0  0
   -4.4084   -1.4253   -3.4557 H   0  0  0  0  0  0  0  0  0  0  0  0
   -4.5057    0.2592   -4.0906 H   0  0  0  0  0  0  0  0  0  0  0  0
   -5.8153   -0.8988   -4.3836 H   0  0  0  0  0  0  0  0  0  0  0  0
   -3.0048    0.1250   -2.3129 H   0  0  0  0  0  0  0  0  0  0  0  0
    3.8019   -2.1790   -1.0342 H   0  0  0  0  0  0  0  0  0  0  0  0
    5.9519   -1.1619   -1.6911 H   0  0  0  0  0  0  0  0  0  0  0  0
  1  2  1  0
  2  3  1  0
  3  4  2  0
  4  5  1  0
  5  6  2  0
  6  7  1  0
  7  8  2  3
  8  9  1  0
  9 10  1  0
 10 11  2  0
 10 12  1  0
 12 13  2  3
 13 14  1  0
 14 15  2  0
 15 16  1  0
 16 17  1  0
 17 18  1  0
 16 19  2  0
 19 20  1  0
 19 21  1  0
 21 22  1  0
 22 23  1  0
 21 24  2  0
 12 25  1  0
  6 26  1  0
 26 27  2  0
 27  3  1  0
 25  8  1  0
 24 14  1  0
  1 28  1  0
  1 29  1  0
  1 30  1  0
  2 31  1  0
  2 32  1  0
  4 33  1  0
  5 34  1  0
  9 35  1  0
 13 36  1  0
 15 37  1  0
 18 38  1  0
 18 39  1  0
 18 40  1  0
 20 41  1  0
 23 42  1  0
 23 43  1  0
 23 44  1  0
 24 45  1  0
 26 46  1  0
 27 47  1  0
M  END
$$$$
