
     RDKit          3D

 50 53  0  0  0  0  0  0  0  0999 V2000
   -2.9234    3.4887    1.3727 C   0  0  0  0  0  0  0  0  0  0  0  0
   -1.9242    2.4246    1.3508 N   0  0  0  0  0  0  0  0  0  0  0  0
   -1.6312    1.9725   -0.0286 C   0  0  0  0  0  0  0  0  0  0  0  0
   -2.1355    0.5535   -0.3767 C   0  0  0  0  0  0  0  0  0  0  0  0
   -1.5758   -0.4402    0.5683 N   0  0  0  0  0  0  0  0  0  0  0  0
   -2.1480   -1.7237    0.3788 C   0  0  0  0  0  0  0  0  0  0  0  0
   -3.4547   -2.0360    0.7764 C   0  0  0  0  0  0  0  0  0  0  0  0
   -3.9782   -3.3090    0.5445 C   0  0  0  0  0  0  0  0  0  0  0  0
   -3.2021   -4.2809   -0.0867 C   0  0  0  0  0  0  0  0  0  0  0  0
   -1.8972   -3.9896   -0.4896 C   0  0  0  0  0  0  0  0  0  0  0  0
   -1.3691   -2.7205   -0.2593 C   0  0  0  0  0  0  0  0  0  0  0  0
   -0.0657   -2.3298   -0.6087 N   0  0  0  0  0  0  0  0  0  0  0  0
    0.9340   -3.0347   -1.2355 C   0  0  0  0  0  0  0  0  0  0  0  0
    0.8455   -4.1874   -1.6462 O   0  0  0  0  0  0  0  0  0  0  0  0
    2.1489   -2.2504   -1.3736 C   0  0  0  0  0  0  0  0  0  0  0  0
    3.3742   -2.5450   -1.9366 C   0  0  0  0  0  0  0  0  0  0  0  0
    4.1835   -1.3915   -1.7765 C   0  0  0  0  0  0  0  0  0  0  0  0
    3.4123   -0.4500   -1.1237 C   0  0  0  0  0  0  0  0  0  0  0  0
    3.6277    0.9189   -0.6612 C   0  0  0  0  0  0  0  0  0  0  0  0
    2.6782    1.5712    0.1412 C   0  0  0  0  0  0  0  0  0  0  0  0
    2.8839    2.8818    0.5823 C   0  0  0  0  0  0  0  0  0  0  0  0
    4.0490    3.5643    0.2313 C   0  0  0  0  0  0  0  0  0  0  0  0
    4.2437    5.1794    0.8092 Cl  0  0  0  0  0  0  0  0  0  0  0  0
    5.0067    2.9284   -0.5650 C   0  0  0  0  0  0  0  0  0  0  0  0
    6.4757    3.7060   -1.0407 Cl  0  0  0  0  0  0  0  0  0  0  0  0
    4.7948    1.6149   -1.0066 C   0  0  0  0  0  0  0  0  0  0  0  0
    2.1737   -0.9710   -0.8837 O   0  0  0  0  0  0  0  0  0  0  0  0
   -1.5232    0.0104    1.9800 C   0  0  0  0  0  0  0  0  0  0  0  0
   -2.3403    1.3000    2.2167 C   0  0  0  0  0  0  0  0  0  0  0  0
   -2.5665    4.3608    0.8134 H   0  0  0  0  0  0  0  0  0  0  0  0
   -3.1046    3.8271    2.3988 H   0  0  0  0  0  0  0  0  0  0  0  0
   -3.8782    3.1681    0.9407 H   0  0  0  0  0  0  0  0  0  0  0  0
   -0.5396    1.9823   -0.1369 H   0  0  0  0  0  0  0  0  0  0  0  0
   -2.0110    2.6813   -0.7752 H   0  0  0  0  0  0  0  0  0  0  0  0
   -1.8176    0.3045   -1.3961 H   0  0  0  0  0  0  0  0  0  0  0  0
   -3.2331    0.5505   -0.3592 H   0  0  0  0  0  0  0  0  0  0  0  0
   -4.0761   -1.2906    1.2620 H   0  0  0  0  0  0  0  0  0  0  0  0
   -4.9930   -3.5440    0.8548 H   0  0  0  0  0  0  0  0  0  0  0  0
   -3.6110   -5.2725   -0.2652 H   0  0  0  0  0  0  0  0  0  0  0  0
   -1.3156   -4.7680   -0.9733 H   0  0  0  0  0  0  0  0  0  0  0  0
    0.1476   -1.3732   -0.3304 H   0  0  0  0  0  0  0  0  0  0  0  0
    3.6422   -3.4856   -2.3989 H   0  0  0  0  0  0  0  0  0  0  0  0
    5.2088   -1.2720   -2.0969 H   0  0  0  0  0  0  0  0  0  0  0  0
    1.7622    1.0621    0.4379 H   0  0  0  0  0  0  0  0  0  0  0  0
    2.1269    3.3604    1.2005 H   0  0  0  0  0  0  0  0  0  0  0  0
    5.5504    1.1413   -1.6285 H   0  0  0  0  0  0  0  0  0  0  0  0
   -0.4706    0.2095    2.2195 H   0  0  0  0  0  0  0  0  0  0  0  0
   -1.8543   -0.7681    2.6792 H   0  0  0  0  0  0  0  0  0  0  0  0
   -3.4028    1.0705    2.0604 H   0  0  0  0  0  0  0  0  0  0  0  0
   -2.2273    1.6011    3.2650 H   0  0  0  0  0  0  0  0  0  0  0  0
  1  2  1  0
  2  3  1  0
  3  4  1  0
  4  5  1  0
  5  6  1  0
  6  7  2  0
  7  8  1  0
  8  9  2  0
  9 10  1  0
 10 11  2  0
 11 12  1  0
 12 13  1  0
 13 14  2  0
 13 15  1  0
 15 16  2  0
 16 17  1  0
 17 18  2  0
 18 19  1  0
 19 20  2  0
 20 21  1  0
 21 22  2  0
 22 23  1  0
 22 24  1  0
 24 25  1  0
 24 26  2  0
 18 27  1  0
  5 28  1  0
 28 29  1  0
 29  2  1  0
 11  6  1  0
 27 15  1  0
 26 19  1  0
  1 30  1  0
  1 31  1  0
  1 32  1  0
  3 33  1  0
  3 34  1  0
  4 35  1  0
  4 36  1  0
  7 37  1  0
  8 38  1  0
  9 39  1  0
 10 40  1  0
 12 41  1  0
 16 42  1  0
 17 43  1  0
 20 44  1  0
 21 45  1  0
 26 46  1  0
 28 47  1  0
 28 48  1  0
 29 49  1  0
 29 50  1  0
M  END
$$$$
