
     RDKit          3D

 55 60  0  0  0  0  0  0  0  0999 V2000
    4.5709   -1.2981    1.8745 O   0  0  0  0  0  0  0  0  0  0  0  0
    4.0262   -0.2537    1.5211 C   0  0  0  0  0  0  0  0  0  0  0  0
    4.5753    1.0258    1.9471 C   0  0  0  0  0  0  0  0  0  0  0  0
    5.2427    1.3070    3.1766 C   0  0  0  0  0  0  0  0  0  0  0  0
    5.6233    2.6265    3.1288 C   0  0  0  0  0  0  0  0  0  0  0  0
    5.2637    3.1771    1.9421 O   0  0  0  0  0  0  0  0  0  0  0  0
    4.6532    2.1996    1.2237 C   0  0  0  0  0  0  0  0  0  0  0  0
    2.8846   -0.2621    0.7114 N   0  0  0  0  0  0  0  0  0  0  0  0
    2.4430   -1.5474    0.1809 C   0  0  0  0  0  0  0  0  0  0  0  0
    1.5999   -1.3573   -1.0743 C   0  0  0  0  0  0  0  0  0  0  0  0
    0.3211   -0.4959   -0.8276 C   0  0  0  0  0  0  0  0  0  0  0  0
    0.4974    0.3350    0.4734 C   0  0  0  0  0  0  0  0  0  0  0  0
    1.9299    0.8424    0.6310 C   0  0  0  0  0  0  0  0  0  0  0  0
    0.2234    0.5040   -1.8787 O   0  0  0  0  0  0  0  0  0  0  0  0
   -0.1660    0.0482   -3.1062 C   0  0  0  0  0  0  0  0  0  0  0  0
    0.1182    0.8800   -4.1888 C   0  0  0  0  0  0  0  0  0  0  0  0
   -0.2282    0.4854   -5.4833 C   0  0  0  0  0  0  0  0  0  0  0  0
   -0.8642   -0.7389   -5.6900 C   0  0  0  0  0  0  0  0  0  0  0  0
   -1.2879   -1.2195   -7.2856 Cl  0  0  0  0  0  0  0  0  0  0  0  0
   -1.1661   -1.5684   -4.6131 C   0  0  0  0  0  0  0  0  0  0  0  0
   -0.8217   -1.1626   -3.3195 C   0  0  0  0  0  0  0  0  0  0  0  0
   -1.1761   -1.9976   -2.1569 C   0  0  0  0  0  0  0  0  0  0  0  0
   -1.6478   -3.1156   -2.3369 O   0  0  0  0  0  0  0  0  0  0  0  0
   -0.9771   -1.3513   -0.7892 C   0  0  0  0  0  0  0  0  0  0  0  0
   -2.2612   -0.6039   -0.4473 C   0  0  0  0  0  0  0  0  0  0  0  0
   -2.4642   -1.0914    0.9443 C   0  0  0  0  0  0  0  0  0  0  0  0
   -3.4860   -0.5033    1.8419 C   0  0  0  0  0  0  0  0  0  0  0  0
   -4.3913    0.4630    1.3868 C   0  0  0  0  0  0  0  0  0  0  0  0
   -5.3406    0.9999    2.2631 C   0  0  0  0  0  0  0  0  0  0  0  0
   -5.3858    0.5723    3.5894 C   0  0  0  0  0  0  0  0  0  0  0  0
   -6.5545    1.2374    4.6615 Cl  0  0  0  0  0  0  0  0  0  0  0  0
   -4.4914   -0.3911    4.0495 C   0  0  0  0  0  0  0  0  0  0  0  0
   -3.5426   -0.9297    3.1760 C   0  0  0  0  0  0  0  0  0  0  0  0
   -1.6827   -2.0581    1.3025 N   0  0  0  0  0  0  0  0  0  0  0  0
   -0.8595   -2.3792    0.2004 O   0  0  0  0  0  0  0  0  0  0  0  0
    5.4166    0.6174    3.9916 H   0  0  0  0  0  0  0  0  0  0  0  0
    6.1415    3.2835    3.8135 H   0  0  0  0  0  0  0  0  0  0  0  0
    4.3480    2.4873    0.2277 H   0  0  0  0  0  0  0  0  0  0  0  0
    3.3174   -2.1650   -0.0542 H   0  0  0  0  0  0  0  0  0  0  0  0
    1.8798   -2.0660    0.9656 H   0  0  0  0  0  0  0  0  0  0  0  0
    1.3439   -2.3459   -1.4717 H   0  0  0  0  0  0  0  0  0  0  0  0
    2.2266   -0.8790   -1.8394 H   0  0  0  0  0  0  0  0  0  0  0  0
    0.2563   -0.2621    1.3594 H   0  0  0  0  0  0  0  0  0  0  0  0
   -0.1733    1.2026    0.4687 H   0  0  0  0  0  0  0  0  0  0  0  0
    2.2097    1.4611   -0.2286 H   0  0  0  0  0  0  0  0  0  0  0  0
    1.9918    1.4566    1.5348 H   0  0  0  0  0  0  0  0  0  0  0  0
    0.6211    1.8313   -4.0305 H   0  0  0  0  0  0  0  0  0  0  0  0
    0.0032    1.1341   -6.3249 H   0  0  0  0  0  0  0  0  0  0  0  0
   -1.6723   -2.5178   -4.7759 H   0  0  0  0  0  0  0  0  0  0  0  0
   -3.1177   -0.9145   -1.0562 H   0  0  0  0  0  0  0  0  0  0  0  0
   -2.1628    0.4827   -0.4980 H   0  0  0  0  0  0  0  0  0  0  0  0
   -4.3874    0.8088    0.3573 H   0  0  0  0  0  0  0  0  0  0  0  0
   -6.0439    1.7480    1.9052 H   0  0  0  0  0  0  0  0  0  0  0  0
   -4.5263   -0.7300    5.0818 H   0  0  0  0  0  0  0  0  0  0  0  0
   -2.8506   -1.6852    3.5452 H   0  0  0  0  0  0  0  0  0  0  0  0
  1  2  2  0
  2  3  1  0
  3  4  1  0
  4  5  2  0
  5  6  1  0
  6  7  1  0
  2  8  1  0
  8  9  1  0
  9 10  1  0
 10 11  1  0
 11 12  1  0
 12 13  1  0
 11 14  1  0
 14 15  1  0
 15 16  2  0
 16 17  1  0
 17 18  2  0
 18 19  1  0
 18 20  1  0
 20 21  2  0
 21 22  1  0
 22 23  2  0
 22 24  1  0
 24 25  1  0
 25 26  1  0
 26 27  1  0
 27 28  2  0
 28 29  1  0
 29 30  2  0
 30 31  1  0
 30 32  1  0
 32 33  2  0
 26 34  2  0
 34 35  1  0
  7  3  2  0
 13  8  1  0
 21 15  1  0
 35 24  1  0
 24 11  1  0
 33 27  1  0
  4 36  1  0
  5 37  1  0
  7 38  1  0
  9 39  1  0
  9 40  1  0
 10 41  1  0
 10 42  1  0
 12 43  1  0
 12 44  1  0
 13 45  1  0
 13 46  1  0
 16 47  1  0
 17 48  1  0
 20 49  1  0
 25 50  1  0
 25 51  1  0
 28 52  1  0
 29 53  1  0
 32 54  1  0
 33 55  1  0
M  END
$$$$
