
     RDKit          3D

 59 62  0  0  0  0  0  0  0  0999 V2000
   -7.9317   -0.3099   -4.0132 C   0  0  0  0  0  0  0  0  0  0  0  0
   -7.2819    0.5793   -3.1132 O   0  0  0  0  0  0  0  0  0  0  0  0
   -6.0899    0.1668   -2.5853 C   0  0  0  0  0  0  0  0  0  0  0  0
   -5.4492   -1.0430   -2.8540 C   0  0  0  0  0  0  0  0  0  0  0  0
   -4.2358   -1.3518   -2.2277 C   0  0  0  0  0  0  0  0  0  0  0  0
   -3.6497   -0.4544   -1.3285 C   0  0  0  0  0  0  0  0  0  0  0  0
   -2.3887   -0.7929   -0.6830 C   0  0  0  0  0  0  0  0  0  0  0  0
   -1.1273   -0.9519   -1.2338 C   0  0  0  0  0  0  0  0  0  0  0  0
   -0.2078   -1.3103   -0.2858 N   0  0  0  0  0  0  0  0  0  0  0  0
   -0.8851   -1.3759    0.8390 C   0  0  0  0  0  0  0  0  0  0  0  0
   -0.1929   -1.7967    2.3694 S   0  0  0  0  0  0  0  0  0  0  0  0
    1.2681   -2.7397    1.8534 C   0  0  0  0  0  0  0  0  0  0  0  0
    2.4689   -1.8361    1.6324 C   0  0  0  0  0  0  0  0  0  0  0  0
    3.3756   -1.7955    2.4614 O   0  0  0  0  0  0  0  0  0  0  0  0
    2.4104   -1.1448    0.4446 N   0  0  0  0  0  0  0  0  0  0  0  0
    3.4272   -0.3623   -0.0133 C   0  0  0  0  0  0  0  0  0  0  0  0
    4.6293   -0.1901    0.4692 N   0  0  0  0  0  0  0  0  0  0  0  0
    5.3470    0.6924   -0.3248 C   0  0  0  0  0  0  0  0  0  0  0  0
    6.7767    1.0511    0.0567 C   0  0  0  0  0  0  0  0  0  0  0  0
    6.9046    2.5730    0.2698 C   0  0  0  0  0  0  0  0  0  0  0  0
    7.7485    0.6152   -1.0575 C   0  0  0  0  0  0  0  0  0  0  0  0
    7.2061    0.3521    1.3649 C   0  0  0  0  0  0  0  0  0  0  0  0
    4.6416    1.1521   -1.4281 C   0  0  0  0  0  0  0  0  0  0  0  0
    3.0629    0.4799   -1.4512 S   0  0  0  0  0  0  0  0  0  0  0  0
   -2.2111   -1.0628    0.6639 N   0  0  0  0  0  0  0  0  0  0  0  0
   -3.2615   -1.1204    1.6725 C   0  0  0  0  0  0  0  0  0  0  0  0
   -3.3976    0.1497    2.4321 C   0  0  0  0  0  0  0  0  0  0  0  0
   -2.6956    1.3407    2.4960 C   0  0  0  0  0  0  0  0  0  0  0  0
   -3.3753    2.1560    3.4332 C   0  0  0  0  0  0  0  0  0  0  0  0
   -4.4314    1.4107    3.8981 C   0  0  0  0  0  0  0  0  0  0  0  0
   -4.4576    0.1990    3.2933 O   0  0  0  0  0  0  0  0  0  0  0  0
   -4.2840    0.7642   -1.0747 C   0  0  0  0  0  0  0  0  0  0  0  0
   -5.4993    1.0676   -1.6958 C   0  0  0  0  0  0  0  0  0  0  0  0
   -7.3427   -0.4312   -4.9287 H   0  0  0  0  0  0  0  0  0  0  0  0
   -8.8950    0.1330   -4.2895 H   0  0  0  0  0  0  0  0  0  0  0  0
   -8.1358   -1.2782   -3.5422 H   0  0  0  0  0  0  0  0  0  0  0  0
   -5.8697   -1.7709   -3.5379 H   0  0  0  0  0  0  0  0  0  0  0  0
   -3.7648   -2.3073   -2.4389 H   0  0  0  0  0  0  0  0  0  0  0  0
   -0.8452   -0.8298   -2.2730 H   0  0  0  0  0  0  0  0  0  0  0  0
    1.5175   -3.4419    2.6564 H   0  0  0  0  0  0  0  0  0  0  0  0
    1.0711   -3.3405    0.9580 H   0  0  0  0  0  0  0  0  0  0  0  0
    1.5389   -1.1304   -0.0845 H   0  0  0  0  0  0  0  0  0  0  0  0
    7.9243    2.8465    0.5641 H   0  0  0  0  0  0  0  0  0  0  0  0
    6.6660    3.1300   -0.6423 H   0  0  0  0  0  0  0  0  0  0  0  0
    6.2235    2.9218    1.0566 H   0  0  0  0  0  0  0  0  0  0  0  0
    8.7866    0.8637   -0.7974 H   0  0  0  0  0  0  0  0  0  0  0  0
    7.6958   -0.4689   -1.2296 H   0  0  0  0  0  0  0  0  0  0  0  0
    7.5190    1.1116   -2.0087 H   0  0  0  0  0  0  0  0  0  0  0  0
    8.2378    0.6136    1.6365 H   0  0  0  0  0  0  0  0  0  0  0  0
    7.1558   -0.7409    1.2701 H   0  0  0  0  0  0  0  0  0  0  0  0
    6.5600    0.6425    2.2024 H   0  0  0  0  0  0  0  0  0  0  0  0
    4.9718    1.8319   -2.2011 H   0  0  0  0  0  0  0  0  0  0  0  0
   -4.2047   -1.3663    1.1697 H   0  0  0  0  0  0  0  0  0  0  0  0
   -3.0468   -1.9564    2.3467 H   0  0  0  0  0  0  0  0  0  0  0  0
   -1.8063    1.5946    1.9332 H   0  0  0  0  0  0  0  0  0  0  0  0
   -3.1223    3.1607    3.7390 H   0  0  0  0  0  0  0  0  0  0  0  0
   -5.2197    1.5917    4.6175 H   0  0  0  0  0  0  0  0  0  0  0  0
   -3.8426    1.4921   -0.3971 H   0  0  0  0  0  0  0  0  0  0  0  0
   -5.9859    2.0175   -1.4889 H   0  0  0  0  0  0  0  0  0  0  0  0
  1  2  1  0
  2  3  1  0
  3  4  2  0
  4  5  1  0
  5  6  2  0
  6  7  1  0
  7  8  2  0
  8  9  1  0
  9 10  2  0
 10 11  1  0
 11 12  1  0
 12 13  1  0
 13 14  2  0
 13 15  1  0
 15 16  1  0
 16 17  2  0
 17 18  1  0
 18 19  1  0
 19 20  1  0
 19 21  1  0
 19 22  1  0
 18 23  2  0
 23 24  1  0
 10 25  1  0
 25 26  1  0
 26 27  1  0
 27 28  2  0
 28 29  1  0
 29 30  2  0
 30 31  1  0
  6 32  1  0
 32 33  2  0
 33  3  1  0
 25  7  1  0
 31 27  1  0
 24 16  1  0
  1 34  1  0
  1 35  1  0
  1 36  1  0
  4 37  1  0
  5 38  1  0
  8 39  1  0
 12 40  1  0
 12 41  1  0
 15 42  1  0
 20 43  1  0
 20 44  1  0
 20 45  1  0
 21 46  1  0
 21 47  1  0
 21 48  1  0
 22 49  1  0
 22 50  1  0
 22 51  1  0
 23 52  1  0
 26 53  1  0
 26 54  1  0
 28 55  1  0
 29 56  1  0
 30 57  1  0
 32 58  1  0
 33 59  1  0
M  END
$$$$
