
     RDKit          3D

 46 49  0  0  0  0  0  0  0  0999 V2000
    3.7683    0.6471    2.8441 O   0  0  0  0  0  0  0  0  0  0  0  0
    2.8348    0.7842    2.0555 C   0  0  0  0  0  0  0  0  0  0  0  0
    1.4116    0.4492    2.4729 C   0  0  0  0  0  0  0  0  0  0  0  0
    0.9142   -1.1962    1.8829 S   0  0  0  0  0  0  0  0  0  0  0  0
    0.2585   -0.7944    0.3389 C   0  0  0  0  0  0  0  0  0  0  0  0
    0.6733    0.1864   -0.4281 N   0  0  0  0  0  0  0  0  0  0  0  0
   -0.0940    0.1852   -1.5596 N   0  0  0  0  0  0  0  0  0  0  0  0
   -0.9779   -0.7942   -1.4631 C   0  0  0  0  0  0  0  0  0  0  0  0
   -2.0223   -1.1193   -2.4837 C   0  0  0  0  0  0  0  0  0  0  0  0
   -3.3755   -0.5827   -2.1117 C   0  0  0  0  0  0  0  0  0  0  0  0
   -3.7356    0.7313   -1.8855 C   0  0  0  0  0  0  0  0  0  0  0  0
   -5.1068    0.8661   -1.5265 C   0  0  0  0  0  0  0  0  0  0  0  0
   -5.7536   -0.3496   -1.5040 C   0  0  0  0  0  0  0  0  0  0  0  0
   -4.7149   -1.6378   -1.9277 S   0  0  0  0  0  0  0  0  0  0  0  0
   -0.7806   -1.4511   -0.2644 N   0  0  0  0  0  0  0  0  0  0  0  0
   -1.5066   -2.5989    0.2461 C   0  0  0  0  0  0  0  0  0  0  0  0
   -2.4052   -2.2466    1.3734 C   0  0  0  0  0  0  0  0  0  0  0  0
   -2.7387   -2.8929    2.5466 C   0  0  0  0  0  0  0  0  0  0  0  0
   -3.6614   -2.0550    3.2169 C   0  0  0  0  0  0  0  0  0  0  0  0
   -3.8364   -0.9563    2.4112 C   0  0  0  0  0  0  0  0  0  0  0  0
   -3.0824   -1.0660    1.2911 O   0  0  0  0  0  0  0  0  0  0  0  0
    2.9374    1.2427    0.7548 N   0  0  0  0  0  0  0  0  0  0  0  0
    4.0961    1.6854    0.0875 C   0  0  0  0  0  0  0  0  0  0  0  0
    5.3153    1.9353    0.7239 C   0  0  0  0  0  0  0  0  0  0  0  0
    6.4149    2.3718   -0.0198 C   0  0  0  0  0  0  0  0  0  0  0  0
    7.9107    2.6863    0.7749 Cl  0  0  0  0  0  0  0  0  0  0  0  0
    6.3157    2.5670   -1.3946 C   0  0  0  0  0  0  0  0  0  0  0  0
    5.1006    2.3249   -2.0250 C   0  0  0  0  0  0  0  0  0  0  0  0
    4.9661    2.5566   -3.7257 Cl  0  0  0  0  0  0  0  0  0  0  0  0
    3.9915    1.8942   -1.2939 C   0  0  0  0  0  0  0  0  0  0  0  0
    1.3766    0.4410    3.5688 H   0  0  0  0  0  0  0  0  0  0  0  0
    0.7165    1.2276    2.1449 H   0  0  0  0  0  0  0  0  0  0  0  0
   -2.0463   -2.1977   -2.6655 H   0  0  0  0  0  0  0  0  0  0  0  0
   -1.7263   -0.6638   -3.4363 H   0  0  0  0  0  0  0  0  0  0  0  0
   -3.0367    1.5562   -1.9594 H   0  0  0  0  0  0  0  0  0  0  0  0
   -5.5934    1.8066   -1.2931 H   0  0  0  0  0  0  0  0  0  0  0  0
   -6.7893   -0.5404   -1.2541 H   0  0  0  0  0  0  0  0  0  0  0  0
   -0.7681   -3.3456    0.5520 H   0  0  0  0  0  0  0  0  0  0  0  0
   -2.0843   -3.0443   -0.5661 H   0  0  0  0  0  0  0  0  0  0  0  0
   -2.3599   -3.8503    2.8810 H   0  0  0  0  0  0  0  0  0  0  0  0
   -4.1395   -2.2285    4.1685 H   0  0  0  0  0  0  0  0  0  0  0  0
   -4.4327   -0.0561    2.4856 H   0  0  0  0  0  0  0  0  0  0  0  0
    2.1105    1.1040    0.1652 H   0  0  0  0  0  0  0  0  0  0  0  0
    5.4311    1.8052    1.7963 H   0  0  0  0  0  0  0  0  0  0  0  0
    7.1753    2.9057   -1.9660 H   0  0  0  0  0  0  0  0  0  0  0  0
    3.0495    1.7079   -1.8108 H   0  0  0  0  0  0  0  0  0  0  0  0
  1  2  2  0
  2  3  1  0
  3  4  1  0
  4  5  1  0
  5  6  2  0
  6  7  1  0
  7  8  2  0
  8  9  1  0
  9 10  1  0
 10 11  2  0
 11 12  1  0
 12 13  2  0
 13 14  1  0
  8 15  1  0
 15 16  1  0
 16 17  1  0
 17 18  2  0
 18 19  1  0
 19 20  2  0
 20 21  1  0
  2 22  1  0
 22 23  1  0
 23 24  2  0
 24 25  1  0
 25 26  1  0
 25 27  2  0
 27 28  1  0
 28 29  1  0
 28 30  2  0
 15  5  1  0
 21 17  1  0
 30 23  1  0
 14 10  1  0
  3 31  1  0
  3 32  1  0
  9 33  1  0
  9 34  1  0
 11 35  1  0
 12 36  1  0
 13 37  1  0
 16 38  1  0
 16 39  1  0
 18 40  1  0
 19 41  1  0
 20 42  1  0
 22 43  1  0
 24 44  1  0
 27 45  1  0
 30 46  1  0
M  END
$$$$
