
     RDKit          3D

 29 30  0  0  0  0  0  0  0  0999 V2000
    4.2520    0.9034   -0.3267 C   0  0  0  0  0  0  0  0  0  0  0  0
    2.9449    0.4048    0.2629 C   0  0  0  0  0  0  0  0  0  0  0  0
    2.6619   -0.9269   -0.2661 N   0  0  0  0  0  0  0  0  0  0  0  0
    1.6562   -1.9667    0.5850 S   0  0  0  0  0  6  0  0  0  0  0  0
    2.1874   -2.1073    1.9226 O   0  0  0  0  0  0  0  0  0  0  0  0
    1.4309   -3.1087   -0.2726 O   0  0  0  0  0  0  0  0  0  0  0  0
    0.1427   -1.0436    0.6789 C   0  0  0  0  0  0  0  0  0  0  0  0
   -0.2007   -0.3889    1.8773 C   0  0  0  0  0  0  0  0  0  0  0  0
   -1.4010    0.3174    1.9673 C   0  0  0  0  0  0  0  0  0  0  0  0
   -2.2175    0.3553    0.8493 C   0  0  0  0  0  0  0  0  0  0  0  0
   -1.8696   -0.2877   -0.3410 C   0  0  0  0  0  0  0  0  0  0  0  0
   -0.7029   -1.0185   -0.4369 C   0  0  0  0  0  0  0  0  0  0  0  0
   -2.8786   -0.2015   -1.3278 N   0  0  0  0  0  0  0  0  0  0  0  0
   -3.7258    0.9005   -0.8389 C   0  0  0  0  0  0  0  0  0  0  0  0
   -3.5631    0.9775    0.6907 C   0  0  0  0  0  0  0  0  0  0  0  0
    4.1968    0.9547   -1.4194 H   0  0  0  0  0  0  0  0  0  0  0  0
    5.0802    0.2363   -0.0649 H   0  0  0  0  0  0  0  0  0  0  0  0
    4.4844    1.9037    0.0514 H   0  0  0  0  0  0  0  0  0  0  0  0
    3.0280    0.3842    1.3538 H   0  0  0  0  0  0  0  0  0  0  0  0
    2.1367    1.0879   -0.0164 H   0  0  0  0  0  0  0  0  0  0  0  0
    2.6343   -1.0652   -1.2745 H   0  0  0  0  0  0  0  0  0  0  0  0
    0.4553   -0.4439    2.7441 H   0  0  0  0  0  0  0  0  0  0  0  0
   -1.6901    0.8060    2.8922 H   0  0  0  0  0  0  0  0  0  0  0  0
   -0.4615   -1.5660   -1.3418 H   0  0  0  0  0  0  0  0  0  0  0  0
   -2.4946   -0.0719   -2.2598 H   0  0  0  0  0  0  0  0  0  0  0  0
   -3.3913    1.8391   -1.3005 H   0  0  0  0  0  0  0  0  0  0  0  0
   -4.7713    0.7444   -1.1234 H   0  0  0  0  0  0  0  0  0  0  0  0
   -4.3208    0.3718    1.1986 H   0  0  0  0  0  0  0  0  0  0  0  0
   -3.6029    2.0100    1.0479 H   0  0  0  0  0  0  0  0  0  0  0  0
  1  2  1  0
  2  3  1  0
  3  4  1  0
  4  5  2  0
  4  6  2  0
  4  7  1  0
  7  8  2  0
  8  9  1  0
  9 10  2  0
 10 11  1  0
 11 12  2  0
 11 13  1  0
 13 14  1  0
 14 15  1  0
 12  7  1  0
 15 10  1  0
  1 16  1  0
  1 17  1  0
  1 18  1  0
  2 19  1  0
  2 20  1  0
  3 21  1  0
  8 22  1  0
  9 23  1  0
 12 24  1  0
 13 25  1  0
 14 26  1  0
 14 27  1  0
 15 28  1  0
 15 29  1  0
M  END
$$$$
