
     RDKit          3D

 37 39  0  0  0  0  0  0  0  0999 V2000
   -1.8440    4.5112   -0.1057 C   0  0  0  0  0  0  0  0  0  0  0  0
   -0.5042    3.9853   -1.2074 S   0  0  0  0  0  0  0  0  0  0  0  0
   -0.2533    2.3096   -0.6379 C   0  0  0  0  0  0  0  0  0  0  0  0
    0.8382    1.6110   -1.1066 C   0  0  0  0  0  0  0  0  0  0  0  0
    0.9986    0.3114   -0.6666 C   0  0  0  0  0  0  0  0  0  0  0  0
    2.1046   -0.4447   -1.1057 N   0  0  0  0  0  0  0  0  0  0  0  0
    2.2541   -1.7318   -0.3871 C   0  0  0  0  0  0  0  0  0  0  0  0
    3.5288   -2.4459   -0.8617 C   0  0  0  0  0  0  0  0  0  0  0  0
    3.5105   -2.6590   -2.2832 O   0  0  0  0  0  0  0  0  0  0  0  0
    3.4164   -1.4006   -2.9682 C   0  0  0  0  0  0  0  0  0  0  0  0
    2.1428   -0.6332   -2.5740 C   0  0  0  0  0  0  0  0  0  0  0  0
    0.1321   -0.2241    0.2086 N   0  0  0  0  0  0  0  0  0  0  0  0
   -0.8977    0.5352    0.6271 C   0  0  0  0  0  0  0  0  0  0  0  0
   -1.8610   -0.0944    1.5377 C   0  0  0  0  0  0  0  0  0  0  0  0
   -2.3349   -1.3925    1.2441 C   0  0  0  0  0  0  0  0  0  0  0  0
   -3.2655   -2.0385    2.0623 C   0  0  0  0  0  0  0  0  0  0  0  0
   -3.7433   -1.4028    3.2019 C   0  0  0  0  0  0  0  0  0  0  0  0
   -3.2837   -0.1274    3.5245 C   0  0  0  0  0  0  0  0  0  0  0  0
   -2.3488    0.5223    2.7046 C   0  0  0  0  0  0  0  0  0  0  0  0
   -1.8021    2.0761    3.2432 Cl  0  0  0  0  0  0  0  0  0  0  0  0
   -1.1442    1.7838    0.2126 N   0  0  0  0  0  0  0  0  0  0  0  0
   -1.5302    4.4523    0.9399 H   0  0  0  0  0  0  0  0  0  0  0  0
   -2.0973    5.5513   -0.3287 H   0  0  0  0  0  0  0  0  0  0  0  0
   -2.7386    3.9015   -0.2598 H   0  0  0  0  0  0  0  0  0  0  0  0
    1.5530    2.0730   -1.7739 H   0  0  0  0  0  0  0  0  0  0  0  0
    2.3287   -1.5666    0.6945 H   0  0  0  0  0  0  0  0  0  0  0  0
    1.3905   -2.3785   -0.5923 H   0  0  0  0  0  0  0  0  0  0  0  0
    3.6068   -3.4262   -0.3810 H   0  0  0  0  0  0  0  0  0  0  0  0
    4.4251   -1.8713   -0.5990 H   0  0  0  0  0  0  0  0  0  0  0  0
    3.4059   -1.6085   -4.0427 H   0  0  0  0  0  0  0  0  0  0  0  0
    4.3141   -0.8093   -2.7509 H   0  0  0  0  0  0  0  0  0  0  0  0
    1.2619   -1.2070   -2.8904 H   0  0  0  0  0  0  0  0  0  0  0  0
    2.1425    0.3237   -3.1068 H   0  0  0  0  0  0  0  0  0  0  0  0
   -1.9739   -1.9076    0.3538 H   0  0  0  0  0  0  0  0  0  0  0  0
   -3.6138   -3.0361    1.8059 H   0  0  0  0  0  0  0  0  0  0  0  0
   -4.4666   -1.9002    3.8431 H   0  0  0  0  0  0  0  0  0  0  0  0
   -3.6515    0.3580    4.4257 H   0  0  0  0  0  0  0  0  0  0  0  0
  1  2  1  0
  2  3  1  0
  3  4  2  0
  4  5  1  0
  5  6  1  0
  6  7  1  0
  7  8  1  0
  8  9  1  0
  9 10  1  0
 10 11  1  0
  5 12  2  0
 12 13  1  0
 13 14  1  0
 14 15  2  0
 15 16  1  0
 16 17  2  0
 17 18  1  0
 18 19  2  0
 19 20  1  0
 13 21  2  0
 21  3  1  0
 11  6  1  0
 19 14  1  0
  1 22  1  0
  1 23  1  0
  1 24  1  0
  4 25  1  0
  7 26  1  0
  7 27  1  0
  8 28  1  0
  8 29  1  0
 10 30  1  0
 10 31  1  0
 11 32  1  0
 11 33  1  0
 15 34  1  0
 16 35  1  0
 17 36  1  0
 18 37  1  0
M  END
$$$$
