
     RDKit          3D

 33 33  0  0  0  0  0  0  0  0999 V2000
   -1.5018    2.6181   -1.4058 C   0  0  0  0  0  0  0  0  0  0  0  0
   -2.1048    1.6668   -0.4025 C   0  0  0  0  0  0  0  0  0  0  0  0
   -2.9641    2.0481    0.3858 O   0  0  0  0  0  0  0  0  0  0  0  0
   -1.5584    0.4027   -0.4827 N   0  0  0  0  0  0  0  0  0  0  0  0
   -1.8737   -0.7334    0.2939 C   0  0  0  0  0  0  0  0  0  0  0  0
   -2.8703   -0.7524    1.2711 C   0  0  0  0  0  0  0  0  0  0  0  0
   -3.1402   -1.9238    1.9895 C   0  0  0  0  0  0  0  0  0  0  0  0
   -2.4228   -3.0914    1.7341 C   0  0  0  0  0  0  0  0  0  0  0  0
   -1.4244   -3.0901    0.7642 C   0  0  0  0  0  0  0  0  0  0  0  0
   -1.1430   -1.9128    0.0668 C   0  0  0  0  0  0  0  0  0  0  0  0
   -0.1656   -1.9504   -0.8966 O   0  0  0  0  0  0  0  0  0  0  0  0
    1.1218   -1.6954   -0.3331 C   0  0  0  0  0  0  0  0  0  0  0  0
    1.6868   -0.3730   -0.8550 C   0  0  0  0  0  0  0  0  0  0  0  0
    1.0620    0.3841   -1.5950 O   0  0  0  0  0  0  0  0  0  0  0  0
    2.9684   -0.0933   -0.4238 N   0  0  0  0  0  0  0  0  0  0  0  0
    3.5831    1.2021   -0.7296 C   0  0  0  0  0  0  0  0  0  0  0  0
    3.1580    2.3557    0.1843 C   0  0  0  0  0  0  0  0  0  0  0  0
    3.4396    2.0570    1.4757 F   0  0  0  0  0  0  0  0  0  0  0  0
    3.8351    3.4841   -0.1263 F   0  0  0  0  0  0  0  0  0  0  0  0
    1.8407    2.6265    0.1024 F   0  0  0  0  0  0  0  0  0  0  0  0
   -1.2880    2.1090   -2.3499 H   0  0  0  0  0  0  0  0  0  0  0  0
   -0.5799    3.0393   -0.9973 H   0  0  0  0  0  0  0  0  0  0  0  0
   -2.2105    3.4257   -1.6108 H   0  0  0  0  0  0  0  0  0  0  0  0
   -0.8123    0.2709   -1.1674 H   0  0  0  0  0  0  0  0  0  0  0  0
   -3.4659    0.1276    1.4934 H   0  0  0  0  0  0  0  0  0  0  0  0
   -3.9247   -1.9205    2.7429 H   0  0  0  0  0  0  0  0  0  0  0  0
   -2.6501   -4.0006    2.2845 H   0  0  0  0  0  0  0  0  0  0  0  0
   -0.8748   -4.0010    0.5475 H   0  0  0  0  0  0  0  0  0  0  0  0
    1.7883   -2.5021   -0.6572 H   0  0  0  0  0  0  0  0  0  0  0  0
    1.1204   -1.6678    0.7648 H   0  0  0  0  0  0  0  0  0  0  0  0
    3.3494   -0.6260    0.3503 H   0  0  0  0  0  0  0  0  0  0  0  0
    4.6651    1.0563   -0.6485 H   0  0  0  0  0  0  0  0  0  0  0  0
    3.3566    1.4605   -1.7697 H   0  0  0  0  0  0  0  0  0  0  0  0
  1  2  1  0
  2  3  2  0
  2  4  1  0
  4  5  1  0
  5  6  2  0
  6  7  1  0
  7  8  2  0
  8  9  1  0
  9 10  2  0
 10 11  1  0
 11 12  1  0
 12 13  1  0
 13 14  2  0
 13 15  1  0
 15 16  1  0
 16 17  1  0
 17 18  1  0
 17 19  1  0
 17 20  1  0
 10  5  1  0
  1 21  1  0
  1 22  1  0
  1 23  1  0
  4 24  1  0
  6 25  1  0
  7 26  1  0
  8 27  1  0
  9 28  1  0
 12 29  1  0
 12 30  1  0
 15 31  1  0
 16 32  1  0
 16 33  1  0
M  END
$$$$
