
     RDKit          3D

 39 40  0  0  0  0  0  0  0  0999 V2000
    5.5916   -0.5689   -2.4332 C   0  0  0  0  0  0  0  0  0  0  0  0
    4.2566   -0.4186   -1.7179 C   0  0  0  0  0  0  0  0  0  0  0  0
    4.3995   -0.3256   -0.1906 C   0  0  0  0  0  0  0  0  0  0  0  0
    5.0831    0.9622    0.2677 C   0  0  0  0  0  0  0  0  0  0  0  0
    3.0378   -0.4874    0.4905 C   0  0  0  0  0  0  0  0  0  0  0  0
    2.8301   -1.4476    1.2253 O   0  0  0  0  0  0  0  0  0  0  0  0
    2.1424    0.5118    0.1860 N   0  0  0  0  0  0  0  0  0  0  0  0
    0.8766    0.5373    0.7028 C   0  0  0  0  0  0  0  0  0  0  0  0
    0.2707   -0.2813    1.5247 N   0  0  0  0  0  0  0  0  0  0  0  0
   -1.0237    0.1254    1.7947 N   0  0  0  0  0  0  0  0  0  0  0  0
   -1.3437    1.2282    1.1505 C   0  0  0  0  0  0  0  0  0  0  0  0
   -2.6696    1.9160    1.2326 C   0  0  0  0  0  0  0  0  0  0  0  0
   -3.5939    1.5725    0.0601 C   0  0  0  0  0  0  0  0  0  0  0  0
   -4.2728    0.2307    0.1968 C   0  0  0  0  0  0  0  0  0  0  0  0
   -5.5444    0.1371    0.7801 C   0  0  0  0  0  0  0  0  0  0  0  0
   -6.1708   -1.1026    0.9195 C   0  0  0  0  0  0  0  0  0  0  0  0
   -5.5312   -2.2607    0.4830 C   0  0  0  0  0  0  0  0  0  0  0  0
   -4.2651   -2.1800   -0.0926 C   0  0  0  0  0  0  0  0  0  0  0  0
   -3.6385   -0.9410   -0.2363 C   0  0  0  0  0  0  0  0  0  0  0  0
   -0.0664    1.8632    0.1833 S   0  0  0  0  0  0  0  0  0  0  0  0
    6.1400   -1.4409   -2.0631 H   0  0  0  0  0  0  0  0  0  0  0  0
    5.4288   -0.7031   -3.5075 H   0  0  0  0  0  0  0  0  0  0  0  0
    6.2190    0.3173   -2.3007 H   0  0  0  0  0  0  0  0  0  0  0  0
    3.6275   -1.2814   -1.9708 H   0  0  0  0  0  0  0  0  0  0  0  0
    3.7408    0.4650   -2.1127 H   0  0  0  0  0  0  0  0  0  0  0  0
    5.0131   -1.1695    0.1531 H   0  0  0  0  0  0  0  0  0  0  0  0
    5.0422    1.0574    1.3584 H   0  0  0  0  0  0  0  0  0  0  0  0
    6.1372    0.9733   -0.0267 H   0  0  0  0  0  0  0  0  0  0  0  0
    4.6059    1.8503   -0.1599 H   0  0  0  0  0  0  0  0  0  0  0  0
    2.3924    1.2653   -0.4343 H   0  0  0  0  0  0  0  0  0  0  0  0
   -2.5044    3.0010    1.2449 H   0  0  0  0  0  0  0  0  0  0  0  0
   -3.1487    1.6674    2.1877 H   0  0  0  0  0  0  0  0  0  0  0  0
   -3.0598    1.6144   -0.8978 H   0  0  0  0  0  0  0  0  0  0  0  0
   -4.3723    2.3443   -0.0065 H   0  0  0  0  0  0  0  0  0  0  0  0
   -6.0571    1.0289    1.1328 H   0  0  0  0  0  0  0  0  0  0  0  0
   -7.1557   -1.1658    1.3743 H   0  0  0  0  0  0  0  0  0  0  0  0
   -6.0147   -3.2269    0.5983 H   0  0  0  0  0  0  0  0  0  0  0  0
   -3.7583   -3.0836   -0.4212 H   0  0  0  0  0  0  0  0  0  0  0  0
   -2.6440   -0.9040   -0.6754 H   0  0  0  0  0  0  0  0  0  0  0  0
  1  2  1  0
  2  3  1  0
  3  4  1  0
  3  5  1  0
  5  6  2  0
  5  7  1  0
  7  8  1  0
  8  9  2  0
  9 10  1  0
 10 11  2  0
 11 12  1  0
 12 13  1  0
 13 14  1  0
 14 15  2  0
 15 16  1  0
 16 17  2  0
 17 18  1  0
 18 19  2  0
 11 20  1  0
 20  8  1  0
 19 14  1  0
  1 21  1  0
  1 22  1  0
  1 23  1  0
  2 24  1  0
  2 25  1  0
  3 26  1  0
  4 27  1  0
  4 28  1  0
  4 29  1  0
  7 30  1  0
 12 31  1  0
 12 32  1  0
 13 33  1  0
 13 34  1  0
 15 35  1  0
 16 36  1  0
 17 37  1  0
 18 38  1  0
 19 39  1  0
M  END
$$$$
