
     RDKit          3D

 48 52  0  0  0  0  0  0  0  0999 V2000
   -3.1167   -0.1122   -3.5132 C   0  0  0  0  0  0  0  0  0  0  0  0
   -2.5509   -0.2213   -2.1877 N   0  0  0  0  0  0  0  0  0  0  0  0
   -1.7385    0.7147   -1.6112 C   0  0  0  0  0  0  0  0  0  0  0  0
   -1.3592    0.2725   -0.3526 C   0  0  0  0  0  0  0  0  0  0  0  0
   -0.4865    0.9438    0.6837 C   0  0  0  0  0  0  0  0  0  0  0  0
   -0.0766    2.3409    0.2160 C   0  0  0  0  0  0  0  0  0  0  0  0
   -0.6336    3.4549    0.8543 C   0  0  0  0  0  0  0  0  0  0  0  0
   -0.2707    4.7357    0.4427 C   0  0  0  0  0  0  0  0  0  0  0  0
    0.6390    4.8854   -0.5945 C   0  0  0  0  0  0  0  0  0  0  0  0
    1.1462    3.7428   -1.1848 C   0  0  0  0  0  0  0  0  0  0  0  0
    0.8058    2.4909   -0.8128 N   0  0  0  0  0  0  0  0  0  0  0  0
    0.7732    0.2101    1.0788 C   0  0  0  0  0  0  0  0  0  0  0  0
    1.2289    0.0654    2.3820 C   0  0  0  0  0  0  0  0  0  0  0  0
    2.3780   -0.6748    2.3667 N   0  0  0  0  0  0  0  0  0  0  0  0
    3.1463   -1.0264    3.5395 C   0  0  0  0  0  0  0  0  0  0  0  0
    2.6973   -1.0391    1.0785 C   0  0  0  0  0  0  0  0  0  0  0  0
    3.7676   -1.7993    0.5771 C   0  0  0  0  0  0  0  0  0  0  0  0
    3.8403   -2.0075   -0.8025 C   0  0  0  0  0  0  0  0  0  0  0  0
    2.8811   -1.4728   -1.6544 C   0  0  0  0  0  0  0  0  0  0  0  0
    1.8206   -0.7171   -1.1436 C   0  0  0  0  0  0  0  0  0  0  0  0
    1.7140   -0.4928    0.2465 C   0  0  0  0  0  0  0  0  0  0  0  0
   -2.0142   -0.9995   -0.1728 C   0  0  0  0  0  0  0  0  0  0  0  0
   -2.0394   -1.9412    0.8797 C   0  0  0  0  0  0  0  0  0  0  0  0
   -2.7923   -3.1130    0.7497 C   0  0  0  0  0  0  0  0  0  0  0  0
   -3.5190   -3.3604   -0.4098 C   0  0  0  0  0  0  0  0  0  0  0  0
   -3.5114   -2.4489   -1.4689 C   0  0  0  0  0  0  0  0  0  0  0  0
   -2.7512   -1.2763   -1.3276 C   0  0  0  0  0  0  0  0  0  0  0  0
   -2.7754    0.8135   -3.9839 H   0  0  0  0  0  0  0  0  0  0  0  0
   -4.2061   -0.1019   -3.4241 H   0  0  0  0  0  0  0  0  0  0  0  0
   -2.7839   -0.9697   -4.1037 H   0  0  0  0  0  0  0  0  0  0  0  0
   -1.4736    1.6207   -2.1423 H   0  0  0  0  0  0  0  0  0  0  0  0
   -1.1053    1.0480    1.5874 H   0  0  0  0  0  0  0  0  0  0  0  0
   -1.3445    3.3324    1.6655 H   0  0  0  0  0  0  0  0  0  0  0  0
   -0.6942    5.6080    0.9317 H   0  0  0  0  0  0  0  0  0  0  0  0
    0.9465    5.8672   -0.9348 H   0  0  0  0  0  0  0  0  0  0  0  0
    1.8629    3.8015   -1.9984 H   0  0  0  0  0  0  0  0  0  0  0  0
    0.8168    0.4367    3.3111 H   0  0  0  0  0  0  0  0  0  0  0  0
    2.6701   -0.6075    4.4297 H   0  0  0  0  0  0  0  0  0  0  0  0
    4.1526   -0.6138    3.4309 H   0  0  0  0  0  0  0  0  0  0  0  0
    3.1801   -2.1161    3.6175 H   0  0  0  0  0  0  0  0  0  0  0  0
    4.5223   -2.2169    1.2349 H   0  0  0  0  0  0  0  0  0  0  0  0
    4.6590   -2.5920   -1.2143 H   0  0  0  0  0  0  0  0  0  0  0  0
    2.9514   -1.6370   -2.7260 H   0  0  0  0  0  0  0  0  0  0  0  0
    1.0846   -0.2948   -1.8212 H   0  0  0  0  0  0  0  0  0  0  0  0
   -1.4665   -1.7672    1.7857 H   0  0  0  0  0  0  0  0  0  0  0  0
   -2.8018   -3.8365    1.5605 H   0  0  0  0  0  0  0  0  0  0  0  0
   -4.0965   -4.2774   -0.4971 H   0  0  0  0  0  0  0  0  0  0  0  0
   -4.0766   -2.6518   -2.3724 H   0  0  0  0  0  0  0  0  0  0  0  0
  1  2  1  0
  2  3  1  0
  3  4  2  0
  4  5  1  0
  5  6  1  0
  6  7  2  0
  7  8  1  0
  8  9  2  0
  9 10  1  0
 10 11  2  0
  5 12  1  0
 12 13  2  0
 13 14  1  0
 14 15  1  0
 14 16  1  0
 16 17  2  0
 17 18  1  0
 18 19  2  0
 19 20  1  0
 20 21  2  0
  4 22  1  0
 22 23  2  0
 23 24  1  0
 24 25  2  0
 25 26  1  0
 26 27  2  0
 27  2  1  0
 11  6  1  0
 21 12  1  0
 27 22  1  0
 21 16  1  0
  1 28  1  0
  1 29  1  0
  1 30  1  0
  3 31  1  0
  5 32  1  0
  7 33  1  0
  8 34  1  0
  9 35  1  0
 10 36  1  0
 13 37  1  0
 15 38  1  0
 15 39  1  0
 15 40  1  0
 17 41  1  0
 18 42  1  0
 19 43  1  0
 20 44  1  0
 23 45  1  0
 24 46  1  0
 25 47  1  0
 26 48  1  0
M  END
$$$$
