
     RDKit          3D

 60 62  0  0  0  0  0  0  0  0999 V2000
   -8.6834    1.4288   -1.3351 C   0  0  0  0  0  0  0  0  0  0  0  0
   -8.0543    1.8632   -0.0202 C   0  0  0  0  0  0  0  0  0  0  0  0
   -6.6309    1.3845    0.1043 C   0  0  0  0  0  0  0  0  0  0  0  0
   -5.5723    2.1651   -0.3701 C   0  0  0  0  0  0  0  0  0  0  0  0
   -4.2549    1.7080   -0.2676 C   0  0  0  0  0  0  0  0  0  0  0  0
   -3.9711    0.4648    0.3093 C   0  0  0  0  0  0  0  0  0  0  0  0
   -2.6175    0.0788    0.3645 N   0  0  0  0  0  0  0  0  0  0  0  0
   -2.0757   -1.0294    0.9947 C   0  0  0  0  0  0  0  0  0  0  0  0
   -2.6921   -1.8298    1.6935 O   0  0  0  0  0  0  0  0  0  0  0  0
   -0.5430   -1.1468    0.7878 C   0  0  0  0  0  0  0  0  0  0  0  0
    0.0782   -0.1674    1.7088 N   0  0  0  0  0  0  0  0  0  0  0  0
    0.5128    1.3418    1.1437 S   0  0  0  0  0  6  0  0  0  0  0  0
    0.6972    2.1813    2.3043 O   0  0  0  0  0  0  0  0  0  0  0  0
   -0.4105    1.6923    0.0841 O   0  0  0  0  0  0  0  0  0  0  0  0
    2.1089    1.0247    0.4396 C   0  0  0  0  0  0  0  0  0  0  0  0
    2.2412    0.8752   -0.9508 C   0  0  0  0  0  0  0  0  0  0  0  0
    3.4974    0.6209   -1.5118 C   0  0  0  0  0  0  0  0  0  0  0  0
    4.5970    0.5339   -0.6718 C   0  0  0  0  0  0  0  0  0  0  0  0
    4.4584    0.7020    0.7077 C   0  0  0  0  0  0  0  0  0  0  0  0
    3.2216    0.9515    1.2842 C   0  0  0  0  0  0  0  0  0  0  0  0
    5.7710    0.5700    1.4099 C   0  0  0  0  0  0  0  0  0  0  0  0
    6.7375    0.3280    0.2438 C   0  0  0  0  0  0  0  0  0  0  0  0
    5.9440    0.2909   -0.9968 N   0  0  0  0  0  0  0  0  0  0  0  0
    6.4418    0.0655   -2.2680 C   0  0  0  0  0  0  0  0  0  0  0  0
    7.9346   -0.1491   -2.3476 C   0  0  0  0  0  0  0  0  0  0  0  0
    5.7675    0.0275   -3.2963 O   0  0  0  0  0  0  0  0  0  0  0  0
   -0.0100   -2.5634    1.1128 C   0  0  0  0  0  0  0  0  0  0  0  0
    1.5228   -2.6221    1.0830 C   0  0  0  0  0  0  0  0  0  0  0  0
   -0.5558   -3.5950    0.1160 C   0  0  0  0  0  0  0  0  0  0  0  0
   -5.0271   -0.3185    0.7736 C   0  0  0  0  0  0  0  0  0  0  0  0
   -6.3468    0.1369    0.6705 C   0  0  0  0  0  0  0  0  0  0  0  0
   -9.7161    1.7861   -1.3971 H   0  0  0  0  0  0  0  0  0  0  0  0
   -8.6954    0.3376   -1.4279 H   0  0  0  0  0  0  0  0  0  0  0  0
   -8.1325    1.8328   -2.1910 H   0  0  0  0  0  0  0  0  0  0  0  0
   -8.6472    1.4797    0.8187 H   0  0  0  0  0  0  0  0  0  0  0  0
   -8.0847    2.9565    0.0617 H   0  0  0  0  0  0  0  0  0  0  0  0
   -5.7640    3.1352   -0.8226 H   0  0  0  0  0  0  0  0  0  0  0  0
   -3.4537    2.3416   -0.6412 H   0  0  0  0  0  0  0  0  0  0  0  0
   -1.9525    0.7538   -0.0180 H   0  0  0  0  0  0  0  0  0  0  0  0
   -0.3024   -0.9130   -0.2561 H   0  0  0  0  0  0  0  0  0  0  0  0
   -0.2027   -0.1943    2.6906 H   0  0  0  0  0  0  0  0  0  0  0  0
    1.3761    0.9539   -1.6057 H   0  0  0  0  0  0  0  0  0  0  0  0
    3.5882    0.5036   -2.5868 H   0  0  0  0  0  0  0  0  0  0  0  0
    3.1213    1.0817    2.3581 H   0  0  0  0  0  0  0  0  0  0  0  0
    5.7653   -0.2798    2.0997 H   0  0  0  0  0  0  0  0  0  0  0  0
    6.0288    1.4841    1.9538 H   0  0  0  0  0  0  0  0  0  0  0  0
    7.2742   -0.6199    0.3603 H   0  0  0  0  0  0  0  0  0  0  0  0
    7.4772    1.1330    0.1679 H   0  0  0  0  0  0  0  0  0  0  0  0
    8.4654    0.7306   -1.9742 H   0  0  0  0  0  0  0  0  0  0  0  0
    8.2235   -0.3032   -3.3921 H   0  0  0  0  0  0  0  0  0  0  0  0
    8.2203   -1.0385   -1.7800 H   0  0  0  0  0  0  0  0  0  0  0  0
   -0.3339   -2.8570    2.1199 H   0  0  0  0  0  0  0  0  0  0  0  0
    1.9625   -1.9922    1.8623 H   0  0  0  0  0  0  0  0  0  0  0  0
    1.9138   -2.2945    0.1140 H   0  0  0  0  0  0  0  0  0  0  0  0
    1.8754   -3.6442    1.2598 H   0  0  0  0  0  0  0  0  0  0  0  0
   -0.1765   -4.5960    0.3484 H   0  0  0  0  0  0  0  0  0  0  0  0
   -1.6478   -3.6480    0.1436 H   0  0  0  0  0  0  0  0  0  0  0  0
   -0.2556   -3.3511   -0.9089 H   0  0  0  0  0  0  0  0  0  0  0  0
   -4.8619   -1.2957    1.2156 H   0  0  0  0  0  0  0  0  0  0  0  0
   -7.1518   -0.4965    1.0367 H   0  0  0  0  0  0  0  0  0  0  0  0
  1  2  1  0
  2  3  1  0
  3  4  2  0
  4  5  1  0
  5  6  2  0
  6  7  1  0
  7  8  1  0
  8  9  2  0
  8 10  1  0
 10 11  1  0
 11 12  1  0
 12 13  2  0
 12 14  2  0
 12 15  1  0
 15 16  2  0
 16 17  1  0
 17 18  2  0
 18 19  1  0
 19 20  2  0
 19 21  1  0
 21 22  1  0
 22 23  1  0
 23 24  1  0
 24 25  1  0
 24 26  2  0
 10 27  1  0
 27 28  1  0
 27 29  1  0
  6 30  1  0
 30 31  2  0
 31  3  1  0
 20 15  1  0
 23 18  1  0
  1 32  1  0
  1 33  1  0
  1 34  1  0
  2 35  1  0
  2 36  1  0
  4 37  1  0
  5 38  1  0
  7 39  1  0
 10 40  1  0
 11 41  1  0
 16 42  1  0
 17 43  1  0
 20 44  1  0
 21 45  1  0
 21 46  1  0
 22 47  1  0
 22 48  1  0
 25 49  1  0
 25 50  1  0
 25 51  1  0
 27 52  1  0
 28 53  1  0
 28 54  1  0
 28 55  1  0
 29 56  1  0
 29 57  1  0
 29 58  1  0
 30 59  1  0
 31 60  1  0
M  END
$$$$
