
     RDKit          3D

 57 59  0  0  0  0  0  0  0  0999 V2000
   -8.0260   -2.6863   -1.5561 C   0  0  0  0  0  0  0  0  0  0  0  0
   -7.5911   -1.3365   -1.4772 O   0  0  0  0  0  0  0  0  0  0  0  0
   -6.3237   -1.0999   -1.0052 C   0  0  0  0  0  0  0  0  0  0  0  0
   -5.4082   -2.1037   -0.6646 C   0  0  0  0  0  0  0  0  0  0  0  0
   -4.1363   -1.7682   -0.1987 C   0  0  0  0  0  0  0  0  0  0  0  0
   -3.7801   -0.4243   -0.0808 C   0  0  0  0  0  0  0  0  0  0  0  0
   -2.1539   -0.0161    0.5012 S   0  0  0  0  0  6  0  0  0  0  0  0
   -2.0192    1.4249    0.5176 O   0  0  0  0  0  0  0  0  0  0  0  0
   -1.9083   -0.8149    1.6802 O   0  0  0  0  0  0  0  0  0  0  0  0
   -1.1706   -0.5966   -0.7429 N   0  0  0  0  0  0  0  0  0  0  0  0
   -1.2980    0.0519   -2.0668 C   0  0  0  0  0  0  0  0  0  0  0  0
    0.0727    0.6382   -2.3191 C   0  0  0  0  0  0  0  0  0  0  0  0
    0.9483   -0.2688   -1.6479 O   0  0  0  0  0  0  0  0  0  0  0  0
    0.2743   -0.5763   -0.4085 C   0  0  0  0  0  0  0  0  0  0  0  0
    0.7517   -1.9537    0.0914 C   0  0  0  0  0  0  0  0  0  0  0  0
    2.1910   -2.0357    0.2760 N   0  0  0  0  0  0  0  0  0  0  0  0
    2.8267   -1.3500    1.2837 C   0  0  0  0  0  0  0  0  0  0  0  0
    2.2792   -0.7365    2.1887 O   0  0  0  0  0  0  0  0  0  0  0  0
    4.3687   -1.3705    1.1804 C   0  0  0  0  0  0  0  0  0  0  0  0
    4.9139   -1.9084    0.2272 O   0  0  0  0  0  0  0  0  0  0  0  0
    4.9920   -0.7280    2.2235 N   0  0  0  0  0  0  0  0  0  0  0  0
    6.4065   -0.4640    2.2295 C   0  0  0  0  0  0  0  0  0  0  0  0
    6.6983    0.9077    1.6763 C   0  0  0  0  0  0  0  0  0  0  0  0
    6.7659    2.0226    2.5271 C   0  0  0  0  0  0  0  0  0  0  0  0
    7.0107    3.2937    2.0047 C   0  0  0  0  0  0  0  0  0  0  0  0
    7.1802    3.4520    0.6344 C   0  0  0  0  0  0  0  0  0  0  0  0
    7.4134    4.6730    0.1355 F   0  0  0  0  0  0  0  0  0  0  0  0
    7.1067    2.3636   -0.2261 C   0  0  0  0  0  0  0  0  0  0  0  0
    6.8623    1.0919    0.2934 C   0  0  0  0  0  0  0  0  0  0  0  0
   -4.6831    0.5918   -0.4048 C   0  0  0  0  0  0  0  0  0  0  0  0
   -5.9588    0.2584   -0.8690 C   0  0  0  0  0  0  0  0  0  0  0  0
   -6.9144    1.1777   -1.2259 O   0  0  0  0  0  0  0  0  0  0  0  0
   -6.6539    2.5452   -0.9412 C   0  0  0  0  0  0  0  0  0  0  0  0
   -9.0590   -2.6842   -1.9171 H   0  0  0  0  0  0  0  0  0  0  0  0
   -7.4245   -3.2527   -2.2745 H   0  0  0  0  0  0  0  0  0  0  0  0
   -8.0195   -3.1628   -0.5703 H   0  0  0  0  0  0  0  0  0  0  0  0
   -5.6559   -3.1568   -0.7503 H   0  0  0  0  0  0  0  0  0  0  0  0
   -3.4315   -2.5527    0.0694 H   0  0  0  0  0  0  0  0  0  0  0  0
   -1.5242   -0.7336   -2.7964 H   0  0  0  0  0  0  0  0  0  0  0  0
   -2.0805    0.8113   -2.1318 H   0  0  0  0  0  0  0  0  0  0  0  0
    0.3232    0.6924   -3.3816 H   0  0  0  0  0  0  0  0  0  0  0  0
    0.1814    1.6326   -1.8717 H   0  0  0  0  0  0  0  0  0  0  0  0
    0.5241    0.2195    0.3029 H   0  0  0  0  0  0  0  0  0  0  0  0
    0.2705   -2.2053    1.0419 H   0  0  0  0  0  0  0  0  0  0  0  0
    0.4945   -2.7312   -0.6367 H   0  0  0  0  0  0  0  0  0  0  0  0
    2.7771   -2.3225   -0.5044 H   0  0  0  0  0  0  0  0  0  0  0  0
    4.3843   -0.2276    2.8663 H   0  0  0  0  0  0  0  0  0  0  0  0
    6.9389   -1.2286    1.6521 H   0  0  0  0  0  0  0  0  0  0  0  0
    6.7527   -0.5388    3.2662 H   0  0  0  0  0  0  0  0  0  0  0  0
    6.6271    1.9074    3.5998 H   0  0  0  0  0  0  0  0  0  0  0  0
    7.0669    4.1604    2.6555 H   0  0  0  0  0  0  0  0  0  0  0  0
    7.2357    2.5113   -1.2934 H   0  0  0  0  0  0  0  0  0  0  0  0
    6.7936    0.2417   -0.3841 H   0  0  0  0  0  0  0  0  0  0  0  0
   -4.3748    1.6261   -0.2931 H   0  0  0  0  0  0  0  0  0  0  0  0
   -5.8234    2.9204   -1.5478 H   0  0  0  0  0  0  0  0  0  0  0  0
   -7.5464    3.1186   -1.2095 H   0  0  0  0  0  0  0  0  0  0  0  0
   -6.4672    2.7010    0.1265 H   0  0  0  0  0  0  0  0  0  0  0  0
  1  2  1  0
  2  3  1  0
  3  4  2  0
  4  5  1  0
  5  6  2  0
  6  7  1  0
  7  8  2  0
  7  9  2  0
  7 10  1  0
 10 11  1  0
 11 12  1  0
 12 13  1  0
 13 14  1  0
 14 15  1  0
 15 16  1  0
 16 17  1  0
 17 18  2  0
 17 19  1  0
 19 20  2  0
 19 21  1  0
 21 22  1  0
 22 23  1  0
 23 24  2  0
 24 25  1  0
 25 26  2  0
 26 27  1  0
 26 28  1  0
 28 29  2  0
  6 30  1  0
 30 31  2  0
 31 32  1  0
 32 33  1  0
 31  3  1  0
 14 10  1  0
 29 23  1  0
  1 34  1  0
  1 35  1  0
  1 36  1  0
  4 37  1  0
  5 38  1  0
 11 39  1  0
 11 40  1  0
 12 41  1  0
 12 42  1  0
 14 43  1  0
 15 44  1  0
 15 45  1  0
 16 46  1  0
 21 47  1  0
 22 48  1  0
 22 49  1  0
 24 50  1  0
 25 51  1  0
 28 52  1  0
 29 53  1  0
 30 54  1  0
 33 55  1  0
 33 56  1  0
 33 57  1  0
M  END
$$$$
