
     RDKit          3D

 68 71  0  0  0  0  0  0  0  0999 V2000
   -4.5854   -4.8827    0.6560 C   0  0  0  0  0  0  0  0  0  0  0  0
   -3.7546   -3.6897    0.2889 C   0  0  0  0  0  0  0  0  0  0  0  0
   -4.1188   -2.4109    0.7218 C   0  0  0  0  0  0  0  0  0  0  0  0
   -3.3253   -1.3029    0.4126 C   0  0  0  0  0  0  0  0  0  0  0  0
   -2.1489   -1.4496   -0.3393 C   0  0  0  0  0  0  0  0  0  0  0  0
   -1.2493   -0.2725   -0.7052 C   0  0  0  0  0  0  0  0  0  0  0  0
   -2.0093    1.0852   -0.7575 C   0  0  0  0  0  0  0  0  0  0  0  0
   -1.9395    1.9348    0.1318 O   0  0  0  0  0  0  0  0  0  0  0  0
   -2.8202    1.2401   -1.8720 N   0  0  0  0  0  0  0  0  0  0  0  0
   -3.6993    2.3877   -2.0159 C   0  0  0  0  0  0  0  0  0  0  0  0
   -4.1226    2.5859   -3.4758 C   0  0  0  0  0  0  0  0  0  0  0  0
   -5.5336    2.0220   -3.5516 C   0  0  0  0  0  0  0  0  0  0  0  0
   -6.1322    2.4338   -2.2186 C   0  0  0  0  0  0  0  0  0  0  0  0
   -5.0032    2.1915   -1.2235 C   0  0  0  0  0  0  0  0  0  0  0  0
   -0.0435   -0.1416    0.1379 N   0  0  0  0  0  0  0  0  0  0  0  0
   -0.1903   -0.2246    1.5956 C   0  0  0  0  0  0  0  0  0  0  0  0
    0.0229   -1.6214    2.0710 C   0  0  0  0  0  0  0  0  0  0  0  0
   -0.7373   -2.4779    2.8434 C   0  0  0  0  0  0  0  0  0  0  0  0
   -0.0048   -3.6834    2.9472 C   0  0  0  0  0  0  0  0  0  0  0  0
    1.1606   -3.4846    2.2459 C   0  0  0  0  0  0  0  0  0  0  0  0
    1.1891   -2.2366    1.7139 O   0  0  0  0  0  0  0  0  0  0  0  0
    1.1147    0.2951   -0.4930 C   0  0  0  0  0  0  0  0  0  0  0  0
    1.1665    0.4451   -1.7172 O   0  0  0  0  0  0  0  0  0  0  0  0
    2.3254    0.6140    0.3682 C   0  0  0  0  0  0  0  0  0  0  0  0
    3.5470    0.9318   -0.4897 C   0  0  0  0  0  0  0  0  0  0  0  0
    4.7707    1.2330    0.3517 C   0  0  0  0  0  0  0  0  0  0  0  0
    4.7421    1.2456    1.5775 O   0  0  0  0  0  0  0  0  0  0  0  0
    5.8760    1.4837   -0.4305 N   0  0  0  0  0  0  0  0  0  0  0  0
    7.1338    1.7868    0.0405 C   0  0  0  0  0  0  0  0  0  0  0  0
    7.5896    1.9157    1.3705 C   0  0  0  0  0  0  0  0  0  0  0  0
    8.9207    2.2288    1.2510 C   0  0  0  0  0  0  0  0  0  0  0  0
   10.0052    2.5009    2.2092 C   0  0  0  0  0  0  0  0  0  0  0  0
    9.2484    2.2822   -0.0670 O   0  0  0  0  0  0  0  0  0  0  0  0
    8.1284    2.0049   -0.8284 N   0  0  0  0  0  0  0  0  0  0  0  0
   -1.7771   -2.7408   -0.7487 C   0  0  0  0  0  0  0  0  0  0  0  0
   -2.5684   -3.8479   -0.4346 C   0  0  0  0  0  0  0  0  0  0  0  0
   -4.2379   -5.3031    1.6046 H   0  0  0  0  0  0  0  0  0  0  0  0
   -4.5240   -5.6541   -0.1185 H   0  0  0  0  0  0  0  0  0  0  0  0
   -5.6403   -4.6082    0.7571 H   0  0  0  0  0  0  0  0  0  0  0  0
   -5.0240   -2.2673    1.3087 H   0  0  0  0  0  0  0  0  0  0  0  0
   -3.6379   -0.3272    0.7799 H   0  0  0  0  0  0  0  0  0  0  0  0
   -0.9289   -0.4524   -1.7411 H   0  0  0  0  0  0  0  0  0  0  0  0
   -2.9963    0.4237   -2.4466 H   0  0  0  0  0  0  0  0  0  0  0  0
   -3.1628    3.2744   -1.6576 H   0  0  0  0  0  0  0  0  0  0  0  0
   -4.1516    3.6598   -3.7012 H   0  0  0  0  0  0  0  0  0  0  0  0
   -3.4492    2.1129   -4.1979 H   0  0  0  0  0  0  0  0  0  0  0  0
   -5.5064    0.9292   -3.6389 H   0  0  0  0  0  0  0  0  0  0  0  0
   -6.0949    2.4226   -4.4012 H   0  0  0  0  0  0  0  0  0  0  0  0
   -7.0320    1.8637   -1.9704 H   0  0  0  0  0  0  0  0  0  0  0  0
   -6.3965    3.4982   -2.2352 H   0  0  0  0  0  0  0  0  0  0  0  0
   -5.0697    2.8807   -0.3746 H   0  0  0  0  0  0  0  0  0  0  0  0
   -5.0788    1.1720   -0.8244 H   0  0  0  0  0  0  0  0  0  0  0  0
   -1.1840    0.1336    1.8848 H   0  0  0  0  0  0  0  0  0  0  0  0
    0.5266    0.4312    2.0969 H   0  0  0  0  0  0  0  0  0  0  0  0
   -1.7087   -2.2619    3.2643 H   0  0  0  0  0  0  0  0  0  0  0  0
   -0.2897   -4.5861    3.4680 H   0  0  0  0  0  0  0  0  0  0  0  0
    2.0260   -4.0993    2.0404 H   0  0  0  0  0  0  0  0  0  0  0  0
    2.0884    1.4853    0.9903 H   0  0  0  0  0  0  0  0  0  0  0  0
    2.5524   -0.2347    1.0195 H   0  0  0  0  0  0  0  0  0  0  0  0
    3.3459    1.8035   -1.1244 H   0  0  0  0  0  0  0  0  0  0  0  0
    3.7778    0.0817   -1.1429 H   0  0  0  0  0  0  0  0  0  0  0  0
    5.8100    1.4544   -1.4384 H   0  0  0  0  0  0  0  0  0  0  0  0
    7.0320    1.7997    2.2882 H   0  0  0  0  0  0  0  0  0  0  0  0
   10.4692    3.4706    2.0020 H   0  0  0  0  0  0  0  0  0  0  0  0
   10.7774    1.7278    2.1432 H   0  0  0  0  0  0  0  0  0  0  0  0
    9.6266    2.5179    3.2361 H   0  0  0  0  0  0  0  0  0  0  0  0
   -0.8503   -2.8934   -1.3007 H   0  0  0  0  0  0  0  0  0  0  0  0
   -2.2460   -4.8365   -0.7535 H   0  0  0  0  0  0  0  0  0  0  0  0
  1  2  1  0
  2  3  2  0
  3  4  1  0
  4  5  2  0
  5  6  1  0
  6  7  1  0
  7  8  2  0
  7  9  1  0
  9 10  1  0
 10 11  1  0
 11 12  1  0
 12 13  1  0
 13 14  1  0
  6 15  1  0
 15 16  1  0
 16 17  1  0
 17 18  2  0
 18 19  1  0
 19 20  2  0
 20 21  1  0
 15 22  1  0
 22 23  2  0
 22 24  1  0
 24 25  1  0
 25 26  1  0
 26 27  2  0
 26 28  1  0
 28 29  1  0
 29 30  1  0
 30 31  2  0
 31 32  1  0
 31 33  1  0
 33 34  1  0
  5 35  1  0
 35 36  2  0
 36  2  1  0
 14 10  1  0
 21 17  1  0
 34 29  2  0
  1 37  1  0
  1 38  1  0
  1 39  1  0
  3 40  1  0
  4 41  1  0
  6 42  1  0
  9 43  1  0
 10 44  1  0
 11 45  1  0
 11 46  1  0
 12 47  1  0
 12 48  1  0
 13 49  1  0
 13 50  1  0
 14 51  1  0
 14 52  1  0
 16 53  1  0
 16 54  1  0
 18 55  1  0
 19 56  1  0
 20 57  1  0
 24 58  1  0
 24 59  1  0
 25 60  1  0
 25 61  1  0
 28 62  1  0
 30 63  1  0
 32 64  1  0
 32 65  1  0
 32 66  1  0
 35 67  1  0
 36 68  1  0
M  END
$$$$
