
     RDKit          3D

 50 53  0  0  0  0  0  0  0  0999 V2000
    6.3723   -2.5555    2.1768 C   0  0  0  0  0  0  0  0  0  0  0  0
    4.9956   -2.9111    2.2093 O   0  0  0  0  0  0  0  0  0  0  0  0
    4.0960   -1.9385    1.8738 C   0  0  0  0  0  0  0  0  0  0  0  0
    4.3997   -0.6290    1.5062 C   0  0  0  0  0  0  0  0  0  0  0  0
    3.3720    0.2742    1.1994 C   0  0  0  0  0  0  0  0  0  0  0  0
    2.0208   -0.1124    1.2384 C   0  0  0  0  0  0  0  0  0  0  0  0
    0.9668    0.8471    0.9020 C   0  0  0  0  0  0  0  0  0  0  0  0
    0.9910    2.0416    1.5409 N   0  0  0  0  0  0  0  0  0  0  0  0
   -0.0189    2.9003    1.2414 C   0  0  0  0  0  0  0  0  0  0  0  0
   -0.0345    4.2024    1.9636 C   0  0  0  0  0  0  0  0  0  0  0  0
    0.9753    4.3905    2.8680 N   0  0  0  0  0  0  0  0  0  0  0  0
   -0.8938    5.0532    1.7697 O   0  0  0  0  0  0  0  0  0  0  0  0
   -0.9842    2.5930    0.3301 C   0  0  0  0  0  0  0  0  0  0  0  0
   -2.1116    3.2630   -0.1289 N   0  0  0  0  0  0  0  0  0  0  0  0
   -2.7569    2.4537   -1.0833 C   0  0  0  0  0  0  0  0  0  0  0  0
   -3.7392    2.8116   -1.7129 O   0  0  0  0  0  0  0  0  0  0  0  0
   -1.9826    1.2639   -1.1729 N   0  0  0  0  0  0  0  0  0  0  0  0
   -2.2292    0.1253   -1.9709 C   0  0  0  0  0  0  0  0  0  0  0  0
   -1.1560   -0.5546   -2.5772 C   0  0  0  0  0  0  0  0  0  0  0  0
   -1.3710   -1.6569   -3.4080 C   0  0  0  0  0  0  0  0  0  0  0  0
   -2.6641   -2.1085   -3.6373 C   0  0  0  0  0  0  0  0  0  0  0  0
   -3.7428   -1.4589   -3.0380 C   0  0  0  0  0  0  0  0  0  0  0  0
   -3.5363   -0.3425   -2.2134 C   0  0  0  0  0  0  0  0  0  0  0  0
   -4.5647    0.2251   -1.5042 O   0  0  0  0  0  0  0  0  0  0  0  0
   -5.8094    0.3053   -2.1969 C   0  0  0  0  0  0  0  0  0  0  0  0
   -0.8841    1.3750   -0.2959 C   0  0  0  0  0  0  0  0  0  0  0  0
    0.0738    0.4798   -0.0406 N   0  0  0  0  0  0  0  0  0  0  0  0
    1.7378   -1.4409    1.5984 C   0  0  0  0  0  0  0  0  0  0  0  0
    0.4324   -1.8474    1.7291 O   0  0  0  0  0  0  0  0  0  0  0  0
    0.0793   -2.7672    0.6956 C   0  0  0  0  0  0  0  0  0  0  0  0
    2.7613   -2.3373    1.9267 C   0  0  0  0  0  0  0  0  0  0  0  0
    6.6838   -2.2904    1.1606 H   0  0  0  0  0  0  0  0  0  0  0  0
    6.9491   -3.4327    2.4847 H   0  0  0  0  0  0  0  0  0  0  0  0
    6.5921   -1.7472    2.8828 H   0  0  0  0  0  0  0  0  0  0  0  0
    5.4241   -0.2736    1.4494 H   0  0  0  0  0  0  0  0  0  0  0  0
    3.6351    1.2925    0.9147 H   0  0  0  0  0  0  0  0  0  0  0  0
    0.9802    5.2277    3.4360 H   0  0  0  0  0  0  0  0  0  0  0  0
    1.6267    3.6406    3.0693 H   0  0  0  0  0  0  0  0  0  0  0  0
   -2.4137    4.1864    0.1560 H   0  0  0  0  0  0  0  0  0  0  0  0
   -0.1326   -0.2081   -2.4480 H   0  0  0  0  0  0  0  0  0  0  0  0
   -0.5265   -2.1558   -3.8767 H   0  0  0  0  0  0  0  0  0  0  0  0
   -2.8375   -2.9696   -4.2765 H   0  0  0  0  0  0  0  0  0  0  0  0
   -4.7374   -1.8590   -3.2020 H   0  0  0  0  0  0  0  0  0  0  0  0
   -6.3432   -0.6505   -2.1304 H   0  0  0  0  0  0  0  0  0  0  0  0
   -5.6825    0.6102   -3.2431 H   0  0  0  0  0  0  0  0  0  0  0  0
   -6.4206    1.0621   -1.6967 H   0  0  0  0  0  0  0  0  0  0  0  0
    0.4254   -3.7766    0.9479 H   0  0  0  0  0  0  0  0  0  0  0  0
   -1.0121   -2.7890    0.6216 H   0  0  0  0  0  0  0  0  0  0  0  0
    0.4767   -2.4632   -0.2809 H   0  0  0  0  0  0  0  0  0  0  0  0
    2.5177   -3.3478    2.2424 H   0  0  0  0  0  0  0  0  0  0  0  0
  1  2  1  0
  2  3  1  0
  3  4  2  0
  4  5  1  0
  5  6  2  0
  6  7  1  0
  7  8  2  0
  8  9  1  0
  9 10  1  0
 10 11  1  0
 10 12  2  0
  9 13  2  0
 13 14  1  0
 14 15  1  0
 15 16  2  0
 15 17  1  0
 17 18  1  0
 18 19  2  0
 19 20  1  0
 20 21  2  0
 21 22  1  0
 22 23  2  0
 23 24  1  0
 24 25  1  0
 17 26  1  0
 26 27  2  0
  6 28  1  0
 28 29  1  0
 29 30  1  0
 28 31  2  0
 31  3  1  0
 27  7  1  0
 26 13  1  0
 23 18  1  0
  1 32  1  0
  1 33  1  0
  1 34  1  0
  4 35  1  0
  5 36  1  0
 11 37  1  0
 11 38  1  0
 14 39  1  0
 19 40  1  0
 20 41  1  0
 21 42  1  0
 22 43  1  0
 25 44  1  0
 25 45  1  0
 25 46  1  0
 30 47  1  0
 30 48  1  0
 30 49  1  0
 31 50  1  0
M  END
$$$$
