
     RDKit          3D

 37 38  0  0  0  0  0  0  0  0999 V2000
    4.8777   -0.0253   -2.0529 C   0  0  0  0  0  0  0  0  0  0  0  0
    4.8800   -1.0046   -0.8929 C   0  0  0  0  0  0  0  0  0  0  0  0
    3.7281   -0.8320   -0.0294 N   0  0  0  0  0  0  0  0  0  0  0  0
    2.5640   -1.5407   -0.0681 C   0  0  0  0  0  0  0  0  0  0  0  0
    1.7719   -1.0444    0.9484 C   0  0  0  0  0  0  0  0  0  0  0  0
    0.4042   -1.4709    1.3325 C   0  0  0  0  0  0  0  0  0  0  0  0
   -0.5360   -0.5835    0.6900 N   0  0  0  0  0  0  0  0  0  0  0  0
   -1.8692   -0.6287    1.0258 C   0  0  0  0  0  0  0  0  0  0  0  0
   -2.3206   -1.3504    1.9065 O   0  0  0  0  0  0  0  0  0  0  0  0
   -2.7822    0.2365    0.2303 C   0  0  0  0  0  0  0  0  0  0  0  0
   -2.3412    1.4323   -0.3563 C   0  0  0  0  0  0  0  0  0  0  0  0
   -3.2283    2.2273   -1.0868 C   0  0  0  0  0  0  0  0  0  0  0  0
   -4.5607    1.8380   -1.2309 C   0  0  0  0  0  0  0  0  0  0  0  0
   -5.0034    0.6498   -0.6326 C   0  0  0  0  0  0  0  0  0  0  0  0
   -6.4060    0.2429   -0.7813 N   0  0  0  0  0  4  0  0  0  0  0  0
   -7.1790    1.0374   -1.3355 O   0  0  0  0  0  0  0  0  0  0  0  0
   -6.7323   -0.8719   -0.3516 O   0  0  0  0  0  1  0  0  0  0  0  0
   -4.1218   -0.1524    0.1022 C   0  0  0  0  0  0  0  0  0  0  0  0
    2.5645   -0.0221    1.5412 C   0  0  0  0  0  0  0  0  0  0  0  0
    2.2127    0.8550    2.6860 C   0  0  0  0  0  0  0  0  0  0  0  0
    3.7489    0.1062    0.9314 N   0  0  0  0  0  0  0  0  0  0  0  0
    4.8995    1.0100   -1.6967 H   0  0  0  0  0  0  0  0  0  0  0  0
    3.9809   -0.1471   -2.6696 H   0  0  0  0  0  0  0  0  0  0  0  0
    5.7542   -0.1863   -2.6881 H   0  0  0  0  0  0  0  0  0  0  0  0
    5.7778   -0.8788   -0.2778 H   0  0  0  0  0  0  0  0  0  0  0  0
    4.8682   -2.0358   -1.2624 H   0  0  0  0  0  0  0  0  0  0  0  0
    2.3984   -2.3260   -0.7925 H   0  0  0  0  0  0  0  0  0  0  0  0
    0.2592   -1.4354    2.4176 H   0  0  0  0  0  0  0  0  0  0  0  0
    0.1954   -2.4923    0.9957 H   0  0  0  0  0  0  0  0  0  0  0  0
   -0.2593   -0.1833   -0.1958 H   0  0  0  0  0  0  0  0  0  0  0  0
   -1.3166    1.7743   -0.2290 H   0  0  0  0  0  0  0  0  0  0  0  0
   -2.8826    3.1567   -1.5356 H   0  0  0  0  0  0  0  0  0  0  0  0
   -5.2389    2.4700   -1.8019 H   0  0  0  0  0  0  0  0  0  0  0  0
   -4.4607   -1.0730    0.5758 H   0  0  0  0  0  0  0  0  0  0  0  0
    1.3006    1.4195    2.4679 H   0  0  0  0  0  0  0  0  0  0  0  0
    2.0423    0.2557    3.5860 H   0  0  0  0  0  0  0  0  0  0  0  0
    3.0102    1.5731    2.9037 H   0  0  0  0  0  0  0  0  0  0  0  0
  1  2  1  0
  2  3  1  0
  3  4  1  0
  4  5  2  0
  5  6  1  0
  6  7  1  0
  7  8  1  0
  8  9  2  0
  8 10  1  0
 10 11  2  0
 11 12  1  0
 12 13  2  0
 13 14  1  0
 14 15  1  0
 15 16  2  0
 15 17  1  0
 14 18  2  0
  5 19  1  0
 19 20  1  0
 19 21  2  0
 21  3  1  0
 18 10  1  0
  1 22  1  0
  1 23  1  0
  1 24  1  0
  2 25  1  0
  2 26  1  0
  4 27  1  0
  6 28  1  0
  6 29  1  0
  7 30  1  0
 11 31  1  0
 12 32  1  0
 13 33  1  0
 18 34  1  0
 20 35  1  0
 20 36  1  0
 20 37  1  0
M  CHG  2  15   1  17  -1
M  END
$$$$
