
     RDKit          3D

 38 39  0  0  0  0  0  0  0  0999 V2000
    0.6985    0.0798    1.5810 O   0  0  0  0  0  0  0  0  0  0  0  0
   -0.0797   -0.4397    0.7925 C   0  0  0  0  0  0  0  0  0  0  0  0
   -1.5520   -0.3140    0.9193 C   0  0  0  0  0  0  0  0  0  0  0  0
   -2.0687    0.5687    1.7871 C   0  0  0  0  0  0  0  0  0  0  0  0
   -3.5127    0.7371    1.9881 C   0  0  0  0  0  0  0  0  0  0  0  0
   -4.0283    0.4259    3.2544 C   0  0  0  0  0  0  0  0  0  0  0  0
   -5.3926    0.5771    3.5319 C   0  0  0  0  0  0  0  0  0  0  0  0
   -6.2667    1.0500    2.5522 C   0  0  0  0  0  0  0  0  0  0  0  0
   -5.7804    1.3761    1.2886 C   0  0  0  0  0  0  0  0  0  0  0  0
   -4.4134    1.2151    1.0241 C   0  0  0  0  0  0  0  0  0  0  0  0
   -3.9491    1.5863   -0.2943 N   0  0  0  0  0  4  0  0  0  0  0  0
   -3.7559    2.7903   -0.5046 O   0  0  0  0  0  0  0  0  0  0  0  0
   -3.8133    0.6728   -1.1208 O   0  0  0  0  0  1  0  0  0  0  0  0
    0.2988   -1.1787   -0.3004 N   0  0  0  0  0  0  0  0  0  0  0  0
    1.6980   -1.3635   -0.6364 C   0  0  0  0  0  0  0  0  0  0  0  0
    2.2935   -0.1361   -1.3304 C   0  0  0  0  0  0  0  0  0  0  0  0
    3.7400   -0.3517   -1.7023 C   0  0  0  0  0  0  0  0  0  0  0  0
    4.0880   -0.8013   -2.9849 C   0  0  0  0  0  0  0  0  0  0  0  0
    5.4268   -1.0157   -3.3154 C   0  0  0  0  0  0  0  0  0  0  0  0
    6.4141   -0.7847   -2.3649 C   0  0  0  0  0  0  0  0  0  0  0  0
    7.6983   -0.9925   -2.6845 F   0  0  0  0  0  0  0  0  0  0  0  0
    6.0889   -0.3436   -1.0882 C   0  0  0  0  0  0  0  0  0  0  0  0
    4.7513   -0.1281   -0.7550 C   0  0  0  0  0  0  0  0  0  0  0  0
   -2.1725   -0.9561    0.3065 H   0  0  0  0  0  0  0  0  0  0  0  0
   -1.4220    1.1837    2.4120 H   0  0  0  0  0  0  0  0  0  0  0  0
   -3.3702    0.0585    4.0413 H   0  0  0  0  0  0  0  0  0  0  0  0
   -5.7720    0.3273    4.5210 H   0  0  0  0  0  0  0  0  0  0  0  0
   -7.3241    1.1687    2.7788 H   0  0  0  0  0  0  0  0  0  0  0  0
   -6.4575    1.7548    0.5264 H   0  0  0  0  0  0  0  0  0  0  0  0
   -0.3974   -1.4864   -0.9666 H   0  0  0  0  0  0  0  0  0  0  0  0
    1.7572   -2.2435   -1.2865 H   0  0  0  0  0  0  0  0  0  0  0  0
    2.2493   -1.5915    0.2837 H   0  0  0  0  0  0  0  0  0  0  0  0
    2.2136    0.7492   -0.6868 H   0  0  0  0  0  0  0  0  0  0  0  0
    1.7113    0.1038   -2.2296 H   0  0  0  0  0  0  0  0  0  0  0  0
    3.3201   -0.9839   -3.7333 H   0  0  0  0  0  0  0  0  0  0  0  0
    5.7059   -1.3601   -4.3059 H   0  0  0  0  0  0  0  0  0  0  0  0
    6.8761   -0.1704   -0.3617 H   0  0  0  0  0  0  0  0  0  0  0  0
    4.4991    0.2164    0.2467 H   0  0  0  0  0  0  0  0  0  0  0  0
  1  2  2  0
  2  3  1  0
  3  4  2  3
  4  5  1  0
  5  6  2  0
  6  7  1  0
  7  8  2  0
  8  9  1  0
  9 10  2  0
 10 11  1  0
 11 12  2  0
 11 13  1  0
  2 14  1  0
 14 15  1  0
 15 16  1  0
 16 17  1  0
 17 18  2  0
 18 19  1  0
 19 20  2  0
 20 21  1  0
 20 22  1  0
 22 23  2  0
 10  5  1  0
 23 17  1  0
  3 24  1  0
  4 25  1  0
  6 26  1  0
  7 27  1  0
  8 28  1  0
  9 29  1  0
 14 30  1  0
 15 31  1  0
 15 32  1  0
 16 33  1  0
 16 34  1  0
 18 35  1  0
 19 36  1  0
 22 37  1  0
 23 38  1  0
M  CHG  2  11   1  13  -1
M  END
$$$$
