
     RDKit          3D

 44 47  0  0  0  0  0  0  0  0999 V2000
   -2.0023   -0.8674    1.8631 O   0  0  0  0  0  0  0  0  0  0  0  0
   -2.0649   -0.4272    0.7250 C   0  0  0  0  0  0  0  0  0  0  0  0
   -2.1055   -1.1445   -0.4566 O   0  0  0  0  0  0  0  0  0  0  0  0
   -2.0248   -2.5309   -0.2707 C   0  0  0  0  0  0  0  0  0  0  0  0
   -3.2060   -3.2632   -0.4058 C   0  0  0  0  0  0  0  0  0  0  0  0
   -3.1707   -4.6492   -0.2681 C   0  0  0  0  0  0  0  0  0  0  0  0
   -1.9596   -5.2936   -0.0121 C   0  0  0  0  0  0  0  0  0  0  0  0
   -0.7775   -4.5549    0.1049 C   0  0  0  0  0  0  0  0  0  0  0  0
   -0.7944   -3.1600   -0.0246 C   0  0  0  0  0  0  0  0  0  0  0  0
    0.4480   -2.3837    0.0718 C   0  0  0  0  0  0  0  0  0  0  0  0
    1.2137   -2.4156    1.1722 C   0  0  0  0  0  0  0  0  0  0  0  0
    2.4728   -1.6437    1.3859 C   0  0  0  0  0  0  0  0  0  0  0  0
    3.2952   -2.1414    2.1589 O   0  0  0  0  0  0  0  0  0  0  0  0
    2.7063   -0.3696    0.7347 C   0  0  0  0  0  0  0  0  0  0  0  0
    3.8472    0.4153    0.7140 C   0  0  0  0  0  0  0  0  0  0  0  0
    3.5430    1.5782   -0.0372 C   0  0  0  0  0  0  0  0  0  0  0  0
    4.2388    2.7355   -0.4275 C   0  0  0  0  0  0  0  0  0  0  0  0
    3.5668    3.6964   -1.1971 C   0  0  0  0  0  0  0  0  0  0  0  0
    2.2332    3.5142   -1.5727 C   0  0  0  0  0  0  0  0  0  0  0  0
    1.5257    2.3690   -1.1933 C   0  0  0  0  0  0  0  0  0  0  0  0
    2.2183    1.4353   -0.4274 C   0  0  0  0  0  0  0  0  0  0  0  0
    1.7084    0.2656    0.0446 O   0  0  0  0  0  0  0  0  0  0  0  0
   -2.0782    1.0263    0.4141 C   0  0  0  0  0  0  0  0  0  0  0  0
   -2.5594    1.5281   -0.8034 C   0  0  0  0  0  0  0  0  0  0  0  0
   -2.5614    2.9049   -1.0405 C   0  0  0  0  0  0  0  0  0  0  0  0
   -2.0830    3.7826   -0.0676 C   0  0  0  0  0  0  0  0  0  0  0  0
   -1.6055    3.2889    1.1460 C   0  0  0  0  0  0  0  0  0  0  0  0
   -1.6066    1.9144    1.3895 C   0  0  0  0  0  0  0  0  0  0  0  0
   -4.1455   -2.7585   -0.6088 H   0  0  0  0  0  0  0  0  0  0  0  0
   -4.0857   -5.2286   -0.3607 H   0  0  0  0  0  0  0  0  0  0  0  0
   -1.9332   -6.3756    0.0935 H   0  0  0  0  0  0  0  0  0  0  0  0
    0.1563   -5.0811    0.2909 H   0  0  0  0  0  0  0  0  0  0  0  0
    0.6775   -1.7601   -0.7863 H   0  0  0  0  0  0  0  0  0  0  0  0
    0.9648   -3.0639    2.0080 H   0  0  0  0  0  0  0  0  0  0  0  0
    4.7839    0.1656    1.1935 H   0  0  0  0  0  0  0  0  0  0  0  0
    5.2752    2.8865   -0.1410 H   0  0  0  0  0  0  0  0  0  0  0  0
    4.0937    4.5970   -1.5057 H   0  0  0  0  0  0  0  0  0  0  0  0
    1.7347    4.2750   -2.1698 H   0  0  0  0  0  0  0  0  0  0  0  0
    0.4927    2.2130   -1.4758 H   0  0  0  0  0  0  0  0  0  0  0  0
   -2.9438    0.8623   -1.5721 H   0  0  0  0  0  0  0  0  0  0  0  0
   -2.9384    3.2937   -1.9835 H   0  0  0  0  0  0  0  0  0  0  0  0
   -2.0843    4.8541   -0.2535 H   0  0  0  0  0  0  0  0  0  0  0  0
   -1.2325    3.9732    1.9043 H   0  0  0  0  0  0  0  0  0  0  0  0
   -1.2332    1.5375    2.3401 H   0  0  0  0  0  0  0  0  0  0  0  0
  1  2  2  0
  2  3  1  0
  3  4  1  0
  4  5  2  0
  5  6  1  0
  6  7  2  0
  7  8  1  0
  8  9  2  0
  9 10  1  0
 10 11  2  3
 11 12  1  0
 12 13  2  0
 12 14  1  0
 14 15  2  0
 15 16  1  0
 16 17  2  0
 17 18  1  0
 18 19  2  0
 19 20  1  0
 20 21  2  0
 21 22  1  0
  2 23  1  0
 23 24  2  0
 24 25  1  0
 25 26  2  0
 26 27  1  0
 27 28  2  0
  9  4  1  0
 22 14  1  0
 28 23  1  0
 21 16  1  0
  5 29  1  0
  6 30  1  0
  7 31  1  0
  8 32  1  0
 10 33  1  0
 11 34  1  0
 15 35  1  0
 17 36  1  0
 18 37  1  0
 19 38  1  0
 20 39  1  0
 24 40  1  0
 25 41  1  0
 26 42  1  0
 27 43  1  0
 28 44  1  0
M  END
$$$$
