
     RDKit          3D

 58 62  0  0  0  0  0  0  0  0999 V2000
    6.5447    4.0337    1.9373 C   0  0  0  0  0  0  0  0  0  0  0  0
    6.3392    2.6287    2.0109 O   0  0  0  0  0  0  0  0  0  0  0  0
    5.2190    2.1347    1.4014 C   0  0  0  0  0  0  0  0  0  0  0  0
    5.0881    0.7457    1.4580 C   0  0  0  0  0  0  0  0  0  0  0  0
    3.9905    0.1079    0.8762 C   0  0  0  0  0  0  0  0  0  0  0  0
    3.0022    0.8562    0.2269 C   0  0  0  0  0  0  0  0  0  0  0  0
    1.8044    0.1700   -0.3812 C   0  0  0  0  0  0  0  0  0  0  0  0
    0.7538   -0.1823    0.6777 C   0  0  0  0  0  0  0  0  0  0  0  0
   -0.4231   -0.8149    0.0511 N   0  0  0  0  0  0  0  0  0  0  0  0
   -1.4893   -0.0413   -0.4384 C   0  0  0  0  0  0  0  0  0  0  0  0
   -1.4959    1.2632   -0.4568 N   0  0  0  0  0  0  0  0  0  0  0  0
   -2.7143   -0.7236   -0.9973 C   0  0  0  0  0  0  0  0  0  0  0  0
   -3.9604   -0.0490   -1.4794 C   0  0  0  0  0  0  0  0  0  0  0  0
   -4.8642   -0.6724   -2.0313 O   0  0  0  0  0  0  0  0  0  0  0  0
   -4.0186    1.2992   -1.2638 N   0  0  0  0  0  0  0  0  0  0  0  0
   -5.0524    2.1171   -1.8436 C   0  0  0  0  0  0  0  0  0  0  0  0
   -5.1000    3.4077   -1.1176 C   0  0  0  0  0  0  0  0  0  0  0  0
   -5.7545    3.8276    0.0228 C   0  0  0  0  0  0  0  0  0  0  0  0
   -5.3900    5.1811    0.2180 C   0  0  0  0  0  0  0  0  0  0  0  0
   -4.5378    5.5003   -0.8125 C   0  0  0  0  0  0  0  0  0  0  0  0
   -4.3546    4.4307   -1.6286 O   0  0  0  0  0  0  0  0  0  0  0  0
   -2.6595   -2.0648   -1.0644 C   0  0  0  0  0  0  0  0  0  0  0  0
   -1.5033   -2.8320   -0.6332 C   0  0  0  0  0  0  0  0  0  0  0  0
   -1.5100   -4.3158   -0.7839 C   0  0  0  0  0  0  0  0  0  0  0  0
   -2.4925   -4.8832   -1.2657 O   0  0  0  0  0  0  0  0  0  0  0  0
   -0.3704   -4.9743   -0.3561 N   0  0  0  0  0  0  0  0  0  0  0  0
   -0.2969   -6.3592   -0.4665 C   0  0  0  0  0  0  0  0  0  0  0  0
    0.7832   -7.0417   -0.0672 C   0  0  0  0  0  0  0  0  0  0  0  0
    1.9064   -6.3397    0.4934 C   0  0  0  0  0  0  0  0  0  0  0  0
    1.8779   -5.0076    0.6187 C   0  0  0  0  0  0  0  0  0  0  0  0
    0.6760   -4.2453    0.1751 C   0  0  0  0  0  0  0  0  0  0  0  0
    0.6773   -2.9581    0.3096 N   0  0  0  0  0  0  0  0  0  0  0  0
   -0.4205   -2.2294   -0.0920 C   0  0  0  0  0  0  0  0  0  0  0  0
    3.1328    2.2492    0.1739 C   0  0  0  0  0  0  0  0  0  0  0  0
    4.2358    2.8847    0.7565 C   0  0  0  0  0  0  0  0  0  0  0  0
    5.7458    4.5769    2.4518 H   0  0  0  0  0  0  0  0  0  0  0  0
    6.6434    4.3649    0.8982 H   0  0  0  0  0  0  0  0  0  0  0  0
    7.4846    4.2613    2.4496 H   0  0  0  0  0  0  0  0  0  0  0  0
    5.8507    0.1546    1.9592 H   0  0  0  0  0  0  0  0  0  0  0  0
    3.9148   -0.9760    0.9335 H   0  0  0  0  0  0  0  0  0  0  0  0
    2.1388   -0.7328   -0.9079 H   0  0  0  0  0  0  0  0  0  0  0  0
    1.3654    0.8125   -1.1547 H   0  0  0  0  0  0  0  0  0  0  0  0
    0.4575    0.7078    1.2466 H   0  0  0  0  0  0  0  0  0  0  0  0
    1.1888   -0.8409    1.4411 H   0  0  0  0  0  0  0  0  0  0  0  0
   -0.6309    1.6502   -0.0826 H   0  0  0  0  0  0  0  0  0  0  0  0
   -3.1524    1.7495   -0.9559 H   0  0  0  0  0  0  0  0  0  0  0  0
   -6.0149    1.5978   -1.7820 H   0  0  0  0  0  0  0  0  0  0  0  0
   -4.8139    2.2652   -2.9025 H   0  0  0  0  0  0  0  0  0  0  0  0
   -6.4078    3.2232    0.6365 H   0  0  0  0  0  0  0  0  0  0  0  0
   -5.7066    5.8415    1.0129 H   0  0  0  0  0  0  0  0  0  0  0  0
   -4.0029    6.3966   -1.0928 H   0  0  0  0  0  0  0  0  0  0  0  0
   -3.5037   -2.6292   -1.4585 H   0  0  0  0  0  0  0  0  0  0  0  0
   -1.1581   -6.8684   -0.8931 H   0  0  0  0  0  0  0  0  0  0  0  0
    0.8307   -8.1223   -0.1578 H   0  0  0  0  0  0  0  0  0  0  0  0
    2.7709   -6.9141    0.8104 H   0  0  0  0  0  0  0  0  0  0  0  0
    2.7019   -4.4430    1.0361 H   0  0  0  0  0  0  0  0  0  0  0  0
    2.3799    2.8556   -0.3255 H   0  0  0  0  0  0  0  0  0  0  0  0
    4.2950    3.9659    0.6884 H   0  0  0  0  0  0  0  0  0  0  0  0
  1  2  1  0
  2  3  1  0
  3  4  2  0
  4  5  1  0
  5  6  2  0
  6  7  1  0
  7  8  1  0
  8  9  1  0
  9 10  1  0
 10 11  2  3
 10 12  1  0
 12 13  1  0
 13 14  2  0
 13 15  1  0
 15 16  1  0
 16 17  1  0
 17 18  2  0
 18 19  1  0
 19 20  2  0
 20 21  1  0
 12 22  2  0
 22 23  1  0
 23 24  1  0
 24 25  2  0
 24 26  1  0
 26 27  1  0
 27 28  2  0
 28 29  1  0
 29 30  2  0
 30 31  1  0
 31 32  2  0
 32 33  1  0
  6 34  1  0
 34 35  2  0
 35  3  1  0
 33  9  1  0
 21 17  1  0
 33 23  2  0
 31 26  1  0
  1 36  1  0
  1 37  1  0
  1 38  1  0
  4 39  1  0
  5 40  1  0
  7 41  1  0
  7 42  1  0
  8 43  1  0
  8 44  1  0
 11 45  1  0
 15 46  1  0
 16 47  1  0
 16 48  1  0
 18 49  1  0
 19 50  1  0
 20 51  1  0
 22 52  1  0
 27 53  1  0
 28 54  1  0
 29 55  1  0
 30 56  1  0
 34 57  1  0
 35 58  1  0
M  END
$$$$
