
     RDKit          3D

 38 40  0  0  0  0  0  0  0  0999 V2000
   -4.6860    1.1213   -2.5580 C   0  0  0  0  0  0  0  0  0  0  0  0
   -4.0099    0.4605   -1.3923 C   0  0  0  0  0  0  0  0  0  0  0  0
   -2.9983   -0.4858   -1.6065 C   0  0  0  0  0  0  0  0  0  0  0  0
   -2.3465   -1.0818   -0.5262 C   0  0  0  0  0  0  0  0  0  0  0  0
   -2.6910   -0.7091    0.7753 C   0  0  0  0  0  0  0  0  0  0  0  0
   -1.8657   -1.4627    2.1583 S   0  0  0  0  0  6  0  0  0  0  0  0
   -2.7799   -1.4319    3.2814 O   0  0  0  0  0  0  0  0  0  0  0  0
   -1.2713   -2.7036    1.7110 O   0  0  0  0  0  0  0  0  0  0  0  0
   -0.6437   -0.3524    2.5248 N   0  0  0  0  0  0  0  0  0  0  0  0
    0.2572    0.0586    1.5031 C   0  0  0  0  0  0  0  0  0  0  0  0
    0.2282    1.3853    1.0758 C   0  0  0  0  0  0  0  0  0  0  0  0
    1.0753    1.7998    0.0499 C   0  0  0  0  0  0  0  0  0  0  0  0
    1.9542    0.8914   -0.5385 C   0  0  0  0  0  0  0  0  0  0  0  0
    2.7491    1.3939   -1.5315 O   0  0  0  0  0  0  0  0  0  0  0  0
    1.9943   -0.4472   -0.1225 C   0  0  0  0  0  0  0  0  0  0  0  0
    3.0072   -1.7019   -0.8920 S   0  0  0  0  0  0  0  0  0  0  0  0
    4.6176   -1.1489   -0.5411 C   0  0  0  0  0  0  0  0  0  0  0  0
    5.0780    0.0762   -0.9544 N   0  0  0  0  0  0  0  0  0  0  0  0
    6.3172    0.0831   -0.5198 C   0  0  0  0  0  0  0  0  0  0  0  0
    6.5843   -1.0908    0.1120 N   0  0  0  0  0  0  0  0  0  0  0  0
    5.5145   -1.9002    0.1014 N   0  0  0  0  0  0  0  0  0  0  0  0
    1.1317   -0.8529    0.9069 C   0  0  0  0  0  0  0  0  0  0  0  0
   -3.7001    0.2299    1.0052 C   0  0  0  0  0  0  0  0  0  0  0  0
   -4.3498    0.8193   -0.0805 C   0  0  0  0  0  0  0  0  0  0  0  0
   -4.7340    0.4440   -3.4172 H   0  0  0  0  0  0  0  0  0  0  0  0
   -5.7148    1.3994   -2.3064 H   0  0  0  0  0  0  0  0  0  0  0  0
   -4.1362    2.0222   -2.8472 H   0  0  0  0  0  0  0  0  0  0  0  0
   -2.7143   -0.7673   -2.6188 H   0  0  0  0  0  0  0  0  0  0  0  0
   -1.5712   -1.8231   -0.7081 H   0  0  0  0  0  0  0  0  0  0  0  0
   -0.9631    0.3495    3.1901 H   0  0  0  0  0  0  0  0  0  0  0  0
   -0.4564    2.1026    1.5190 H   0  0  0  0  0  0  0  0  0  0  0  0
    1.0542    2.8304   -0.2949 H   0  0  0  0  0  0  0  0  0  0  0  0
    3.5597    0.8433   -1.5759 H   0  0  0  0  0  0  0  0  0  0  0  0
    7.0418    0.8776   -0.6303 H   0  0  0  0  0  0  0  0  0  0  0  0
    7.4414   -1.4027    0.5555 H   0  0  0  0  0  0  0  0  0  0  0  0
    1.1424   -1.8872    1.2462 H   0  0  0  0  0  0  0  0  0  0  0  0
   -3.9868    0.5045    2.0175 H   0  0  0  0  0  0  0  0  0  0  0  0
   -5.1294    1.5566    0.1009 H   0  0  0  0  0  0  0  0  0  0  0  0
  1  2  1  0
  2  3  2  0
  3  4  1  0
  4  5  2  0
  5  6  1  0
  6  7  2  0
  6  8  2  0
  6  9  1  0
  9 10  1  0
 10 11  2  0
 11 12  1  0
 12 13  2  0
 13 14  1  0
 13 15  1  0
 15 16  1  0
 16 17  1  0
 17 18  1  0
 18 19  2  0
 19 20  1  0
 20 21  1  0
 15 22  2  0
  5 23  1  0
 23 24  2  0
 24  2  1  0
 22 10  1  0
 21 17  2  0
  1 25  1  0
  1 26  1  0
  1 27  1  0
  3 28  1  0
  4 29  1  0
  9 30  1  0
 11 31  1  0
 12 32  1  0
 14 33  1  0
 19 34  1  0
 20 35  1  0
 22 36  1  0
 23 37  1  0
 24 38  1  0
M  END
$$$$
