
     RDKit          3D

 59 62  0  0  0  0  0  0  0  0999 V2000
    8.3170   -0.5973    1.2131 C   0  0  0  0  0  0  0  0  0  0  0  0
    7.3994   -0.5555    2.2993 O   0  0  0  0  0  0  0  0  0  0  0  0
    6.0793   -0.3701    1.9928 C   0  0  0  0  0  0  0  0  0  0  0  0
    5.2160   -0.4192    3.0929 C   0  0  0  0  0  0  0  0  0  0  0  0
    3.8388   -0.2485    2.9311 C   0  0  0  0  0  0  0  0  0  0  0  0
    3.3144   -0.0225    1.6589 C   0  0  0  0  0  0  0  0  0  0  0  0
    1.8804    0.1619    1.4451 C   0  0  0  0  0  0  0  0  0  0  0  0
    1.3786    0.3630    0.2133 C   0  0  0  0  0  0  0  0  0  0  0  0
   -0.0796    0.5879   -0.0734 C   0  0  0  0  0  0  0  0  0  0  0  0
   -0.9063   -0.6417    0.0003 N   0  0  0  0  0  0  0  0  0  0  0  0
   -0.4023   -1.8492   -0.7007 C   0  0  0  0  0  0  0  0  0  0  0  0
   -1.4046   -2.3799   -1.7412 C   0  0  0  0  0  0  0  0  0  0  0  0
   -1.7003   -1.4016   -2.8720 C   0  0  0  0  0  0  0  0  0  0  0  0
   -0.6625   -1.7584   -3.9056 C   0  0  0  0  0  0  0  0  0  0  0  0
   -0.5740   -3.2585   -3.7500 C   0  0  0  0  0  0  0  0  0  0  0  0
   -0.8276   -3.5473   -2.3681 O   0  0  0  0  0  0  0  0  0  0  0  0
   -1.8934   -0.8739    1.3518 S   0  0  0  0  0  6  0  0  0  0  0  0
   -1.1044   -0.6273    2.5390 O   0  0  0  0  0  0  0  0  0  0  0  0
   -2.6439   -2.0988    1.1871 O   0  0  0  0  0  0  0  0  0  0  0  0
   -3.0651    0.4577    1.1853 C   0  0  0  0  0  0  0  0  0  0  0  0
   -3.0883    1.4950    2.1190 C   0  0  0  0  0  0  0  0  0  0  0  0
   -4.0181    2.5271    1.9721 C   0  0  0  0  0  0  0  0  0  0  0  0
   -4.9284    2.5217    0.9034 C   0  0  0  0  0  0  0  0  0  0  0  0
   -5.9018    3.6495    0.7969 C   0  0  0  0  0  0  0  0  0  0  0  0
   -6.9956    3.5769   -0.2363 C   0  0  0  0  0  0  0  0  0  0  0  0
   -5.7961    4.6193    1.5447 O   0  0  0  0  0  0  0  0  0  0  0  0
   -4.8987    1.4707   -0.0235 C   0  0  0  0  0  0  0  0  0  0  0  0
   -3.9692    0.4353    0.1190 C   0  0  0  0  0  0  0  0  0  0  0  0
    2.3097    0.4465   -0.9554 C   0  0  0  0  0  0  0  0  0  0  0  0
    1.8988    0.6548   -2.0933 O   0  0  0  0  0  0  0  0  0  0  0  0
    3.6454    0.2720   -0.7109 N   0  0  0  0  0  0  0  0  0  0  0  0
    4.1792    0.0333    0.5611 C   0  0  0  0  0  0  0  0  0  0  0  0
    5.5569   -0.1398    0.7190 C   0  0  0  0  0  0  0  0  0  0  0  0
    9.3144   -0.7806    1.6249 H   0  0  0  0  0  0  0  0  0  0  0  0
    8.3455    0.3613    0.6839 H   0  0  0  0  0  0  0  0  0  0  0  0
    8.0825   -1.4202    0.5294 H   0  0  0  0  0  0  0  0  0  0  0  0
    5.6217   -0.5966    4.0869 H   0  0  0  0  0  0  0  0  0  0  0  0
    3.1896   -0.2959    3.8029 H   0  0  0  0  0  0  0  0  0  0  0  0
    1.2374    0.1244    2.3179 H   0  0  0  0  0  0  0  0  0  0  0  0
   -0.4572    1.3445    0.6247 H   0  0  0  0  0  0  0  0  0  0  0  0
   -0.2385    1.0339   -1.0616 H   0  0  0  0  0  0  0  0  0  0  0  0
    0.5496   -1.6568   -1.2043 H   0  0  0  0  0  0  0  0  0  0  0  0
   -0.1693   -2.6343    0.0300 H   0  0  0  0  0  0  0  0  0  0  0  0
   -2.3353   -2.6857   -1.2547 H   0  0  0  0  0  0  0  0  0  0  0  0
   -2.6972   -1.6109   -3.2793 H   0  0  0  0  0  0  0  0  0  0  0  0
   -1.6802   -0.3490   -2.5822 H   0  0  0  0  0  0  0  0  0  0  0  0
   -0.9300   -1.4507   -4.9199 H   0  0  0  0  0  0  0  0  0  0  0  0
    0.2971   -1.2955   -3.6496 H   0  0  0  0  0  0  0  0  0  0  0  0
   -1.3436   -3.7644   -4.3432 H   0  0  0  0  0  0  0  0  0  0  0  0
    0.4048   -3.6552   -4.0363 H   0  0  0  0  0  0  0  0  0  0  0  0
   -2.3974    1.5103    2.9589 H   0  0  0  0  0  0  0  0  0  0  0  0
   -4.0347    3.3367    2.7008 H   0  0  0  0  0  0  0  0  0  0  0  0
   -7.6984    4.4007   -0.0727 H   0  0  0  0  0  0  0  0  0  0  0  0
   -7.5531    2.6411   -0.1388 H   0  0  0  0  0  0  0  0  0  0  0  0
   -6.5719    3.6768   -1.2391 H   0  0  0  0  0  0  0  0  0  0  0  0
   -5.5849    1.4341   -0.8647 H   0  0  0  0  0  0  0  0  0  0  0  0
   -3.9562   -0.3847   -0.5960 H   0  0  0  0  0  0  0  0  0  0  0  0
    4.2524    0.3240   -1.5173 H   0  0  0  0  0  0  0  0  0  0  0  0
    6.1992   -0.0903   -0.1524 H   0  0  0  0  0  0  0  0  0  0  0  0
  1  2  1  0
  2  3  1  0
  3  4  2  0
  4  5  1  0
  5  6  2  0
  6  7  1  0
  7  8  2  0
  8  9  1  0
  9 10  1  0
 10 11  1  0
 11 12  1  0
 12 13  1  0
 13 14  1  0
 14 15  1  0
 15 16  1  0
 10 17  1  0
 17 18  2  0
 17 19  2  0
 17 20  1  0
 20 21  2  0
 21 22  1  0
 22 23  2  0
 23 24  1  0
 24 25  1  0
 24 26  2  0
 23 27  1  0
 27 28  2  0
  8 29  1  0
 29 30  2  0
 29 31  1  0
 31 32  1  0
 32 33  2  0
 33  3  1  0
 32  6  1  0
 16 12  1  0
 28 20  1  0
  1 34  1  0
  1 35  1  0
  1 36  1  0
  4 37  1  0
  5 38  1  0
  7 39  1  0
  9 40  1  0
  9 41  1  0
 11 42  1  0
 11 43  1  0
 12 44  1  0
 13 45  1  0
 13 46  1  0
 14 47  1  0
 14 48  1  0
 15 49  1  0
 15 50  1  0
 21 51  1  0
 22 52  1  0
 25 53  1  0
 25 54  1  0
 25 55  1  0
 27 56  1  0
 28 57  1  0
 31 58  1  0
 33 59  1  0
M  END
$$$$
