
     RDKit          3D

 41 43  0  0  0  0  0  0  0  0999 V2000
    8.0003    0.0367    1.8227 C   0  0  0  0  0  0  0  0  0  0  0  0
    6.6845    0.1203    1.5712 C   0  0  0  0  0  0  0  0  0  0  0  0
    5.9196    1.2720    2.0341 C   0  0  0  0  0  0  0  0  0  0  0  0
    4.5988    1.3535    1.7914 C   0  0  0  0  0  0  0  0  0  0  0  0
    3.8844    0.2865    1.0554 C   0  0  0  0  0  0  0  0  0  0  0  0
    2.5502    0.3538    0.8193 C   0  0  0  0  0  0  0  0  0  0  0  0
    1.8257   -0.5931    0.1461 N   0  0  0  0  0  0  0  0  0  0  0  0
    0.4807   -0.3922   -0.0252 C   0  0  0  0  0  0  0  0  0  0  0  0
   -0.2501   -1.1747   -0.6078 O   0  0  0  0  0  0  0  0  0  0  0  0
    0.1036    0.9010    0.6062 C   0  0  0  0  0  0  0  0  0  0  0  0
   -1.1122    1.4642    0.6660 C   0  0  0  0  0  0  0  0  0  0  0  0
   -2.3494    0.9222    0.0999 C   0  0  0  0  0  0  0  0  0  0  0  0
   -3.3888    0.5406    0.9559 C   0  0  0  0  0  0  0  0  0  0  0  0
   -4.5963    0.0504    0.4406 C   0  0  0  0  0  0  0  0  0  0  0  0
   -4.7801   -0.0673   -0.9393 C   0  0  0  0  0  0  0  0  0  0  0  0
   -5.9195   -0.5242   -1.5467 O   0  0  0  0  0  0  0  0  0  0  0  0
   -7.0107   -0.8734   -0.7075 C   0  0  0  0  0  0  0  0  0  0  0  0
   -3.7267    0.3050   -1.7888 C   0  0  0  0  0  0  0  0  0  0  0  0
   -3.8576    0.2372   -3.1550 O   0  0  0  0  0  0  0  0  0  0  0  0
   -3.5151   -1.0750   -3.6051 C   0  0  0  0  0  0  0  0  0  0  0  0
   -2.5314    0.8201   -1.2805 C   0  0  0  0  0  0  0  0  0  0  0  0
    1.4979    1.6539    1.3259 S   0  0  0  0  0  0  0  0  0  0  0  0
    4.6902   -0.8605    0.5798 C   0  0  0  0  0  0  0  0  0  0  0  0
    6.0112   -0.9364    0.8258 C   0  0  0  0  0  0  0  0  0  0  0  0
    8.5957   -0.8080    1.4881 H   0  0  0  0  0  0  0  0  0  0  0  0
    8.5283    0.8115    2.3713 H   0  0  0  0  0  0  0  0  0  0  0  0
    6.4262    2.0644    2.5754 H   0  0  0  0  0  0  0  0  0  0  0  0
    4.0601    2.2263    2.1459 H   0  0  0  0  0  0  0  0  0  0  0  0
    2.2228   -1.4342   -0.2391 H   0  0  0  0  0  0  0  0  0  0  0  0
   -1.2449    2.4108    1.1867 H   0  0  0  0  0  0  0  0  0  0  0  0
   -3.2695    0.6192    2.0350 H   0  0  0  0  0  0  0  0  0  0  0  0
   -5.3709   -0.2294    1.1467 H   0  0  0  0  0  0  0  0  0  0  0  0
   -6.7518   -1.7131   -0.0524 H   0  0  0  0  0  0  0  0  0  0  0  0
   -7.8362   -1.1948   -1.3502 H   0  0  0  0  0  0  0  0  0  0  0  0
   -7.3570   -0.0115   -0.1275 H   0  0  0  0  0  0  0  0  0  0  0  0
   -2.4712   -1.3102   -3.3691 H   0  0  0  0  0  0  0  0  0  0  0  0
   -3.6288   -1.0937   -4.6941 H   0  0  0  0  0  0  0  0  0  0  0  0
   -4.1826   -1.8367   -3.1838 H   0  0  0  0  0  0  0  0  0  0  0  0
   -1.7483    1.1238   -1.9710 H   0  0  0  0  0  0  0  0  0  0  0  0
    4.2290   -1.6629    0.0188 H   0  0  0  0  0  0  0  0  0  0  0  0
    6.5896   -1.7820    0.4669 H   0  0  0  0  0  0  0  0  0  0  0  0
  1  2  2  0
  2  3  1  0
  3  4  2  0
  4  5  1  0
  5  6  2  3
  6  7  1  0
  7  8  1  0
  8  9  2  0
  8 10  1  0
 10 11  2  3
 11 12  1  0
 12 13  2  0
 13 14  1  0
 14 15  2  0
 15 16  1  0
 16 17  1  0
 15 18  1  0
 18 19  1  0
 19 20  1  0
 18 21  2  0
 10 22  1  0
  5 23  1  0
 23 24  2  0
 24  2  1  0
 22  6  1  0
 21 12  1  0
  1 25  1  0
  1 26  1  0
  3 27  1  0
  4 28  1  0
  7 29  1  0
 11 30  1  0
 13 31  1  0
 14 32  1  0
 17 33  1  0
 17 34  1  0
 17 35  1  0
 20 36  1  0
 20 37  1  0
 20 38  1  0
 21 39  1  0
 23 40  1  0
 24 41  1  0
M  END
$$$$
