
     RDKit          3D

 51 55  0  0  0  0  0  0  0  0999 V2000
    4.9028   -2.0747    0.5708 F   0  0  0  0  0  0  0  0  0  0  0  0
    5.6443   -0.9841    0.8195 C   0  0  0  0  0  0  0  0  0  0  0  0
    7.0315   -1.0965    0.8024 C   0  0  0  0  0  0  0  0  0  0  0  0
    7.8183    0.0281    1.0481 C   0  0  0  0  0  0  0  0  0  0  0  0
    7.2095    1.2565    1.3107 C   0  0  0  0  0  0  0  0  0  0  0  0
    5.8149    1.3631    1.3271 C   0  0  0  0  0  0  0  0  0  0  0  0
    5.0161    0.2379    1.0814 C   0  0  0  0  0  0  0  0  0  0  0  0
    3.5104    0.3380    1.0800 C   0  0  0  0  0  0  0  0  0  0  0  0
    2.9406    0.3354   -0.3501 C   0  0  0  0  0  0  0  0  0  0  0  0
    1.4751    0.4614   -0.3698 N   0  0  0  0  0  0  0  0  0  0  0  0
    0.9875    0.8233   -1.7136 C   0  0  0  0  0  0  0  0  0  0  0  0
   -0.5561    0.8439   -1.8089 C   0  0  0  0  0  0  0  0  0  0  0  0
   -1.1811   -0.4185   -1.3556 N   0  0  0  0  0  0  0  0  0  0  0  0
   -2.4383   -0.3425   -0.7504 C   0  0  0  0  0  0  0  0  0  0  0  0
   -2.6010   -0.8664    0.4396 N   0  0  0  0  0  0  0  0  0  0  0  0
   -3.8374   -0.7729    1.1063 C   0  0  0  0  0  0  0  0  0  0  0  0
   -3.9443   -1.3275    2.3830 C   0  0  0  0  0  0  0  0  0  0  0  0
   -5.1426   -1.2487    3.0968 C   0  0  0  0  0  0  0  0  0  0  0  0
   -6.2511   -0.6128    2.5363 C   0  0  0  0  0  0  0  0  0  0  0  0
   -6.1680   -0.0553    1.2598 C   0  0  0  0  0  0  0  0  0  0  0  0
   -4.9613   -0.1393    0.5593 C   0  0  0  0  0  0  0  0  0  0  0  0
   -4.7915    0.3867   -0.7317 N   0  0  0  0  0  0  0  0  0  0  0  0
   -5.7013    1.0243   -1.5425 C   0  0  0  0  0  0  0  0  0  0  0  0
   -5.0878    1.2999   -2.7449 C   0  0  0  0  0  0  0  0  0  0  0  0
   -3.7580    0.8258   -2.6536 C   0  0  0  0  0  0  0  0  0  0  0  0
   -3.5846    0.2900   -1.3897 C   0  0  0  0  0  0  0  0  0  0  0  0
   -0.2114   -1.4019   -0.8416 C   0  0  0  0  0  0  0  0  0  0  0  0
    0.7854   -0.7505    0.1415 C   0  0  0  0  0  0  0  0  0  0  0  0
    7.4894   -2.0592    0.5963 H   0  0  0  0  0  0  0  0  0  0  0  0
    8.9034   -0.0513    1.0334 H   0  0  0  0  0  0  0  0  0  0  0  0
    7.8229    2.1351    1.5021 H   0  0  0  0  0  0  0  0  0  0  0  0
    5.3587    2.3293    1.5340 H   0  0  0  0  0  0  0  0  0  0  0  0
    3.2020    1.2558    1.5987 H   0  0  0  0  0  0  0  0  0  0  0  0
    3.1082   -0.4918    1.6729 H   0  0  0  0  0  0  0  0  0  0  0  0
    3.2546   -0.5635   -0.8990 H   0  0  0  0  0  0  0  0  0  0  0  0
    3.3828    1.1911   -0.8800 H   0  0  0  0  0  0  0  0  0  0  0  0
    1.3844    0.1279   -2.4654 H   0  0  0  0  0  0  0  0  0  0  0  0
    1.3580    1.8214   -1.9771 H   0  0  0  0  0  0  0  0  0  0  0  0
   -0.8318    1.0307   -2.8521 H   0  0  0  0  0  0  0  0  0  0  0  0
   -0.9305    1.6813   -1.2054 H   0  0  0  0  0  0  0  0  0  0  0  0
   -3.0818   -1.8218    2.8216 H   0  0  0  0  0  0  0  0  0  0  0  0
   -5.2076   -1.6836    4.0908 H   0  0  0  0  0  0  0  0  0  0  0  0
   -7.1821   -0.5531    3.0956 H   0  0  0  0  0  0  0  0  0  0  0  0
   -7.0437    0.4301    0.8420 H   0  0  0  0  0  0  0  0  0  0  0  0
   -6.7156    1.2173   -1.2214 H   0  0  0  0  0  0  0  0  0  0  0  0
   -5.5521    1.7779   -3.5983 H   0  0  0  0  0  0  0  0  0  0  0  0
   -3.0132    0.8620   -3.4354 H   0  0  0  0  0  0  0  0  0  0  0  0
    0.3361   -1.8264   -1.6933 H   0  0  0  0  0  0  0  0  0  0  0  0
   -0.7099   -2.2543   -0.3652 H   0  0  0  0  0  0  0  0  0  0  0  0
    1.5000   -1.5260    0.4447 H   0  0  0  0  0  0  0  0  0  0  0  0
    0.2468   -0.4516    1.0495 H   0  0  0  0  0  0  0  0  0  0  0  0
  1  2  1  0
  2  3  2  0
  3  4  1  0
  4  5  2  0
  5  6  1  0
  6  7  2  0
  7  8  1  0
  8  9  1  0
  9 10  1  0
 10 11  1  0
 11 12  1  0
 12 13  1  0
 13 14  1  0
 14 15  2  0
 15 16  1  0
 16 17  2  0
 17 18  1  0
 18 19  2  0
 19 20  1  0
 20 21  2  0
 21 22  1  0
 22 23  1  0
 23 24  2  0
 24 25  1  0
 25 26  2  0
 13 27  1  0
 27 28  1  0
  7  2  1  0
 28 10  1  0
 26 14  1  0
 21 16  1  0
 26 22  1  0
  3 29  1  0
  4 30  1  0
  5 31  1  0
  6 32  1  0
  8 33  1  0
  8 34  1  0
  9 35  1  0
  9 36  1  0
 11 37  1  0
 11 38  1  0
 12 39  1  0
 12 40  1  0
 17 41  1  0
 18 42  1  0
 19 43  1  0
 20 44  1  0
 23 45  1  0
 24 46  1  0
 25 47  1  0
 27 48  1  0
 27 49  1  0
 28 50  1  0
 28 51  1  0
M  END
$$$$
