
     RDKit          3D

 51 55  0  0  0  0  0  0  0  0999 V2000
    4.0335    1.2417    2.2209 F   0  0  0  0  0  0  0  0  0  0  0  0
    5.1736    0.9090    1.5985 C   0  0  0  0  0  0  0  0  0  0  0  0
    6.3109    1.6790    1.8226 C   0  0  0  0  0  0  0  0  0  0  0  0
    7.5021    1.3520    1.1778 C   0  0  0  0  0  0  0  0  0  0  0  0
    7.5456    0.2582    0.3124 C   0  0  0  0  0  0  0  0  0  0  0  0
    6.3999   -0.5111    0.0913 C   0  0  0  0  0  0  0  0  0  0  0  0
    5.1989   -0.1932    0.7389 C   0  0  0  0  0  0  0  0  0  0  0  0
    3.9500   -1.0041    0.4991 C   0  0  0  0  0  0  0  0  0  0  0  0
    3.0028   -0.3098   -0.4951 C   0  0  0  0  0  0  0  0  0  0  0  0
    1.8247   -1.1255   -0.8454 N   0  0  0  0  0  0  0  0  0  0  0  0
    1.0397   -0.4940   -1.9334 C   0  0  0  0  0  0  0  0  0  0  0  0
   -0.2354    0.2438   -1.4769 C   0  0  0  0  0  0  0  0  0  0  0  0
   -1.1519   -0.6712   -0.7751 N   0  0  0  0  0  0  0  0  0  0  0  0
   -2.4419   -0.2440   -0.4756 C   0  0  0  0  0  0  0  0  0  0  0  0
   -2.6957    1.0404   -0.5511 N   0  0  0  0  0  0  0  0  0  0  0  0
   -3.9663    1.5481   -0.2222 C   0  0  0  0  0  0  0  0  0  0  0  0
   -4.1706    2.9270   -0.3039 C   0  0  0  0  0  0  0  0  0  0  0  0
   -5.4090    3.4860    0.0231 C   0  0  0  0  0  0  0  0  0  0  0  0
   -6.4591    2.6661    0.4374 C   0  0  0  0  0  0  0  0  0  0  0  0
   -6.2772    1.2855    0.5259 C   0  0  0  0  0  0  0  0  0  0  0  0
   -5.0321    0.7413    0.1960 C   0  0  0  0  0  0  0  0  0  0  0  0
   -4.7662   -0.6366    0.2426 N   0  0  0  0  0  0  0  0  0  0  0  0
   -5.6033   -1.6738    0.5800 C   0  0  0  0  0  0  0  0  0  0  0  0
   -4.9189   -2.8552    0.4002 C   0  0  0  0  0  0  0  0  0  0  0  0
   -3.6191   -2.5208   -0.0454 C   0  0  0  0  0  0  0  0  0  0  0  0
   -3.5278   -1.1400   -0.0969 C   0  0  0  0  0  0  0  0  0  0  0  0
   -0.4945   -1.7453   -0.0167 C   0  0  0  0  0  0  0  0  0  0  0  0
    0.9669   -1.3851    0.3342 C   0  0  0  0  0  0  0  0  0  0  0  0
    6.2595    2.5279    2.4967 H   0  0  0  0  0  0  0  0  0  0  0  0
    8.3949    1.9483    1.3476 H   0  0  0  0  0  0  0  0  0  0  0  0
    8.4745    0.0033   -0.1927 H   0  0  0  0  0  0  0  0  0  0  0  0
    6.4511   -1.3585   -0.5892 H   0  0  0  0  0  0  0  0  0  0  0  0
    4.2244   -1.9973    0.1208 H   0  0  0  0  0  0  0  0  0  0  0  0
    3.4556   -1.1724    1.4636 H   0  0  0  0  0  0  0  0  0  0  0  0
    3.5753   -0.1120   -1.4115 H   0  0  0  0  0  0  0  0  0  0  0  0
    2.6904    0.6683   -0.1055 H   0  0  0  0  0  0  0  0  0  0  0  0
    0.7406   -1.3010   -2.6155 H   0  0  0  0  0  0  0  0  0  0  0  0
    1.6583    0.1835   -2.5348 H   0  0  0  0  0  0  0  0  0  0  0  0
   -0.7336    0.6532   -2.3639 H   0  0  0  0  0  0  0  0  0  0  0  0
    0.0333    1.0829   -0.8230 H   0  0  0  0  0  0  0  0  0  0  0  0
   -3.3534    3.5679   -0.6238 H   0  0  0  0  0  0  0  0  0  0  0  0
   -5.5511    4.5614   -0.0456 H   0  0  0  0  0  0  0  0  0  0  0  0
   -7.4212    3.1050    0.6905 H   0  0  0  0  0  0  0  0  0  0  0  0
   -7.1092    0.6684    0.8476 H   0  0  0  0  0  0  0  0  0  0  0  0
   -6.6207   -1.5043    0.9008 H   0  0  0  0  0  0  0  0  0  0  0  0
   -5.3178   -3.8487    0.5601 H   0  0  0  0  0  0  0  0  0  0  0  0
   -2.8374   -3.2213   -0.3035 H   0  0  0  0  0  0  0  0  0  0  0  0
   -0.5151   -2.6671   -0.6095 H   0  0  0  0  0  0  0  0  0  0  0  0
   -1.0210   -1.9370    0.9251 H   0  0  0  0  0  0  0  0  0  0  0  0
    0.9460   -0.5054    0.9923 H   0  0  0  0  0  0  0  0  0  0  0  0
    1.3968   -2.2131    0.9092 H   0  0  0  0  0  0  0  0  0  0  0  0
  1  2  1  0
  2  3  2  0
  3  4  1  0
  4  5  2  0
  5  6  1  0
  6  7  2  0
  7  8  1  0
  8  9  1  0
  9 10  1  0
 10 11  1  0
 11 12  1  0
 12 13  1  0
 13 14  1  0
 14 15  2  0
 15 16  1  0
 16 17  2  0
 17 18  1  0
 18 19  2  0
 19 20  1  0
 20 21  2  0
 21 22  1  0
 22 23  1  0
 23 24  2  0
 24 25  1  0
 25 26  2  0
 13 27  1  0
 27 28  1  0
  7  2  1  0
 28 10  1  0
 26 14  1  0
 21 16  1  0
 26 22  1  0
  3 29  1  0
  4 30  1  0
  5 31  1  0
  6 32  1  0
  8 33  1  0
  8 34  1  0
  9 35  1  0
  9 36  1  0
 11 37  1  0
 11 38  1  0
 12 39  1  0
 12 40  1  0
 17 41  1  0
 18 42  1  0
 19 43  1  0
 20 44  1  0
 23 45  1  0
 24 46  1  0
 25 47  1  0
 27 48  1  0
 27 49  1  0
 28 50  1  0
 28 51  1  0
M  END
$$$$
