
     RDKit          3D

 42 45  0  0  0  0  0  0  0  0999 V2000
    3.2118   -2.3593    0.2995 C   0  0  0  0  0  0  0  0  0  0  0  0
    3.4153   -0.8983    0.1285 C   0  0  0  0  0  0  0  0  0  0  0  0
    2.5062    0.1456    0.0338 C   0  0  0  0  0  0  0  0  0  0  0  0
    1.0441    0.1094    0.0861 C   0  0  0  0  0  0  0  0  0  0  0  0
    0.4169   -0.9296    0.2681 O   0  0  0  0  0  0  0  0  0  0  0  0
    0.4822    1.3755   -0.0753 N   0  0  0  0  0  0  0  0  0  0  0  0
   -0.8385    1.7097    0.0969 N   0  0  0  0  0  0  0  0  0  0  0  0
   -1.7434    0.8359   -0.2323 C   0  0  0  0  0  0  0  0  0  0  0  0
   -3.1923    1.1046   -0.0310 C   0  0  0  0  0  0  0  0  0  0  0  0
   -3.6159    2.4133    0.2624 C   0  0  0  0  0  0  0  0  0  0  0  0
   -2.7604    3.4721    0.4187 O   0  0  0  0  0  0  0  0  0  0  0  0
   -4.9641    2.7090    0.4025 C   0  0  0  0  0  0  0  0  0  0  0  0
   -5.9102    1.6995    0.2565 C   0  0  0  0  0  0  0  0  0  0  0  0
   -5.5227    0.3798   -0.0186 C   0  0  0  0  0  0  0  0  0  0  0  0
   -6.5075   -0.6136   -0.1463 C   0  0  0  0  0  0  0  0  0  0  0  0
   -6.1651   -1.9388   -0.4024 C   0  0  0  0  0  0  0  0  0  0  0  0
   -4.8296   -2.2895   -0.5280 C   0  0  0  0  0  0  0  0  0  0  0  0
   -3.8368   -1.3130   -0.4066 C   0  0  0  0  0  0  0  0  0  0  0  0
   -4.1476    0.0511   -0.1607 C   0  0  0  0  0  0  0  0  0  0  0  0
    3.1908    1.3225   -0.1227 N   0  0  0  0  0  0  0  0  0  0  0  0
    4.4836    1.0559   -0.1283 N   0  0  0  0  0  0  0  0  0  0  0  0
    4.6663   -0.2878    0.0260 N   0  0  0  0  0  0  0  0  0  0  0  0
    5.9633   -0.8591    0.0765 C   0  0  0  0  0  0  0  0  0  0  0  0
    6.1354   -2.1663    0.2791 N   0  0  0  0  0  0  0  0  0  0  0  0
    7.5201   -2.3297    0.2810 O   0  0  0  0  0  0  0  0  0  0  0  0
    8.1720   -1.1176    0.0823 N   0  0  0  0  0  0  0  0  0  0  0  0
    7.2059   -0.2100   -0.0519 C   0  0  0  0  0  0  0  0  0  0  0  0
    7.4214    1.1002   -0.2742 N   0  0  0  0  0  0  0  0  0  0  0  0
    3.6380   -2.7018    1.2478 H   0  0  0  0  0  0  0  0  0  0  0  0
    3.6717   -2.9156   -0.5236 H   0  0  0  0  0  0  0  0  0  0  0  0
    2.1536   -2.6303    0.3083 H   0  0  0  0  0  0  0  0  0  0  0  0
    1.1293    2.1612   -0.0229 H   0  0  0  0  0  0  0  0  0  0  0  0
   -1.4736   -0.1124   -0.7162 H   0  0  0  0  0  0  0  0  0  0  0  0
   -1.8456    3.1188    0.3716 H   0  0  0  0  0  0  0  0  0  0  0  0
   -5.2779    3.7258    0.6228 H   0  0  0  0  0  0  0  0  0  0  0  0
   -6.9624    1.9550    0.3682 H   0  0  0  0  0  0  0  0  0  0  0  0
   -7.5612   -0.3610   -0.0416 H   0  0  0  0  0  0  0  0  0  0  0  0
   -6.9406   -2.6945   -0.4950 H   0  0  0  0  0  0  0  0  0  0  0  0
   -4.5528   -3.3241   -0.7153 H   0  0  0  0  0  0  0  0  0  0  0  0
   -2.8078   -1.6534   -0.4927 H   0  0  0  0  0  0  0  0  0  0  0  0
    6.6725    1.7845   -0.1818 H   0  0  0  0  0  0  0  0  0  0  0  0
    8.3556    1.4761   -0.1493 H   0  0  0  0  0  0  0  0  0  0  0  0
  1  2  1  0
  2  3  2  0
  3  4  1  0
  4  5  2  0
  4  6  1  0
  6  7  1  0
  7  8  2  3
  8  9  1  0
  9 10  2  0
 10 11  1  0
 10 12  1  0
 12 13  2  0
 13 14  1  0
 14 15  2  0
 15 16  1  0
 16 17  2  0
 17 18  1  0
 18 19  2  0
  3 20  1  0
 20 21  2  0
 21 22  1  0
 22 23  1  0
 23 24  2  0
 24 25  1  0
 25 26  1  0
 26 27  2  0
 27 28  1  0
 22  2  1  0
 27 23  1  0
 19  9  1  0
 19 14  1  0
  1 29  1  0
  1 30  1  0
  1 31  1  0
  6 32  1  0
  8 33  1  0
 11 34  1  0
 12 35  1  0
 13 36  1  0
 15 37  1  0
 16 38  1  0
 17 39  1  0
 18 40  1  0
 28 41  1  0
 28 42  1  0
M  END
$$$$
