
     RDKit          3D

 57 59  0  0  0  0  0  0  0  0999 V2000
   -7.6729    2.2032   -3.5673 C   0  0  0  0  0  0  0  0  0  0  0  0
   -7.7306    1.8232   -2.1974 O   0  0  0  0  0  0  0  0  0  0  0  0
   -6.5610    1.4129   -1.6202 C   0  0  0  0  0  0  0  0  0  0  0  0
   -6.6466    1.1671   -0.2452 C   0  0  0  0  0  0  0  0  0  0  0  0
   -5.5312    0.7329    0.4736 C   0  0  0  0  0  0  0  0  0  0  0  0
   -4.3244    0.5327   -0.1978 C   0  0  0  0  0  0  0  0  0  0  0  0
   -2.8940   -0.0399    0.6826 S   0  0  0  0  0  6  0  0  0  0  0  0
   -3.2230   -0.1270    2.0890 O   0  0  0  0  0  0  0  0  0  0  0  0
   -1.7608    0.7338    0.2234 O   0  0  0  0  0  0  0  0  0  0  0  0
   -2.7287   -1.6016    0.1082 N   0  0  0  0  0  0  0  0  0  0  0  0
   -3.7953   -2.5754    0.3995 C   0  0  0  0  0  0  0  0  0  0  0  0
   -3.0519   -3.7609    0.9693 C   0  0  0  0  0  0  0  0  0  0  0  0
   -1.7778   -3.7081    0.3241 O   0  0  0  0  0  0  0  0  0  0  0  0
   -1.4351   -2.3084    0.2479 C   0  0  0  0  0  0  0  0  0  0  0  0
   -0.5605   -1.9425    1.4705 C   0  0  0  0  0  0  0  0  0  0  0  0
    0.3081   -0.7990    1.2482 N   0  0  0  0  0  0  0  0  0  0  0  0
    1.6102   -0.7607    1.6900 C   0  0  0  0  0  0  0  0  0  0  0  0
    2.2097   -1.6794    2.2321 O   0  0  0  0  0  0  0  0  0  0  0  0
    2.3270    0.5876    1.4405 C   0  0  0  0  0  0  0  0  0  0  0  0
    1.7442    1.5051    0.8822 O   0  0  0  0  0  0  0  0  0  0  0  0
    3.6254    0.6052    1.8899 N   0  0  0  0  0  0  0  0  0  0  0  0
    4.5345    1.6815    1.5898 C   0  0  0  0  0  0  0  0  0  0  0  0
    5.3480    1.3745    0.3564 C   0  0  0  0  0  0  0  0  0  0  0  0
    4.8373    1.7373   -0.9026 C   0  0  0  0  0  0  0  0  0  0  0  0
    5.5480    1.4535   -2.0675 C   0  0  0  0  0  0  0  0  0  0  0  0
    6.7735    0.8002   -1.9874 C   0  0  0  0  0  0  0  0  0  0  0  0
    7.2882    0.4237   -0.7439 C   0  0  0  0  0  0  0  0  0  0  0  0
    6.5800    0.6981    0.4327 C   0  0  0  0  0  0  0  0  0  0  0  0
    6.9958    0.3489    1.6916 O   0  0  0  0  0  0  0  0  0  0  0  0
    8.2315   -0.3465    1.8016 C   0  0  0  0  0  0  0  0  0  0  0  0
   -4.2211    0.7853   -1.5685 C   0  0  0  0  0  0  0  0  0  0  0  0
   -5.3431    1.2231   -2.2788 C   0  0  0  0  0  0  0  0  0  0  0  0
   -7.4015    1.3535   -4.2028 H   0  0  0  0  0  0  0  0  0  0  0  0
   -6.9853    3.0429   -3.7149 H   0  0  0  0  0  0  0  0  0  0  0  0
   -8.6725    2.5348   -3.8646 H   0  0  0  0  0  0  0  0  0  0  0  0
   -7.5931    1.3203    0.2688 H   0  0  0  0  0  0  0  0  0  0  0  0
   -5.6157    0.5583    1.5431 H   0  0  0  0  0  0  0  0  0  0  0  0
   -4.2763   -2.8386   -0.5484 H   0  0  0  0  0  0  0  0  0  0  0  0
   -4.5632   -2.2184    1.0894 H   0  0  0  0  0  0  0  0  0  0  0  0
   -2.9070   -3.6689    2.0515 H   0  0  0  0  0  0  0  0  0  0  0  0
   -3.5446   -4.7139    0.7570 H   0  0  0  0  0  0  0  0  0  0  0  0
   -0.8577   -2.1750   -0.6735 H   0  0  0  0  0  0  0  0  0  0  0  0
    0.0634   -2.8062    1.7308 H   0  0  0  0  0  0  0  0  0  0  0  0
   -1.1674   -1.7323    2.3575 H   0  0  0  0  0  0  0  0  0  0  0  0
   -0.0809    0.0786    0.8862 H   0  0  0  0  0  0  0  0  0  0  0  0
    4.0050   -0.2766    2.2213 H   0  0  0  0  0  0  0  0  0  0  0  0
    3.9760    2.6147    1.4498 H   0  0  0  0  0  0  0  0  0  0  0  0
    5.1769    1.8305    2.4645 H   0  0  0  0  0  0  0  0  0  0  0  0
    3.8730    2.2387   -0.9753 H   0  0  0  0  0  0  0  0  0  0  0  0
    5.1426    1.7381   -3.0349 H   0  0  0  0  0  0  0  0  0  0  0  0
    7.3297    0.5766   -2.8942 H   0  0  0  0  0  0  0  0  0  0  0  0
    8.2438   -0.0891   -0.7310 H   0  0  0  0  0  0  0  0  0  0  0  0
    8.4004   -0.5659    2.8603 H   0  0  0  0  0  0  0  0  0  0  0  0
    8.1971   -1.3013    1.2677 H   0  0  0  0  0  0  0  0  0  0  0  0
    9.0633    0.2735    1.4535 H   0  0  0  0  0  0  0  0  0  0  0  0
   -3.2747    0.6419   -2.0866 H   0  0  0  0  0  0  0  0  0  0  0  0
   -5.2346    1.4034   -3.3434 H   0  0  0  0  0  0  0  0  0  0  0  0
  1  2  1  0
  2  3  1  0
  3  4  2  0
  4  5  1  0
  5  6  2  0
  6  7  1  0
  7  8  2  0
  7  9  2  0
  7 10  1  0
 10 11  1  0
 11 12  1  0
 12 13  1  0
 13 14  1  0
 14 15  1  0
 15 16  1  0
 16 17  1  0
 17 18  2  0
 17 19  1  0
 19 20  2  0
 19 21  1  0
 21 22  1  0
 22 23  1  0
 23 24  2  0
 24 25  1  0
 25 26  2  0
 26 27  1  0
 27 28  2  0
 28 29  1  0
 29 30  1  0
  6 31  1  0
 31 32  2  0
 32  3  1  0
 14 10  1  0
 28 23  1  0
  1 33  1  0
  1 34  1  0
  1 35  1  0
  4 36  1  0
  5 37  1  0
 11 38  1  0
 11 39  1  0
 12 40  1  0
 12 41  1  0
 14 42  1  0
 15 43  1  0
 15 44  1  0
 16 45  1  0
 21 46  1  0
 22 47  1  0
 22 48  1  0
 24 49  1  0
 25 50  1  0
 26 51  1  0
 27 52  1  0
 30 53  1  0
 30 54  1  0
 30 55  1  0
 31 56  1  0
 32 57  1  0
M  END
$$$$
