
     RDKit          3D

 56 58  0  0  0  0  0  0  0  0999 V2000
    7.2946    3.0395    1.1204 C   0  0  0  0  0  0  0  0  0  0  0  0
    7.2386    1.7077    1.6148 O   0  0  0  0  0  0  0  0  0  0  0  0
    6.6868    0.7659    0.7898 C   0  0  0  0  0  0  0  0  0  0  0  0
    6.1468    0.9961   -0.4745 C   0  0  0  0  0  0  0  0  0  0  0  0
    5.6073   -0.0633   -1.2123 C   0  0  0  0  0  0  0  0  0  0  0  0
    5.6071   -1.3674   -0.7004 C   0  0  0  0  0  0  0  0  0  0  0  0
    4.9964   -2.4954   -1.4898 C   0  0  0  0  0  0  0  0  0  0  0  0
    3.5892   -2.6121   -1.2125 N   0  0  0  0  0  0  0  0  0  0  0  0
    2.6349   -1.9805   -1.9736 C   0  0  0  0  0  0  0  0  0  0  0  0
    2.8186   -1.3856   -3.0271 O   0  0  0  0  0  0  0  0  0  0  0  0
    1.2167   -2.0587   -1.3638 C   0  0  0  0  0  0  0  0  0  0  0  0
    1.0437   -2.5836   -0.2731 O   0  0  0  0  0  0  0  0  0  0  0  0
    0.2430   -1.4763   -2.1413 N   0  0  0  0  0  0  0  0  0  0  0  0
   -1.1120   -1.2861   -1.6479 C   0  0  0  0  0  0  0  0  0  0  0  0
   -1.2133   -0.2055   -0.5378 C   0  0  0  0  0  0  0  0  0  0  0  0
   -0.6251    1.0216   -1.0319 O   0  0  0  0  0  0  0  0  0  0  0  0
   -1.6991    1.7683   -1.6067 C   0  0  0  0  0  0  0  0  0  0  0  0
   -2.8783    1.4895   -0.7025 C   0  0  0  0  0  0  0  0  0  0  0  0
   -2.5810    0.1710   -0.1234 N   0  0  0  0  0  0  0  0  0  0  0  0
   -3.7709   -1.0051   -0.1239 S   0  0  0  0  0  6  0  0  0  0  0  0
   -3.2733   -2.1543    0.5968 O   0  0  0  0  0  0  0  0  0  0  0  0
   -4.2502   -1.1235   -1.4852 O   0  0  0  0  0  0  0  0  0  0  0  0
   -5.0457   -0.2673    0.8642 C   0  0  0  0  0  0  0  0  0  0  0  0
   -4.8255   -0.0960    2.2335 C   0  0  0  0  0  0  0  0  0  0  0  0
   -5.8248    0.4732    3.0234 C   0  0  0  0  0  0  0  0  0  0  0  0
   -7.0481    0.8552    2.4547 C   0  0  0  0  0  0  0  0  0  0  0  0
   -8.1095    1.4900    3.3057 C   0  0  0  0  0  0  0  0  0  0  0  0
   -7.2515    0.6822    1.0777 C   0  0  0  0  0  0  0  0  0  0  0  0
   -6.2557    0.1147    0.2812 C   0  0  0  0  0  0  0  0  0  0  0  0
    6.1417   -1.5910    0.5734 C   0  0  0  0  0  0  0  0  0  0  0  0
    6.6790   -0.5310    1.3077 C   0  0  0  0  0  0  0  0  0  0  0  0
    7.9112    3.1005    0.2176 H   0  0  0  0  0  0  0  0  0  0  0  0
    7.7661    3.6610    1.8881 H   0  0  0  0  0  0  0  0  0  0  0  0
    6.2903    3.4366    0.9416 H   0  0  0  0  0  0  0  0  0  0  0  0
    6.1219    1.9862   -0.9156 H   0  0  0  0  0  0  0  0  0  0  0  0
    5.1770    0.1360   -2.1926 H   0  0  0  0  0  0  0  0  0  0  0  0
    5.4670   -3.4483   -1.2210 H   0  0  0  0  0  0  0  0  0  0  0  0
    5.1604   -2.3430   -2.5627 H   0  0  0  0  0  0  0  0  0  0  0  0
    3.2852   -2.9392   -0.3003 H   0  0  0  0  0  0  0  0  0  0  0  0
    0.5756   -0.9245   -2.9286 H   0  0  0  0  0  0  0  0  0  0  0  0
   -1.7106   -1.0081   -2.5213 H   0  0  0  0  0  0  0  0  0  0  0  0
   -1.4655   -2.2544   -1.2814 H   0  0  0  0  0  0  0  0  0  0  0  0
   -0.6367   -0.5051    0.3432 H   0  0  0  0  0  0  0  0  0  0  0  0
   -1.4397    2.8298   -1.6489 H   0  0  0  0  0  0  0  0  0  0  0  0
   -1.8757    1.4094   -2.6266 H   0  0  0  0  0  0  0  0  0  0  0  0
   -3.8206    1.5397   -1.2540 H   0  0  0  0  0  0  0  0  0  0  0  0
   -2.9175    2.2166    0.1160 H   0  0  0  0  0  0  0  0  0  0  0  0
   -3.8837   -0.4015    2.6848 H   0  0  0  0  0  0  0  0  0  0  0  0
   -5.6457    0.6140    4.0880 H   0  0  0  0  0  0  0  0  0  0  0  0
   -7.9372    2.5685    3.3771 H   0  0  0  0  0  0  0  0  0  0  0  0
   -8.1064    1.0619    4.3139 H   0  0  0  0  0  0  0  0  0  0  0  0
   -9.1048    1.3183    2.8843 H   0  0  0  0  0  0  0  0  0  0  0  0
   -8.1927    0.9824    0.6204 H   0  0  0  0  0  0  0  0  0  0  0  0
   -6.4338   -0.0249   -0.7839 H   0  0  0  0  0  0  0  0  0  0  0  0
    6.1428   -2.5880    1.0059 H   0  0  0  0  0  0  0  0  0  0  0  0
    7.0928   -0.7160    2.2958 H   0  0  0  0  0  0  0  0  0  0  0  0
  1  2  1  0
  2  3  1  0
  3  4  2  0
  4  5  1  0
  5  6  2  0
  6  7  1  0
  7  8  1  0
  8  9  1  0
  9 10  2  0
  9 11  1  0
 11 12  2  0
 11 13  1  0
 13 14  1  0
 14 15  1  0
 15 16  1  0
 16 17  1  0
 17 18  1  0
 18 19  1  0
 19 20  1  0
 20 21  2  0
 20 22  2  0
 20 23  1  0
 23 24  2  0
 24 25  1  0
 25 26  2  0
 26 27  1  0
 26 28  1  0
 28 29  2  0
  6 30  1  0
 30 31  2  0
 31  3  1  0
 19 15  1  0
 29 23  1  0
  1 32  1  0
  1 33  1  0
  1 34  1  0
  4 35  1  0
  5 36  1  0
  7 37  1  0
  7 38  1  0
  8 39  1  0
 13 40  1  0
 14 41  1  0
 14 42  1  0
 15 43  1  0
 17 44  1  0
 17 45  1  0
 18 46  1  0
 18 47  1  0
 24 48  1  0
 25 49  1  0
 27 50  1  0
 27 51  1  0
 27 52  1  0
 28 53  1  0
 29 54  1  0
 30 55  1  0
 31 56  1  0
M  END
$$$$
