
     RDKit          3D

 39 41  0  0  0  0  0  0  0  0999 V2000
   -3.3950   -2.7785    0.4384 C   0  0  0  0  0  0  0  0  0  0  0  0
   -3.8453   -1.3438    0.1981 C   0  0  0  0  0  0  0  0  0  0  0  0
   -2.7466   -0.3959    0.3643 N   0  0  0  0  0  0  0  0  0  0  0  0
   -2.5169    0.0919    1.6420 C   0  0  0  0  0  0  0  0  0  0  0  0
   -3.1772   -0.2299    2.6278 O   0  0  0  0  0  0  0  0  0  0  0  0
   -1.4080    1.0433    1.7986 C   0  0  0  0  0  0  0  0  0  0  0  0
   -1.1666    1.6108    3.0607 C   0  0  0  0  0  0  0  0  0  0  0  0
   -0.1247    2.5159    3.2318 C   0  0  0  0  0  0  0  0  0  0  0  0
    0.6717    2.8520    2.1440 C   0  0  0  0  0  0  0  0  0  0  0  0
    0.4274    2.2826    0.8883 C   0  0  0  0  0  0  0  0  0  0  0  0
   -0.6180    1.3648    0.6957 C   0  0  0  0  0  0  0  0  0  0  0  0
   -0.8909    0.7571   -0.5630 N   0  0  0  0  0  0  0  0  0  0  0  0
   -0.0487    1.0368   -1.7314 C   0  0  0  0  0  0  0  0  0  0  0  0
    1.2816    0.3045   -1.7203 C   0  0  0  0  0  0  0  0  0  0  0  0
    2.4736    1.0047   -1.9702 C   0  0  0  0  0  0  0  0  0  0  0  0
    3.7036    0.3409   -1.9809 C   0  0  0  0  0  0  0  0  0  0  0  0
    3.7453   -1.0399   -1.7534 C   0  0  0  0  0  0  0  0  0  0  0  0
    5.0352   -1.7406   -1.7629 N   0  0  0  0  0  4  0  0  0  0  0  0
    5.0297   -2.9643   -1.5674 O   0  0  0  0  0  0  0  0  0  0  0  0
    6.0555   -1.0660   -1.9644 O   0  0  0  0  0  1  0  0  0  0  0  0
    2.5663   -1.7574   -1.5241 C   0  0  0  0  0  0  0  0  0  0  0  0
    1.3417   -1.0842   -1.5151 C   0  0  0  0  0  0  0  0  0  0  0  0
   -1.9417   -0.1404   -0.7378 C   0  0  0  0  0  0  0  0  0  0  0  0
   -2.1419   -0.6962   -1.8212 O   0  0  0  0  0  0  0  0  0  0  0  0
   -3.0036   -2.9047    1.4530 H   0  0  0  0  0  0  0  0  0  0  0  0
   -4.2356   -3.4669    0.3082 H   0  0  0  0  0  0  0  0  0  0  0  0
   -2.6046   -3.0675   -0.2618 H   0  0  0  0  0  0  0  0  0  0  0  0
   -4.2591   -1.2551   -0.8128 H   0  0  0  0  0  0  0  0  0  0  0  0
   -4.6537   -1.0950    0.8952 H   0  0  0  0  0  0  0  0  0  0  0  0
   -1.7923    1.3462    3.9114 H   0  0  0  0  0  0  0  0  0  0  0  0
    0.0635    2.9551    4.2084 H   0  0  0  0  0  0  0  0  0  0  0  0
    1.4893    3.5588    2.2691 H   0  0  0  0  0  0  0  0  0  0  0  0
    1.0846    2.5854    0.0808 H   0  0  0  0  0  0  0  0  0  0  0  0
    0.0914    2.1217   -1.8089 H   0  0  0  0  0  0  0  0  0  0  0  0
   -0.5663    0.7580   -2.6575 H   0  0  0  0  0  0  0  0  0  0  0  0
    2.4547    2.0765   -2.1603 H   0  0  0  0  0  0  0  0  0  0  0  0
    4.6118    0.9095   -2.1711 H   0  0  0  0  0  0  0  0  0  0  0  0
    2.5799   -2.8327   -1.3573 H   0  0  0  0  0  0  0  0  0  0  0  0
    0.4299   -1.6576   -1.3536 H   0  0  0  0  0  0  0  0  0  0  0  0
  1  2  1  0
  2  3  1  0
  3  4  1  0
  4  5  2  0
  4  6  1  0
  6  7  2  0
  7  8  1  0
  8  9  2  0
  9 10  1  0
 10 11  2  0
 11 12  1  0
 12 13  1  0
 13 14  1  0
 14 15  2  0
 15 16  1  0
 16 17  2  0
 17 18  1  0
 18 19  2  0
 18 20  1  0
 17 21  1  0
 21 22  2  0
 12 23  1  0
 23 24  2  0
 23  3  1  0
 11  6  1  0
 22 14  1  0
  1 25  1  0
  1 26  1  0
  1 27  1  0
  2 28  1  0
  2 29  1  0
  7 30  1  0
  8 31  1  0
  9 32  1  0
 10 33  1  0
 13 34  1  0
 13 35  1  0
 15 36  1  0
 16 37  1  0
 21 38  1  0
 22 39  1  0
M  CHG  2  18   1  20  -1
M  END
$$$$
