
     RDKit          3D

 41 43  0  0  0  0  0  0  0  0999 V2000
   -3.2480   -1.1034    1.3020 C   0  0  0  0  0  0  0  0  0  0  0  0
   -3.0706    0.0368    0.4393 N   0  0  0  0  0  0  0  0  0  0  0  0
   -1.8879    0.6150    0.0690 C   0  0  0  0  0  0  0  0  0  0  0  0
   -0.3319   -0.0242    0.4603 S   0  0  0  0  0  0  0  0  0  0  0  0
    0.7178    1.3674   -0.0537 C   0  0  0  0  0  0  0  0  0  0  0  0
    2.1722    0.9995    0.1683 C   0  0  0  0  0  0  0  0  0  0  0  0
    2.7769    1.3213    1.1894 O   0  0  0  0  0  0  0  0  0  0  0  0
    2.7120    0.2762   -0.8970 N   0  0  0  0  0  0  0  0  0  0  0  0
    3.9493   -0.3218   -0.8840 N   0  0  0  0  0  0  0  0  0  0  0  0
    4.9271    0.2944   -0.2960 C   0  0  0  0  0  0  0  0  0  0  0  0
    6.2489   -0.2869   -0.1917 C   0  0  0  0  0  0  0  0  0  0  0  0
    7.3572    0.2658    0.4246 C   0  0  0  0  0  0  0  0  0  0  0  0
    8.5031   -0.5831    0.3455 C   0  0  0  0  0  0  0  0  0  0  0  0
    8.2180   -1.7494   -0.3310 C   0  0  0  0  0  0  0  0  0  0  0  0
    9.1308   -2.8310   -0.5968 N   0  0  0  0  0  4  0  0  0  0  0  0
    8.7277   -3.7945   -1.2607 O   0  0  0  0  0  0  0  0  0  0  0  0
   10.2734   -2.7084   -0.1332 O   0  0  0  0  0  1  0  0  0  0  0  0
    6.6067   -1.8246   -0.8594 S   0  0  0  0  0  0  0  0  0  0  0  0
   -2.1201    1.6994   -0.6283 N   0  0  0  0  0  0  0  0  0  0  0  0
   -3.4811    1.8346   -0.7390 N   0  0  0  0  0  0  0  0  0  0  0  0
   -4.0593    0.8116   -0.1328 C   0  0  0  0  0  0  0  0  0  0  0  0
   -5.5011    0.5846   -0.0620 C   0  0  0  0  0  0  0  0  0  0  0  0
   -6.3482    1.6493    0.2777 C   0  0  0  0  0  0  0  0  0  0  0  0
   -7.7322    1.4656    0.3466 C   0  0  0  0  0  0  0  0  0  0  0  0
   -8.2777    0.2159    0.0637 C   0  0  0  0  0  0  0  0  0  0  0  0
   -9.9800   -0.0145    0.1490 Cl  0  0  0  0  0  0  0  0  0  0  0  0
   -7.4522   -0.8476   -0.2958 C   0  0  0  0  0  0  0  0  0  0  0  0
   -6.0676   -0.6624   -0.3639 C   0  0  0  0  0  0  0  0  0  0  0  0
   -2.4860   -1.0969    2.0851 H   0  0  0  0  0  0  0  0  0  0  0  0
   -3.1654   -2.0087    0.6959 H   0  0  0  0  0  0  0  0  0  0  0  0
   -4.2258   -1.0575    1.7865 H   0  0  0  0  0  0  0  0  0  0  0  0
    0.5585    1.6043   -1.1110 H   0  0  0  0  0  0  0  0  0  0  0  0
    0.4880    2.2602    0.5371 H   0  0  0  0  0  0  0  0  0  0  0  0
    2.0510   -0.2006   -1.5068 H   0  0  0  0  0  0  0  0  0  0  0  0
    4.8192    1.3063    0.1304 H   0  0  0  0  0  0  0  0  0  0  0  0
    7.3487    1.2329    0.9157 H   0  0  0  0  0  0  0  0  0  0  0  0
    9.4750   -0.3460    0.7643 H   0  0  0  0  0  0  0  0  0  0  0  0
   -5.9297    2.6330    0.4874 H   0  0  0  0  0  0  0  0  0  0  0  0
   -8.3737    2.3012    0.6143 H   0  0  0  0  0  0  0  0  0  0  0  0
   -7.8800   -1.8181   -0.5340 H   0  0  0  0  0  0  0  0  0  0  0  0
   -5.4431   -1.4958   -0.6769 H   0  0  0  0  0  0  0  0  0  0  0  0
  1  2  1  0
  2  3  1  0
  3  4  1  0
  4  5  1  0
  5  6  1  0
  6  7  2  0
  6  8  1  0
  8  9  1  0
  9 10  2  3
 10 11  1  0
 11 12  2  0
 12 13  1  0
 13 14  2  0
 14 15  1  0
 15 16  2  0
 15 17  1  0
 14 18  1  0
  3 19  2  0
 19 20  1  0
 20 21  2  0
 21 22  1  0
 22 23  2  0
 23 24  1  0
 24 25  2  0
 25 26  1  0
 25 27  1  0
 27 28  2  0
 21  2  1  0
 28 22  1  0
 18 11  1  0
  1 29  1  0
  1 30  1  0
  1 31  1  0
  5 32  1  0
  5 33  1  0
  8 34  1  0
 10 35  1  0
 12 36  1  0
 13 37  1  0
 23 38  1  0
 24 39  1  0
 27 40  1  0
 28 41  1  0
M  CHG  2  15   1  17  -1
M  END
$$$$
