
     RDKit          3D

 36 37  0  0  0  0  0  0  0  0999 V2000
    1.1989    2.9467   -0.5195 O   0  0  0  0  0  0  0  0  0  0  0  0
    0.8871    2.3917    0.5292 C   0  0  0  0  0  0  0  0  0  0  0  0
   -0.3077    2.8382    1.3744 C   0  0  0  0  0  0  0  0  0  0  0  0
   -1.5233    2.1727    1.0266 O   0  0  0  0  0  0  0  0  0  0  0  0
   -1.6214    0.8861    1.4362 C   0  0  0  0  0  0  0  0  0  0  0  0
   -0.7619    0.2661    2.0458 O   0  0  0  0  0  0  0  0  0  0  0  0
   -2.9320    0.3039    1.0399 C   0  0  0  0  0  0  0  0  0  0  0  0
   -3.2534   -0.9806    1.5026 C   0  0  0  0  0  0  0  0  0  0  0  0
   -4.4703   -1.5726    1.1532 C   0  0  0  0  0  0  0  0  0  0  0  0
   -5.3662   -0.8817    0.3390 C   0  0  0  0  0  0  0  0  0  0  0  0
   -7.0114   -1.6821   -0.1345 Br  0  0  0  0  0  0  0  0  0  0  0  0
   -5.0576    0.3947   -0.1291 C   0  0  0  0  0  0  0  0  0  0  0  0
   -3.8409    0.9888    0.2205 C   0  0  0  0  0  0  0  0  0  0  0  0
    1.5612    1.3020    1.0374 N   0  0  0  0  0  0  0  0  0  0  0  0
    2.6598    0.6789    0.3237 C   0  0  0  0  0  0  0  0  0  0  0  0
    2.1969   -0.1005   -0.9153 C   0  0  0  0  0  0  0  0  0  0  0  0
    3.2009   -1.0417   -1.3795 N   0  0  0  0  0  0  0  0  0  0  0  0
    3.4155   -2.2992   -0.8631 C   0  0  0  0  0  0  0  0  0  0  0  0
    2.5907   -2.8414    0.0762 O   0  0  0  0  0  0  0  0  0  0  0  0
    4.4905   -2.9270   -1.3472 C   0  0  0  0  0  0  0  0  0  0  0  0
    5.3250   -1.9536   -2.5136 S   0  0  0  0  0  0  0  0  0  0  0  0
    4.1712   -0.6265   -2.2885 C   0  0  0  0  0  0  0  0  0  0  0  0
    4.2691    0.4533   -2.8457 O   0  0  0  0  0  0  0  0  0  0  0  0
   -0.0906    2.7168    2.4428 H   0  0  0  0  0  0  0  0  0  0  0  0
   -0.4549    3.9106    1.2069 H   0  0  0  0  0  0  0  0  0  0  0  0
   -2.5606   -1.5263    2.1407 H   0  0  0  0  0  0  0  0  0  0  0  0
   -4.7085   -2.5679    1.5207 H   0  0  0  0  0  0  0  0  0  0  0  0
   -5.7544    0.9350   -0.7658 H   0  0  0  0  0  0  0  0  0  0  0  0
   -3.6167    1.9838   -0.1581 H   0  0  0  0  0  0  0  0  0  0  0  0
    1.0639    0.7460    1.7350 H   0  0  0  0  0  0  0  0  0  0  0  0
    3.1545    0.0152    1.0408 H   0  0  0  0  0  0  0  0  0  0  0  0
    3.3789    1.4535    0.0339 H   0  0  0  0  0  0  0  0  0  0  0  0
    1.9738    0.6057   -1.7245 H   0  0  0  0  0  0  0  0  0  0  0  0
    1.2611   -0.6350   -0.7185 H   0  0  0  0  0  0  0  0  0  0  0  0
    1.7150   -2.4385   -0.0196 H   0  0  0  0  0  0  0  0  0  0  0  0
    4.8179   -3.9153   -1.0575 H   0  0  0  0  0  0  0  0  0  0  0  0
  1  2  2  0
  2  3  1  0
  3  4  1  0
  4  5  1  0
  5  6  2  0
  5  7  1  0
  7  8  2  0
  8  9  1  0
  9 10  2  0
 10 11  1  0
 10 12  1  0
 12 13  2  0
  2 14  1  0
 14 15  1  0
 15 16  1  0
 16 17  1  0
 17 18  1  0
 18 19  1  0
 18 20  2  0
 20 21  1  0
 21 22  1  0
 22 23  2  0
 13  7  1  0
 22 17  1  0
  3 24  1  0
  3 25  1  0
  8 26  1  0
  9 27  1  0
 12 28  1  0
 13 29  1  0
 14 30  1  0
 15 31  1  0
 15 32  1  0
 16 33  1  0
 16 34  1  0
 19 35  1  0
 20 36  1  0
M  END
$$$$
