
     RDKit          3D

 51 53  0  0  0  0  0  0  0  0999 V2000
    9.0470    0.0488   -0.9550 C   0  0  0  0  0  0  0  0  0  0  0  0
    8.4200   -0.6349   -2.0323 O   0  0  0  0  0  0  0  0  0  0  0  0
    7.0538   -0.7083   -2.0115 C   0  0  0  0  0  0  0  0  0  0  0  0
    6.4958   -1.4477   -3.0546 C   0  0  0  0  0  0  0  0  0  0  0  0
    5.1142   -1.6027   -3.1502 C   0  0  0  0  0  0  0  0  0  0  0  0
    4.2767   -1.0147   -2.2006 C   0  0  0  0  0  0  0  0  0  0  0  0
    4.8186   -0.2685   -1.1533 C   0  0  0  0  0  0  0  0  0  0  0  0
    4.0417    0.3565   -0.1627 N   0  0  0  0  0  0  0  0  0  0  0  0
    2.6695    0.3514   -0.0270 C   0  0  0  0  0  0  0  0  0  0  0  0
    1.8215   -0.1935   -0.7203 O   0  0  0  0  0  0  0  0  0  0  0  0
    2.2127    1.1659    1.1964 C   0  0  0  0  0  0  0  0  0  0  0  0
    3.0560    1.7298    1.8825 O   0  0  0  0  0  0  0  0  0  0  0  0
    0.8426    1.1421    1.3590 N   0  0  0  0  0  0  0  0  0  0  0  0
    0.2445    1.8815    2.3323 N   0  0  0  0  0  0  0  0  0  0  0  0
   -1.0404    1.7936    2.5068 C   0  0  0  0  0  0  0  0  0  0  0  0
   -1.9484    0.8627    1.8543 C   0  0  0  0  0  0  0  0  0  0  0  0
   -1.7368   -0.4973    1.5268 C   0  0  0  0  0  0  0  0  0  0  0  0
   -2.8866   -0.9961    0.9490 C   0  0  0  0  0  0  0  0  0  0  0  0
   -3.1368   -2.4079    0.5352 C   0  0  0  0  0  0  0  0  0  0  0  0
   -3.8313    0.0246    0.9164 N   0  0  0  0  0  0  0  0  0  0  0  0
   -5.1625   -0.0864    0.4168 C   0  0  0  0  0  0  0  0  0  0  0  0
   -5.4034   -0.7217   -0.8066 C   0  0  0  0  0  0  0  0  0  0  0  0
   -6.7095   -0.8314   -1.2923 C   0  0  0  0  0  0  0  0  0  0  0  0
   -7.7805   -0.3114   -0.5603 C   0  0  0  0  0  0  0  0  0  0  0  0
   -9.3668   -0.4851   -1.2218 Cl  0  0  0  0  0  0  0  0  0  0  0  0
   -7.5421    0.3225    0.6638 C   0  0  0  0  0  0  0  0  0  0  0  0
   -8.8160    0.9800    1.6291 Cl  0  0  0  0  0  0  0  0  0  0  0  0
   -6.2348    0.4355    1.1514 C   0  0  0  0  0  0  0  0  0  0  0  0
   -3.2524    1.1661    1.4752 C   0  0  0  0  0  0  0  0  0  0  0  0
   -3.9288    2.5004    1.5334 C   0  0  0  0  0  0  0  0  0  0  0  0
    6.2119   -0.1188   -1.0647 C   0  0  0  0  0  0  0  0  0  0  0  0
    8.8160   -0.4271    0.0038 H   0  0  0  0  0  0  0  0  0  0  0  0
   10.1292   -0.0125   -1.1047 H   0  0  0  0  0  0  0  0  0  0  0  0
    8.7712    1.1083   -0.9482 H   0  0  0  0  0  0  0  0  0  0  0  0
    7.1433   -1.9080   -3.7971 H   0  0  0  0  0  0  0  0  0  0  0  0
    4.6876   -2.1822   -3.9649 H   0  0  0  0  0  0  0  0  0  0  0  0
    3.2061   -1.1567   -2.3093 H   0  0  0  0  0  0  0  0  0  0  0  0
    4.5264    0.8897    0.5577 H   0  0  0  0  0  0  0  0  0  0  0  0
    0.2872    0.6805    0.6400 H   0  0  0  0  0  0  0  0  0  0  0  0
   -1.4978    2.4918    3.2282 H   0  0  0  0  0  0  0  0  0  0  0  0
   -0.8450   -1.0800    1.7290 H   0  0  0  0  0  0  0  0  0  0  0  0
   -4.1399   -2.7427    0.8160 H   0  0  0  0  0  0  0  0  0  0  0  0
   -3.0026   -2.5252   -0.5440 H   0  0  0  0  0  0  0  0  0  0  0  0
   -2.4263   -3.0811    1.0280 H   0  0  0  0  0  0  0  0  0  0  0  0
   -4.5877   -1.1003   -1.4179 H   0  0  0  0  0  0  0  0  0  0  0  0
   -6.8841   -1.3181   -2.2493 H   0  0  0  0  0  0  0  0  0  0  0  0
   -6.0731    0.8923    2.1242 H   0  0  0  0  0  0  0  0  0  0  0  0
   -3.1916    3.3105    1.5257 H   0  0  0  0  0  0  0  0  0  0  0  0
   -4.5126    2.5935    2.4542 H   0  0  0  0  0  0  0  0  0  0  0  0
   -4.5805    2.6677    0.6707 H   0  0  0  0  0  0  0  0  0  0  0  0
    6.6250    0.4645   -0.2489 H   0  0  0  0  0  0  0  0  0  0  0  0
  1  2  1  0
  2  3  1  0
  3  4  2  0
  4  5  1  0
  5  6  2  0
  6  7  1  0
  7  8  1  0
  8  9  1  0
  9 10  2  0
  9 11  1  0
 11 12  2  0
 11 13  1  0
 13 14  1  0
 14 15  2  3
 15 16  1  0
 16 17  1  0
 17 18  2  0
 18 19  1  0
 18 20  1  0
 20 21  1  0
 21 22  2  0
 22 23  1  0
 23 24  2  0
 24 25  1  0
 24 26  1  0
 26 27  1  0
 26 28  2  0
 20 29  1  0
 29 30  1  0
  7 31  2  0
 31  3  1  0
 29 16  2  0
 28 21  1  0
  1 32  1  0
  1 33  1  0
  1 34  1  0
  4 35  1  0
  5 36  1  0
  6 37  1  0
  8 38  1  0
 13 39  1  0
 15 40  1  0
 17 41  1  0
 19 42  1  0
 19 43  1  0
 19 44  1  0
 22 45  1  0
 23 46  1  0
 28 47  1  0
 30 48  1  0
 30 49  1  0
 30 50  1  0
 31 51  1  0
M  END
$$$$
