
     RDKit          3D

 48 50  0  0  0  0  0  0  0  0999 V2000
   -3.6140   -2.9766    0.7569 C   0  0  0  0  0  0  0  0  0  0  0  0
   -3.0893   -2.2921   -0.3722 O   0  0  0  0  0  0  0  0  0  0  0  0
   -2.5438   -1.0512   -0.1703 C   0  0  0  0  0  0  0  0  0  0  0  0
   -2.3596   -0.4518    1.0796 C   0  0  0  0  0  0  0  0  0  0  0  0
   -1.7634    0.8157    1.1860 C   0  0  0  0  0  0  0  0  0  0  0  0
   -1.5644    1.3880    2.5249 C   0  0  0  0  0  0  0  0  0  0  0  0
   -0.4255    1.8898    3.0478 C   0  0  0  0  0  0  0  0  0  0  0  0
   -0.4514    2.4537    4.3573 C   0  0  0  0  0  0  0  0  0  0  0  0
   -0.5255    2.8668    5.4394 N   0  0  0  0  0  0  0  0  0  0  0  0
    0.8868    1.9632    2.3308 C   0  0  0  0  0  0  0  0  0  0  0  0
    1.5059    3.0207    2.3365 O   0  0  0  0  0  0  0  0  0  0  0  0
    1.2696    0.7854    1.7162 N   0  0  0  0  0  0  0  0  0  0  0  0
    2.4469    0.5473    0.9558 C   0  0  0  0  0  0  0  0  0  0  0  0
    3.5240    1.4393    0.9888 C   0  0  0  0  0  0  0  0  0  0  0  0
    4.6798    1.1795    0.2609 C   0  0  0  0  0  0  0  0  0  0  0  0
    4.7676    0.0243   -0.5092 C   0  0  0  0  0  0  0  0  0  0  0  0
    3.7260   -0.8838   -0.5808 C   0  0  0  0  0  0  0  0  0  0  0  0
    3.9026   -1.9604   -1.3660 N   0  0  0  0  0  0  0  0  0  0  0  0
    2.8927   -2.8452   -1.4792 C   0  0  0  0  0  0  0  0  0  0  0  0
    1.6880   -2.7100   -0.8276 C   0  0  0  0  0  0  0  0  0  0  0  0
    1.5151   -1.6018   -0.0046 C   0  0  0  0  0  0  0  0  0  0  0  0
    2.5402   -0.6367    0.1536 C   0  0  0  0  0  0  0  0  0  0  0  0
   -1.3805    1.5026    0.0277 C   0  0  0  0  0  0  0  0  0  0  0  0
   -1.5292    0.9009   -1.2228 C   0  0  0  0  0  0  0  0  0  0  0  0
   -1.1584    1.5356   -2.3801 O   0  0  0  0  0  0  0  0  0  0  0  0
    0.1919    2.0004   -2.3533 C   0  0  0  0  0  0  0  0  0  0  0  0
   -2.1326   -0.3595   -1.3207 C   0  0  0  0  0  0  0  0  0  0  0  0
   -2.2412   -0.9655   -2.5507 O   0  0  0  0  0  0  0  0  0  0  0  0
   -3.4763   -0.5982   -3.1639 C   0  0  0  0  0  0  0  0  0  0  0  0
   -4.0553   -3.9139    0.4044 H   0  0  0  0  0  0  0  0  0  0  0  0
   -4.4069   -2.3957    1.2394 H   0  0  0  0  0  0  0  0  0  0  0  0
   -2.8195   -3.2287    1.4667 H   0  0  0  0  0  0  0  0  0  0  0  0
   -2.6622   -0.9636    1.9888 H   0  0  0  0  0  0  0  0  0  0  0  0
   -2.4693    1.3904    3.1359 H   0  0  0  0  0  0  0  0  0  0  0  0
    0.6158    0.0184    1.7623 H   0  0  0  0  0  0  0  0  0  0  0  0
    3.5102    2.3407    1.5940 H   0  0  0  0  0  0  0  0  0  0  0  0
    5.5159    1.8738    0.2989 H   0  0  0  0  0  0  0  0  0  0  0  0
    5.6761   -0.1718   -1.0751 H   0  0  0  0  0  0  0  0  0  0  0  0
    3.0861   -3.6890   -2.1350 H   0  0  0  0  0  0  0  0  0  0  0  0
    0.8966   -3.4393   -0.9617 H   0  0  0  0  0  0  0  0  0  0  0  0
    0.5540   -1.5032    0.4858 H   0  0  0  0  0  0  0  0  0  0  0  0
   -0.9671    2.5060    0.0953 H   0  0  0  0  0  0  0  0  0  0  0  0
    0.2663    2.9448   -1.8028 H   0  0  0  0  0  0  0  0  0  0  0  0
    0.4980    2.1907   -3.3871 H   0  0  0  0  0  0  0  0  0  0  0  0
    0.8738    1.2507   -1.9324 H   0  0  0  0  0  0  0  0  0  0  0  0
   -4.3314   -0.9287   -2.5640 H   0  0  0  0  0  0  0  0  0  0  0  0
   -3.5310   -1.1015   -4.1339 H   0  0  0  0  0  0  0  0  0  0  0  0
   -3.5319    0.4814   -3.3400 H   0  0  0  0  0  0  0  0  0  0  0  0
  1  2  1  0
  2  3  1  0
  3  4  2  0
  4  5  1  0
  5  6  1  0
  6  7  2  3
  7  8  1  0
  8  9  3  0
  7 10  1  0
 10 11  2  0
 10 12  1  0
 12 13  1  0
 13 14  2  0
 14 15  1  0
 15 16  2  0
 16 17  1  0
 17 18  2  0
 18 19  1  0
 19 20  2  0
 20 21  1  0
 21 22  2  0
  5 23  2  0
 23 24  1  0
 24 25  1  0
 25 26  1  0
 24 27  2  0
 27 28  1  0
 28 29  1  0
 27  3  1  0
 22 13  1  0
 22 17  1  0
  1 30  1  0
  1 31  1  0
  1 32  1  0
  4 33  1  0
  6 34  1  0
 12 35  1  0
 14 36  1  0
 15 37  1  0
 16 38  1  0
 19 39  1  0
 20 40  1  0
 21 41  1  0
 23 42  1  0
 26 43  1  0
 26 44  1  0
 26 45  1  0
 29 46  1  0
 29 47  1  0
 29 48  1  0
M  END
$$$$
