
     RDKit          3D

 45 47  0  0  0  0  0  0  0  0999 V2000
   -7.9567   -1.6471    0.3069 C   0  0  0  0  0  0  0  0  0  0  0  0
   -6.5989   -1.1727    0.8081 C   0  0  0  0  0  0  0  0  0  0  0  0
   -5.8990   -0.6018   -0.3174 O   0  0  0  0  0  0  0  0  0  0  0  0
   -4.5435   -0.7197   -0.1264 C   0  0  0  0  0  0  0  0  0  0  0  0
   -3.9079   -1.8185   -0.7128 C   0  0  0  0  0  0  0  0  0  0  0  0
   -2.5261   -1.9564   -0.5941 C   0  0  0  0  0  0  0  0  0  0  0  0
   -1.7816   -0.9867    0.0942 C   0  0  0  0  0  0  0  0  0  0  0  0
   -0.3265   -1.1345    0.1867 C   0  0  0  0  0  0  0  0  0  0  0  0
    0.5639   -0.4422   -0.5369 C   0  0  0  0  0  0  0  0  0  0  0  0
    0.2489    0.7629   -1.7333 S   0  0  0  0  0  0  0  0  0  0  0  0
    1.9583    1.0055   -2.0890 C   0  0  0  0  0  0  0  0  0  0  0  0
    2.5139    2.0432   -3.2716 S   0  0  0  0  0  0  0  0  0  0  0  0
    2.6950    0.1762   -1.2698 N   0  0  0  0  0  0  0  0  0  0  0  0
    4.1042    0.1865   -1.2426 N   0  0  0  0  0  0  0  0  0  0  0  0
    4.6771    1.0758   -0.3486 C   0  0  0  0  0  0  0  0  0  0  0  0
    4.0392    1.9384    0.2495 O   0  0  0  0  0  0  0  0  0  0  0  0
    6.1334    0.9149   -0.1033 C   0  0  0  0  0  0  0  0  0  0  0  0
    6.9843    0.3457   -1.0527 C   0  0  0  0  0  0  0  0  0  0  0  0
    8.3284    0.2445   -0.7347 C   0  0  0  0  0  0  0  0  0  0  0  0
    8.8561    0.6631    0.4363 N   0  0  0  0  0  0  0  0  0  0  0  0
    8.0119    1.2256    1.3291 C   0  0  0  0  0  0  0  0  0  0  0  0
    6.6557    1.3773    1.1069 C   0  0  0  0  0  0  0  0  0  0  0  0
    2.0268   -0.6735   -0.4066 C   0  0  0  0  0  0  0  0  0  0  0  0
    2.5404   -1.5182    0.3139 O   0  0  0  0  0  0  0  0  0  0  0  0
   -2.4278    0.1190    0.6742 C   0  0  0  0  0  0  0  0  0  0  0  0
   -3.8152    0.2711    0.5542 C   0  0  0  0  0  0  0  0  0  0  0  0
   -4.5375    1.3282    1.0532 O   0  0  0  0  0  0  0  0  0  0  0  0
   -3.7980    2.4317    1.5688 C   0  0  0  0  0  0  0  0  0  0  0  0
   -8.5367   -2.1231    1.1032 H   0  0  0  0  0  0  0  0  0  0  0  0
   -7.8259   -2.3681   -0.5116 H   0  0  0  0  0  0  0  0  0  0  0  0
   -8.5405   -0.8097   -0.1010 H   0  0  0  0  0  0  0  0  0  0  0  0
   -6.0512   -2.0283    1.2322 H   0  0  0  0  0  0  0  0  0  0  0  0
   -6.7323   -0.4042    1.5874 H   0  0  0  0  0  0  0  0  0  0  0  0
   -4.4915   -2.5577   -1.2584 H   0  0  0  0  0  0  0  0  0  0  0  0
   -2.0373   -2.8133   -1.0556 H   0  0  0  0  0  0  0  0  0  0  0  0
    0.0116   -1.8912    0.8918 H   0  0  0  0  0  0  0  0  0  0  0  0
    4.5259   -0.7367   -1.3159 H   0  0  0  0  0  0  0  0  0  0  0  0
    6.6376    0.0164   -2.0262 H   0  0  0  0  0  0  0  0  0  0  0  0
    9.0416   -0.1840   -1.4374 H   0  0  0  0  0  0  0  0  0  0  0  0
    8.4695    1.5658    2.2557 H   0  0  0  0  0  0  0  0  0  0  0  0
    6.0222    1.8395    1.8584 H   0  0  0  0  0  0  0  0  0  0  0  0
   -1.8252    0.8578    1.1970 H   0  0  0  0  0  0  0  0  0  0  0  0
   -3.1166    2.8442    0.8115 H   0  0  0  0  0  0  0  0  0  0  0  0
   -4.5120    3.2125    1.8466 H   0  0  0  0  0  0  0  0  0  0  0  0
   -3.2581    2.1417    2.4792 H   0  0  0  0  0  0  0  0  0  0  0  0
  1  2  1  0
  2  3  1  0
  3  4  1  0
  4  5  2  0
  5  6  1  0
  6  7  2  0
  7  8  1  0
  8  9  2  3
  9 10  1  0
 10 11  1  0
 11 12  2  0
 11 13  1  0
 13 14  1  0
 14 15  1  0
 15 16  2  0
 15 17  1  0
 17 18  2  0
 18 19  1  0
 19 20  2  0
 20 21  1  0
 21 22  2  0
 13 23  1  0
 23 24  2  0
  7 25  1  0
 25 26  2  0
 26 27  1  0
 27 28  1  0
 26  4  1  0
 23  9  1  0
 22 17  1  0
  1 29  1  0
  1 30  1  0
  1 31  1  0
  2 32  1  0
  2 33  1  0
  5 34  1  0
  6 35  1  0
  8 36  1  0
 14 37  1  0
 18 38  1  0
 19 39  1  0
 21 40  1  0
 22 41  1  0
 25 42  1  0
 28 43  1  0
 28 44  1  0
 28 45  1  0
M  END
$$$$
