
     RDKit          3D

 40 41  0  0  0  0  0  0  0  0999 V2000
    6.1707   -0.6949   -5.4192 C   0  0  0  0  0  0  0  0  0  0  0  0
    4.6916   -0.5810   -5.0883 C   0  0  0  0  0  0  0  0  0  0  0  0
    4.4726   -0.1968   -3.6273 C   0  0  0  0  0  0  0  0  0  0  0  0
    2.9975   -0.0759   -3.2710 C   0  0  0  0  0  0  0  0  0  0  0  0
    2.1086   -0.2754   -4.0897 O   0  0  0  0  0  0  0  0  0  0  0  0
    2.8293    0.2760   -1.9400 N   0  0  0  0  0  0  0  0  0  0  0  0
    1.6161    0.4834   -1.2525 C   0  0  0  0  0  0  0  0  0  0  0  0
    1.7010    0.8253    0.1040 C   0  0  0  0  0  0  0  0  0  0  0  0
    0.5459    1.0473    0.8641 C   0  0  0  0  0  0  0  0  0  0  0  0
   -0.7153    0.9231    0.2723 C   0  0  0  0  0  0  0  0  0  0  0  0
   -1.9766    1.1487    1.0308 C   0  0  0  0  0  0  0  0  0  0  0  0
   -3.0214    1.4353    0.4516 O   0  0  0  0  0  0  0  0  0  0  0  0
   -1.9091    0.9859    2.4026 N   0  0  0  0  0  0  0  0  0  0  0  0
   -3.1344    0.9572    3.0954 N   0  0  0  0  0  0  0  0  0  0  0  0
   -3.2891    0.0181    4.1027 C   0  0  0  0  0  0  0  0  0  0  0  0
   -2.3127   -0.6021    4.5318 O   0  0  0  0  0  0  0  0  0  0  0  0
   -4.6441   -0.1862    4.5940 C   0  0  0  0  0  0  0  0  0  0  0  0
   -5.0377   -1.0658    5.5872 C   0  0  0  0  0  0  0  0  0  0  0  0
   -6.4405   -1.0271    5.8329 C   0  0  0  0  0  0  0  0  0  0  0  0
   -7.0781   -0.1185    5.0194 C   0  0  0  0  0  0  0  0  0  0  0  0
   -5.9882    0.6779    3.9709 S   0  0  0  0  0  0  0  0  0  0  0  0
   -0.8032    0.5980   -1.0850 C   0  0  0  0  0  0  0  0  0  0  0  0
    0.3552    0.3751   -1.8402 C   0  0  0  0  0  0  0  0  0  0  0  0
    6.6850    0.2565   -5.2500 H   0  0  0  0  0  0  0  0  0  0  0  0
    6.6526   -1.4608   -4.8032 H   0  0  0  0  0  0  0  0  0  0  0  0
    6.3039   -0.9708   -6.4700 H   0  0  0  0  0  0  0  0  0  0  0  0
    4.2307    0.1667   -5.7448 H   0  0  0  0  0  0  0  0  0  0  0  0
    4.1987   -1.5371   -5.3016 H   0  0  0  0  0  0  0  0  0  0  0  0
    4.9220   -0.9539   -2.9735 H   0  0  0  0  0  0  0  0  0  0  0  0
    4.9550    0.7660   -3.4208 H   0  0  0  0  0  0  0  0  0  0  0  0
    3.6746    0.3948   -1.3959 H   0  0  0  0  0  0  0  0  0  0  0  0
    2.6681    0.9311    0.5902 H   0  0  0  0  0  0  0  0  0  0  0  0
    0.6569    1.3387    1.9048 H   0  0  0  0  0  0  0  0  0  0  0  0
   -1.1659    0.4347    2.8309 H   0  0  0  0  0  0  0  0  0  0  0  0
   -3.9474    1.2875    2.5748 H   0  0  0  0  0  0  0  0  0  0  0  0
   -4.3404   -1.7095    6.1124 H   0  0  0  0  0  0  0  0  0  0  0  0
   -6.9542   -1.6351    6.5679 H   0  0  0  0  0  0  0  0  0  0  0  0
   -8.1334    0.1171    4.9890 H   0  0  0  0  0  0  0  0  0  0  0  0
   -1.7756    0.5121   -1.5675 H   0  0  0  0  0  0  0  0  0  0  0  0
    0.2314    0.1218   -2.8889 H   0  0  0  0  0  0  0  0  0  0  0  0
  1  2  1  0
  2  3  1  0
  3  4  1  0
  4  5  2  0
  4  6  1  0
  6  7  1  0
  7  8  2  0
  8  9  1  0
  9 10  2  0
 10 11  1  0
 11 12  2  0
 11 13  1  0
 13 14  1  0
 14 15  1  0
 15 16  2  0
 15 17  1  0
 17 18  2  0
 18 19  1  0
 19 20  2  0
 20 21  1  0
 10 22  1  0
 22 23  2  0
 23  7  1  0
 21 17  1  0
  1 24  1  0
  1 25  1  0
  1 26  1  0
  2 27  1  0
  2 28  1  0
  3 29  1  0
  3 30  1  0
  6 31  1  0
  8 32  1  0
  9 33  1  0
 13 34  1  0
 14 35  1  0
 18 36  1  0
 19 37  1  0
 20 38  1  0
 22 39  1  0
 23 40  1  0
M  END
$$$$
