
     RDKit          3D

 19 19  0  0  0  0  0  0  0  0999 V2000
   -3.3755   -0.4409   -1.8747 C   0  0  0  0  0  0  0  0  0  0  0  0
   -2.7473   -0.5297   -0.4914 C   0  0  0  0  0  0  0  0  0  0  0  0
   -1.2527   -0.2227   -0.5458 C   0  0  0  0  0  0  0  0  0  0  0  0
   -0.5362   -0.3380    1.1217 S   0  0  0  0  0  0  0  0  0  0  0  0
    1.1378    0.0386    0.7812 C   0  0  0  0  0  0  0  0  0  0  0  0
    1.5738    0.3433   -0.4209 N   0  0  0  0  0  0  0  0  0  0  0  0
    2.9323    0.5965   -0.4274 N   0  0  0  0  0  0  0  0  0  0  0  0
    3.4700    0.4758    0.7656 C   0  0  0  0  0  0  0  0  0  0  0  0
    4.7738    0.6759    1.0394 N   0  0  0  0  0  0  0  0  0  0  0  0
    2.3473    0.0500    1.9940 S   0  0  0  0  0  0  0  0  0  0  0  0
   -3.2582    0.5630   -2.2951 H   0  0  0  0  0  0  0  0  0  0  0  0
   -4.4457   -0.6633   -1.8197 H   0  0  0  0  0  0  0  0  0  0  0  0
   -2.9144   -1.1578   -2.5617 H   0  0  0  0  0  0  0  0  0  0  0  0
   -3.2589    0.1774    0.1729 H   0  0  0  0  0  0  0  0  0  0  0  0
   -2.9163   -1.5375   -0.0928 H   0  0  0  0  0  0  0  0  0  0  0  0
   -0.7481   -0.9364   -1.2060 H   0  0  0  0  0  0  0  0  0  0  0  0
   -1.0926    0.7870   -0.9390 H   0  0  0  0  0  0  0  0  0  0  0  0
    5.0198    0.9267    1.9897 H   0  0  0  0  0  0  0  0  0  0  0  0
    5.2910    1.1923    0.3353 H   0  0  0  0  0  0  0  0  0  0  0  0
  1  2  1  0
  2  3  1  0
  3  4  1  0
  4  5  1  0
  5  6  2  0
  6  7  1  0
  7  8  2  0
  8  9  1  0
  8 10  1  0
 10  5  1  0
  1 11  1  0
  1 12  1  0
  1 13  1  0
  2 14  1  0
  2 15  1  0
  3 16  1  0
  3 17  1  0
  9 18  1  0
  9 19  1  0
M  END
$$$$
