
     RDKit          3D

 29 30  0  0  0  0  0  0  0  0999 V2000
    4.0280   -0.4219   -1.3496 C   0  0  0  0  0  0  0  0  0  0  0  0
    2.7570   -0.0271   -0.6192 C   0  0  0  0  0  0  0  0  0  0  0  0
    2.8452   -0.4786    0.7670 N   0  0  0  0  0  0  0  0  0  0  0  0
    1.9250    0.2757    1.9506 S   0  0  0  0  0  6  0  0  0  0  0  0
    2.2146    1.6915    1.9081 O   0  0  0  0  0  0  0  0  0  0  0  0
    2.0946   -0.5047    3.1562 O   0  0  0  0  0  0  0  0  0  0  0  0
    0.2682    0.0208    1.3661 C   0  0  0  0  0  0  0  0  0  0  0  0
   -0.3531   -1.2221    1.5974 C   0  0  0  0  0  0  0  0  0  0  0  0
   -1.6641   -1.4375    1.1706 C   0  0  0  0  0  0  0  0  0  0  0  0
   -2.3111   -0.4032    0.5153 C   0  0  0  0  0  0  0  0  0  0  0  0
   -1.6894    0.8256    0.2807 C   0  0  0  0  0  0  0  0  0  0  0  0
   -0.4054    1.0672    0.7253 C   0  0  0  0  0  0  0  0  0  0  0  0
   -2.5516    1.7720   -0.3195 N   0  0  0  0  0  0  0  0  0  0  0  0
   -3.6459    0.9365   -0.8436 C   0  0  0  0  0  0  0  0  0  0  0  0
   -3.7136   -0.3421    0.0126 C   0  0  0  0  0  0  0  0  0  0  0  0
    4.9066    0.0374   -0.8842 H   0  0  0  0  0  0  0  0  0  0  0  0
    4.1705   -1.5078   -1.3332 H   0  0  0  0  0  0  0  0  0  0  0  0
    3.9844   -0.0984   -2.3940 H   0  0  0  0  0  0  0  0  0  0  0  0
    1.8978   -0.5016   -1.1035 H   0  0  0  0  0  0  0  0  0  0  0  0
    2.6357    1.0590   -0.6715 H   0  0  0  0  0  0  0  0  0  0  0  0
    3.0375   -1.4598    0.9589 H   0  0  0  0  0  0  0  0  0  0  0  0
    0.1759   -2.0113    2.1281 H   0  0  0  0  0  0  0  0  0  0  0  0
   -2.1643   -2.3810    1.3642 H   0  0  0  0  0  0  0  0  0  0  0  0
    0.0557    2.0401    0.5905 H   0  0  0  0  0  0  0  0  0  0  0  0
   -2.0726    2.3443   -1.0096 H   0  0  0  0  0  0  0  0  0  0  0  0
   -4.5953    1.4812   -0.8262 H   0  0  0  0  0  0  0  0  0  0  0  0
   -3.4286    0.6785   -1.8887 H   0  0  0  0  0  0  0  0  0  0  0  0
   -4.4090   -0.2196    0.8493 H   0  0  0  0  0  0  0  0  0  0  0  0
   -3.9927   -1.2129   -0.5865 H   0  0  0  0  0  0  0  0  0  0  0  0
  1  2  1  0
  2  3  1  0
  3  4  1  0
  4  5  2  0
  4  6  2  0
  4  7  1  0
  7  8  2  0
  8  9  1  0
  9 10  2  0
 10 11  1  0
 11 12  2  0
 11 13  1  0
 13 14  1  0
 14 15  1  0
 12  7  1  0
 15 10  1  0
  1 16  1  0
  1 17  1  0
  1 18  1  0
  2 19  1  0
  2 20  1  0
  3 21  1  0
  8 22  1  0
  9 23  1  0
 12 24  1  0
 13 25  1  0
 14 26  1  0
 14 27  1  0
 15 28  1  0
 15 29  1  0
M  END
$$$$
