
     RDKit          3D

 54 57  0  0  0  0  0  0  0  0999 V2000
   -2.3283    3.9781   -2.9508 C   0  0  0  0  0  0  0  0  0  0  0  0
   -2.9232    2.6901   -3.0768 O   0  0  0  0  0  0  0  0  0  0  0  0
   -3.0685    2.1189   -1.8382 C   0  0  0  0  0  0  0  0  0  0  0  0
   -2.0243    1.3441   -1.3304 C   0  0  0  0  0  0  0  0  0  0  0  0
   -2.1424    0.7094   -0.0828 C   0  0  0  0  0  0  0  0  0  0  0  0
   -1.0505   -0.1104    0.4807 C   0  0  0  0  0  0  0  0  0  0  0  0
    0.2891    0.1855    0.2998 C   0  0  0  0  0  0  0  0  0  0  0  0
    1.2400   -0.6624    0.8695 C   0  0  0  0  0  0  0  0  0  0  0  0
    2.6591   -0.3229    0.6133 C   0  0  0  0  0  0  0  0  0  0  0  0
    3.0507    0.7876    0.9440 O   0  0  0  0  0  0  0  0  0  0  0  0
    3.3679   -1.3172   -0.0327 N   0  0  0  0  0  0  0  0  0  0  0  0
    4.7403   -1.3167   -0.3549 C   0  0  0  0  0  0  0  0  0  0  0  0
    5.2371   -2.4362   -1.0384 C   0  0  0  0  0  0  0  0  0  0  0  0
    6.5902   -2.5247   -1.3794 C   0  0  0  0  0  0  0  0  0  0  0  0
    7.4488   -1.4893   -1.0323 C   0  0  0  0  0  0  0  0  0  0  0  0
    8.7752   -1.5319   -1.3390 O   0  0  0  0  0  0  0  0  0  0  0  0
    6.9740   -0.3740   -0.3553 C   0  0  0  0  0  0  0  0  0  0  0  0
    5.6198   -0.2863   -0.0173 C   0  0  0  0  0  0  0  0  0  0  0  0
    0.8575   -1.7751    1.6500 C   0  0  0  0  0  0  0  0  0  0  0  0
    1.7499   -2.6512    2.3212 C   0  0  0  0  0  0  0  0  0  0  0  0
    1.2759   -3.7342    3.0590 C   0  0  0  0  0  0  0  0  0  0  0  0
   -0.0909   -3.9522    3.1487 C   0  0  0  0  0  0  0  0  0  0  0  0
   -0.9730   -3.0785    2.5097 C   0  0  0  0  0  0  0  0  0  0  0  0
   -0.5267   -1.9916    1.7695 C   0  0  0  0  0  0  0  0  0  0  0  0
   -1.4434   -1.1905    1.2011 N   0  0  0  0  0  0  0  0  0  0  0  0
   -3.3571    0.8661    0.6229 C   0  0  0  0  0  0  0  0  0  0  0  0
   -4.4159    1.6333    0.1175 C   0  0  0  0  0  0  0  0  0  0  0  0
   -5.6191    1.8184    0.7513 O   0  0  0  0  0  0  0  0  0  0  0  0
   -5.6900    1.4561    2.1214 C   0  0  0  0  0  0  0  0  0  0  0  0
   -4.2694    2.2421   -1.1353 C   0  0  0  0  0  0  0  0  0  0  0  0
   -5.2681    3.0297   -1.6546 O   0  0  0  0  0  0  0  0  0  0  0  0
   -6.1908    2.2200   -2.3810 C   0  0  0  0  0  0  0  0  0  0  0  0
   -2.4112    4.4788   -3.9223 H   0  0  0  0  0  0  0  0  0  0  0  0
   -1.2619    3.8797   -2.7078 H   0  0  0  0  0  0  0  0  0  0  0  0
   -2.8370    4.5993   -2.1983 H   0  0  0  0  0  0  0  0  0  0  0  0
   -1.1257    1.2299   -1.9315 H   0  0  0  0  0  0  0  0  0  0  0  0
    0.6073    1.0606   -0.2586 H   0  0  0  0  0  0  0  0  0  0  0  0
    2.8470   -2.1392   -0.3146 H   0  0  0  0  0  0  0  0  0  0  0  0
    4.5788   -3.2557   -1.3144 H   0  0  0  0  0  0  0  0  0  0  0  0
    6.9499   -3.4020   -1.9080 H   0  0  0  0  0  0  0  0  0  0  0  0
    8.9572   -2.3507   -1.8277 H   0  0  0  0  0  0  0  0  0  0  0  0
    7.6530    0.4305   -0.0866 H   0  0  0  0  0  0  0  0  0  0  0  0
    5.2873    0.5993    0.5156 H   0  0  0  0  0  0  0  0  0  0  0  0
    2.8258   -2.4860    2.2914 H   0  0  0  0  0  0  0  0  0  0  0  0
    1.9711   -4.3969    3.5679 H   0  0  0  0  0  0  0  0  0  0  0  0
   -0.4778   -4.7911    3.7223 H   0  0  0  0  0  0  0  0  0  0  0  0
   -2.0443   -3.2491    2.5965 H   0  0  0  0  0  0  0  0  0  0  0  0
   -3.4521    0.3626    1.5808 H   0  0  0  0  0  0  0  0  0  0  0  0
   -5.6476    0.3686    2.2402 H   0  0  0  0  0  0  0  0  0  0  0  0
   -4.9075    1.9500    2.7077 H   0  0  0  0  0  0  0  0  0  0  0  0
   -6.6594    1.7945    2.5062 H   0  0  0  0  0  0  0  0  0  0  0  0
   -5.6952    1.6764   -3.1935 H   0  0  0  0  0  0  0  0  0  0  0  0
   -6.9370    2.8841   -2.8274 H   0  0  0  0  0  0  0  0  0  0  0  0
   -6.7149    1.5213   -1.7180 H   0  0  0  0  0  0  0  0  0  0  0  0
  1  2  1  0
  2  3  1  0
  3  4  2  0
  4  5  1  0
  5  6  1  0
  6  7  2  0
  7  8  1  0
  8  9  1  0
  9 10  2  0
  9 11  1  0
 11 12  1  0
 12 13  2  0
 13 14  1  0
 14 15  2  0
 15 16  1  0
 15 17  1  0
 17 18  2  0
  8 19  2  0
 19 20  1  0
 20 21  2  0
 21 22  1  0
 22 23  2  0
 23 24  1  0
 24 25  2  0
  5 26  2  0
 26 27  1  0
 27 28  1  0
 28 29  1  0
 27 30  2  0
 30 31  1  0
 31 32  1  0
 30  3  1  0
 25  6  1  0
 18 12  1  0
 24 19  1  0
  1 33  1  0
  1 34  1  0
  1 35  1  0
  4 36  1  0
  7 37  1  0
 11 38  1  0
 13 39  1  0
 14 40  1  0
 16 41  1  0
 17 42  1  0
 18 43  1  0
 20 44  1  0
 21 45  1  0
 22 46  1  0
 23 47  1  0
 26 48  1  0
 29 49  1  0
 29 50  1  0
 29 51  1  0
 32 52  1  0
 32 53  1  0
 32 54  1  0
M  END
$$$$
