
     RDKit          3D

 54 57  0  0  0  0  0  0  0  0999 V2000
    5.9202    0.6365    3.6198 C   0  0  0  0  0  0  0  0  0  0  0  0
    6.4058   -0.2319    2.4539 C   0  0  0  0  0  0  0  0  0  0  0  0
    7.7219    0.3091    1.8911 C   0  0  0  0  0  0  0  0  0  0  0  0
    5.3813   -0.3832    1.3428 C   0  0  0  0  0  0  0  0  0  0  0  0
    5.2212   -1.6298    0.7185 C   0  0  0  0  0  0  0  0  0  0  0  0
    4.3076   -1.8041   -0.3288 C   0  0  0  0  0  0  0  0  0  0  0  0
    3.5321   -0.7355   -0.7725 C   0  0  0  0  0  0  0  0  0  0  0  0
    2.5910   -0.8200   -1.8159 N   0  0  0  0  0  0  0  0  0  0  0  0
    2.2824   -1.9176   -2.6003 C   0  0  0  0  0  0  0  0  0  0  0  0
    2.7888   -3.0334   -2.5299 O   0  0  0  0  0  0  0  0  0  0  0  0
    1.2079   -1.6114   -3.6514 C   0  0  0  0  0  0  0  0  0  0  0  0
   -0.1187   -1.5580   -3.1241 O   0  0  0  0  0  0  0  0  0  0  0  0
   -0.4517   -0.4056   -2.4986 C   0  0  0  0  0  0  0  0  0  0  0  0
    0.2857    0.5569   -2.3460 O   0  0  0  0  0  0  0  0  0  0  0  0
   -1.8461   -0.4672   -1.9849 C   0  0  0  0  0  0  0  0  0  0  0  0
   -2.7001   -1.5418   -2.2596 C   0  0  0  0  0  0  0  0  0  0  0  0
   -4.0056   -1.5519   -1.7527 C   0  0  0  0  0  0  0  0  0  0  0  0
   -4.4829   -0.4935   -0.9620 C   0  0  0  0  0  0  0  0  0  0  0  0
   -3.6254    0.5642   -0.6976 C   0  0  0  0  0  0  0  0  0  0  0  0
   -2.3147    0.5914   -1.1998 C   0  0  0  0  0  0  0  0  0  0  0  0
   -4.1557    1.9098    0.2847 S   0  0  0  0  0  6  0  0  0  0  0  0
   -3.3277    1.8920    1.4741 O   0  0  0  0  0  0  0  0  0  0  0  0
   -4.2058    3.0586   -0.5968 O   0  0  0  0  0  0  0  0  0  0  0  0
   -5.7948    1.6147    0.8139 C   0  0  0  0  0  0  0  0  0  0  0  0
   -6.4013    2.5681    1.6433 C   0  0  0  0  0  0  0  0  0  0  0  0
   -7.7076    2.3688    2.0831 C   0  0  0  0  0  0  0  0  0  0  0  0
   -8.3998    1.2243    1.6960 C   0  0  0  0  0  0  0  0  0  0  0  0
   -7.7848    0.2799    0.8689 C   0  0  0  0  0  0  0  0  0  0  0  0
   -6.4681    0.4678    0.4176 C   0  0  0  0  0  0  0  0  0  0  0  0
   -5.8742   -0.5692   -0.4576 C   0  0  0  0  0  0  0  0  0  0  0  0
   -6.5616   -1.5349   -0.7809 O   0  0  0  0  0  0  0  0  0  0  0  0
    3.6879    0.5106   -0.1561 C   0  0  0  0  0  0  0  0  0  0  0  0
    4.6082    0.6891    0.8831 C   0  0  0  0  0  0  0  0  0  0  0  0
    6.6370    0.5995    4.4470 H   0  0  0  0  0  0  0  0  0  0  0  0
    4.9530    0.2833    3.9984 H   0  0  0  0  0  0  0  0  0  0  0  0
    5.8076    1.6884    3.3329 H   0  0  0  0  0  0  0  0  0  0  0  0
    6.6013   -1.2281    2.8749 H   0  0  0  0  0  0  0  0  0  0  0  0
    7.5966    1.3133    1.4693 H   0  0  0  0  0  0  0  0  0  0  0  0
    8.1066   -0.3382    1.0957 H   0  0  0  0  0  0  0  0  0  0  0  0
    8.4858    0.3681    2.6739 H   0  0  0  0  0  0  0  0  0  0  0  0
    5.8139   -2.4861    1.0388 H   0  0  0  0  0  0  0  0  0  0  0  0
    4.2285   -2.7914   -0.7727 H   0  0  0  0  0  0  0  0  0  0  0  0
    2.0506    0.0272   -1.9975 H   0  0  0  0  0  0  0  0  0  0  0  0
    1.2278   -2.4162   -4.3951 H   0  0  0  0  0  0  0  0  0  0  0  0
    1.4587   -0.6889   -4.1894 H   0  0  0  0  0  0  0  0  0  0  0  0
   -2.3694   -2.3841   -2.8661 H   0  0  0  0  0  0  0  0  0  0  0  0
   -4.6500   -2.4019   -1.9821 H   0  0  0  0  0  0  0  0  0  0  0  0
   -1.6641    1.4363   -0.9728 H   0  0  0  0  0  0  0  0  0  0  0  0
   -5.8596    3.4628    1.9461 H   0  0  0  0  0  0  0  0  0  0  0  0
   -8.1860    3.1035    2.7267 H   0  0  0  0  0  0  0  0  0  0  0  0
   -9.4207    1.0631    2.0367 H   0  0  0  0  0  0  0  0  0  0  0  0
   -8.3455   -0.6087    0.5793 H   0  0  0  0  0  0  0  0  0  0  0  0
    3.1014    1.3661   -0.4815 H   0  0  0  0  0  0  0  0  0  0  0  0
    4.7108    1.6793    1.3207 H   0  0  0  0  0  0  0  0  0  0  0  0
  1  2  1  0
  2  3  1  0
  2  4  1  0
  4  5  2  0
  5  6  1  0
  6  7  2  0
  7  8  1  0
  8  9  1  0
  9 10  2  0
  9 11  1  0
 11 12  1  0
 12 13  1  0
 13 14  2  0
 13 15  1  0
 15 16  2  0
 16 17  1  0
 17 18  2  0
 18 19  1  0
 19 20  2  0
 19 21  1  0
 21 22  2  0
 21 23  2  0
 21 24  1  0
 24 25  2  0
 25 26  1  0
 26 27  2  0
 27 28  1  0
 28 29  2  0
 29 30  1  0
 30 31  2  0
  7 32  1  0
 32 33  2  0
 33  4  1  0
 20 15  1  0
 29 24  1  0
 30 18  1  0
  1 34  1  0
  1 35  1  0
  1 36  1  0
  2 37  1  0
  3 38  1  0
  3 39  1  0
  3 40  1  0
  5 41  1  0
  6 42  1  0
  8 43  1  0
 11 44  1  0
 11 45  1  0
 16 46  1  0
 17 47  1  0
 20 48  1  0
 25 49  1  0
 26 50  1  0
 27 51  1  0
 28 52  1  0
 32 53  1  0
 33 54  1  0
M  END
$$$$
