
     RDKit          3D

 56 61  0  0  0  0  0  0  0  0999 V2000
    6.4651   -0.1060    1.0809 C   0  0  0  0  0  0  0  0  0  0  0  0
    5.2766    0.0601    0.1814 C   0  0  0  0  0  0  0  0  0  0  0  0
    5.3794    0.7129   -1.0618 C   0  0  0  0  0  0  0  0  0  0  0  0
    6.8852    1.3656   -1.6104 Cl  0  0  0  0  0  0  0  0  0  0  0  0
    4.2650    0.8643   -1.9110 C   0  0  0  0  0  0  0  0  0  0  0  0
    3.0147    0.3617   -1.5493 C   0  0  0  0  0  0  0  0  0  0  0  0
    2.9024   -0.2881   -0.3302 C   0  0  0  0  0  0  0  0  0  0  0  0
    4.0183   -0.4307    0.5096 C   0  0  0  0  0  0  0  0  0  0  0  0
    3.6457   -1.1085    1.6678 N   0  0  0  0  0  0  0  0  0  0  0  0
    2.2920   -1.4558    1.6608 C   0  0  0  0  0  0  0  0  0  0  0  0
    1.7264   -2.0475    2.5675 O   0  0  0  0  0  0  0  0  0  0  0  0
    1.7102   -0.9345    0.3197 C   0  0  0  0  0  0  0  0  0  0  0  0
    1.0771   -2.0324   -0.4793 N   0  0  0  0  0  0  0  0  0  0  0  0
   -0.4231   -1.9607   -0.2415 C   0  0  2  0  0  0  0  0  0  0  0  0
   -1.1778   -2.4165   -1.5020 C   0  0  0  0  0  0  0  0  0  0  0  0
   -2.6037   -2.8565   -1.2571 C   0  0  0  0  0  0  0  0  0  0  0  0
   -3.6772   -2.1218   -1.7770 C   0  0  0  0  0  0  0  0  0  0  0  0
   -4.9923   -2.5407   -1.5664 C   0  0  0  0  0  0  0  0  0  0  0  0
   -5.2479   -3.7008   -0.8386 C   0  0  0  0  0  0  0  0  0  0  0  0
   -4.1888   -4.4426   -0.3200 C   0  0  0  0  0  0  0  0  0  0  0  0
   -2.8733   -4.0245   -0.5294 C   0  0  0  0  0  0  0  0  0  0  0  0
   -0.5923   -0.5321    0.1321 C   0  0  0  0  0  0  0  0  0  0  0  0
    0.6292    0.0514    0.4757 C   0  0  0  0  0  0  0  0  0  0  0  0
    0.4100    1.3493    0.8634 C   0  0  0  0  0  0  0  0  0  0  0  0
    1.2726    2.2911    1.2379 O   0  0  0  0  0  0  0  0  0  0  0  0
   -0.9701    1.5934    0.7251 N   0  0  0  0  0  0  0  0  0  0  0  0
   -1.6329    2.8515    0.9045 C   0  0  0  0  0  0  0  0  0  0  0  0
   -2.7730    3.1620    0.1428 C   0  0  0  0  0  0  0  0  0  0  0  0
   -3.4212    4.3883    0.3118 C   0  0  0  0  0  0  0  0  0  0  0  0
   -2.9309    5.3032    1.2345 C   0  0  0  0  0  0  0  0  0  0  0  0
   -3.5540    6.4778    1.3945 F   0  0  0  0  0  0  0  0  0  0  0  0
   -1.8006    5.0180    1.9892 C   0  0  0  0  0  0  0  0  0  0  0  0
   -1.1465    3.7938    1.8229 C   0  0  0  0  0  0  0  0  0  0  0  0
   -1.5857    0.3832    0.3463 C   0  0  0  0  0  0  0  0  0  0  0  0
   -2.9017    0.1969    0.2881 O   0  0  0  0  0  0  0  0  0  0  0  0
    7.2138   -0.7463    0.6035 H   0  0  0  0  0  0  0  0  0  0  0  0
    6.2043   -0.5658    2.0382 H   0  0  0  0  0  0  0  0  0  0  0  0
    6.9110    0.8673    1.3098 H   0  0  0  0  0  0  0  0  0  0  0  0
    4.3755    1.3782   -2.8644 H   0  0  0  0  0  0  0  0  0  0  0  0
    2.1584    0.4862   -2.2062 H   0  0  0  0  0  0  0  0  0  0  0  0
    4.2479   -1.3598    2.4373 H   0  0  0  0  0  0  0  0  0  0  0  0
    1.2227   -1.7994   -1.4594 H   0  0  0  0  0  0  0  0  0  0  0  0
   -0.6502   -2.6004    0.6195 H   0  0  0  0  0  0  0  0  0  0  0  0
   -0.6632   -3.2793   -1.9481 H   0  0  0  0  0  0  0  0  0  0  0  0
   -1.1527   -1.6308   -2.2691 H   0  0  0  0  0  0  0  0  0  0  0  0
   -3.4962   -1.2074   -2.3369 H   0  0  0  0  0  0  0  0  0  0  0  0
   -5.8169   -1.9578   -1.9678 H   0  0  0  0  0  0  0  0  0  0  0  0
   -6.2715   -4.0254   -0.6740 H   0  0  0  0  0  0  0  0  0  0  0  0
   -4.3858   -5.3479    0.2478 H   0  0  0  0  0  0  0  0  0  0  0  0
   -2.0589   -4.6196   -0.1216 H   0  0  0  0  0  0  0  0  0  0  0  0
    2.1712    1.9190    1.1986 H   0  0  0  0  0  0  0  0  0  0  0  0
   -3.1459    2.4879   -0.6259 H   0  0  0  0  0  0  0  0  0  0  0  0
   -4.2954    4.6402   -0.2803 H   0  0  0  0  0  0  0  0  0  0  0  0
   -1.4342    5.7469    2.7052 H   0  0  0  0  0  0  0  0  0  0  0  0
   -0.2800    3.5882    2.4458 H   0  0  0  0  0  0  0  0  0  0  0  0
   -3.3307    0.8010    0.9202 H   0  0  0  0  0  0  0  0  0  0  0  0
  1  2  1  0
  2  3  2  0
  3  4  1  0
  3  5  1  0
  5  6  2  0
  6  7  1  0
  7  8  2  0
  8  9  1  0
  9 10  1  0
 10 11  2  0
 10 12  1  0
 12 13  1  0
 13 14  1  0
 14 15  1  0
 15 16  1  0
 16 17  2  0
 17 18  1  0
 18 19  2  0
 19 20  1  0
 20 21  2  0
 14 22  1  0
 22 23  1  0
 23 24  2  0
 24 25  1  0
 24 26  1  0
 26 27  1  0
 27 28  2  0
 28 29  1  0
 29 30  2  0
 30 31  1  0
 30 32  1  0
 32 33  2  0
 26 34  1  0
 34 35  1  0
  8  2  1  0
 23 12  1  0
 33 27  1  0
 12  7  1  0
 21 16  1  0
 34 22  2  0
  1 36  1  0
  1 37  1  0
  1 38  1  0
  5 39  1  0
  6 40  1  0
  9 41  1  0
 13 42  1  0
 14 43  1  1
 15 44  1  0
 15 45  1  0
 17 46  1  0
 18 47  1  0
 19 48  1  0
 20 49  1  0
 21 50  1  0
 25 51  1  0
 28 52  1  0
 29 53  1  0
 32 54  1  0
 33 55  1  0
 35 56  1  0
M  END
$$$$
