
     RDKit          3D

 40 41  0  0  0  0  0  0  0  0999 V2000
    4.9925   -1.9137   -4.6777 C   0  0  0  0  0  0  0  0  0  0  0  0
    4.8850   -0.4200   -4.9510 C   0  0  0  0  0  0  0  0  0  0  0  0
    4.6064    0.3890   -3.6856 C   0  0  0  0  0  0  0  0  0  0  0  0
    3.1770    0.2602   -3.1740 C   0  0  0  0  0  0  0  0  0  0  0  0
    2.3044   -0.3241   -3.8046 O   0  0  0  0  0  0  0  0  0  0  0  0
    3.0211    0.8974   -1.9521 N   0  0  0  0  0  0  0  0  0  0  0  0
    1.8477    0.9961   -1.1771 C   0  0  0  0  0  0  0  0  0  0  0  0
    1.9383    1.6958    0.0324 C   0  0  0  0  0  0  0  0  0  0  0  0
    0.8200    1.8385    0.8606 C   0  0  0  0  0  0  0  0  0  0  0  0
   -0.4070    1.2755    0.4942 C   0  0  0  0  0  0  0  0  0  0  0  0
   -1.5683    1.4560    1.4085 C   0  0  0  0  0  0  0  0  0  0  0  0
   -1.5720    2.3497    2.2523 O   0  0  0  0  0  0  0  0  0  0  0  0
   -2.6082    0.5541    1.2780 N   0  0  0  0  0  0  0  0  0  0  0  0
   -3.5890    0.5705    2.2876 N   0  0  0  0  0  0  0  0  0  0  0  0
   -4.0393   -0.6451    2.7775 C   0  0  0  0  0  0  0  0  0  0  0  0
   -3.7677   -1.6947    2.1893 O   0  0  0  0  0  0  0  0  0  0  0  0
   -4.8211   -0.5974    4.0047 C   0  0  0  0  0  0  0  0  0  0  0  0
   -5.3744   -1.6758    4.6726 C   0  0  0  0  0  0  0  0  0  0  0  0
   -6.0818   -1.2918    5.8481 C   0  0  0  0  0  0  0  0  0  0  0  0
   -6.0478    0.0699    6.0443 C   0  0  0  0  0  0  0  0  0  0  0  0
   -5.1686    0.8723    4.8176 S   0  0  0  0  0  0  0  0  0  0  0  0
   -0.5060    0.5875   -0.7193 C   0  0  0  0  0  0  0  0  0  0  0  0
    0.6177    0.4474   -1.5457 C   0  0  0  0  0  0  0  0  0  0  0  0
    5.2250   -2.4497   -5.6035 H   0  0  0  0  0  0  0  0  0  0  0  0
    4.0572   -2.3192   -4.2808 H   0  0  0  0  0  0  0  0  0  0  0  0
    5.7898   -2.1232   -3.9574 H   0  0  0  0  0  0  0  0  0  0  0  0
    4.1081   -0.2407   -5.7030 H   0  0  0  0  0  0  0  0  0  0  0  0
    5.8333   -0.0797   -5.3836 H   0  0  0  0  0  0  0  0  0  0  0  0
    4.7739    1.4508   -3.9044 H   0  0  0  0  0  0  0  0  0  0  0  0
    5.3019    0.0955   -2.8906 H   0  0  0  0  0  0  0  0  0  0  0  0
    3.8440    1.3458   -1.5687 H   0  0  0  0  0  0  0  0  0  0  0  0
    2.8767    2.1432    0.3507 H   0  0  0  0  0  0  0  0  0  0  0  0
    0.9118    2.3899    1.7948 H   0  0  0  0  0  0  0  0  0  0  0  0
   -2.4692   -0.3526    0.8323 H   0  0  0  0  0  0  0  0  0  0  0  0
   -3.5978    1.3967    2.8857 H   0  0  0  0  0  0  0  0  0  0  0  0
   -5.2713   -2.6981    4.3248 H   0  0  0  0  0  0  0  0  0  0  0  0
   -6.5887   -1.9795    6.5142 H   0  0  0  0  0  0  0  0  0  0  0  0
   -6.4974    0.6344    6.8502 H   0  0  0  0  0  0  0  0  0  0  0  0
   -1.4486    0.1697   -1.0621 H   0  0  0  0  0  0  0  0  0  0  0  0
    0.4922   -0.0932   -2.4793 H   0  0  0  0  0  0  0  0  0  0  0  0
  1  2  1  0
  2  3  1  0
  3  4  1  0
  4  5  2  0
  4  6  1  0
  6  7  1  0
  7  8  2  0
  8  9  1  0
  9 10  2  0
 10 11  1  0
 11 12  2  0
 11 13  1  0
 13 14  1  0
 14 15  1  0
 15 16  2  0
 15 17  1  0
 17 18  2  0
 18 19  1  0
 19 20  2  0
 20 21  1  0
 10 22  1  0
 22 23  2  0
 23  7  1  0
 21 17  1  0
  1 24  1  0
  1 25  1  0
  1 26  1  0
  2 27  1  0
  2 28  1  0
  3 29  1  0
  3 30  1  0
  6 31  1  0
  8 32  1  0
  9 33  1  0
 13 34  1  0
 14 35  1  0
 18 36  1  0
 19 37  1  0
 20 38  1  0
 22 39  1  0
 23 40  1  0
M  END
$$$$
