
     RDKit          3D

 50 53  0  0  0  0  0  0  0  0999 V2000
   -6.1513   -1.7043    5.1252 C   0  0  0  0  0  0  0  0  0  0  0  0
   -5.2997   -1.3238    3.9508 C   0  0  0  0  0  0  0  0  0  0  0  0
   -4.4059   -0.2538    4.0409 C   0  0  0  0  0  0  0  0  0  0  0  0
   -3.5870    0.0787    2.9577 C   0  0  0  0  0  0  0  0  0  0  0  0
   -3.6507   -0.6506    1.7586 C   0  0  0  0  0  0  0  0  0  0  0  0
   -2.7918   -0.2780    0.6781 N   0  0  0  0  0  0  0  0  0  0  0  0
   -1.7266    0.5277    0.9418 N   0  0  0  0  0  0  0  0  0  0  0  0
   -0.9957    0.5107   -0.1747 C   0  0  0  0  0  0  0  0  0  0  0  0
    0.2949    1.1541   -0.3738 C   0  0  0  0  0  0  0  0  0  0  0  0
    0.8972    1.7811    0.4967 O   0  0  0  0  0  0  0  0  0  0  0  0
    0.7840    0.9946   -1.6843 N   0  0  0  0  0  0  0  0  0  0  0  0
    2.0922    1.5472   -1.9899 C   0  0  0  0  0  0  0  0  0  0  0  0
    3.2012    0.6413   -1.4482 C   0  0  0  0  0  0  0  0  0  0  0  0
    3.0757   -0.5683   -1.2720 O   0  0  0  0  0  0  0  0  0  0  0  0
    4.3973    1.3006   -1.2295 N   0  0  0  0  0  0  0  0  0  0  0  0
    5.4933    0.5996   -0.6009 C   0  0  0  0  0  0  0  0  0  0  0  0
    6.7183    1.4462   -0.7202 C   0  0  0  0  0  0  0  0  0  0  0  0
    7.6450    1.4687   -1.7448 C   0  0  0  0  0  0  0  0  0  0  0  0
    8.6863    2.4132   -1.5143 C   0  0  0  0  0  0  0  0  0  0  0  0
    8.5202    3.0819   -0.3225 C   0  0  0  0  0  0  0  0  0  0  0  0
    7.1161    2.5728    0.5094 S   0  0  0  0  0  0  0  0  0  0  0  0
    0.1342    0.3076   -2.7152 N   0  0  0  0  0  0  0  0  0  0  0  0
   -1.0133   -0.2768   -2.5084 C   0  0  0  0  0  0  0  0  0  0  0  0
   -1.6498   -1.0205   -3.6478 C   0  0  0  0  0  0  0  0  0  0  0  0
   -1.6337   -0.1834   -1.2085 C   0  0  0  0  0  0  0  0  0  0  0  0
   -2.8441   -0.6055   -0.6831 C   0  0  0  0  0  0  0  0  0  0  0  0
   -4.0155   -1.2177   -1.3615 C   0  0  0  0  0  0  0  0  0  0  0  0
   -4.5167   -1.7467    1.6855 C   0  0  0  0  0  0  0  0  0  0  0  0
   -5.3345   -2.0776    2.7734 C   0  0  0  0  0  0  0  0  0  0  0  0
   -7.0919   -2.1572    4.7947 H   0  0  0  0  0  0  0  0  0  0  0  0
   -6.4080   -0.8235    5.7232 H   0  0  0  0  0  0  0  0  0  0  0  0
   -5.6175   -2.4191    5.7589 H   0  0  0  0  0  0  0  0  0  0  0  0
   -4.3349    0.3306    4.9559 H   0  0  0  0  0  0  0  0  0  0  0  0
   -2.9050    0.9215    3.0643 H   0  0  0  0  0  0  0  0  0  0  0  0
    2.2104    1.6366   -3.0750 H   0  0  0  0  0  0  0  0  0  0  0  0
    2.1734    2.5441   -1.5433 H   0  0  0  0  0  0  0  0  0  0  0  0
    4.3650    2.3027   -1.0906 H   0  0  0  0  0  0  0  0  0  0  0  0
    5.6382   -0.3668   -1.0971 H   0  0  0  0  0  0  0  0  0  0  0  0
    5.2248    0.4027    0.4430 H   0  0  0  0  0  0  0  0  0  0  0  0
    7.5768    0.8347   -2.6213 H   0  0  0  0  0  0  0  0  0  0  0  0
    9.5153    2.5924   -2.1881 H   0  0  0  0  0  0  0  0  0  0  0  0
    9.1561    3.8464    0.1025 H   0  0  0  0  0  0  0  0  0  0  0  0
   -0.9300   -1.1588   -4.4602 H   0  0  0  0  0  0  0  0  0  0  0  0
   -1.9907   -2.0044   -3.3153 H   0  0  0  0  0  0  0  0  0  0  0  0
   -2.4971   -0.4454   -4.0303 H   0  0  0  0  0  0  0  0  0  0  0  0
   -3.9312   -2.3083   -1.3737 H   0  0  0  0  0  0  0  0  0  0  0  0
   -4.9596   -0.9273   -0.8915 H   0  0  0  0  0  0  0  0  0  0  0  0
   -4.0895   -0.8759   -2.3976 H   0  0  0  0  0  0  0  0  0  0  0  0
   -4.5520   -2.4024    0.8241 H   0  0  0  0  0  0  0  0  0  0  0  0
   -5.9920   -2.9416    2.6990 H   0  0  0  0  0  0  0  0  0  0  0  0
  1  2  1  0
  2  3  2  0
  3  4  1  0
  4  5  2  0
  5  6  1  0
  6  7  1  0
  7  8  2  0
  8  9  1  0
  9 10  2  0
  9 11  1  0
 11 12  1  0
 12 13  1  0
 13 14  2  0
 13 15  1  0
 15 16  1  0
 16 17  1  0
 17 18  2  0
 18 19  1  0
 19 20  2  0
 20 21  1  0
 11 22  1  0
 22 23  2  0
 23 24  1  0
 23 25  1  0
 25 26  2  0
 26 27  1  0
  5 28  1  0
 28 29  2  0
 29  2  1  0
 26  6  1  0
 25  8  1  0
 21 17  1  0
  1 30  1  0
  1 31  1  0
  1 32  1  0
  3 33  1  0
  4 34  1  0
 12 35  1  0
 12 36  1  0
 15 37  1  0
 16 38  1  0
 16 39  1  0
 18 40  1  0
 19 41  1  0
 20 42  1  0
 24 43  1  0
 24 44  1  0
 24 45  1  0
 27 46  1  0
 27 47  1  0
 27 48  1  0
 28 49  1  0
 29 50  1  0
M  END
$$$$
