
     RDKit          3D

 60 63  0  0  0  0  0  0  0  0999 V2000
    5.6991    4.0380    2.1522 C   0  0  0  0  0  0  0  0  0  0  0  0
    6.5701    2.9294    1.9603 O   0  0  0  0  0  0  0  0  0  0  0  0
    5.9798    1.7060    1.7989 C   0  0  0  0  0  0  0  0  0  0  0  0
    4.6103    1.4462    1.8171 C   0  0  0  0  0  0  0  0  0  0  0  0
    4.1399    0.1412    1.6366 C   0  0  0  0  0  0  0  0  0  0  0  0
    5.0308   -0.9228    1.4329 C   0  0  0  0  0  0  0  0  0  0  0  0
    4.5098   -2.3205    1.2124 C   0  0  0  0  0  0  0  0  0  0  0  0
    3.8503   -2.4164   -0.0732 N   0  0  0  0  0  0  0  0  0  0  0  0
    2.4713   -2.3899   -0.1716 C   0  0  0  0  0  0  0  0  0  0  0  0
    1.7513   -2.5206    0.8191 O   0  0  0  0  0  0  0  0  0  0  0  0
    1.9059   -2.3049   -1.6106 C   0  0  0  0  0  0  0  0  0  0  0  0
    2.6745   -1.3795   -2.5531 C   0  0  0  0  0  0  0  0  0  0  0  0
    0.4785   -1.9588   -1.5472 N   0  0  0  0  0  0  0  0  0  0  0  0
   -0.4080   -2.9507   -1.9957 N   0  0  0  0  0  0  0  0  0  0  0  0
   -1.6982   -2.7691   -1.9515 C   0  0  0  0  0  0  0  0  0  0  0  0
   -2.5903   -3.8830   -2.4208 C   0  0  0  0  0  0  0  0  0  0  0  0
   -2.2230   -1.5155   -1.4695 C   0  0  0  0  0  0  0  0  0  0  0  0
   -3.4959   -0.9795   -1.3620 C   0  0  0  0  0  0  0  0  0  0  0  0
   -4.7966   -1.5048   -1.8512 C   0  0  0  0  0  0  0  0  0  0  0  0
   -3.3242    0.2547   -0.7220 N   0  0  0  0  0  0  0  0  0  0  0  0
   -4.2836    1.1488   -0.1528 C   0  0  0  0  0  0  0  0  0  0  0  0
   -5.5771    0.7417    0.1907 C   0  0  0  0  0  0  0  0  0  0  0  0
   -6.4791    1.6509    0.7581 C   0  0  0  0  0  0  0  0  0  0  0  0
   -6.1054    2.9778    0.9937 C   0  0  0  0  0  0  0  0  0  0  0  0
   -7.0612    3.9376    1.6373 C   0  0  0  0  0  0  0  0  0  0  0  0
   -4.8019    3.3766    0.6867 C   0  0  0  0  0  0  0  0  0  0  0  0
   -3.8981    2.4714    0.1225 C   0  0  0  0  0  0  0  0  0  0  0  0
   -2.0072    0.5934   -0.6697 N   0  0  0  0  0  0  0  0  0  0  0  0
   -1.3518   -0.5098   -1.0387 C   0  0  0  0  0  0  0  0  0  0  0  0
    0.0939   -0.6889   -1.0618 C   0  0  0  0  0  0  0  0  0  0  0  0
    0.8913    0.1791   -0.7113 O   0  0  0  0  0  0  0  0  0  0  0  0
    6.4046   -0.6555    1.4145 C   0  0  0  0  0  0  0  0  0  0  0  0
    6.8711    0.6490    1.5982 C   0  0  0  0  0  0  0  0  0  0  0  0
    5.1138    3.9264    3.0713 H   0  0  0  0  0  0  0  0  0  0  0  0
    5.0495    4.1851    1.2830 H   0  0  0  0  0  0  0  0  0  0  0  0
    6.3180    4.9341    2.2590 H   0  0  0  0  0  0  0  0  0  0  0  0
    3.8759    2.2314    1.9640 H   0  0  0  0  0  0  0  0  0  0  0  0
    3.0645   -0.0396    1.6479 H   0  0  0  0  0  0  0  0  0  0  0  0
    3.8400   -2.6042    2.0312 H   0  0  0  0  0  0  0  0  0  0  0  0
    5.3354   -3.0406    1.1980 H   0  0  0  0  0  0  0  0  0  0  0  0
    4.4084   -2.1517   -0.8714 H   0  0  0  0  0  0  0  0  0  0  0  0
    1.9730   -3.3241   -2.0151 H   0  0  0  0  0  0  0  0  0  0  0  0
    2.8905   -0.4093   -2.0953 H   0  0  0  0  0  0  0  0  0  0  0  0
    3.6355   -1.8228   -2.8349 H   0  0  0  0  0  0  0  0  0  0  0  0
    2.1126   -1.2047   -3.4768 H   0  0  0  0  0  0  0  0  0  0  0  0
   -2.0165   -4.8082   -2.5312 H   0  0  0  0  0  0  0  0  0  0  0  0
   -3.0178   -3.6227   -3.3927 H   0  0  0  0  0  0  0  0  0  0  0  0
   -3.3923   -4.0568   -1.6984 H   0  0  0  0  0  0  0  0  0  0  0  0
   -5.4821   -0.7018   -2.1380 H   0  0  0  0  0  0  0  0  0  0  0  0
   -5.2692   -2.1379   -1.0943 H   0  0  0  0  0  0  0  0  0  0  0  0
   -4.6601   -2.1068   -2.7540 H   0  0  0  0  0  0  0  0  0  0  0  0
   -5.9101   -0.2835    0.0852 H   0  0  0  0  0  0  0  0  0  0  0  0
   -7.4757    1.3087    1.0306 H   0  0  0  0  0  0  0  0  0  0  0  0
   -6.9377    3.9158    2.7244 H   0  0  0  0  0  0  0  0  0  0  0  0
   -6.8879    4.9583    1.2803 H   0  0  0  0  0  0  0  0  0  0  0  0
   -8.0979    3.6799    1.3947 H   0  0  0  0  0  0  0  0  0  0  0  0
   -4.4745    4.3942    0.8887 H   0  0  0  0  0  0  0  0  0  0  0  0
   -2.8909    2.8190   -0.1042 H   0  0  0  0  0  0  0  0  0  0  0  0
    7.1241   -1.4556    1.2583 H   0  0  0  0  0  0  0  0  0  0  0  0
    7.9405    0.8455    1.5838 H   0  0  0  0  0  0  0  0  0  0  0  0
  1  2  1  0
  2  3  1  0
  3  4  2  0
  4  5  1  0
  5  6  2  0
  6  7  1  0
  7  8  1  0
  8  9  1  0
  9 10  2  0
  9 11  1  0
 11 12  1  0
 11 13  1  0
 13 14  1  0
 14 15  2  0
 15 16  1  0
 15 17  1  0
 17 18  2  0
 18 19  1  0
 18 20  1  0
 20 21  1  0
 21 22  2  0
 22 23  1  0
 23 24  2  0
 24 25  1  0
 24 26  1  0
 26 27  2  0
 20 28  1  0
 28 29  2  0
 29 30  1  0
 30 31  2  0
  6 32  1  0
 32 33  2  0
 33  3  1  0
 30 13  1  0
 29 17  1  0
 27 21  1  0
  1 34  1  0
  1 35  1  0
  1 36  1  0
  4 37  1  0
  5 38  1  0
  7 39  1  0
  7 40  1  0
  8 41  1  0
 11 42  1  0
 12 43  1  0
 12 44  1  0
 12 45  1  0
 16 46  1  0
 16 47  1  0
 16 48  1  0
 19 49  1  0
 19 50  1  0
 19 51  1  0
 22 52  1  0
 23 53  1  0
 25 54  1  0
 25 55  1  0
 25 56  1  0
 26 57  1  0
 27 58  1  0
 32 59  1  0
 33 60  1  0
M  END
$$$$
