
     RDKit          3D

 60 65  0  0  0  0  0  0  0  0999 V2000
    4.1752   -3.3664   -1.1555 C   0  0  0  0  0  0  0  0  0  0  0  0
    4.9524   -2.1162   -0.9854 C   0  0  0  0  0  0  0  0  0  0  0  0
    6.1770   -2.1765   -0.4468 N   0  0  0  0  0  0  0  0  0  0  0  0
    6.6810   -0.8922   -0.5127 O   0  0  0  0  0  0  0  0  0  0  0  0
    5.7546   -0.0688   -1.0683 C   0  0  0  0  0  0  0  0  0  0  0  0
    6.1493    1.3415   -1.2427 C   0  0  0  0  0  0  0  0  0  0  0  0
    4.6104   -0.7850   -1.3466 C   0  0  0  0  0  0  0  0  0  0  0  0
    3.4122   -0.2424   -1.9482 C   0  0  0  0  0  0  0  0  0  0  0  0
    3.4820    0.4610   -2.9537 O   0  0  0  0  0  0  0  0  0  0  0  0
    2.1879   -0.5299   -1.3360 N   0  0  0  0  0  0  0  0  0  0  0  0
    2.0606   -0.9232    0.0675 C   0  0  0  0  0  0  0  0  0  0  0  0
    0.8005   -0.3375    0.7014 C   0  0  0  0  0  0  0  0  0  0  0  0
   -0.4743   -0.8481   -0.0191 C   0  0  0  0  0  0  0  0  0  0  0  0
   -0.2520   -0.8764   -1.5629 C   0  0  0  0  0  0  0  0  0  0  0  0
    0.9768   -0.0976   -2.0199 C   0  0  0  0  0  0  0  0  0  0  0  0
   -0.6380   -2.2565    0.3220 O   0  0  0  0  0  0  0  0  0  0  0  0
   -1.2465   -2.5658    1.5027 C   0  0  0  0  0  0  0  0  0  0  0  0
   -1.1700   -3.9014    1.9009 C   0  0  0  0  0  0  0  0  0  0  0  0
   -1.7419   -4.3033    3.1095 C   0  0  0  0  0  0  0  0  0  0  0  0
   -2.3884   -3.3668    3.9107 C   0  0  0  0  0  0  0  0  0  0  0  0
   -2.9309   -3.7567    5.0708 F   0  0  0  0  0  0  0  0  0  0  0  0
   -2.4818   -2.0368    3.5243 C   0  0  0  0  0  0  0  0  0  0  0  0
   -1.9160   -1.6476    2.3080 C   0  0  0  0  0  0  0  0  0  0  0  0
   -2.0112   -0.2557    1.8503 C   0  0  0  0  0  0  0  0  0  0  0  0
   -2.2772    0.6370    2.6501 O   0  0  0  0  0  0  0  0  0  0  0  0
   -1.7396   -0.0313    0.3682 C   0  0  0  0  0  0  0  0  0  0  0  0
   -1.6891    1.4498    0.0276 C   0  0  0  0  0  0  0  0  0  0  0  0
   -3.1129    1.6392   -0.3751 C   0  0  0  0  0  0  0  0  0  0  0  0
   -3.7179    2.9826   -0.5347 C   0  0  0  0  0  0  0  0  0  0  0  0
   -2.9635    4.1513   -0.3785 C   0  0  0  0  0  0  0  0  0  0  0  0
   -3.5692    5.4023   -0.5414 C   0  0  0  0  0  0  0  0  0  0  0  0
   -4.9236    5.4855   -0.8601 C   0  0  0  0  0  0  0  0  0  0  0  0
   -5.6619    7.0264   -1.0589 Cl  0  0  0  0  0  0  0  0  0  0  0  0
   -5.6812    4.3280   -1.0194 C   0  0  0  0  0  0  0  0  0  0  0  0
   -5.0788    3.0774   -0.8579 C   0  0  0  0  0  0  0  0  0  0  0  0
   -3.7586    0.5412   -0.6084 N   0  0  0  0  0  0  0  0  0  0  0  0
   -2.8814   -0.5337   -0.3475 O   0  0  0  0  0  0  0  0  0  0  0  0
    3.8122   -3.7253   -0.1874 H   0  0  0  0  0  0  0  0  0  0  0  0
    4.7970   -4.1507   -1.5997 H   0  0  0  0  0  0  0  0  0  0  0  0
    3.3137   -3.2190   -1.8132 H   0  0  0  0  0  0  0  0  0  0  0  0
    6.4870    1.5168   -2.2686 H   0  0  0  0  0  0  0  0  0  0  0  0
    5.3075    2.0102   -1.0384 H   0  0  0  0  0  0  0  0  0  0  0  0
    6.9638    1.6111   -0.5633 H   0  0  0  0  0  0  0  0  0  0  0  0
    2.9363   -0.5878    0.6327 H   0  0  0  0  0  0  0  0  0  0  0  0
    2.0287   -2.0169    0.1058 H   0  0  0  0  0  0  0  0  0  0  0  0
    0.8582    0.7568    0.6575 H   0  0  0  0  0  0  0  0  0  0  0  0
    0.7932   -0.6168    1.7610 H   0  0  0  0  0  0  0  0  0  0  0  0
   -1.1247   -0.4914   -2.1020 H   0  0  0  0  0  0  0  0  0  0  0  0
   -0.1362   -1.9154   -1.9024 H   0  0  0  0  0  0  0  0  0  0  0  0
    1.1063   -0.2209   -3.1015 H   0  0  0  0  0  0  0  0  0  0  0  0
    0.8584    0.9754   -1.8333 H   0  0  0  0  0  0  0  0  0  0  0  0
   -0.6632   -4.6299    1.2731 H   0  0  0  0  0  0  0  0  0  0  0  0
   -1.6880   -5.3387    3.4321 H   0  0  0  0  0  0  0  0  0  0  0  0
   -2.9998   -1.3245    4.1602 H   0  0  0  0  0  0  0  0  0  0  0  0
   -1.3915    2.0905    0.8604 H   0  0  0  0  0  0  0  0  0  0  0  0
   -1.0686    1.6736   -0.8433 H   0  0  0  0  0  0  0  0  0  0  0  0
   -1.9068    4.1205   -0.1314 H   0  0  0  0  0  0  0  0  0  0  0  0
   -2.9796    6.3074   -0.4175 H   0  0  0  0  0  0  0  0  0  0  0  0
   -6.7375    4.3888   -1.2675 H   0  0  0  0  0  0  0  0  0  0  0  0
   -5.6807    2.1791   -0.9843 H   0  0  0  0  0  0  0  0  0  0  0  0
  1  2  1  0
  2  3  2  0
  3  4  1  0
  4  5  1  0
  5  6  1  0
  5  7  2  0
  7  8  1  0
  8  9  2  0
  8 10  1  0
 10 11  1  0
 11 12  1  0
 12 13  1  0
 13 14  1  0
 14 15  1  0
 13 16  1  0
 16 17  1  0
 17 18  2  0
 18 19  1  0
 19 20  2  0
 20 21  1  0
 20 22  1  0
 22 23  2  0
 23 24  1  0
 24 25  2  0
 24 26  1  0
 26 27  1  0
 27 28  1  0
 28 29  1  0
 29 30  2  0
 30 31  1  0
 31 32  2  0
 32 33  1  0
 32 34  1  0
 34 35  2  0
 28 36  2  0
 36 37  1  0
  7  2  1  0
 15 10  1  0
 23 17  1  0
 37 26  1  0
 26 13  1  0
 35 29  1  0
  1 38  1  0
  1 39  1  0
  1 40  1  0
  6 41  1  0
  6 42  1  0
  6 43  1  0
 11 44  1  0
 11 45  1  0
 12 46  1  0
 12 47  1  0
 14 48  1  0
 14 49  1  0
 15 50  1  0
 15 51  1  0
 18 52  1  0
 19 53  1  0
 22 54  1  0
 27 55  1  0
 27 56  1  0
 30 57  1  0
 31 58  1  0
 34 59  1  0
 35 60  1  0
M  END
$$$$
