
     RDKit          3D

 74 75  0  0  0  0  0  0  0  0999 V2000
    0.1469    5.2210    5.3982 C   0  0  0  0  0  0  0  0  0  0  0  0
    0.2544    3.8070    5.2233 O   0  0  0  0  0  0  0  0  0  0  0  0
    0.5816    3.4799    3.9294 C   0  0  0  0  0  0  0  0  0  0  0  0
    1.8170    3.9146    3.4294 C   0  0  0  0  0  0  0  0  0  0  0  0
    2.2219    3.5580    2.1523 C   0  0  0  0  0  0  0  0  0  0  0  0
    1.3964    2.7563    1.3723 C   0  0  0  0  0  0  0  0  0  0  0  0
    0.1549    2.2784    1.8557 C   0  0  0  0  0  0  0  0  0  0  0  0
   -0.6775    1.4346    0.8814 C   0  0  0  0  0  0  0  0  0  0  0  0
   -2.2316    1.4186    1.0170 C   0  0  0  0  0  0  0  0  0  0  0  0
   -2.8973    2.4104    1.3137 O   0  0  0  0  0  0  0  0  0  0  0  0
   -2.8109    0.2063    0.6742 N   0  0  0  0  0  0  0  0  0  0  0  0
   -4.2507   -0.0432    0.5522 C   0  0  0  0  0  0  0  0  0  0  0  0
   -4.8449    0.7824   -0.5995 C   0  0  0  0  0  0  0  0  0  0  0  0
   -4.9884    0.2652    1.8639 C   0  0  0  0  0  0  0  0  0  0  0  0
   -4.4419   -1.5383    0.2364 C   0  0  0  0  0  0  0  0  0  0  0  0
   -0.0422    0.1097    0.4687 N   0  0  0  0  0  0  0  0  0  0  0  0
    0.2333    0.0374   -0.9109 C   0  0  0  0  0  0  0  0  0  0  0  0
   -0.1504    0.9165   -1.6920 O   0  0  0  0  0  0  0  0  0  0  0  0
    0.9719   -1.1475   -1.5000 C   0  0  0  0  0  0  0  0  0  0  0  0
    1.3584   -0.9047   -2.9601 C   0  0  0  0  0  0  0  0  0  0  0  0
    2.2639   -1.9994   -3.4907 C   0  0  0  0  0  0  0  0  0  0  0  0
    2.6987   -2.8969   -2.7759 O   0  0  0  0  0  0  0  0  0  0  0  0
    2.5218   -1.8432   -4.8328 N   0  0  0  0  0  0  0  0  0  0  0  0
    3.3609   -2.6398   -5.5789 C   0  0  0  0  0  0  0  0  0  0  0  0
    4.1758   -3.7205   -5.1687 C   0  0  0  0  0  0  0  0  0  0  0  0
    4.7838   -4.1516   -6.3239 C   0  0  0  0  0  0  0  0  0  0  0  0
    5.7272   -5.2343   -6.6456 C   0  0  0  0  0  0  0  0  0  0  0  0
    4.3980   -3.3492   -7.3503 O   0  0  0  0  0  0  0  0  0  0  0  0
    3.5019   -2.4014   -6.8864 N   0  0  0  0  0  0  0  0  0  0  0  0
    0.3153   -0.9461    1.5240 C   0  0  0  0  0  0  0  0  0  0  0  0
   -0.4004   -0.7510    2.8842 C   0  0  0  0  0  0  0  0  0  0  0  0
    1.8298   -0.9253    1.8283 C   0  0  0  0  0  0  0  0  0  0  0  0
   -0.0955   -2.3733    1.0817 C   0  0  0  0  0  0  0  0  0  0  0  0
   -0.2515    2.6440    3.1591 C   0  0  0  0  0  0  0  0  0  0  0  0
   -1.4172    2.0669    3.5860 O   0  0  0  0  0  0  0  0  0  0  0  0
   -2.1530    2.6912    4.6304 C   0  0  0  0  0  0  0  0  0  0  0  0
   -0.3768    5.7002    4.5627 H   0  0  0  0  0  0  0  0  0  0  0  0
    1.1297    5.6741    5.5513 H   0  0  0  0  0  0  0  0  0  0  0  0
   -0.4430    5.3965    6.3025 H   0  0  0  0  0  0  0  0  0  0  0  0
    2.4822    4.5158    4.0432 H   0  0  0  0  0  0  0  0  0  0  0  0
    3.1779    3.9032    1.7678 H   0  0  0  0  0  0  0  0  0  0  0  0
    1.7214    2.5000    0.3658 H   0  0  0  0  0  0  0  0  0  0  0  0
   -0.6328    2.0872   -0.0035 H   0  0  0  0  0  0  0  0  0  0  0  0
   -2.1826   -0.4407    0.2152 H   0  0  0  0  0  0  0  0  0  0  0  0
   -4.3243    0.5758   -1.5417 H   0  0  0  0  0  0  0  0  0  0  0  0
   -4.7661    1.8585   -0.4111 H   0  0  0  0  0  0  0  0  0  0  0  0
   -5.9058    0.5508   -0.7457 H   0  0  0  0  0  0  0  0  0  0  0  0
   -4.5291   -0.2628    2.7049 H   0  0  0  0  0  0  0  0  0  0  0  0
   -6.0382   -0.0430    1.8070 H   0  0  0  0  0  0  0  0  0  0  0  0
   -4.9809    1.3317    2.1027 H   0  0  0  0  0  0  0  0  0  0  0  0
   -4.0305   -2.1651    1.0373 H   0  0  0  0  0  0  0  0  0  0  0  0
   -3.9218   -1.8183   -0.6863 H   0  0  0  0  0  0  0  0  0  0  0  0
   -5.5007   -1.7933    0.1178 H   0  0  0  0  0  0  0  0  0  0  0  0
    1.8750   -1.3511   -0.9295 H   0  0  0  0  0  0  0  0  0  0  0  0
    0.3106   -2.0162   -1.4834 H   0  0  0  0  0  0  0  0  0  0  0  0
    0.4567   -0.8625   -3.5792 H   0  0  0  0  0  0  0  0  0  0  0  0
    1.8855    0.0483   -3.0646 H   0  0  0  0  0  0  0  0  0  0  0  0
    2.0698   -1.1089   -5.3648 H   0  0  0  0  0  0  0  0  0  0  0  0
    4.2938   -4.1413   -4.1809 H   0  0  0  0  0  0  0  0  0  0  0  0
    5.1867   -6.1255   -6.9814 H   0  0  0  0  0  0  0  0  0  0  0  0
    6.3280   -5.5029   -5.7681 H   0  0  0  0  0  0  0  0  0  0  0  0
    6.4140   -4.9332   -7.4433 H   0  0  0  0  0  0  0  0  0  0  0  0
   -0.2644   -1.6249    3.5338 H   0  0  0  0  0  0  0  0  0  0  0  0
    0.0273    0.0758    3.4487 H   0  0  0  0  0  0  0  0  0  0  0  0
   -1.4774   -0.6047    2.7762 H   0  0  0  0  0  0  0  0  0  0  0  0
    2.4406   -1.2536    0.9897 H   0  0  0  0  0  0  0  0  0  0  0  0
    2.1724    0.0748    2.1005 H   0  0  0  0  0  0  0  0  0  0  0  0
    2.0693   -1.5910    2.6638 H   0  0  0  0  0  0  0  0  0  0  0  0
    0.6163   -2.8215    0.3828 H   0  0  0  0  0  0  0  0  0  0  0  0
   -0.1194   -3.0707    1.9289 H   0  0  0  0  0  0  0  0  0  0  0  0
   -1.0939   -2.3806    0.6297 H   0  0  0  0  0  0  0  0  0  0  0  0
   -3.1656    2.2737    4.6127 H   0  0  0  0  0  0  0  0  0  0  0  0
   -2.2463    3.7680    4.4730 H   0  0  0  0  0  0  0  0  0  0  0  0
   -1.7178    2.4448    5.6085 H   0  0  0  0  0  0  0  0  0  0  0  0
  1  2  1  0
  2  3  1  0
  3  4  2  0
  4  5  1  0
  5  6  2  0
  6  7  1  0
  7  8  1  0
  8  9  1  0
  9 10  2  0
  9 11  1  0
 11 12  1  0
 12 13  1  0
 12 14  1  0
 12 15  1  0
  8 16  1  0
 16 17  1  0
 17 18  2  0
 17 19  1  0
 19 20  1  0
 20 21  1  0
 21 22  2  0
 21 23  1  0
 23 24  1  0
 24 25  1  0
 25 26  2  0
 26 27  1  0
 26 28  1  0
 28 29  1  0
 16 30  1  0
 30 31  1  0
 30 32  1  0
 30 33  1  0
  7 34  2  0
 34 35  1  0
 35 36  1  0
 34  3  1  0
 29 24  2  0
  1 37  1  0
  1 38  1  0
  1 39  1  0
  4 40  1  0
  5 41  1  0
  6 42  1  0
  8 43  1  0
 11 44  1  0
 13 45  1  0
 13 46  1  0
 13 47  1  0
 14 48  1  0
 14 49  1  0
 14 50  1  0
 15 51  1  0
 15 52  1  0
 15 53  1  0
 19 54  1  0
 19 55  1  0
 20 56  1  0
 20 57  1  0
 23 58  1  0
 25 59  1  0
 27 60  1  0
 27 61  1  0
 27 62  1  0
 31 63  1  0
 31 64  1  0
 31 65  1  0
 32 66  1  0
 32 67  1  0
 32 68  1  0
 33 69  1  0
 33 70  1  0
 33 71  1  0
 36 72  1  0
 36 73  1  0
 36 74  1  0
M  END
$$$$
