
     RDKit          3D

 41 42  0  0  0  0  0  0  0  0999 V2000
    6.7267    2.1597    0.9823 C   0  0  0  0  0  0  0  0  0  0  0  0
    5.3711    1.7152    1.0237 O   0  0  0  0  0  0  0  0  0  0  0  0
    5.1496    0.5442    0.3606 C   0  0  0  0  0  0  0  0  0  0  0  0
    6.0147   -0.0897   -0.2296 O   0  0  0  0  0  0  0  0  0  0  0  0
    3.7473    0.1791    0.4578 C   0  0  0  0  0  0  0  0  0  0  0  0
    2.7134    0.8827    1.0573 C   0  0  0  0  0  0  0  0  0  0  0  0
    1.5190    0.1609    0.8681 C   0  0  0  0  0  0  0  0  0  0  0  0
    1.8110   -0.9834    0.1429 C   0  0  0  0  0  0  0  0  0  0  0  0
    0.7409   -2.2704   -0.4523 S   0  0  0  0  0  6  0  0  0  0  0  0
    0.9537   -3.3731    0.4545 O   0  0  0  0  0  0  0  0  0  0  0  0
    1.0127   -2.3669   -1.8676 O   0  0  0  0  0  0  0  0  0  0  0  0
   -0.8419   -1.7531   -0.2471 N   0  0  0  0  0  0  0  0  0  0  0  0
   -1.3305   -0.7814   -1.2368 C   0  0  0  0  0  0  0  0  0  0  0  0
   -2.7074   -0.2738   -0.8763 C   0  0  0  0  0  0  0  0  0  0  0  0
   -2.9727    0.2360    0.4030 C   0  0  0  0  0  0  0  0  0  0  0  0
   -4.2423    0.7241    0.7334 C   0  0  0  0  0  0  0  0  0  0  0  0
   -5.2644    0.7158   -0.2144 C   0  0  0  0  0  0  0  0  0  0  0  0
   -6.5435    1.1605   -0.0246 O   0  0  0  0  0  0  0  0  0  0  0  0
   -6.8627    1.6681    1.2648 C   0  0  0  0  0  0  0  0  0  0  0  0
   -5.0031    0.2177   -1.4924 C   0  0  0  0  0  0  0  0  0  0  0  0
   -3.7368   -0.2709   -1.8251 C   0  0  0  0  0  0  0  0  0  0  0  0
    3.1831   -0.9848   -0.0521 N   0  0  0  0  0  0  0  0  0  0  0  0
    3.9444   -2.0416   -0.6943 C   0  0  0  0  0  0  0  0  0  0  0  0
    7.3861    1.4266    1.4575 H   0  0  0  0  0  0  0  0  0  0  0  0
    7.0369    2.3502   -0.0499 H   0  0  0  0  0  0  0  0  0  0  0  0
    6.7929    3.0972    1.5414 H   0  0  0  0  0  0  0  0  0  0  0  0
    2.8165    1.8322    1.5694 H   0  0  0  0  0  0  0  0  0  0  0  0
    0.5311    0.4436    1.2086 H   0  0  0  0  0  0  0  0  0  0  0  0
   -1.4596   -2.5577   -0.1372 H   0  0  0  0  0  0  0  0  0  0  0  0
   -1.3713   -1.2687   -2.2179 H   0  0  0  0  0  0  0  0  0  0  0  0
   -0.6560    0.0786   -1.3052 H   0  0  0  0  0  0  0  0  0  0  0  0
   -2.1883    0.2505    1.1574 H   0  0  0  0  0  0  0  0  0  0  0  0
   -4.3965    1.1026    1.7383 H   0  0  0  0  0  0  0  0  0  0  0  0
   -6.7492    0.8956    2.0326 H   0  0  0  0  0  0  0  0  0  0  0  0
   -6.2615    2.5524    1.5007 H   0  0  0  0  0  0  0  0  0  0  0  0
   -7.9134    1.9736    1.2530 H   0  0  0  0  0  0  0  0  0  0  0  0
   -5.7951    0.2116   -2.2378 H   0  0  0  0  0  0  0  0  0  0  0  0
   -3.5674   -0.6478   -2.8315 H   0  0  0  0  0  0  0  0  0  0  0  0
    3.3499   -2.9496   -0.7908 H   0  0  0  0  0  0  0  0  0  0  0  0
    4.8102   -2.2781   -0.0707 H   0  0  0  0  0  0  0  0  0  0  0  0
    4.2521   -1.6878   -1.6812 H   0  0  0  0  0  0  0  0  0  0  0  0
  1  2  1  0
  2  3  1  0
  3  4  2  0
  3  5  1  0
  5  6  2  0
  6  7  1  0
  7  8  2  0
  8  9  1  0
  9 10  2  0
  9 11  2  0
  9 12  1  0
 12 13  1  0
 13 14  1  0
 14 15  2  0
 15 16  1  0
 16 17  2  0
 17 18  1  0
 18 19  1  0
 17 20  1  0
 20 21  2  0
  8 22  1  0
 22 23  1  0
 22  5  1  0
 21 14  1  0
  1 24  1  0
  1 25  1  0
  1 26  1  0
  6 27  1  0
  7 28  1  0
 12 29  1  0
 13 30  1  0
 13 31  1  0
 15 32  1  0
 16 33  1  0
 19 34  1  0
 19 35  1  0
 19 36  1  0
 20 37  1  0
 21 38  1  0
 23 39  1  0
 23 40  1  0
 23 41  1  0
M  END
$$$$
