
     RDKit          3D

 59 62  0  0  0  0  0  0  0  0999 V2000
    9.4204   -0.8090    1.8246 C   0  0  0  0  0  0  0  0  0  0  0  0
    7.9559   -0.5623    1.6294 C   0  0  0  0  0  0  0  0  0  0  0  0
    7.4575   -0.2082    0.3725 C   0  0  0  0  0  0  0  0  0  0  0  0
    6.0951    0.0505    0.1980 C   0  0  0  0  0  0  0  0  0  0  0  0
    5.2028   -0.0472    1.2787 C   0  0  0  0  0  0  0  0  0  0  0  0
    3.8168    0.2209    1.0540 N   0  0  0  0  0  0  0  0  0  0  0  0
    3.4562    0.8882   -0.0770 N   0  0  0  0  0  0  0  0  0  0  0  0
    2.1657    1.1864    0.0905 C   0  0  0  0  0  0  0  0  0  0  0  0
    1.3321    1.9690   -0.8146 C   0  0  0  0  0  0  0  0  0  0  0  0
    1.7468    2.4849   -1.8503 O   0  0  0  0  0  0  0  0  0  0  0  0
   -0.0060    2.0596   -0.3769 N   0  0  0  0  0  0  0  0  0  0  0  0
   -0.9683    2.8158   -1.1725 C   0  0  0  0  0  0  0  0  0  0  0  0
   -1.4796    2.0454   -2.3934 C   0  0  0  0  0  0  0  0  0  0  0  0
   -2.1801    0.7292   -2.0630 C   0  0  0  0  0  0  0  0  0  0  0  0
   -3.4862    0.9039   -1.3128 C   0  0  0  0  0  0  0  0  0  0  0  0
   -4.0024    1.9932   -1.0926 O   0  0  0  0  0  0  0  0  0  0  0  0
   -4.0319   -0.2991   -0.9252 N   0  0  0  0  0  0  0  0  0  0  0  0
   -5.3163   -0.3881   -0.2680 C   0  0  0  0  0  0  0  0  0  0  0  0
   -6.2230   -1.2098   -1.1102 C   0  0  0  0  0  0  0  0  0  0  0  0
   -6.3457   -2.5678   -1.3310 C   0  0  0  0  0  0  0  0  0  0  0  0
   -7.4082   -2.7289   -2.2543 C   0  0  0  0  0  0  0  0  0  0  0  0
   -7.8724   -1.4623   -2.5361 C   0  0  0  0  0  0  0  0  0  0  0  0
   -8.9522   -0.9417   -3.3979 C   0  0  0  0  0  0  0  0  0  0  0  0
   -7.1567   -0.5357   -1.8412 O   0  0  0  0  0  0  0  0  0  0  0  0
   -0.5132    1.4725    0.7879 N   0  0  0  0  0  0  0  0  0  0  0  0
    0.2557    0.7919    1.5908 C   0  0  0  0  0  0  0  0  0  0  0  0
   -0.3491    0.2114    2.8369 C   0  0  0  0  0  0  0  0  0  0  0  0
    1.6462    0.6134    1.2561 C   0  0  0  0  0  0  0  0  0  0  0  0
    2.6918   -0.0950    1.8264 C   0  0  0  0  0  0  0  0  0  0  0  0
    2.6856   -1.0508    2.9648 C   0  0  0  0  0  0  0  0  0  0  0  0
    5.7113   -0.3575    2.5453 C   0  0  0  0  0  0  0  0  0  0  0  0
    7.0769   -0.6139    2.7162 C   0  0  0  0  0  0  0  0  0  0  0  0
    9.5866   -1.5471    2.6140 H   0  0  0  0  0  0  0  0  0  0  0  0
    9.9234    0.1209    2.0983 H   0  0  0  0  0  0  0  0  0  0  0  0
    9.8781   -1.2022    0.9108 H   0  0  0  0  0  0  0  0  0  0  0  0
    8.1233   -0.1287   -0.4847 H   0  0  0  0  0  0  0  0  0  0  0  0
    5.7424    0.3169   -0.7981 H   0  0  0  0  0  0  0  0  0  0  0  0
   -1.7912    3.1297   -0.5224 H   0  0  0  0  0  0  0  0  0  0  0  0
   -0.4745    3.7313   -1.5194 H   0  0  0  0  0  0  0  0  0  0  0  0
   -0.6378    1.8253   -3.0598 H   0  0  0  0  0  0  0  0  0  0  0  0
   -2.1626    2.6933   -2.9556 H   0  0  0  0  0  0  0  0  0  0  0  0
   -2.4154    0.2147   -3.0035 H   0  0  0  0  0  0  0  0  0  0  0  0
   -1.5188    0.0716   -1.4878 H   0  0  0  0  0  0  0  0  0  0  0  0
   -3.5931   -1.1584   -1.2257 H   0  0  0  0  0  0  0  0  0  0  0  0
   -5.7378    0.6053   -0.0785 H   0  0  0  0  0  0  0  0  0  0  0  0
   -5.1513   -0.8818    0.6954 H   0  0  0  0  0  0  0  0  0  0  0  0
   -5.7427   -3.3433   -0.8804 H   0  0  0  0  0  0  0  0  0  0  0  0
   -7.7926   -3.6526   -2.6632 H   0  0  0  0  0  0  0  0  0  0  0  0
   -9.8670   -0.8027   -2.8140 H   0  0  0  0  0  0  0  0  0  0  0  0
   -9.1679   -1.6335   -4.2197 H   0  0  0  0  0  0  0  0  0  0  0  0
   -8.6715    0.0230   -3.8332 H   0  0  0  0  0  0  0  0  0  0  0  0
    0.2775    0.4387    3.7043 H   0  0  0  0  0  0  0  0  0  0  0  0
   -0.4464   -0.8722    2.7252 H   0  0  0  0  0  0  0  0  0  0  0  0
   -1.3447    0.6334    3.0077 H   0  0  0  0  0  0  0  0  0  0  0  0
    1.7320   -1.5853    3.0227 H   0  0  0  0  0  0  0  0  0  0  0  0
    2.8327   -0.5230    3.9126 H   0  0  0  0  0  0  0  0  0  0  0  0
    3.4472   -1.8280    2.8558 H   0  0  0  0  0  0  0  0  0  0  0  0
    5.0928   -0.3603    3.4347 H   0  0  0  0  0  0  0  0  0  0  0  0
    7.4539   -0.8434    3.7109 H   0  0  0  0  0  0  0  0  0  0  0  0
  1  2  1  0
  2  3  2  0
  3  4  1  0
  4  5  2  0
  5  6  1  0
  6  7  1  0
  7  8  2  0
  8  9  1  0
  9 10  2  0
  9 11  1  0
 11 12  1  0
 12 13  1  0
 13 14  1  0
 14 15  1  0
 15 16  2  0
 15 17  1  0
 17 18  1  0
 18 19  1  0
 19 20  2  0
 20 21  1  0
 21 22  2  0
 22 23  1  0
 22 24  1  0
 11 25  1  0
 25 26  2  0
 26 27  1  0
 26 28  1  0
 28 29  2  0
 29 30  1  0
  5 31  1  0
 31 32  2  0
 32  2  1  0
 29  6  1  0
 28  8  1  0
 24 19  1  0
  1 33  1  0
  1 34  1  0
  1 35  1  0
  3 36  1  0
  4 37  1  0
 12 38  1  0
 12 39  1  0
 13 40  1  0
 13 41  1  0
 14 42  1  0
 14 43  1  0
 17 44  1  0
 18 45  1  0
 18 46  1  0
 20 47  1  0
 21 48  1  0
 23 49  1  0
 23 50  1  0
 23 51  1  0
 27 52  1  0
 27 53  1  0
 27 54  1  0
 30 55  1  0
 30 56  1  0
 30 57  1  0
 31 58  1  0
 32 59  1  0
M  END
$$$$
