
     RDKit          3D

 55 60  0  0  0  0  0  0  0  0999 V2000
   -3.5884    2.7311    1.7326 O   0  0  0  0  0  0  0  0  0  0  0  0
   -3.7413    1.8232    0.9170 C   0  0  0  0  0  0  0  0  0  0  0  0
   -5.0776    1.4867    0.4445 C   0  0  0  0  0  0  0  0  0  0  0  0
   -5.5477    1.0302   -0.8229 C   0  0  0  0  0  0  0  0  0  0  0  0
   -6.9136    0.9093   -0.7185 C   0  0  0  0  0  0  0  0  0  0  0  0
   -7.3272    1.2804    0.5183 O   0  0  0  0  0  0  0  0  0  0  0  0
   -6.2183    1.6475    1.2084 C   0  0  0  0  0  0  0  0  0  0  0  0
   -2.6513    1.1075    0.4111 N   0  0  0  0  0  0  0  0  0  0  0  0
   -1.3143    1.5730    0.7662 C   0  0  0  0  0  0  0  0  0  0  0  0
   -0.2909    1.0783   -0.2464 C   0  0  0  0  0  0  0  0  0  0  0  0
   -0.1898   -0.4753   -0.2963 C   0  0  0  0  0  0  0  0  0  0  0  0
   -1.5471   -1.0915    0.1705 C   0  0  0  0  0  0  0  0  0  0  0  0
   -2.7421   -0.2161   -0.2018 C   0  0  0  0  0  0  0  0  0  0  0  0
    0.0096   -0.7745   -1.7057 O   0  0  0  0  0  0  0  0  0  0  0  0
    0.3787   -2.0548   -2.0115 C   0  0  0  0  0  0  0  0  0  0  0  0
    0.2394   -2.4316   -3.3479 C   0  0  0  0  0  0  0  0  0  0  0  0
    0.5672   -3.7298   -3.7423 C   0  0  0  0  0  0  0  0  0  0  0  0
    1.0349   -4.6398   -2.7987 C   0  0  0  0  0  0  0  0  0  0  0  0
    1.3457   -5.8836   -3.1836 F   0  0  0  0  0  0  0  0  0  0  0  0
    1.1924   -4.2755   -1.4679 C   0  0  0  0  0  0  0  0  0  0  0  0
    0.8716   -2.9721   -1.0819 C   0  0  0  0  0  0  0  0  0  0  0  0
    1.0705   -2.5340    0.3121 C   0  0  0  0  0  0  0  0  0  0  0  0
    1.3158   -3.3642    1.1800 O   0  0  0  0  0  0  0  0  0  0  0  0
    1.0060   -1.0268    0.5359 C   0  0  0  0  0  0  0  0  0  0  0  0
    2.3824   -0.4603    0.1994 C   0  0  0  0  0  0  0  0  0  0  0  0
    2.5865    0.4122    1.3886 C   0  0  0  0  0  0  0  0  0  0  0  0
    3.7085    1.3759    1.4714 C   0  0  0  0  0  0  0  0  0  0  0  0
    3.7775    2.2431    2.5689 C   0  0  0  0  0  0  0  0  0  0  0  0
    4.8194    3.1666    2.6712 C   0  0  0  0  0  0  0  0  0  0  0  0
    5.7971    3.2267    1.6800 C   0  0  0  0  0  0  0  0  0  0  0  0
    5.7362    2.3632    0.5869 C   0  0  0  0  0  0  0  0  0  0  0  0
    4.6948    1.4374    0.4802 C   0  0  0  0  0  0  0  0  0  0  0  0
    1.7056    0.2676    2.3249 N   0  0  0  0  0  0  0  0  0  0  0  0
    0.8145   -0.7520    1.9256 O   0  0  0  0  0  0  0  0  0  0  0  0
   -4.9676    0.8327   -1.7123 H   0  0  0  0  0  0  0  0  0  0  0  0
   -7.6954    0.6050   -1.4007 H   0  0  0  0  0  0  0  0  0  0  0  0
   -6.3881    1.9954    2.2188 H   0  0  0  0  0  0  0  0  0  0  0  0
   -1.0877    1.2214    1.7787 H   0  0  0  0  0  0  0  0  0  0  0  0
   -1.3080    2.6688    0.7915 H   0  0  0  0  0  0  0  0  0  0  0  0
    0.6746    1.5486   -0.0458 H   0  0  0  0  0  0  0  0  0  0  0  0
   -0.5807    1.4558   -1.2380 H   0  0  0  0  0  0  0  0  0  0  0  0
   -1.5518   -1.2222    1.2599 H   0  0  0  0  0  0  0  0  0  0  0  0
   -1.7084   -2.0822   -0.2682 H   0  0  0  0  0  0  0  0  0  0  0  0
   -3.6596   -0.7173    0.1211 H   0  0  0  0  0  0  0  0  0  0  0  0
   -2.7848   -0.0778   -1.2877 H   0  0  0  0  0  0  0  0  0  0  0  0
   -0.1346   -1.7206   -4.0810 H   0  0  0  0  0  0  0  0  0  0  0  0
    0.4575   -4.0397   -4.7776 H   0  0  0  0  0  0  0  0  0  0  0  0
    1.5690   -5.0006   -0.7517 H   0  0  0  0  0  0  0  0  0  0  0  0
    3.1718   -1.2199    0.1820 H   0  0  0  0  0  0  0  0  0  0  0  0
    2.4040    0.1030   -0.7369 H   0  0  0  0  0  0  0  0  0  0  0  0
    3.0226    2.2057    3.3522 H   0  0  0  0  0  0  0  0  0  0  0  0
    4.8673    3.8366    3.5263 H   0  0  0  0  0  0  0  0  0  0  0  0
    6.6093    3.9452    1.7621 H   0  0  0  0  0  0  0  0  0  0  0  0
    6.5042    2.4099   -0.1816 H   0  0  0  0  0  0  0  0  0  0  0  0
    4.6820    0.7741   -0.3791 H   0  0  0  0  0  0  0  0  0  0  0  0
  1  2  2  0
  2  3  1  0
  3  4  1  0
  4  5  2  0
  5  6  1  0
  6  7  1  0
  2  8  1  0
  8  9  1  0
  9 10  1  0
 10 11  1  0
 11 12  1  0
 12 13  1  0
 11 14  1  0
 14 15  1  0
 15 16  2  0
 16 17  1  0
 17 18  2  0
 18 19  1  0
 18 20  1  0
 20 21  2  0
 21 22  1  0
 22 23  2  0
 22 24  1  0
 24 25  1  0
 25 26  1  0
 26 27  1  0
 27 28  2  0
 28 29  1  0
 29 30  2  0
 30 31  1  0
 31 32  2  0
 26 33  2  0
 33 34  1  0
  7  3  2  0
 13  8  1  0
 21 15  1  0
 34 24  1  0
 24 11  1  0
 32 27  1  0
  4 35  1  0
  5 36  1  0
  7 37  1  0
  9 38  1  0
  9 39  1  0
 10 40  1  0
 10 41  1  0
 12 42  1  0
 12 43  1  0
 13 44  1  0
 13 45  1  0
 16 46  1  0
 17 47  1  0
 20 48  1  0
 25 49  1  0
 25 50  1  0
 28 51  1  0
 29 52  1  0
 30 53  1  0
 31 54  1  0
 32 55  1  0
M  END
$$$$
