
     RDKit          3D

 37 38  0  0  0  0  0  0  0  0999 V2000
   -5.2709    0.9826   -1.9572 C   0  0  0  0  0  0  0  0  0  0  0  0
   -4.7454    0.2121   -0.8864 O   0  0  0  0  0  0  0  0  0  0  0  0
   -3.4606    0.4726   -0.4794 C   0  0  0  0  0  0  0  0  0  0  0  0
   -2.6306    1.4409   -1.0558 C   0  0  0  0  0  0  0  0  0  0  0  0
   -1.3316    1.6354   -0.5773 C   0  0  0  0  0  0  0  0  0  0  0  0
   -0.8516    0.8556    0.4787 C   0  0  0  0  0  0  0  0  0  0  0  0
    0.5242    1.0271    1.0203 C   0  0  0  0  0  0  0  0  0  0  0  0
    0.7601    0.7608    2.1930 O   0  0  0  0  0  0  0  0  0  0  0  0
    1.4840    1.4516    0.1260 N   0  0  0  0  0  0  0  0  0  0  0  0
    2.8780    1.5249    0.5018 C   0  0  0  0  0  0  0  0  0  0  0  0
    3.6134    0.2788    0.0763 C   0  0  0  0  0  0  0  0  0  0  0  0
    4.3429    0.2482   -1.1192 C   0  0  0  0  0  0  0  0  0  0  0  0
    5.0007   -0.9192   -1.5158 C   0  0  0  0  0  0  0  0  0  0  0  0
    4.9314   -2.0712   -0.7267 C   0  0  0  0  0  0  0  0  0  0  0  0
    5.7683   -3.4767   -1.2832 Cl  0  0  0  0  0  0  0  0  0  0  0  0
    4.1991   -2.0546    0.4644 C   0  0  0  0  0  0  0  0  0  0  0  0
    4.0616   -3.4407    1.4865 Cl  0  0  0  0  0  0  0  0  0  0  0  0
    3.5433   -0.8842    0.8603 C   0  0  0  0  0  0  0  0  0  0  0  0
   -1.6827   -0.1031    1.0722 C   0  0  0  0  0  0  0  0  0  0  0  0
   -2.9835   -0.3031    0.5980 C   0  0  0  0  0  0  0  0  0  0  0  0
   -3.8612   -1.2264    1.1108 O   0  0  0  0  0  0  0  0  0  0  0  0
   -3.4395   -1.9820    2.2381 C   0  0  0  0  0  0  0  0  0  0  0  0
   -5.3147    2.0448   -1.6953 H   0  0  0  0  0  0  0  0  0  0  0  0
   -6.2948    0.6438   -2.1423 H   0  0  0  0  0  0  0  0  0  0  0  0
   -4.6974    0.8241   -2.8764 H   0  0  0  0  0  0  0  0  0  0  0  0
   -2.9693    2.0670   -1.8746 H   0  0  0  0  0  0  0  0  0  0  0  0
   -0.7215    2.4167   -1.0215 H   0  0  0  0  0  0  0  0  0  0  0  0
    1.2751    1.4265   -0.8618 H   0  0  0  0  0  0  0  0  0  0  0  0
    3.3012    2.4054    0.0058 H   0  0  0  0  0  0  0  0  0  0  0  0
    2.9839    1.6790    1.5815 H   0  0  0  0  0  0  0  0  0  0  0  0
    4.4073    1.1326   -1.7502 H   0  0  0  0  0  0  0  0  0  0  0  0
    5.5666   -0.9251   -2.4446 H   0  0  0  0  0  0  0  0  0  0  0  0
    2.9660   -0.8738    1.7850 H   0  0  0  0  0  0  0  0  0  0  0  0
   -1.2861   -0.6835    1.8999 H   0  0  0  0  0  0  0  0  0  0  0  0
   -2.5836   -2.6176    1.9884 H   0  0  0  0  0  0  0  0  0  0  0  0
   -3.2163   -1.3315    3.0901 H   0  0  0  0  0  0  0  0  0  0  0  0
   -4.2659   -2.6378    2.5288 H   0  0  0  0  0  0  0  0  0  0  0  0
  1  2  1  0
  2  3  1  0
  3  4  2  0
  4  5  1  0
  5  6  2  0
  6  7  1  0
  7  8  2  0
  7  9  1  0
  9 10  1  0
 10 11  1  0
 11 12  2  0
 12 13  1  0
 13 14  2  0
 14 15  1  0
 14 16  1  0
 16 17  1  0
 16 18  2  0
  6 19  1  0
 19 20  2  0
 20 21  1  0
 21 22  1  0
 20  3  1  0
 18 11  1  0
  1 23  1  0
  1 24  1  0
  1 25  1  0
  4 26  1  0
  5 27  1  0
  9 28  1  0
 10 29  1  0
 10 30  1  0
 12 31  1  0
 13 32  1  0
 18 33  1  0
 19 34  1  0
 22 35  1  0
 22 36  1  0
 22 37  1  0
M  END
$$$$
