
     RDKit          3D

 47 50  0  0  0  0  0  0  0  0999 V2000
   -8.2790    0.4451   -1.8799 C   0  0  0  0  0  0  0  0  0  0  0  0
   -7.3857    0.6001   -0.7744 O   0  0  0  0  0  0  0  0  0  0  0  0
   -6.2113   -0.0623   -0.9183 C   0  0  0  0  0  0  0  0  0  0  0  0
   -5.8904   -0.7510   -1.8743 O   0  0  0  0  0  0  0  0  0  0  0  0
   -5.3315    0.1537    0.2645 C   0  0  0  0  0  0  0  0  0  0  0  0
   -5.7223    0.9491    1.3467 C   0  0  0  0  0  0  0  0  0  0  0  0
   -4.8686    1.1069    2.4351 C   0  0  0  0  0  0  0  0  0  0  0  0
   -3.6205    0.4784    2.4437 C   0  0  0  0  0  0  0  0  0  0  0  0
   -3.1992   -0.3157    1.3589 C   0  0  0  0  0  0  0  0  0  0  0  0
   -1.9154   -0.9373    1.4284 N   0  0  0  0  0  0  0  0  0  0  0  0
   -1.2103   -0.8881    2.5958 N   0  0  0  0  0  0  0  0  0  0  0  0
   -0.1165   -1.6065    2.4162 N   0  0  0  0  0  0  0  0  0  0  0  0
   -0.0499   -2.0879    1.1443 N   0  0  0  0  0  0  0  0  0  0  0  0
   -1.1316   -1.6578    0.5292 C   0  0  0  0  0  0  0  0  0  0  0  0
   -1.4229   -1.9120   -1.1577 S   0  0  0  0  0  0  0  0  0  0  0  0
    0.0870   -2.7799   -1.6729 C   0  0  0  0  0  0  0  0  0  0  0  0
    1.2081   -1.7903   -1.9527 C   0  0  0  0  0  0  0  0  0  0  0  0
    1.3534   -1.3298   -3.0820 O   0  0  0  0  0  0  0  0  0  0  0  0
    1.9741   -1.5161   -0.8420 N   0  0  0  0  0  0  0  0  0  0  0  0
    3.0765   -0.7046   -0.7735 C   0  0  0  0  0  0  0  0  0  0  0  0
    3.6754   -0.4744    0.3746 N   0  0  0  0  0  0  0  0  0  0  0  0
    4.7643    0.3445    0.1641 C   0  0  0  0  0  0  0  0  0  0  0  0
    4.9617    0.7339   -1.1441 C   0  0  0  0  0  0  0  0  0  0  0  0
    3.7720    0.0445   -2.1428 S   0  0  0  0  0  0  0  0  0  0  0  0
    6.0724    1.5981   -1.6313 C   0  0  0  0  0  0  0  0  0  0  0  0
    6.7541    2.3044   -0.4440 C   0  0  0  0  0  0  0  0  0  0  0  0
    6.9678    1.3590    0.7524 C   0  0  0  0  0  0  0  0  0  0  0  0
    5.6375    0.7956    1.2844 C   0  0  0  0  0  0  0  0  0  0  0  0
   -4.0720   -0.4789    0.2769 C   0  0  0  0  0  0  0  0  0  0  0  0
   -7.8318    0.8512   -2.7934 H   0  0  0  0  0  0  0  0  0  0  0  0
   -8.5495   -0.6076   -2.0123 H   0  0  0  0  0  0  0  0  0  0  0  0
   -9.1906    1.0100   -1.6611 H   0  0  0  0  0  0  0  0  0  0  0  0
   -6.6879    1.4484    1.3589 H   0  0  0  0  0  0  0  0  0  0  0  0
   -5.1759    1.7182    3.2823 H   0  0  0  0  0  0  0  0  0  0  0  0
   -2.9843    0.6308    3.3167 H   0  0  0  0  0  0  0  0  0  0  0  0
    0.3976   -3.5355   -0.9433 H   0  0  0  0  0  0  0  0  0  0  0  0
   -0.1240   -3.3165   -2.6044 H   0  0  0  0  0  0  0  0  0  0  0  0
    1.6848   -1.8639    0.0674 H   0  0  0  0  0  0  0  0  0  0  0  0
    5.7073    2.3459   -2.3427 H   0  0  0  0  0  0  0  0  0  0  0  0
    6.8090    0.9738   -2.1529 H   0  0  0  0  0  0  0  0  0  0  0  0
    7.7161    2.7169   -0.7714 H   0  0  0  0  0  0  0  0  0  0  0  0
    6.1367    3.1523   -0.1196 H   0  0  0  0  0  0  0  0  0  0  0  0
    7.4873    1.8895    1.5591 H   0  0  0  0  0  0  0  0  0  0  0  0
    7.6164    0.5307    0.4393 H   0  0  0  0  0  0  0  0  0  0  0  0
    5.1118    1.5761    1.8471 H   0  0  0  0  0  0  0  0  0  0  0  0
    5.8344   -0.0331    1.9736 H   0  0  0  0  0  0  0  0  0  0  0  0
   -3.8345   -1.1077   -0.5731 H   0  0  0  0  0  0  0  0  0  0  0  0
  1  2  1  0
  2  3  1  0
  3  4  2  0
  3  5  1  0
  5  6  2  0
  6  7  1  0
  7  8  2  0
  8  9  1  0
  9 10  1  0
 10 11  1  0
 11 12  2  0
 12 13  1  0
 13 14  2  0
 14 15  1  0
 15 16  1  0
 16 17  1  0
 17 18  2  0
 17 19  1  0
 19 20  1  0
 20 21  2  0
 21 22  1  0
 22 23  2  0
 23 24  1  0
 23 25  1  0
 25 26  1  0
 26 27  1  0
 27 28  1  0
  9 29  2  0
 29  5  1  0
 14 10  1  0
 24 20  1  0
 28 22  1  0
  1 30  1  0
  1 31  1  0
  1 32  1  0
  6 33  1  0
  7 34  1  0
  8 35  1  0
 16 36  1  0
 16 37  1  0
 19 38  1  0
 25 39  1  0
 25 40  1  0
 26 41  1  0
 26 42  1  0
 27 43  1  0
 27 44  1  0
 28 45  1  0
 28 46  1  0
 29 47  1  0
M  END
$$$$
