
     RDKit          3D

 50 53  0  0  0  0  0  0  0  0999 V2000
   -1.7649    1.7074    5.2851 C   0  0  0  0  0  0  0  0  0  0  0  0
   -1.1640    0.9334    4.1217 C   0  0  0  0  0  0  0  0  0  0  0  0
   -1.5106    1.5471    2.7728 C   0  0  0  0  0  0  0  0  0  0  0  0
   -2.2428    2.5369    2.7053 O   0  0  0  0  0  0  0  0  0  0  0  0
   -0.9911    0.9366    1.6321 N   0  0  0  0  0  0  0  0  0  0  0  0
   -1.3818    1.4933    0.3301 C   0  0  0  0  0  0  0  0  0  0  0  0
   -2.3433    0.6092   -0.4320 C   0  0  0  0  0  0  0  0  0  0  0  0
   -3.5791    0.2524    0.1242 C   0  0  0  0  0  0  0  0  0  0  0  0
   -4.4682   -0.5622   -0.5804 C   0  0  0  0  0  0  0  0  0  0  0  0
   -4.1387   -1.0359   -1.8548 C   0  0  0  0  0  0  0  0  0  0  0  0
   -5.1104   -1.8791   -2.6258 C   0  0  0  0  0  0  0  0  0  0  0  0
   -2.9197   -0.6554   -2.4263 C   0  0  0  0  0  0  0  0  0  0  0  0
   -2.0301    0.1596   -1.7217 C   0  0  0  0  0  0  0  0  0  0  0  0
   -0.2252   -0.3190    1.6511 C   0  0  0  0  0  0  0  0  0  0  0  0
    1.0721   -0.2032    0.9045 C   0  0  0  0  0  0  0  0  0  0  0  0
    1.2836   -0.7730   -0.2961 C   0  0  0  0  0  0  0  0  0  0  0  0
    2.5654   -0.6316   -0.9856 C   0  0  0  0  0  0  0  0  0  0  0  0
    2.7773   -1.2001   -2.2463 C   0  0  0  0  0  0  0  0  0  0  0  0
    4.0133   -1.0138   -2.8304 C   0  0  0  0  0  0  0  0  0  0  0  0
    5.0132   -0.2988   -2.2108 C   0  0  0  0  0  0  0  0  0  0  0  0
    4.8394    0.2740   -0.9691 C   0  0  0  0  0  0  0  0  0  0  0  0
    3.5966    0.1003   -0.3576 C   0  0  0  0  0  0  0  0  0  0  0  0
    3.3619    0.6524    0.9063 N   0  0  0  0  0  0  0  0  0  0  0  0
    2.1810    0.5274    1.5885 C   0  0  0  0  0  0  0  0  0  0  0  0
    2.0539    0.9888    2.7180 O   0  0  0  0  0  0  0  0  0  0  0  0
    6.1467   -0.2385   -2.9598 O   0  0  0  0  0  0  0  0  0  0  0  0
    5.7482   -0.9957   -4.1219 C   0  0  0  0  0  0  0  0  0  0  0  0
    4.3946   -1.4908   -4.0456 O   0  0  0  0  0  0  0  0  0  0  0  0
   -2.8577    1.7336    5.2182 H   0  0  0  0  0  0  0  0  0  0  0  0
   -1.4926    1.2379    6.2354 H   0  0  0  0  0  0  0  0  0  0  0  0
   -1.4036    2.7410    5.2983 H   0  0  0  0  0  0  0  0  0  0  0  0
   -1.5485   -0.0916    4.1509 H   0  0  0  0  0  0  0  0  0  0  0  0
   -0.0772    0.9186    4.2411 H   0  0  0  0  0  0  0  0  0  0  0  0
   -1.8459    2.4799    0.4415 H   0  0  0  0  0  0  0  0  0  0  0  0
   -0.4686    1.6664   -0.2501 H   0  0  0  0  0  0  0  0  0  0  0  0
   -3.8596    0.6184    1.1106 H   0  0  0  0  0  0  0  0  0  0  0  0
   -5.4238   -0.8182   -0.1281 H   0  0  0  0  0  0  0  0  0  0  0  0
   -4.5845   -2.5604   -3.3030 H   0  0  0  0  0  0  0  0  0  0  0  0
   -5.7765   -1.2401   -3.2135 H   0  0  0  0  0  0  0  0  0  0  0  0
   -5.7142   -2.4949   -1.9510 H   0  0  0  0  0  0  0  0  0  0  0  0
   -2.6582   -0.9862   -3.4290 H   0  0  0  0  0  0  0  0  0  0  0  0
   -1.0929    0.4473   -2.1930 H   0  0  0  0  0  0  0  0  0  0  0  0
   -0.0207   -0.6607    2.6680 H   0  0  0  0  0  0  0  0  0  0  0  0
   -0.8637   -1.0945    1.2110 H   0  0  0  0  0  0  0  0  0  0  0  0
    0.5013   -1.3395   -0.7917 H   0  0  0  0  0  0  0  0  0  0  0  0
    2.0093   -1.7683   -2.7589 H   0  0  0  0  0  0  0  0  0  0  0  0
    5.6419    0.8314   -0.5018 H   0  0  0  0  0  0  0  0  0  0  0  0
    4.0927    1.1612    1.3860 H   0  0  0  0  0  0  0  0  0  0  0  0
    6.4276   -1.8484   -4.2350 H   0  0  0  0  0  0  0  0  0  0  0  0
    5.8376   -0.3542   -5.0062 H   0  0  0  0  0  0  0  0  0  0  0  0
  1  2  1  0
  2  3  1  0
  3  4  2  0
  3  5  1  0
  5  6  1  0
  6  7  1  0
  7  8  2  0
  8  9  1  0
  9 10  2  0
 10 11  1  0
 10 12  1  0
 12 13  2  0
  5 14  1  0
 14 15  1  0
 15 16  2  0
 16 17  1  0
 17 18  2  0
 18 19  1  0
 19 20  2  0
 20 21  1  0
 21 22  2  0
 22 23  1  0
 23 24  1  0
 24 25  2  0
 20 26  1  0
 26 27  1  0
 27 28  1  0
 13  7  1  0
 24 15  1  0
 22 17  1  0
 28 19  1  0
  1 29  1  0
  1 30  1  0
  1 31  1  0
  2 32  1  0
  2 33  1  0
  6 34  1  0
  6 35  1  0
  8 36  1  0
  9 37  1  0
 11 38  1  0
 11 39  1  0
 11 40  1  0
 12 41  1  0
 13 42  1  0
 14 43  1  0
 14 44  1  0
 16 45  1  0
 18 46  1  0
 21 47  1  0
 23 48  1  0
 27 49  1  0
 27 50  1  0
M  END
$$$$
