
     RDKit          3D

 43 45  0  0  0  0  0  0  0  0999 V2000
   -5.4025   -2.2334   -1.3158 C   0  0  0  0  0  0  0  0  0  0  0  0
   -4.1575   -1.7085   -1.7591 O   0  0  0  0  0  0  0  0  0  0  0  0
   -3.7491   -0.5263   -1.2097 C   0  0  0  0  0  0  0  0  0  0  0  0
   -4.4313    0.2076   -0.2413 C   0  0  0  0  0  0  0  0  0  0  0  0
   -3.8989    1.4105    0.2422 C   0  0  0  0  0  0  0  0  0  0  0  0
   -2.6817    1.9007   -0.2420 C   0  0  0  0  0  0  0  0  0  0  0  0
   -2.1006    3.0439    0.2303 O   0  0  0  0  0  0  0  0  0  0  0  0
   -2.9914    4.0727    0.6496 C   0  0  0  0  0  0  0  0  0  0  0  0
   -1.9954    1.1509   -1.2023 C   0  0  0  0  0  0  0  0  0  0  0  0
   -0.4493    1.7149   -1.8597 S   0  0  0  0  0  6  0  0  0  0  0  0
   -0.6162    3.0934   -2.2731 O   0  0  0  0  0  0  0  0  0  0  0  0
    0.0438    0.7307   -2.8018 O   0  0  0  0  0  0  0  0  0  0  0  0
    0.5766    1.7283   -0.5153 N   0  0  0  0  0  0  0  0  0  0  0  0
    1.2017    0.5133   -0.1303 C   0  0  0  0  0  0  0  0  0  0  0  0
    0.5069   -0.4096    0.6474 C   0  0  0  0  0  0  0  0  0  0  0  0
    1.1119   -1.6173    0.9898 C   0  0  0  0  0  0  0  0  0  0  0  0
    2.4067   -1.8971    0.5536 C   0  0  0  0  0  0  0  0  0  0  0  0
    2.9187   -3.1016    0.9516 O   0  0  0  0  0  0  0  0  0  0  0  0
    3.1113   -0.9852   -0.2462 C   0  0  0  0  0  0  0  0  0  0  0  0
    4.7264   -1.3048   -0.9408 S   0  0  0  0  0  0  0  0  0  0  0  0
    5.7221   -1.4214    0.4793 C   0  0  0  0  0  0  0  0  0  0  0  0
    5.5288   -2.3920    1.4295 N   0  0  0  0  0  0  0  0  0  0  0  0
    6.4863   -2.1475    2.2942 C   0  0  0  0  0  0  0  0  0  0  0  0
    7.2210   -1.0849    1.8707 N   0  0  0  0  0  0  0  0  0  0  0  0
    6.7536   -0.6053    0.7079 N   0  0  0  0  0  0  0  0  0  0  0  0
    2.4884    0.2241   -0.5894 C   0  0  0  0  0  0  0  0  0  0  0  0
   -2.5287   -0.0512   -1.6885 C   0  0  0  0  0  0  0  0  0  0  0  0
   -5.5829   -3.1679   -1.8558 H   0  0  0  0  0  0  0  0  0  0  0  0
   -5.3733   -2.4667   -0.2464 H   0  0  0  0  0  0  0  0  0  0  0  0
   -6.2250   -1.5493   -1.5493 H   0  0  0  0  0  0  0  0  0  0  0  0
   -5.3787   -0.1294    0.1672 H   0  0  0  0  0  0  0  0  0  0  0  0
   -4.4506    1.9365    1.0158 H   0  0  0  0  0  0  0  0  0  0  0  0
   -3.8020    4.2272   -0.0713 H   0  0  0  0  0  0  0  0  0  0  0  0
   -2.4192    5.0032    0.7140 H   0  0  0  0  0  0  0  0  0  0  0  0
   -3.3884    3.8563    1.6462 H   0  0  0  0  0  0  0  0  0  0  0  0
    1.1188    2.5897   -0.4803 H   0  0  0  0  0  0  0  0  0  0  0  0
   -0.4965   -0.1959    1.0033 H   0  0  0  0  0  0  0  0  0  0  0  0
    0.5786   -2.3417    1.5996 H   0  0  0  0  0  0  0  0  0  0  0  0
    3.8967   -3.0401    0.9262 H   0  0  0  0  0  0  0  0  0  0  0  0
    6.6911   -2.6865    3.2084 H   0  0  0  0  0  0  0  0  0  0  0  0
    8.0271   -0.6470    2.3032 H   0  0  0  0  0  0  0  0  0  0  0  0
    2.9992    0.9348   -1.2347 H   0  0  0  0  0  0  0  0  0  0  0  0
   -1.9965   -0.6279   -2.4430 H   0  0  0  0  0  0  0  0  0  0  0  0
  1  2  1  0
  2  3  1  0
  3  4  2  0
  4  5  1  0
  5  6  2  0
  6  7  1  0
  7  8  1  0
  6  9  1  0
  9 10  1  0
 10 11  2  0
 10 12  2  0
 10 13  1  0
 13 14  1  0
 14 15  2  0
 15 16  1  0
 16 17  2  0
 17 18  1  0
 17 19  1  0
 19 20  1  0
 20 21  1  0
 21 22  1  0
 22 23  2  0
 23 24  1  0
 24 25  1  0
 19 26  2  0
  9 27  2  0
 27  3  1  0
 26 14  1  0
 25 21  2  0
  1 28  1  0
  1 29  1  0
  1 30  1  0
  4 31  1  0
  5 32  1  0
  8 33  1  0
  8 34  1  0
  8 35  1  0
 13 36  1  0
 15 37  1  0
 16 38  1  0
 18 39  1  0
 23 40  1  0
 24 41  1  0
 26 42  1  0
 27 43  1  0
M  END
$$$$
