
     RDKit          3D

 35 37  0  0  0  0  0  0  0  0999 V2000
   -3.5327    3.9821    3.9579 C   0  0  0  0  0  0  0  0  0  0  0  0
   -2.7876    4.3166    2.7937 O   0  0  0  0  0  0  0  0  0  0  0  0
   -1.9701    3.3459    2.2847 C   0  0  0  0  0  0  0  0  0  0  0  0
   -1.3132    3.6959    1.1032 C   0  0  0  0  0  0  0  0  0  0  0  0
   -0.4484    2.7967    0.4735 C   0  0  0  0  0  0  0  0  0  0  0  0
   -0.2340    1.5280    1.0188 C   0  0  0  0  0  0  0  0  0  0  0  0
    0.6976    0.6100    0.3505 C   0  0  0  0  0  0  0  0  0  0  0  0
    0.4133   -0.6207   -0.1294 C   0  0  0  0  0  0  0  0  0  0  0  0
   -0.9086   -1.1671   -0.0256 C   0  0  0  0  0  0  0  0  0  0  0  0
   -1.9784   -1.6117    0.0635 N   0  0  0  0  0  0  0  0  0  0  0  0
    1.4145   -1.4361   -0.7679 C   0  0  0  0  0  0  0  0  0  0  0  0
    2.7186   -1.5589   -0.3272 C   0  0  0  0  0  0  0  0  0  0  0  0
    3.3731   -2.4195   -1.1673 N   0  0  0  0  0  0  0  0  0  0  0  0
    2.5247   -2.8572   -2.1572 C   0  0  0  0  0  0  0  0  0  0  0  0
    2.7691   -3.7334   -3.2221 C   0  0  0  0  0  0  0  0  0  0  0  0
    1.7135   -4.0063   -4.0950 C   0  0  0  0  0  0  0  0  0  0  0  0
    0.4641   -3.4228   -3.9096 C   0  0  0  0  0  0  0  0  0  0  0  0
    0.2358   -2.5483   -2.8402 C   0  0  0  0  0  0  0  0  0  0  0  0
    1.2817   -2.2575   -1.9360 C   0  0  0  0  0  0  0  0  0  0  0  0
   -0.8784    1.1837    2.2120 C   0  0  0  0  0  0  0  0  0  0  0  0
   -1.7469    2.0859    2.8390 C   0  0  0  0  0  0  0  0  0  0  0  0
   -4.1544    4.8448    4.2162 H   0  0  0  0  0  0  0  0  0  0  0  0
   -4.2005    3.1347    3.7707 H   0  0  0  0  0  0  0  0  0  0  0  0
   -2.8697    3.7842    4.8064 H   0  0  0  0  0  0  0  0  0  0  0  0
   -1.4794    4.6780    0.6669 H   0  0  0  0  0  0  0  0  0  0  0  0
    0.0458    3.0971   -0.4474 H   0  0  0  0  0  0  0  0  0  0  0  0
    1.6984    1.0194    0.2243 H   0  0  0  0  0  0  0  0  0  0  0  0
    3.2374   -1.1220    0.5161 H   0  0  0  0  0  0  0  0  0  0  0  0
    4.3405   -2.6992   -1.0796 H   0  0  0  0  0  0  0  0  0  0  0  0
    3.7427   -4.1891   -3.3712 H   0  0  0  0  0  0  0  0  0  0  0  0
    1.8708   -4.6839   -4.9312 H   0  0  0  0  0  0  0  0  0  0  0  0
   -0.3459   -3.6467   -4.5998 H   0  0  0  0  0  0  0  0  0  0  0  0
   -0.7489   -2.1045   -2.7204 H   0  0  0  0  0  0  0  0  0  0  0  0
   -0.7152    0.2109    2.6714 H   0  0  0  0  0  0  0  0  0  0  0  0
   -2.2294    1.7711    3.7582 H   0  0  0  0  0  0  0  0  0  0  0  0
  1  2  1  0
  2  3  1  0
  3  4  2  0
  4  5  1  0
  5  6  2  0
  6  7  1  0
  7  8  2  3
  8  9  1  0
  9 10  3  0
  8 11  1  0
 11 12  2  0
 12 13  1  0
 13 14  1  0
 14 15  2  0
 15 16  1  0
 16 17  2  0
 17 18  1  0
 18 19  2  0
  6 20  1  0
 20 21  2  0
 21  3  1  0
 19 11  1  0
 19 14  1  0
  1 22  1  0
  1 23  1  0
  1 24  1  0
  4 25  1  0
  5 26  1  0
  7 27  1  0
 12 28  1  0
 13 29  1  0
 15 30  1  0
 16 31  1  0
 17 32  1  0
 18 33  1  0
 20 34  1  0
 21 35  1  0
M  END
$$$$
