
     RDKit          3D

 51 55  0  0  0  0  0  0  0  0999 V2000
   -7.6576   -0.2005    2.7879 F   0  0  0  0  0  0  0  0  0  0  0  0
   -7.1753   -0.0665    1.5453 C   0  0  0  0  0  0  0  0  0  0  0  0
   -7.9797   -0.3936    0.4605 C   0  0  0  0  0  0  0  0  0  0  0  0
   -7.4760   -0.2575   -0.8317 C   0  0  0  0  0  0  0  0  0  0  0  0
   -6.1721    0.2059   -1.0272 C   0  0  0  0  0  0  0  0  0  0  0  0
   -5.3613    0.5414    0.0679 C   0  0  0  0  0  0  0  0  0  0  0  0
   -3.9456    1.0231   -0.1456 C   0  0  0  0  0  0  0  0  0  0  0  0
   -2.9434   -0.1444   -0.1448 C   0  0  0  0  0  0  0  0  0  0  0  0
   -1.5626    0.2672   -0.4551 N   0  0  0  0  0  0  0  0  0  0  0  0
   -1.0175    1.2023    0.5557 C   0  0  0  0  0  0  0  0  0  0  0  0
    0.5253    1.2846    0.5629 C   0  0  0  0  0  0  0  0  0  0  0  0
    1.1615   -0.0297    0.8193 N   0  0  0  0  0  0  0  0  0  0  0  0
    2.4971   -0.1603    0.4321 C   0  0  0  0  0  0  0  0  0  0  0  0
    2.8136   -1.0459   -0.4795 N   0  0  0  0  0  0  0  0  0  0  0  0
    4.1431   -1.1741   -0.9267 C   0  0  0  0  0  0  0  0  0  0  0  0
    4.4230   -2.1257   -1.9093 C   0  0  0  0  0  0  0  0  0  0  0  0
    5.7227   -2.2869   -2.3972 C   0  0  0  0  0  0  0  0  0  0  0  0
    6.7590   -1.4930   -1.9045 C   0  0  0  0  0  0  0  0  0  0  0  0
    6.5025   -0.5357   -0.9223 C   0  0  0  0  0  0  0  0  0  0  0  0
    5.1972   -0.3858   -0.4445 C   0  0  0  0  0  0  0  0  0  0  0  0
    4.8530    0.5430    0.5506 N   0  0  0  0  0  0  0  0  0  0  0  0
    5.6508    1.4317    1.2318 C   0  0  0  0  0  0  0  0  0  0  0  0
    4.8714    2.0835    2.1627 C   0  0  0  0  0  0  0  0  0  0  0  0
    3.5552    1.5830    2.0306 C   0  0  0  0  0  0  0  0  0  0  0  0
    3.5568    0.6574    1.0023 C   0  0  0  0  0  0  0  0  0  0  0  0
    0.2529   -1.1733    0.5876 C   0  0  0  0  0  0  0  0  0  0  0  0
   -0.6717   -0.9105   -0.6166 C   0  0  0  0  0  0  0  0  0  0  0  0
   -5.8756    0.3959    1.3629 C   0  0  0  0  0  0  0  0  0  0  0  0
   -8.9898   -0.7522    0.6286 H   0  0  0  0  0  0  0  0  0  0  0  0
   -8.0963   -0.5123   -1.6873 H   0  0  0  0  0  0  0  0  0  0  0  0
   -5.7905    0.3044   -2.0421 H   0  0  0  0  0  0  0  0  0  0  0  0
   -3.8877    1.5695   -1.0958 H   0  0  0  0  0  0  0  0  0  0  0  0
   -3.7022    1.7501    0.6387 H   0  0  0  0  0  0  0  0  0  0  0  0
   -2.9797   -0.6719    0.8179 H   0  0  0  0  0  0  0  0  0  0  0  0
   -3.2723   -0.8634   -0.9072 H   0  0  0  0  0  0  0  0  0  0  0  0
   -1.3465    0.9115    1.5627 H   0  0  0  0  0  0  0  0  0  0  0  0
   -1.4124    2.2061    0.3618 H   0  0  0  0  0  0  0  0  0  0  0  0
    0.8656    1.6780   -0.4040 H   0  0  0  0  0  0  0  0  0  0  0  0
    0.8261    1.9974    1.3362 H   0  0  0  0  0  0  0  0  0  0  0  0
    3.6176   -2.7437   -2.2969 H   0  0  0  0  0  0  0  0  0  0  0  0
    5.9236   -3.0323   -3.1625 H   0  0  0  0  0  0  0  0  0  0  0  0
    7.7687   -1.6224   -2.2868 H   0  0  0  0  0  0  0  0  0  0  0  0
    7.3246    0.0679   -0.5527 H   0  0  0  0  0  0  0  0  0  0  0  0
    6.7066    1.5252    1.0238 H   0  0  0  0  0  0  0  0  0  0  0  0
    5.2176    2.8285    2.8675 H   0  0  0  0  0  0  0  0  0  0  0  0
    2.6992    1.8643    2.6285 H   0  0  0  0  0  0  0  0  0  0  0  0
   -0.3492   -1.3268    1.4921 H   0  0  0  0  0  0  0  0  0  0  0  0
    0.8041   -2.1094    0.4404 H   0  0  0  0  0  0  0  0  0  0  0  0
   -0.0508   -0.7250   -1.5024 H   0  0  0  0  0  0  0  0  0  0  0  0
   -1.2453   -1.8184   -0.8396 H   0  0  0  0  0  0  0  0  0  0  0  0
   -5.2776    0.6391    2.2360 H   0  0  0  0  0  0  0  0  0  0  0  0
  1  2  1  0
  2  3  2  0
  3  4  1  0
  4  5  2  0
  5  6  1  0
  6  7  1  0
  7  8  1  0
  8  9  1  0
  9 10  1  0
 10 11  1  0
 11 12  1  0
 12 13  1  0
 13 14  2  0
 14 15  1  0
 15 16  2  0
 16 17  1  0
 17 18  2  0
 18 19  1  0
 19 20  2  0
 20 21  1  0
 21 22  1  0
 22 23  2  0
 23 24  1  0
 24 25  2  0
 12 26  1  0
 26 27  1  0
  6 28  2  0
 28  2  1  0
 27  9  1  0
 25 13  1  0
 20 15  1  0
 25 21  1  0
  3 29  1  0
  4 30  1  0
  5 31  1  0
  7 32  1  0
  7 33  1  0
  8 34  1  0
  8 35  1  0
 10 36  1  0
 10 37  1  0
 11 38  1  0
 11 39  1  0
 16 40  1  0
 17 41  1  0
 18 42  1  0
 19 43  1  0
 22 44  1  0
 23 45  1  0
 24 46  1  0
 26 47  1  0
 26 48  1  0
 27 49  1  0
 27 50  1  0
 28 51  1  0
M  END
$$$$
