
     RDKit          3D

 36 36  0  0  0  0  0  0  0  0999 V2000
    0.2364   -4.9548    3.5275 C   0  0  0  0  0  0  0  0  0  0  0  0
    1.3746   -3.9807    3.2820 C   0  0  0  0  0  0  0  0  0  0  0  0
    1.7556   -3.9537    1.9076 O   0  0  0  0  0  0  0  0  0  0  0  0
    0.8879   -3.1644    1.0941 C   0  0  0  0  0  0  0  0  0  0  0  0
    1.4386   -3.1805   -0.3280 C   0  0  0  0  0  0  0  0  0  0  0  0
    0.5738   -2.3797   -1.2911 C   0  0  0  0  0  0  0  0  0  0  0  0
    0.6554   -0.9507   -1.0388 N   0  0  0  0  0  0  0  0  0  0  0  0
   -0.4051   -0.1138   -1.3161 C   0  0  0  0  0  0  0  0  0  0  0  0
   -1.5006   -0.5405   -1.6714 O   0  0  0  0  0  0  0  0  0  0  0  0
   -0.1526    1.3595   -1.1612 C   0  0  0  0  0  0  0  0  0  0  0  0
    1.0950    1.8017   -0.6530 C   0  0  0  0  0  0  0  0  0  0  0  0
    2.1282    2.1271   -0.2366 N   0  0  0  0  0  0  0  0  0  0  0  0
   -1.1500    2.1799   -1.5444 C   0  0  0  0  0  0  0  0  0  0  0  0
   -1.1470    3.6056   -1.4994 C   0  0  0  0  0  0  0  0  0  0  0  0
   -0.4389    4.5305   -0.7297 C   0  0  0  0  0  0  0  0  0  0  0  0
   -0.8523    5.8372   -1.0998 C   0  0  0  0  0  0  0  0  0  0  0  0
   -1.8009    5.6465   -2.0677 C   0  0  0  0  0  0  0  0  0  0  0  0
   -2.5891    6.5662   -2.8249 N   0  0  0  0  0  4  0  0  0  0  0  0
   -3.3822    6.1041   -3.6545 O   0  0  0  0  0  0  0  0  0  0  0  0
   -2.4092    7.7677   -2.5835 O   0  0  0  0  0  1  0  0  0  0  0  0
   -1.9993    4.3292   -2.3147 O   0  0  0  0  0  0  0  0  0  0  0  0
   -0.6848   -4.6229    3.0397 H   0  0  0  0  0  0  0  0  0  0  0  0
    0.4787   -5.9417    3.1203 H   0  0  0  0  0  0  0  0  0  0  0  0
    0.0380   -5.0528    4.5988 H   0  0  0  0  0  0  0  0  0  0  0  0
    2.2515   -4.3133    3.8472 H   0  0  0  0  0  0  0  0  0  0  0  0
    1.1216   -2.9743    3.6338 H   0  0  0  0  0  0  0  0  0  0  0  0
   -0.1234   -3.5832    1.1074 H   0  0  0  0  0  0  0  0  0  0  0  0
    0.8576   -2.1404    1.4825 H   0  0  0  0  0  0  0  0  0  0  0  0
    1.4992   -4.2203   -0.6726 H   0  0  0  0  0  0  0  0  0  0  0  0
    2.4689   -2.8031   -0.3272 H   0  0  0  0  0  0  0  0  0  0  0  0
    0.9269   -2.5327   -2.3168 H   0  0  0  0  0  0  0  0  0  0  0  0
   -0.4678   -2.7157   -1.2471 H   0  0  0  0  0  0  0  0  0  0  0  0
    1.5856   -0.5738   -0.8928 H   0  0  0  0  0  0  0  0  0  0  0  0
   -2.0573    1.7488   -1.9684 H   0  0  0  0  0  0  0  0  0  0  0  0
    0.2946    4.3054    0.0336 H   0  0  0  0  0  0  0  0  0  0  0  0
   -0.5075    6.7839   -0.7062 H   0  0  0  0  0  0  0  0  0  0  0  0
  1  2  1  0
  2  3  1  0
  3  4  1  0
  4  5  1  0
  5  6  1  0
  6  7  1  0
  7  8  1  0
  8  9  2  0
  8 10  1  0
 10 11  1  0
 11 12  3  0
 10 13  2  3
 13 14  1  0
 14 15  2  0
 15 16  1  0
 16 17  2  0
 17 18  1  0
 18 19  2  0
 18 20  1  0
 17 21  1  0
 21 14  1  0
  1 22  1  0
  1 23  1  0
  1 24  1  0
  2 25  1  0
  2 26  1  0
  4 27  1  0
  4 28  1  0
  5 29  1  0
  5 30  1  0
  6 31  1  0
  6 32  1  0
  7 33  1  0
 13 34  1  0
 15 35  1  0
 16 36  1  0
M  CHG  2  18   1  20  -1
M  END
$$$$
