
     RDKit          3D

 37 38  0  0  0  0  0  0  0  0999 V2000
   -4.7562    2.7243   -0.9319 C   0  0  0  0  0  0  0  0  0  0  0  0
   -4.6994    1.4885   -0.2346 O   0  0  0  0  0  0  0  0  0  0  0  0
   -3.4928    0.8360   -0.1845 C   0  0  0  0  0  0  0  0  0  0  0  0
   -2.3145    1.3082   -0.7734 C   0  0  0  0  0  0  0  0  0  0  0  0
   -1.1279    0.5763   -0.6687 C   0  0  0  0  0  0  0  0  0  0  0  0
   -1.1105   -0.6316    0.0348 C   0  0  0  0  0  0  0  0  0  0  0  0
    0.1299   -1.4442    0.1741 C   0  0  0  0  0  0  0  0  0  0  0  0
    0.0602   -2.6544    0.3534 O   0  0  0  0  0  0  0  0  0  0  0  0
    1.3230   -0.7553    0.1272 N   0  0  0  0  0  0  0  0  0  0  0  0
    2.5637   -1.4453    0.3903 C   0  0  0  0  0  0  0  0  0  0  0  0
    3.7391   -0.5730    0.0373 C   0  0  0  0  0  0  0  0  0  0  0  0
    4.1782   -0.4817   -1.2904 C   0  0  0  0  0  0  0  0  0  0  0  0
    5.2518    0.3464   -1.6265 C   0  0  0  0  0  0  0  0  0  0  0  0
    5.8948    1.1000   -0.6409 C   0  0  0  0  0  0  0  0  0  0  0  0
    7.2119    2.1058   -1.1285 Cl  0  0  0  0  0  0  0  0  0  0  0  0
    5.4584    1.0243    0.6858 C   0  0  0  0  0  0  0  0  0  0  0  0
    6.1952    1.9331    1.9573 Cl  0  0  0  0  0  0  0  0  0  0  0  0
    4.3829    0.1930    1.0206 C   0  0  0  0  0  0  0  0  0  0  0  0
   -2.2907   -1.1189    0.6112 C   0  0  0  0  0  0  0  0  0  0  0  0
   -3.4819   -0.3924    0.5088 C   0  0  0  0  0  0  0  0  0  0  0  0
   -4.6794   -0.7887    1.0518 O   0  0  0  0  0  0  0  0  0  0  0  0
   -4.7314   -2.0663    1.6716 C   0  0  0  0  0  0  0  0  0  0  0  0
   -5.7829    3.0976   -0.8681 H   0  0  0  0  0  0  0  0  0  0  0  0
   -4.5166    2.5910   -1.9919 H   0  0  0  0  0  0  0  0  0  0  0  0
   -4.1023    3.4701   -0.4682 H   0  0  0  0  0  0  0  0  0  0  0  0
   -2.2889    2.2399   -1.3291 H   0  0  0  0  0  0  0  0  0  0  0  0
   -0.2373    0.9520   -1.1646 H   0  0  0  0  0  0  0  0  0  0  0  0
    1.3096    0.2464    0.2604 H   0  0  0  0  0  0  0  0  0  0  0  0
    2.5840   -1.7193    1.4517 H   0  0  0  0  0  0  0  0  0  0  0  0
    2.5935   -2.3805   -0.1816 H   0  0  0  0  0  0  0  0  0  0  0  0
    3.6831   -1.0580   -2.0710 H   0  0  0  0  0  0  0  0  0  0  0  0
    5.5814    0.4003   -2.6617 H   0  0  0  0  0  0  0  0  0  0  0  0
    4.0460    0.1407    2.0545 H   0  0  0  0  0  0  0  0  0  0  0  0
   -2.2499   -2.0667    1.1398 H   0  0  0  0  0  0  0  0  0  0  0  0
   -4.4731   -2.8614    0.9643 H   0  0  0  0  0  0  0  0  0  0  0  0
   -5.7611   -2.2364    2.0005 H   0  0  0  0  0  0  0  0  0  0  0  0
   -4.0901   -2.0997    2.5584 H   0  0  0  0  0  0  0  0  0  0  0  0
  1  2  1  0
  2  3  1  0
  3  4  2  0
  4  5  1  0
  5  6  2  0
  6  7  1  0
  7  8  2  0
  7  9  1  0
  9 10  1  0
 10 11  1  0
 11 12  2  0
 12 13  1  0
 13 14  2  0
 14 15  1  0
 14 16  1  0
 16 17  1  0
 16 18  2  0
  6 19  1  0
 19 20  2  0
 20 21  1  0
 21 22  1  0
 20  3  1  0
 18 11  1  0
  1 23  1  0
  1 24  1  0
  1 25  1  0
  4 26  1  0
  5 27  1  0
  9 28  1  0
 10 29  1  0
 10 30  1  0
 12 31  1  0
 13 32  1  0
 18 33  1  0
 19 34  1  0
 22 35  1  0
 22 36  1  0
 22 37  1  0
M  END
$$$$
