
     RDKit          3D

 36 37  0  0  0  0  0  0  0  0999 V2000
   -1.1020   -0.5998   -2.1585 O   0  0  0  0  0  0  0  0  0  0  0  0
   -0.8436   -1.3562   -1.2225 C   0  0  0  0  0  0  0  0  0  0  0  0
    0.3020   -2.3690   -1.2610 C   0  0  0  0  0  0  0  0  0  0  0  0
    1.5045   -1.8618   -0.6793 O   0  0  0  0  0  0  0  0  0  0  0  0
    1.5084   -1.8281    0.6741 C   0  0  0  0  0  0  0  0  0  0  0  0
    0.6170   -2.2068    1.4139 O   0  0  0  0  0  0  0  0  0  0  0  0
    2.7686   -1.2156    1.1222 C   0  0  0  0  0  0  0  0  0  0  0  0
    3.9712   -1.8600    0.7927 C   0  0  0  0  0  0  0  0  0  0  0  0
    5.1840   -1.3270    1.2217 C   0  0  0  0  0  0  0  0  0  0  0  0
    5.1952   -0.1553    1.9777 C   0  0  0  0  0  0  0  0  0  0  0  0
    3.9954    0.4907    2.3038 C   0  0  0  0  0  0  0  0  0  0  0  0
    4.1109    1.9435    3.2360 Cl  0  0  0  0  0  0  0  0  0  0  0  0
    2.7671   -0.0348    1.8772 C   0  0  0  0  0  0  0  0  0  0  0  0
    1.2797    0.7838    2.2339 Cl  0  0  0  0  0  0  0  0  0  0  0  0
   -1.5539   -1.3280   -0.0420 N   0  0  0  0  0  0  0  0  0  0  0  0
   -2.6236   -0.3693    0.1572 C   0  0  0  0  0  0  0  0  0  0  0  0
   -2.1199    1.0793    0.2423 C   0  0  0  0  0  0  0  0  0  0  0  0
   -3.0219    2.0025   -0.4151 N   0  0  0  0  0  0  0  0  0  0  0  0
   -2.9278    2.4009   -1.7277 C   0  0  0  0  0  0  0  0  0  0  0  0
   -1.9545    1.9331   -2.5593 O   0  0  0  0  0  0  0  0  0  0  0  0
   -3.8630    3.2758   -2.1086 C   0  0  0  0  0  0  0  0  0  0  0  0
   -4.9660    3.6336   -0.8172 S   0  0  0  0  0  0  0  0  0  0  0  0
   -4.1026    2.5364    0.2736 C   0  0  0  0  0  0  0  0  0  0  0  0
   -4.4442    2.3089    1.4228 O   0  0  0  0  0  0  0  0  0  0  0  0
    0.5113   -2.6017   -2.3106 H   0  0  0  0  0  0  0  0  0  0  0  0
   -0.0016   -3.3094   -0.7851 H   0  0  0  0  0  0  0  0  0  0  0  0
    3.9638   -2.7778    0.2076 H   0  0  0  0  0  0  0  0  0  0  0  0
    6.1198   -1.8224    0.9706 H   0  0  0  0  0  0  0  0  0  0  0  0
    6.1466    0.2560    2.3103 H   0  0  0  0  0  0  0  0  0  0  0  0
   -1.1303   -1.7678    0.7782 H   0  0  0  0  0  0  0  0  0  0  0  0
   -3.1514   -0.6469    1.0755 H   0  0  0  0  0  0  0  0  0  0  0  0
   -3.3238   -0.4921   -0.6778 H   0  0  0  0  0  0  0  0  0  0  0  0
   -1.1159    1.2057   -0.1781 H   0  0  0  0  0  0  0  0  0  0  0  0
   -2.0389    1.3594    1.3001 H   0  0  0  0  0  0  0  0  0  0  0  0
   -1.7137    1.0164   -2.3044 H   0  0  0  0  0  0  0  0  0  0  0  0
   -3.9470    3.7037   -3.0973 H   0  0  0  0  0  0  0  0  0  0  0  0
  1  2  2  0
  2  3  1  0
  3  4  1  0
  4  5  1  0
  5  6  2  0
  5  7  1  0
  7  8  2  0
  8  9  1  0
  9 10  2  0
 10 11  1  0
 11 12  1  0
 11 13  2  0
 13 14  1  0
  2 15  1  0
 15 16  1  0
 16 17  1  0
 17 18  1  0
 18 19  1  0
 19 20  1  0
 19 21  2  0
 21 22  1  0
 22 23  1  0
 23 24  2  0
 13  7  1  0
 23 18  1  0
  3 25  1  0
  3 26  1  0
  8 27  1  0
  9 28  1  0
 10 29  1  0
 15 30  1  0
 16 31  1  0
 16 32  1  0
 17 33  1  0
 17 34  1  0
 20 35  1  0
 21 36  1  0
M  END
$$$$
