
     RDKit          3D

 59 62  0  0  0  0  0  0  0  0999 V2000
   -9.5734    0.0032   -0.5837 C   0  0  0  0  0  0  0  0  0  0  0  0
   -8.6173   -0.9402   -0.1167 O   0  0  0  0  0  0  0  0  0  0  0  0
   -7.3601   -0.4708    0.1443 C   0  0  0  0  0  0  0  0  0  0  0  0
   -6.4634   -1.4346    0.6125 C   0  0  0  0  0  0  0  0  0  0  0  0
   -5.1426   -1.0941    0.9146 C   0  0  0  0  0  0  0  0  0  0  0  0
   -4.7030    0.2201    0.7432 C   0  0  0  0  0  0  0  0  0  0  0  0
   -3.3274    0.5865    1.0385 C   0  0  0  0  0  0  0  0  0  0  0  0
   -2.8097    1.2854    2.1119 C   0  0  0  0  0  0  0  0  0  0  0  0
   -1.4550    1.4401    2.0023 N   0  0  0  0  0  0  0  0  0  0  0  0
   -1.1342    0.8684    0.8661 C   0  0  0  0  0  0  0  0  0  0  0  0
    0.4795    0.7857    0.2423 S   0  0  0  0  0  0  0  0  0  0  0  0
    1.2895    2.0314    1.2921 C   0  0  0  0  0  0  0  0  0  0  0  0
    2.7667    2.1502    0.9463 C   0  0  0  0  0  0  0  0  0  0  0  0
    3.2615    3.2475    0.7031 O   0  0  0  0  0  0  0  0  0  0  0  0
    3.4304    0.9435    1.0102 N   0  0  0  0  0  0  0  0  0  0  0  0
    4.7581    0.7061    0.7800 C   0  0  0  0  0  0  0  0  0  0  0  0
    5.2275   -0.5191    0.7692 N   0  0  0  0  0  0  0  0  0  0  0  0
    6.5951   -0.5141    0.5093 C   0  0  0  0  0  0  0  0  0  0  0  0
    7.3159   -1.8528    0.4497 C   0  0  0  0  0  0  0  0  0  0  0  0
    7.2857   -2.5143    1.8413 C   0  0  0  0  0  0  0  0  0  0  0  0
    6.6121   -2.7810   -0.5610 C   0  0  0  0  0  0  0  0  0  0  0  0
    8.7882   -1.7082    0.0158 C   0  0  0  0  0  0  0  0  0  0  0  0
    7.1251    0.7557    0.3532 C   0  0  0  0  0  0  0  0  0  0  0  0
    5.8974    1.9386    0.5174 S   0  0  0  0  0  0  0  0  0  0  0  0
   -2.2281    0.3283    0.2341 N   0  0  0  0  0  0  0  0  0  0  0  0
   -2.2463   -0.3939   -1.0294 C   0  0  0  0  0  0  0  0  0  0  0  0
   -2.5896    0.5040   -2.1584 C   0  0  0  0  0  0  0  0  0  0  0  0
   -3.7570    0.7571   -2.8501 C   0  0  0  0  0  0  0  0  0  0  0  0
   -3.4351    1.7173   -3.8394 C   0  0  0  0  0  0  0  0  0  0  0  0
   -2.0936    1.9804   -3.6963 C   0  0  0  0  0  0  0  0  0  0  0  0
   -1.5711    1.2443   -2.6831 O   0  0  0  0  0  0  0  0  0  0  0  0
   -5.6031    1.1884    0.2880 C   0  0  0  0  0  0  0  0  0  0  0  0
   -6.9257    0.8446   -0.0143 C   0  0  0  0  0  0  0  0  0  0  0  0
   -9.2721    0.4230   -1.5489 H   0  0  0  0  0  0  0  0  0  0  0  0
  -10.5204   -0.5255   -0.7315 H   0  0  0  0  0  0  0  0  0  0  0  0
   -9.7441    0.7923    0.1558 H   0  0  0  0  0  0  0  0  0  0  0  0
   -6.7988   -2.4598    0.7477 H   0  0  0  0  0  0  0  0  0  0  0  0
   -4.4673   -1.8601    1.2885 H   0  0  0  0  0  0  0  0  0  0  0  0
   -3.3519    1.6809    2.9617 H   0  0  0  0  0  0  0  0  0  0  0  0
    1.2052    1.7625    2.3499 H   0  0  0  0  0  0  0  0  0  0  0  0
    0.8133    3.0043    1.1331 H   0  0  0  0  0  0  0  0  0  0  0  0
    2.8904    0.0985    1.1423 H   0  0  0  0  0  0  0  0  0  0  0  0
    6.2582   -2.6810    2.1846 H   0  0  0  0  0  0  0  0  0  0  0  0
    7.7811   -1.8843    2.5895 H   0  0  0  0  0  0  0  0  0  0  0  0
    7.7934   -3.4855    1.8313 H   0  0  0  0  0  0  0  0  0  0  0  0
    7.1203   -3.7492   -0.6321 H   0  0  0  0  0  0  0  0  0  0  0  0
    5.5724   -2.9768   -0.2735 H   0  0  0  0  0  0  0  0  0  0  0  0
    6.5962   -2.3352   -1.5626 H   0  0  0  0  0  0  0  0  0  0  0  0
    9.2842   -2.6844   -0.0301 H   0  0  0  0  0  0  0  0  0  0  0  0
    8.8699   -1.2489   -0.9762 H   0  0  0  0  0  0  0  0  0  0  0  0
    9.3550   -1.0867    0.7186 H   0  0  0  0  0  0  0  0  0  0  0  0
    8.1451    1.0476    0.1533 H   0  0  0  0  0  0  0  0  0  0  0  0
   -2.9730   -1.2080   -0.9459 H   0  0  0  0  0  0  0  0  0  0  0  0
   -1.2747   -0.8709   -1.1861 H   0  0  0  0  0  0  0  0  0  0  0  0
   -4.7215    0.3061   -2.6607 H   0  0  0  0  0  0  0  0  0  0  0  0
   -4.0970    2.1612   -4.5695 H   0  0  0  0  0  0  0  0  0  0  0  0
   -1.3966    2.6294   -4.2089 H   0  0  0  0  0  0  0  0  0  0  0  0
   -5.2777    2.2183    0.1560 H   0  0  0  0  0  0  0  0  0  0  0  0
   -7.5864    1.6281   -0.3695 H   0  0  0  0  0  0  0  0  0  0  0  0
  1  2  1  0
  2  3  1  0
  3  4  2  0
  4  5  1  0
  5  6  2  0
  6  7  1  0
  7  8  2  0
  8  9  1  0
  9 10  2  0
 10 11  1  0
 11 12  1  0
 12 13  1  0
 13 14  2  0
 13 15  1  0
 15 16  1  0
 16 17  2  0
 17 18  1  0
 18 19  1  0
 19 20  1  0
 19 21  1  0
 19 22  1  0
 18 23  2  0
 23 24  1  0
 10 25  1  0
 25 26  1  0
 26 27  1  0
 27 28  2  0
 28 29  1  0
 29 30  2  0
 30 31  1  0
  6 32  1  0
 32 33  2  0
 33  3  1  0
 25  7  1  0
 31 27  1  0
 24 16  1  0
  1 34  1  0
  1 35  1  0
  1 36  1  0
  4 37  1  0
  5 38  1  0
  8 39  1  0
 12 40  1  0
 12 41  1  0
 15 42  1  0
 20 43  1  0
 20 44  1  0
 20 45  1  0
 21 46  1  0
 21 47  1  0
 21 48  1  0
 22 49  1  0
 22 50  1  0
 22 51  1  0
 23 52  1  0
 26 53  1  0
 26 54  1  0
 28 55  1  0
 29 56  1  0
 30 57  1  0
 32 58  1  0
 33 59  1  0
M  END
$$$$
