
     RDKit          3D

 51 54  0  0  0  0  0  0  0  0999 V2000
   -6.9778    0.3609   -1.9487 C   0  0  0  0  0  0  0  0  0  0  0  0
   -6.6027    1.3403   -0.8472 C   0  0  0  0  0  0  0  0  0  0  0  0
   -5.7971    0.6925    0.1984 N   0  0  0  0  0  0  0  0  0  0  0  0
   -6.5415    0.0274    1.2781 C   0  0  0  0  0  0  0  0  0  0  0  0
   -6.4531   -1.4895    1.1758 C   0  0  0  0  0  0  0  0  0  0  0  0
   -4.4059    0.7225    0.1663 C   0  0  0  0  0  0  0  0  0  0  0  0
   -3.6220    0.3774    1.2856 C   0  0  0  0  0  0  0  0  0  0  0  0
   -2.2168    0.4050    1.2690 C   0  0  0  0  0  0  0  0  0  0  0  0
   -1.5429    0.7828    0.1157 C   0  0  0  0  0  0  0  0  0  0  0  0
   -0.0950    0.8424    0.0370 C   0  0  0  0  0  0  0  0  0  0  0  0
    0.5177    1.2157   -1.0998 C   0  0  0  0  0  0  0  0  0  0  0  0
    1.9470    1.2573   -1.1080 C   0  0  0  0  0  0  0  0  0  0  0  0
    2.7413    0.3850   -0.5080 N   0  0  0  0  0  0  0  0  0  0  0  0
    4.0808    0.7104   -0.6745 C   0  0  0  0  0  0  0  0  0  0  0  0
    5.1337   -0.1385   -0.1190 C   0  0  0  0  0  0  0  0  0  0  0  0
    4.8047   -1.1008    0.8449 C   0  0  0  0  0  0  0  0  0  0  0  0
    5.7884   -1.9273    1.3975 C   0  0  0  0  0  0  0  0  0  0  0  0
    7.1197   -1.8150    0.9966 C   0  0  0  0  0  0  0  0  0  0  0  0
    7.9790   -2.6807    1.6135 O   0  0  0  0  0  0  0  0  0  0  0  0
    9.3459   -2.6154    1.2273 C   0  0  0  0  0  0  0  0  0  0  0  0
    7.4586   -0.8669    0.0329 C   0  0  0  0  0  0  0  0  0  0  0  0
    6.4729   -0.0366   -0.5214 C   0  0  0  0  0  0  0  0  0  0  0  0
    4.2956    1.8843   -1.3651 C   0  0  0  0  0  0  0  0  0  0  0  0
    2.8038    2.5834   -1.8260 S   0  0  0  0  0  0  0  0  0  0  0  0
   -0.2715    1.5258   -2.3230 C   0  0  0  0  0  0  0  0  0  0  0  0
    0.2417    1.7849   -3.4065 O   0  0  0  0  0  0  0  0  0  0  0  0
   -1.6603    1.5014   -2.1945 O   0  0  0  0  0  0  0  0  0  0  0  0
   -2.2921    1.1236   -0.9954 C   0  0  0  0  0  0  0  0  0  0  0  0
   -3.6904    1.0987   -0.9824 C   0  0  0  0  0  0  0  0  0  0  0  0
   -7.6149   -0.4407   -1.5624 H   0  0  0  0  0  0  0  0  0  0  0  0
   -7.5333    0.8767   -2.7383 H   0  0  0  0  0  0  0  0  0  0  0  0
   -6.0950   -0.1021   -2.3997 H   0  0  0  0  0  0  0  0  0  0  0  0
   -7.5235    1.7447   -0.4082 H   0  0  0  0  0  0  0  0  0  0  0  0
   -6.0933    2.2152   -1.2674 H   0  0  0  0  0  0  0  0  0  0  0  0
   -7.6025    0.3030    1.2294 H   0  0  0  0  0  0  0  0  0  0  0  0
   -6.2061    0.3737    2.2619 H   0  0  0  0  0  0  0  0  0  0  0  0
   -7.0524   -1.9542    1.9653 H   0  0  0  0  0  0  0  0  0  0  0  0
   -5.4255   -1.8492    1.2815 H   0  0  0  0  0  0  0  0  0  0  0  0
   -6.8307   -1.8448    0.2122 H   0  0  0  0  0  0  0  0  0  0  0  0
   -4.0889    0.0835    2.2211 H   0  0  0  0  0  0  0  0  0  0  0  0
   -1.6734    0.1299    2.1696 H   0  0  0  0  0  0  0  0  0  0  0  0
    0.4727    0.5867    0.9280 H   0  0  0  0  0  0  0  0  0  0  0  0
    3.7746   -1.2162    1.1764 H   0  0  0  0  0  0  0  0  0  0  0  0
    5.5102   -2.6661    2.1450 H   0  0  0  0  0  0  0  0  0  0  0  0
    9.7765   -1.6369    1.4641 H   0  0  0  0  0  0  0  0  0  0  0  0
    9.4683   -2.8556    0.1660 H   0  0  0  0  0  0  0  0  0  0  0  0
    9.8925   -3.3678    1.8039 H   0  0  0  0  0  0  0  0  0  0  0  0
    8.4790   -0.7469   -0.3157 H   0  0  0  0  0  0  0  0  0  0  0  0
    6.7785    0.6777   -1.2810 H   0  0  0  0  0  0  0  0  0  0  0  0
    5.2239    2.3765   -1.6127 H   0  0  0  0  0  0  0  0  0  0  0  0
   -4.1990    1.3622   -1.9035 H   0  0  0  0  0  0  0  0  0  0  0  0
  1  2  1  0
  2  3  1  0
  3  4  1  0
  4  5  1  0
  3  6  1  0
  6  7  2  0
  7  8  1  0
  8  9  2  0
  9 10  1  0
 10 11  2  0
 11 12  1  0
 12 13  2  0
 13 14  1  0
 14 15  1  0
 15 16  2  0
 16 17  1  0
 17 18  2  0
 18 19  1  0
 19 20  1  0
 18 21  1  0
 21 22  2  0
 14 23  2  0
 23 24  1  0
 11 25  1  0
 25 26  2  0
 25 27  1  0
 27 28  1  0
 28 29  2  0
 29  6  1  0
 28  9  1  0
 24 12  1  0
 22 15  1  0
  1 30  1  0
  1 31  1  0
  1 32  1  0
  2 33  1  0
  2 34  1  0
  4 35  1  0
  4 36  1  0
  5 37  1  0
  5 38  1  0
  5 39  1  0
  7 40  1  0
  8 41  1  0
 10 42  1  0
 16 43  1  0
 17 44  1  0
 20 45  1  0
 20 46  1  0
 20 47  1  0
 21 48  1  0
 22 49  1  0
 23 50  1  0
 29 51  1  0
M  END
$$$$
