
     RDKit          3D

 41 42  0  0  0  0  0  0  0  0999 V2000
    6.3757   -0.0103   -1.5664 C   0  0  0  0  0  0  0  0  0  0  0  0
    5.2109    0.2450   -0.7806 O   0  0  0  0  0  0  0  0  0  0  0  0
    4.8627   -0.7814    0.0432 C   0  0  0  0  0  0  0  0  0  0  0  0
    5.4703   -1.8417    0.1187 O   0  0  0  0  0  0  0  0  0  0  0  0
    3.7086   -0.4302    0.8529 C   0  0  0  0  0  0  0  0  0  0  0  0
    3.3530   -1.0603    2.0359 C   0  0  0  0  0  0  0  0  0  0  0  0
    2.2444   -0.3883    2.5794 C   0  0  0  0  0  0  0  0  0  0  0  0
    1.8879    0.6369    1.7161 C   0  0  0  0  0  0  0  0  0  0  0  0
    0.5889    1.8519    1.8914 S   0  0  0  0  0  6  0  0  0  0  0  0
    1.1035    3.0454    1.2626 O   0  0  0  0  0  0  0  0  0  0  0  0
    0.2173    1.8010    3.2856 O   0  0  0  0  0  0  0  0  0  0  0  0
   -0.6985    1.3076    0.9715 N   0  0  0  0  0  0  0  0  0  0  0  0
   -1.3491    0.0715    1.4123 C   0  0  0  0  0  0  0  0  0  0  0  0
   -2.4840   -0.2890    0.4845 C   0  0  0  0  0  0  0  0  0  0  0  0
   -3.6418    0.5005    0.4464 C   0  0  0  0  0  0  0  0  0  0  0  0
   -4.6943    0.1876   -0.4211 C   0  0  0  0  0  0  0  0  0  0  0  0
   -4.6010   -0.9185   -1.2647 C   0  0  0  0  0  0  0  0  0  0  0  0
   -5.5503   -1.3337   -2.1571 O   0  0  0  0  0  0  0  0  0  0  0  0
   -6.7547   -0.5794   -2.2109 C   0  0  0  0  0  0  0  0  0  0  0  0
   -3.4467   -1.7044   -1.2330 C   0  0  0  0  0  0  0  0  0  0  0  0
   -2.3937   -1.3950   -0.3684 C   0  0  0  0  0  0  0  0  0  0  0  0
    2.7518    0.5544    0.6310 N   0  0  0  0  0  0  0  0  0  0  0  0
    2.6505    1.3512   -0.5776 C   0  0  0  0  0  0  0  0  0  0  0  0
    7.2448   -0.1770   -0.9224 H   0  0  0  0  0  0  0  0  0  0  0  0
    6.5671    0.8720   -2.1834 H   0  0  0  0  0  0  0  0  0  0  0  0
    6.2117   -0.8662   -2.2286 H   0  0  0  0  0  0  0  0  0  0  0  0
    3.8871   -1.8939    2.4786 H   0  0  0  0  0  0  0  0  0  0  0  0
    1.7533   -0.5988    3.5224 H   0  0  0  0  0  0  0  0  0  0  0  0
   -0.5423    1.3794   -0.0307 H   0  0  0  0  0  0  0  0  0  0  0  0
   -0.6227   -0.7480    1.4261 H   0  0  0  0  0  0  0  0  0  0  0  0
   -1.7460    0.1850    2.4272 H   0  0  0  0  0  0  0  0  0  0  0  0
   -3.7267    1.3721    1.0940 H   0  0  0  0  0  0  0  0  0  0  0  0
   -5.5685    0.8299   -0.4127 H   0  0  0  0  0  0  0  0  0  0  0  0
   -7.2792   -0.6031   -1.2500 H   0  0  0  0  0  0  0  0  0  0  0  0
   -7.4066   -1.0436   -2.9573 H   0  0  0  0  0  0  0  0  0  0  0  0
   -6.5616    0.4496   -2.5317 H   0  0  0  0  0  0  0  0  0  0  0  0
   -3.3688   -2.5683   -1.8892 H   0  0  0  0  0  0  0  0  0  0  0  0
   -1.5093   -2.0281   -0.3687 H   0  0  0  0  0  0  0  0  0  0  0  0
    2.9502    0.7463   -1.4366 H   0  0  0  0  0  0  0  0  0  0  0  0
    3.2913    2.2286   -0.4666 H   0  0  0  0  0  0  0  0  0  0  0  0
    1.6145    1.6434   -0.7503 H   0  0  0  0  0  0  0  0  0  0  0  0
  1  2  1  0
  2  3  1  0
  3  4  2  0
  3  5  1  0
  5  6  2  0
  6  7  1  0
  7  8  2  0
  8  9  1  0
  9 10  2  0
  9 11  2  0
  9 12  1  0
 12 13  1  0
 13 14  1  0
 14 15  2  0
 15 16  1  0
 16 17  2  0
 17 18  1  0
 18 19  1  0
 17 20  1  0
 20 21  2  0
  8 22  1  0
 22 23  1  0
 22  5  1  0
 21 14  1  0
  1 24  1  0
  1 25  1  0
  1 26  1  0
  6 27  1  0
  7 28  1  0
 12 29  1  0
 13 30  1  0
 13 31  1  0
 15 32  1  0
 16 33  1  0
 19 34  1  0
 19 35  1  0
 19 36  1  0
 20 37  1  0
 21 38  1  0
 23 39  1  0
 23 40  1  0
 23 41  1  0
M  END
$$$$
