
     RDKit          3D

 55 59  0  0  0  0  0  0  0  0999 V2000
    6.8515    1.4652    2.9065 C   0  0  0  0  0  0  0  0  0  0  0  0
    6.9740    0.6338    1.7463 O   0  0  0  0  0  0  0  0  0  0  0  0
    5.8095    0.3196    1.0901 C   0  0  0  0  0  0  0  0  0  0  0  0
    5.9735   -0.3037   -0.1537 C   0  0  0  0  0  0  0  0  0  0  0  0
    4.8625   -0.6661   -0.9246 C   0  0  0  0  0  0  0  0  0  0  0  0
    3.5732   -0.4237   -0.4420 C   0  0  0  0  0  0  0  0  0  0  0  0
    3.3923    0.1775    0.8147 C   0  0  0  0  0  0  0  0  0  0  0  0
    2.0608    0.4429    1.3569 C   0  0  0  0  0  0  0  0  0  0  0  0
    1.6530    1.5952    1.8597 N   0  0  0  0  0  0  0  0  0  0  0  0
    0.3367    1.4719    2.2404 N   0  0  0  0  0  0  0  0  0  0  0  0
   -0.0220    0.2358    2.0040 C   0  0  0  0  0  0  0  0  0  0  0  0
   -1.6055   -0.4130    2.2479 S   0  0  0  0  0  0  0  0  0  0  0  0
   -2.6045    0.8866    1.3954 C   0  0  0  0  0  0  0  0  0  0  0  0
   -2.0995    1.0623   -0.0535 C   0  0  0  0  0  0  0  0  0  0  0  0
   -1.7839    2.1881   -0.4514 O   0  0  0  0  0  0  0  0  0  0  0  0
   -2.0248   -0.0865   -0.9800 C   0  0  0  0  0  0  0  0  0  0  0  0
   -2.7089   -1.2862   -0.8815 C   0  0  0  0  0  0  0  0  0  0  0  0
   -2.3930   -2.0661   -1.9635 N   0  0  0  0  0  0  0  0  0  0  0  0
   -1.5016   -1.4082   -2.7808 C   0  0  0  0  0  0  0  0  0  0  0  0
   -0.9284   -1.8097   -3.9965 C   0  0  0  0  0  0  0  0  0  0  0  0
   -0.0400   -0.9261   -4.6198 C   0  0  0  0  0  0  0  0  0  0  0  0
    0.2626    0.3065   -4.0451 C   0  0  0  0  0  0  0  0  0  0  0  0
   -0.3257    0.6937   -2.8320 C   0  0  0  0  0  0  0  0  0  0  0  0
   -1.2372   -0.1723   -2.1852 C   0  0  0  0  0  0  0  0  0  0  0  0
   -4.1289    0.7258    1.4584 C   0  0  0  0  0  0  0  0  0  0  0  0
   -4.9319    1.6686    0.7803 C   0  0  0  0  0  0  0  0  0  0  0  0
   -6.3256    1.5779    0.7900 C   0  0  0  0  0  0  0  0  0  0  0  0
   -6.9512    0.5536    1.4926 C   0  0  0  0  0  0  0  0  0  0  0  0
   -6.1830   -0.3723    2.1913 C   0  0  0  0  0  0  0  0  0  0  0  0
   -4.7858   -0.2858    2.1807 C   0  0  0  0  0  0  0  0  0  0  0  0
    1.0354   -0.4712    1.4906 N   0  0  0  0  0  0  0  0  0  0  0  0
    1.1052   -1.8873    1.2286 C   0  0  0  0  0  0  0  0  0  0  0  0
    4.5190    0.5598    1.5680 C   0  0  0  0  0  0  0  0  0  0  0  0
    6.3646    0.9175    3.7220 H   0  0  0  0  0  0  0  0  0  0  0  0
    7.8590    1.7332    3.2398 H   0  0  0  0  0  0  0  0  0  0  0  0
    6.3186    2.4026    2.6687 H   0  0  0  0  0  0  0  0  0  0  0  0
    6.9772   -0.4916   -0.5314 H   0  0  0  0  0  0  0  0  0  0  0  0
    5.0046   -1.1243   -1.9047 H   0  0  0  0  0  0  0  0  0  0  0  0
    2.7154   -0.6868   -1.0655 H   0  0  0  0  0  0  0  0  0  0  0  0
   -2.3818    1.8196    1.9329 H   0  0  0  0  0  0  0  0  0  0  0  0
   -3.4181   -1.6521   -0.1490 H   0  0  0  0  0  0  0  0  0  0  0  0
   -2.7700   -2.9868   -2.1498 H   0  0  0  0  0  0  0  0  0  0  0  0
   -1.1669   -2.7668   -4.4503 H   0  0  0  0  0  0  0  0  0  0  0  0
    0.4104   -1.2015   -5.5740 H   0  0  0  0  0  0  0  0  0  0  0  0
    0.9541    0.9839   -4.5447 H   0  0  0  0  0  0  0  0  0  0  0  0
   -0.0914    1.6659   -2.4008 H   0  0  0  0  0  0  0  0  0  0  0  0
   -4.4741    2.4935    0.2330 H   0  0  0  0  0  0  0  0  0  0  0  0
   -6.9193    2.3113    0.2509 H   0  0  0  0  0  0  0  0  0  0  0  0
   -8.0358    0.4844    1.5036 H   0  0  0  0  0  0  0  0  0  0  0  0
   -6.6722   -1.1660    2.7533 H   0  0  0  0  0  0  0  0  0  0  0  0
   -4.2334   -1.0290    2.7539 H   0  0  0  0  0  0  0  0  0  0  0  0
    0.8229   -2.0629    0.1866 H   0  0  0  0  0  0  0  0  0  0  0  0
    2.1234   -2.2453    1.4135 H   0  0  0  0  0  0  0  0  0  0  0  0
    0.4325   -2.4260    1.9004 H   0  0  0  0  0  0  0  0  0  0  0  0
    4.3529    1.0405    2.5314 H   0  0  0  0  0  0  0  0  0  0  0  0
  1  2  1  0
  2  3  1  0
  3  4  2  0
  4  5  1  0
  5  6  2  0
  6  7  1  0
  7  8  1  0
  8  9  2  0
  9 10  1  0
 10 11  2  0
 11 12  1  0
 12 13  1  0
 13 14  1  0
 14 15  2  0
 14 16  1  0
 16 17  2  0
 17 18  1  0
 18 19  1  0
 19 20  2  0
 20 21  1  0
 21 22  2  0
 22 23  1  0
 23 24  2  0
 13 25  1  0
 25 26  2  0
 26 27  1  0
 27 28  2  0
 28 29  1  0
 29 30  2  0
 11 31  1  0
 31 32  1  0
  7 33  2  0
 33  3  1  0
 31  8  1  0
 24 16  1  0
 30 25  1  0
 24 19  1  0
  1 34  1  0
  1 35  1  0
  1 36  1  0
  4 37  1  0
  5 38  1  0
  6 39  1  0
 13 40  1  0
 17 41  1  0
 18 42  1  0
 20 43  1  0
 21 44  1  0
 22 45  1  0
 23 46  1  0
 26 47  1  0
 27 48  1  0
 28 49  1  0
 29 50  1  0
 30 51  1  0
 32 52  1  0
 32 53  1  0
 32 54  1  0
 33 55  1  0
M  END
$$$$
