
     RDKit          3D

 53 52  0  0  0  0  0  0  0  0999 V2000
   -7.6009    3.3191    0.3207 C   0  0  0  0  0  0  0  0  0  0  0  0
   -7.0955    1.9163   -0.0241 C   0  0  0  0  0  0  0  0  0  0  0  0
   -7.7868    0.8845    0.8693 C   0  0  0  0  0  0  0  0  0  0  0  0
   -5.5626    1.8682    0.1032 C   0  0  0  0  0  0  0  0  0  0  0  0
   -4.9554    0.5409   -0.3528 C   0  0  0  0  0  0  0  0  0  0  0  0
   -3.5065    0.5776   -0.3050 N   0  0  0  0  0  0  0  0  0  0  0  0
   -2.7587    1.0854   -1.3485 C   0  0  0  0  0  0  0  0  0  0  0  0
   -3.2556    1.5325   -2.3755 O   0  0  0  0  0  0  0  0  0  0  0  0
   -1.2706    1.1013   -1.0566 C   0  0  0  0  0  0  0  0  0  0  0  0
   -0.4154    1.2518   -2.3097 C   0  0  0  0  0  0  0  0  0  0  0  0
   -0.2074   -0.3425   -3.1864 S   0  0  0  0  0  0  0  0  0  0  0  0
    1.5367   -0.7120   -2.7834 C   0  0  0  0  0  0  0  0  0  0  0  0
    1.6944   -1.2050   -1.3517 C   0  0  0  0  0  0  0  0  0  0  0  0
    3.1412   -1.5382   -1.0521 C   0  0  0  0  0  0  0  0  0  0  0  0
    4.0728   -1.2249   -1.7839 O   0  0  0  0  0  0  0  0  0  0  0  0
    3.3042   -2.1998    0.1463 N   0  0  0  0  0  0  0  0  0  0  0  0
    4.6166   -2.5478    0.6552 C   0  0  0  0  0  0  0  0  0  0  0  0
    5.2386   -1.3821    1.4250 C   0  0  0  0  0  0  0  0  0  0  0  0
    6.5742   -1.7380    2.1015 C   0  0  0  0  0  0  0  0  0  0  0  0
    7.6643   -2.0864    1.0864 C   0  0  0  0  0  0  0  0  0  0  0  0
    7.0382   -0.5726    2.9788 C   0  0  0  0  0  0  0  0  0  0  0  0
   -7.1461    4.0686   -0.3355 H   0  0  0  0  0  0  0  0  0  0  0  0
   -7.3626    3.5837    1.3567 H   0  0  0  0  0  0  0  0  0  0  0  0
   -8.6870    3.3829    0.1961 H   0  0  0  0  0  0  0  0  0  0  0  0
   -7.3684    1.7059   -1.0664 H   0  0  0  0  0  0  0  0  0  0  0  0
   -7.5460   -0.1360    0.5575 H   0  0  0  0  0  0  0  0  0  0  0  0
   -7.4885    1.0018    1.9164 H   0  0  0  0  0  0  0  0  0  0  0  0
   -8.8759    0.9893    0.8141 H   0  0  0  0  0  0  0  0  0  0  0  0
   -5.1313    2.6820   -0.4942 H   0  0  0  0  0  0  0  0  0  0  0  0
   -5.2660    2.0653    1.1421 H   0  0  0  0  0  0  0  0  0  0  0  0
   -5.2722    0.3061   -1.3751 H   0  0  0  0  0  0  0  0  0  0  0  0
   -5.2665   -0.2796    0.3002 H   0  0  0  0  0  0  0  0  0  0  0  0
   -3.0492    0.3405    0.5655 H   0  0  0  0  0  0  0  0  0  0  0  0
   -0.9880    0.2122   -0.4814 H   0  0  0  0  0  0  0  0  0  0  0  0
   -1.0986    1.9722   -0.4118 H   0  0  0  0  0  0  0  0  0  0  0  0
   -0.8569    1.9651   -3.0130 H   0  0  0  0  0  0  0  0  0  0  0  0
    0.5698    1.6436   -2.0372 H   0  0  0  0  0  0  0  0  0  0  0  0
    2.1506    0.1738   -2.9792 H   0  0  0  0  0  0  0  0  0  0  0  0
    1.8721   -1.4886   -3.4794 H   0  0  0  0  0  0  0  0  0  0  0  0
    1.0874   -2.1041   -1.1892 H   0  0  0  0  0  0  0  0  0  0  0  0
    1.3826   -0.4367   -0.6358 H   0  0  0  0  0  0  0  0  0  0  0  0
    2.4994   -2.3665    0.7373 H   0  0  0  0  0  0  0  0  0  0  0  0
    5.2489   -2.8443   -0.1874 H   0  0  0  0  0  0  0  0  0  0  0  0
    4.4852   -3.4152    1.3106 H   0  0  0  0  0  0  0  0  0  0  0  0
    5.3784   -0.5267    0.7506 H   0  0  0  0  0  0  0  0  0  0  0  0
    4.5257   -1.0514    2.1923 H   0  0  0  0  0  0  0  0  0  0  0  0
    6.4198   -2.6078    2.7520 H   0  0  0  0  0  0  0  0  0  0  0  0
    8.6196   -2.2696    1.5903 H   0  0  0  0  0  0  0  0  0  0  0  0
    7.4143   -2.9939    0.5282 H   0  0  0  0  0  0  0  0  0  0  0  0
    7.8125   -1.2729    0.3677 H   0  0  0  0  0  0  0  0  0  0  0  0
    7.9684   -0.8230    3.4997 H   0  0  0  0  0  0  0  0  0  0  0  0
    7.2163    0.3286    2.3812 H   0  0  0  0  0  0  0  0  0  0  0  0
    6.2861   -0.3337    3.7383 H   0  0  0  0  0  0  0  0  0  0  0  0
  1  2  1  0
  2  3  1  0
  2  4  1  0
  4  5  1  0
  5  6  1  0
  6  7  1  0
  7  8  2  0
  7  9  1  0
  9 10  1  0
 10 11  1  0
 11 12  1  0
 12 13  1  0
 13 14  1  0
 14 15  2  0
 14 16  1  0
 16 17  1  0
 17 18  1  0
 18 19  1  0
 19 20  1  0
 19 21  1  0
  1 22  1  0
  1 23  1  0
  1 24  1  0
  2 25  1  0
  3 26  1  0
  3 27  1  0
  3 28  1  0
  4 29  1  0
  4 30  1  0
  5 31  1  0
  5 32  1  0
  6 33  1  0
  9 34  1  0
  9 35  1  0
 10 36  1  0
 10 37  1  0
 12 38  1  0
 12 39  1  0
 13 40  1  0
 13 41  1  0
 16 42  1  0
 17 43  1  0
 17 44  1  0
 18 45  1  0
 18 46  1  0
 19 47  1  0
 20 48  1  0
 20 49  1  0
 20 50  1  0
 21 51  1  0
 21 52  1  0
 21 53  1  0
M  END
$$$$
