
     RDKit          3D

 45 47  0  0  0  0  0  0  0  0999 V2000
   -3.2226   -0.1841   -2.5850 O   0  0  0  0  0  0  0  0  0  0  0  0
   -3.3026    0.5317   -1.5839 C   0  0  0  0  0  0  0  0  0  0  0  0
   -4.5454    1.3729   -1.3458 C   0  0  0  0  0  0  0  0  0  0  0  0
   -5.5123    0.7560   -0.3623 C   0  0  0  0  0  0  0  0  0  0  0  0
   -5.9416    1.4777    0.7611 C   0  0  0  0  0  0  0  0  0  0  0  0
   -6.8439    0.9111    1.6647 C   0  0  0  0  0  0  0  0  0  0  0  0
   -7.3282   -0.3765    1.4459 C   0  0  0  0  0  0  0  0  0  0  0  0
   -8.4391   -1.0726    2.5600 Cl  0  0  0  0  0  0  0  0  0  0  0  0
   -6.9216   -1.1011    0.3286 C   0  0  0  0  0  0  0  0  0  0  0  0
   -6.0198   -0.5351   -0.5754 C   0  0  0  0  0  0  0  0  0  0  0  0
   -2.2050    0.5671   -0.6128 C   0  0  0  0  0  0  0  0  0  0  0  0
   -2.1261    1.3055    0.5524 C   0  0  0  0  0  0  0  0  0  0  0  0
   -0.9283    1.0309    1.1588 N   0  0  0  0  0  0  0  0  0  0  0  0
   -0.2043    0.1278    0.4110 C   0  0  0  0  0  0  0  0  0  0  0  0
    1.1023   -0.3207    0.8396 C   0  0  0  0  0  0  0  0  0  0  0  0
    1.6153    0.0702    1.8843 O   0  0  0  0  0  0  0  0  0  0  0  0
    1.7329   -1.2038   -0.0066 N   0  0  0  0  0  0  0  0  0  0  0  0
    3.0662   -1.6953    0.2615 C   0  0  0  0  0  0  0  0  0  0  0  0
    4.1324   -0.7039   -0.1922 C   0  0  0  0  0  0  0  0  0  0  0  0
    5.5278   -1.2072    0.1599 C   0  0  0  0  0  0  0  0  0  0  0  0
    6.5640   -0.3066   -0.3016 N   0  0  0  0  0  0  0  0  0  0  0  0
    7.2376   -0.3877   -1.4873 C   0  0  0  0  0  0  0  0  0  0  0  0
    8.1208    0.6667   -1.4630 C   0  0  0  0  0  0  0  0  0  0  0  0
    7.9998    1.3763   -0.2961 N   0  0  0  0  0  0  0  0  0  0  0  0
    7.0560    0.7659    0.3848 C   0  0  0  0  0  0  0  0  0  0  0  0
   -0.9849   -0.1732   -0.6924 C   0  0  0  0  0  0  0  0  0  0  0  0
   -4.2400    2.3781   -1.0324 H   0  0  0  0  0  0  0  0  0  0  0  0
   -5.0604    1.5058   -2.3058 H   0  0  0  0  0  0  0  0  0  0  0  0
   -5.5796    2.4874    0.9431 H   0  0  0  0  0  0  0  0  0  0  0  0
   -7.1666    1.4789    2.5333 H   0  0  0  0  0  0  0  0  0  0  0  0
   -7.3027   -2.1036    0.1530 H   0  0  0  0  0  0  0  0  0  0  0  0
   -5.7169   -1.1114   -1.4492 H   0  0  0  0  0  0  0  0  0  0  0  0
   -2.8143    1.9993    1.0161 H   0  0  0  0  0  0  0  0  0  0  0  0
   -0.5969    1.4217    2.0337 H   0  0  0  0  0  0  0  0  0  0  0  0
    1.2962   -1.4351   -0.8873 H   0  0  0  0  0  0  0  0  0  0  0  0
    3.1601   -1.8949    1.3350 H   0  0  0  0  0  0  0  0  0  0  0  0
    3.1734   -2.6459   -0.2716 H   0  0  0  0  0  0  0  0  0  0  0  0
    4.0483   -0.5430   -1.2747 H   0  0  0  0  0  0  0  0  0  0  0  0
    3.9631    0.2748    0.2743 H   0  0  0  0  0  0  0  0  0  0  0  0
    5.7172   -2.1870   -0.2941 H   0  0  0  0  0  0  0  0  0  0  0  0
    5.6448   -1.3157    1.2445 H   0  0  0  0  0  0  0  0  0  0  0  0
    7.0450   -1.1543   -2.2242 H   0  0  0  0  0  0  0  0  0  0  0  0
    8.8375    0.9522   -2.2221 H   0  0  0  0  0  0  0  0  0  0  0  0
    6.6959    1.0576    1.3631 H   0  0  0  0  0  0  0  0  0  0  0  0
   -0.7334   -0.8571   -1.4936 H   0  0  0  0  0  0  0  0  0  0  0  0
  1  2  2  0
  2  3  1  0
  3  4  1  0
  4  5  2  0
  5  6  1  0
  6  7  2  0
  7  8  1  0
  7  9  1  0
  9 10  2  0
  2 11  1  0
 11 12  2  0
 12 13  1  0
 13 14  1  0
 14 15  1  0
 15 16  2  0
 15 17  1  0
 17 18  1  0
 18 19  1  0
 19 20  1  0
 20 21  1  0
 21 22  1  0
 22 23  2  0
 23 24  1  0
 24 25  2  0
 14 26  2  0
 10  4  1  0
 26 11  1  0
 25 21  1  0
  3 27  1  0
  3 28  1  0
  5 29  1  0
  6 30  1  0
  9 31  1  0
 10 32  1  0
 12 33  1  0
 13 34  1  0
 17 35  1  0
 18 36  1  0
 18 37  1  0
 19 38  1  0
 19 39  1  0
 20 40  1  0
 20 41  1  0
 22 42  1  0
 23 43  1  0
 25 44  1  0
 26 45  1  0
M  END
$$$$
