
     RDKit          3D

 81 84  0  0  0  0  0  0  0  0999 V2000
   -1.5078    5.7423    2.5900 C   0  0  0  0  0  0  0  0  0  0  0  0
   -2.3869    5.5079    1.4890 O   0  0  0  0  0  0  0  0  0  0  0  0
   -2.1779    4.3525    0.7926 C   0  0  0  0  0  0  0  0  0  0  0  0
   -2.6745    4.3473   -0.5169 C   0  0  0  0  0  0  0  0  0  0  0  0
   -2.4502    3.2550   -1.3596 C   0  0  0  0  0  0  0  0  0  0  0  0
   -1.7450    2.1547   -0.8725 C   0  0  0  0  0  0  0  0  0  0  0  0
   -1.2550    0.8477   -1.9733 S   0  0  0  0  0  6  0  0  0  0  0  0
   -1.7881    1.1272   -3.2871 O   0  0  0  0  0  0  0  0  0  0  0  0
    0.1719    0.7065   -1.7891 O   0  0  0  0  0  0  0  0  0  0  0  0
   -2.0730   -0.5267   -1.3279 N   0  0  0  0  0  0  0  0  0  0  0  0
   -3.5476   -0.4453   -1.5397 C   0  0  0  0  0  0  0  0  0  0  0  0
   -1.5088   -1.8447   -1.7926 C   0  0  0  0  0  0  0  0  0  0  0  0
   -0.6068   -2.5571   -0.7358 C   0  0  0  0  0  0  0  0  0  0  0  0
    0.5844   -1.7681   -0.6038 O   0  0  0  0  0  0  0  0  0  0  0  0
    1.7173   -2.2114    0.0309 C   0  0  0  0  0  0  0  0  0  0  0  0
    2.6048   -1.1603    0.3816 C   0  0  0  0  0  0  0  0  0  0  0  0
    2.2377    0.1277   -0.0550 N   0  0  0  0  0  0  0  0  0  0  0  0
    2.8265    1.3589    0.1779 C   0  0  0  0  0  0  0  0  0  0  0  0
    3.7831    1.5577    0.9184 O   0  0  0  0  0  0  0  0  0  0  0  0
    2.1498    2.3281   -0.5469 N   0  0  0  0  0  0  0  0  0  0  0  0
    2.2674    3.7252   -0.4916 C   0  0  0  0  0  0  0  0  0  0  0  0
    1.4858    4.4600   -1.3915 C   0  0  0  0  0  0  0  0  0  0  0  0
    1.5300    5.8557   -1.4116 C   0  0  0  0  0  0  0  0  0  0  0  0
    2.3630    6.5479   -0.5223 C   0  0  0  0  0  0  0  0  0  0  0  0
    2.4599    8.0541   -0.5641 C   0  0  0  0  0  0  0  0  0  0  0  0
    1.4606    8.6372   -1.2833 F   0  0  0  0  0  0  0  0  0  0  0  0
    2.4076    8.6235    0.6748 F   0  0  0  0  0  0  0  0  0  0  0  0
    3.6259    8.4850   -1.1251 F   0  0  0  0  0  0  0  0  0  0  0  0
    3.1279    5.8097    0.3968 C   0  0  0  0  0  0  0  0  0  0  0  0
    3.0812    4.4088    0.4131 C   0  0  0  0  0  0  0  0  0  0  0  0
    3.7799   -1.4207    1.0854 C   0  0  0  0  0  0  0  0  0  0  0  0
    4.1150   -2.7337    1.4174 C   0  0  0  0  0  0  0  0  0  0  0  0
    3.2777   -3.7830    1.0397 C   0  0  0  0  0  0  0  0  0  0  0  0
    2.0849   -3.5214    0.3478 C   0  0  0  0  0  0  0  0  0  0  0  0
    1.3079   -4.7137   -0.0275 C   0  0  0  0  0  0  0  0  0  0  0  0
    1.7381   -5.4273   -0.9379 O   0  0  0  0  0  0  0  0  0  0  0  0
    0.1452   -5.0024    0.6974 N   0  0  0  0  0  0  0  0  0  0  0  0
   -0.4827   -6.3249    0.4681 C   0  0  0  0  0  0  0  0  0  0  0  0
   -1.0259   -6.9656    1.7463 C   0  0  0  0  0  0  0  0  0  0  0  0
   -1.5486   -6.3230   -0.6486 C   0  0  0  0  0  0  0  0  0  0  0  0
   -1.0892   -5.6706   -1.8300 O   0  0  0  0  0  0  0  0  0  0  0  0
   -0.5310   -3.9581    1.4734 C   0  0  0  0  0  0  0  0  0  0  0  0
   -1.2402   -2.8328    0.6561 C   0  0  0  0  0  0  0  0  0  0  0  0
   -2.7561   -3.1021    0.6390 C   0  0  0  0  0  0  0  0  0  0  0  0
   -1.3010    2.1181    0.4542 C   0  0  0  0  0  0  0  0  0  0  0  0
   -1.5187    3.2224    1.2868 C   0  0  0  0  0  0  0  0  0  0  0  0
   -1.8140    5.1530    3.4560 H   0  0  0  0  0  0  0  0  0  0  0  0
   -0.4701    5.5385    2.3277 H   0  0  0  0  0  0  0  0  0  0  0  0
   -1.5766    6.7997    2.8503 H   0  0  0  0  0  0  0  0  0  0  0  0
   -3.1880    5.2226   -0.9006 H   0  0  0  0  0  0  0  0  0  0  0  0
   -2.7855    3.2974   -2.3902 H   0  0  0  0  0  0  0  0  0  0  0  0
   -3.7904   -0.2284   -2.5835 H   0  0  0  0  0  0  0  0  0  0  0  0
   -3.9720    0.3256   -0.8971 H   0  0  0  0  0  0  0  0  0  0  0  0
   -4.0453   -1.3825   -1.2876 H   0  0  0  0  0  0  0  0  0  0  0  0
   -0.9247   -1.6789   -2.7102 H   0  0  0  0  0  0  0  0  0  0  0  0
   -2.3199   -2.5230   -2.0802 H   0  0  0  0  0  0  0  0  0  0  0  0
   -0.3506   -3.4849   -1.2424 H   0  0  0  0  0  0  0  0  0  0  0  0
    1.4023    0.1280   -0.6461 H   0  0  0  0  0  0  0  0  0  0  0  0
    1.5274    1.9514   -1.2580 H   0  0  0  0  0  0  0  0  0  0  0  0
    0.8341    3.9527   -2.1007 H   0  0  0  0  0  0  0  0  0  0  0  0
    0.9274    6.3993   -2.1436 H   0  0  0  0  0  0  0  0  0  0  0  0
    3.7722    6.3279    1.1052 H   0  0  0  0  0  0  0  0  0  0  0  0
    3.7016    3.8846    1.1370 H   0  0  0  0  0  0  0  0  0  0  0  0
    4.4635   -0.6236    1.3656 H   0  0  0  0  0  0  0  0  0  0  0  0
    5.0368   -2.9365    1.9576 H   0  0  0  0  0  0  0  0  0  0  0  0
    3.5519   -4.8100    1.2809 H   0  0  0  0  0  0  0  0  0  0  0  0
    0.3214   -6.9900    0.1236 H   0  0  0  0  0  0  0  0  0  0  0  0
   -1.9523   -6.4892    2.0882 H   0  0  0  0  0  0  0  0  0  0  0  0
   -0.2920   -6.9020    2.5594 H   0  0  0  0  0  0  0  0  0  0  0  0
   -1.2490   -8.0282    1.5788 H   0  0  0  0  0  0  0  0  0  0  0  0
   -2.4715   -5.8285   -0.3194 H   0  0  0  0  0  0  0  0  0  0  0  0
   -1.8041   -7.3542   -0.9197 H   0  0  0  0  0  0  0  0  0  0  0  0
   -0.1401   -5.9074   -1.9322 H   0  0  0  0  0  0  0  0  0  0  0  0
   -1.2385   -4.4352    2.1631 H   0  0  0  0  0  0  0  0  0  0  0  0
    0.2184   -3.5083    2.1501 H   0  0  0  0  0  0  0  0  0  0  0  0
   -1.1099   -1.9168    1.2618 H   0  0  0  0  0  0  0  0  0  0  0  0
   -3.0645   -3.7355   -0.2020 H   0  0  0  0  0  0  0  0  0  0  0  0
   -3.1046   -3.5691    1.5654 H   0  0  0  0  0  0  0  0  0  0  0  0
   -3.3000   -2.1562    0.5760 H   0  0  0  0  0  0  0  0  0  0  0  0
   -0.7578    1.2532    0.8306 H   0  0  0  0  0  0  0  0  0  0  0  0
   -1.1545    3.1867    2.3088 H   0  0  0  0  0  0  0  0  0  0  0  0
  1  2  1  0
  2  3  1  0
  3  4  2  0
  4  5  1  0
  5  6  2  0
  6  7  1  0
  7  8  2  0
  7  9  2  0
  7 10  1  0
 10 11  1  0
 10 12  1  0
 12 13  1  0
 13 14  1  0
 14 15  1  0
 15 16  2  0
 16 17  1  0
 17 18  1  0
 18 19  2  0
 18 20  1  0
 20 21  1  0
 21 22  2  0
 22 23  1  0
 23 24  2  0
 24 25  1  0
 25 26  1  0
 25 27  1  0
 25 28  1  0
 24 29  1  0
 29 30  2  0
 16 31  1  0
 31 32  2  0
 32 33  1  0
 33 34  2  0
 34 35  1  0
 35 36  2  0
 35 37  1  0
 37 38  1  0
 38 39  1  0
 38 40  1  0
 40 41  1  0
 37 42  1  0
 42 43  1  0
 43 44  1  0
  6 45  1  0
 45 46  2  0
 46  3  1  0
 43 13  1  0
 34 15  1  0
 30 21  1  0
  1 47  1  0
  1 48  1  0
  1 49  1  0
  4 50  1  0
  5 51  1  0
 11 52  1  0
 11 53  1  0
 11 54  1  0
 12 55  1  0
 12 56  1  0
 13 57  1  0
 17 58  1  0
 20 59  1  0
 22 60  1  0
 23 61  1  0
 29 62  1  0
 30 63  1  0
 31 64  1  0
 32 65  1  0
 33 66  1  0
 38 67  1  0
 39 68  1  0
 39 69  1  0
 39 70  1  0
 40 71  1  0
 40 72  1  0
 41 73  1  0
 42 74  1  0
 42 75  1  0
 43 76  1  0
 44 77  1  0
 44 78  1  0
 44 79  1  0
 45 80  1  0
 46 81  1  0
M  END
$$$$
