
     RDKit          3D

 44 47  0  0  0  0  0  0  0  0999 V2000
   -1.4099   -0.4872    2.1187 O   0  0  0  0  0  0  0  0  0  0  0  0
   -2.3028   -0.3839    1.2889 C   0  0  0  0  0  0  0  0  0  0  0  0
   -2.7922   -1.3687    0.4528 O   0  0  0  0  0  0  0  0  0  0  0  0
   -2.1070   -2.5845    0.5738 C   0  0  0  0  0  0  0  0  0  0  0  0
   -2.5433   -3.4989    1.5363 C   0  0  0  0  0  0  0  0  0  0  0  0
   -1.9165   -4.7400    1.6318 C   0  0  0  0  0  0  0  0  0  0  0  0
   -0.8744   -5.0627    0.7603 C   0  0  0  0  0  0  0  0  0  0  0  0
   -0.4603   -4.1496   -0.2165 C   0  0  0  0  0  0  0  0  0  0  0  0
   -1.0700   -2.8939   -0.3195 C   0  0  0  0  0  0  0  0  0  0  0  0
   -0.6781   -1.9495   -1.3723 C   0  0  0  0  0  0  0  0  0  0  0  0
    0.4693   -1.2601   -1.4795 C   0  0  0  0  0  0  0  0  0  0  0  0
    1.6572   -1.3168   -0.5672 C   0  0  0  0  0  0  0  0  0  0  0  0
    1.8502   -2.2846    0.1663 O   0  0  0  0  0  0  0  0  0  0  0  0
    2.5967   -0.2130   -0.6439 C   0  0  0  0  0  0  0  0  0  0  0  0
    3.7979   -0.0171    0.0158 C   0  0  0  0  0  0  0  0  0  0  0  0
    4.3220    1.2236   -0.4327 C   0  0  0  0  0  0  0  0  0  0  0  0
    5.4754    1.9828   -0.1692 C   0  0  0  0  0  0  0  0  0  0  0  0
    5.6448    3.2044   -0.8404 C   0  0  0  0  0  0  0  0  0  0  0  0
    4.6931    3.6637   -1.7559 C   0  0  0  0  0  0  0  0  0  0  0  0
    3.5426    2.9209   -2.0331 C   0  0  0  0  0  0  0  0  0  0  0  0
    3.4018    1.7125   -1.3505 C   0  0  0  0  0  0  0  0  0  0  0  0
    2.3577    0.8481   -1.4800 O   0  0  0  0  0  0  0  0  0  0  0  0
   -3.0342    0.8912    1.0424 C   0  0  0  0  0  0  0  0  0  0  0  0
   -4.0901    0.9953    0.1255 C   0  0  0  0  0  0  0  0  0  0  0  0
   -4.7400    2.2181   -0.0606 C   0  0  0  0  0  0  0  0  0  0  0  0
   -4.3416    3.3409    0.6656 C   0  0  0  0  0  0  0  0  0  0  0  0
   -3.2922    3.2472    1.5795 C   0  0  0  0  0  0  0  0  0  0  0  0
   -2.6402    2.0270    1.7680 C   0  0  0  0  0  0  0  0  0  0  0  0
   -3.3563   -3.2449    2.2104 H   0  0  0  0  0  0  0  0  0  0  0  0
   -2.2348   -5.4550    2.3871 H   0  0  0  0  0  0  0  0  0  0  0  0
   -0.3791   -6.0277    0.8397 H   0  0  0  0  0  0  0  0  0  0  0  0
    0.3550   -4.4210   -0.8836 H   0  0  0  0  0  0  0  0  0  0  0  0
   -1.4566   -1.7746   -2.1118 H   0  0  0  0  0  0  0  0  0  0  0  0
    0.5621   -0.5592   -2.3042 H   0  0  0  0  0  0  0  0  0  0  0  0
    4.2319   -0.6995    0.7355 H   0  0  0  0  0  0  0  0  0  0  0  0
    6.2234    1.6321    0.5365 H   0  0  0  0  0  0  0  0  0  0  0  0
    6.5322    3.8026   -0.6429 H   0  0  0  0  0  0  0  0  0  0  0  0
    4.8508    4.6144   -2.2631 H   0  0  0  0  0  0  0  0  0  0  0  0
    2.7965    3.2612   -2.7406 H   0  0  0  0  0  0  0  0  0  0  0  0
   -4.4250    0.1349   -0.4517 H   0  0  0  0  0  0  0  0  0  0  0  0
   -5.5619    2.2935   -0.7728 H   0  0  0  0  0  0  0  0  0  0  0  0
   -4.8507    4.2897    0.5187 H   0  0  0  0  0  0  0  0  0  0  0  0
   -2.9806    4.1231    2.1463 H   0  0  0  0  0  0  0  0  0  0  0  0
   -1.8226    1.9651    2.4854 H   0  0  0  0  0  0  0  0  0  0  0  0
  1  2  2  0
  2  3  1  0
  3  4  1  0
  4  5  2  0
  5  6  1  0
  6  7  2  0
  7  8  1  0
  8  9  2  0
  9 10  1  0
 10 11  2  3
 11 12  1  0
 12 13  2  0
 12 14  1  0
 14 15  2  0
 15 16  1  0
 16 17  2  0
 17 18  1  0
 18 19  2  0
 19 20  1  0
 20 21  2  0
 21 22  1  0
  2 23  1  0
 23 24  2  0
 24 25  1  0
 25 26  2  0
 26 27  1  0
 27 28  2  0
  9  4  1  0
 22 14  1  0
 28 23  1  0
 21 16  1  0
  5 29  1  0
  6 30  1  0
  7 31  1  0
  8 32  1  0
 10 33  1  0
 11 34  1  0
 15 35  1  0
 17 36  1  0
 18 37  1  0
 19 38  1  0
 20 39  1  0
 24 40  1  0
 25 41  1  0
 26 42  1  0
 27 43  1  0
 28 44  1  0
M  END
$$$$
