
     RDKit          3D

 58 62  0  0  0  0  0  0  0  0999 V2000
    8.3890    0.0347    0.3832 C   0  0  0  0  0  0  0  0  0  0  0  0
    7.5969    1.0916    0.9052 O   0  0  0  0  0  0  0  0  0  0  0  0
    6.2471    1.0579    0.6571 C   0  0  0  0  0  0  0  0  0  0  0  0
    5.6104    0.0836   -0.1159 C   0  0  0  0  0  0  0  0  0  0  0  0
    4.2273    0.1331   -0.3140 C   0  0  0  0  0  0  0  0  0  0  0  0
    3.4545    1.1542    0.2527 C   0  0  0  0  0  0  0  0  0  0  0  0
    2.0116    1.1718    0.0262 C   0  0  0  0  0  0  0  0  0  0  0  0
    1.2675    0.3378   -0.6760 N   0  0  0  0  0  0  0  0  0  0  0  0
   -0.0201    0.8137   -0.5263 C   0  0  0  0  0  0  0  0  0  0  0  0
   -1.1642    0.1149   -1.1660 C   0  0  0  0  0  0  0  0  0  0  0  0
   -1.8891   -0.6921   -0.1981 N   0  0  0  0  0  0  0  0  0  0  0  0
   -3.1506   -0.4808    0.2989 C   0  0  0  0  0  0  0  0  0  0  0  0
   -4.1359    0.8808   -0.1202 S   0  0  0  0  0  0  0  0  0  0  0  0
   -5.7578    0.0749   -0.2952 C   0  0  0  0  0  0  0  0  0  0  0  0
   -5.8681   -0.7059   -1.5830 C   0  0  0  0  0  0  0  0  0  0  0  0
   -5.6275   -2.0898   -1.6030 C   0  0  0  0  0  0  0  0  0  0  0  0
   -5.6984   -2.8107   -2.7980 C   0  0  0  0  0  0  0  0  0  0  0  0
   -6.0113   -2.1558   -3.9867 C   0  0  0  0  0  0  0  0  0  0  0  0
   -6.2487   -0.7866   -3.9702 C   0  0  0  0  0  0  0  0  0  0  0  0
   -6.5431   -0.1553   -5.1136 F   0  0  0  0  0  0  0  0  0  0  0  0
   -6.1791   -0.0580   -2.7866 C   0  0  0  0  0  0  0  0  0  0  0  0
   -3.5245   -1.4317    1.1231 N   0  0  0  0  0  0  0  0  0  0  0  0
   -2.4733   -2.3120    1.1591 C   0  0  0  0  0  0  0  0  0  0  0  0
   -2.3416   -3.5039    1.8706 C   0  0  0  0  0  0  0  0  0  0  0  0
   -1.1497   -4.1845    1.6862 C   0  0  0  0  0  0  0  0  0  0  0  0
   -0.1401   -3.7738    0.8841 N   0  0  0  0  0  0  0  0  0  0  0  0
   -0.2644   -2.6108    0.2010 C   0  0  0  0  0  0  0  0  0  0  0  0
   -1.4380   -1.8826    0.3372 C   0  0  0  0  0  0  0  0  0  0  0  0
    0.0040    1.9505    0.2549 C   0  0  0  0  0  0  0  0  0  0  0  0
   -1.0091    2.8940    0.7595 C   0  0  0  0  0  0  0  0  0  0  0  0
    1.3010    2.1848    0.6147 O   0  0  0  0  0  0  0  0  0  0  0  0
    4.0978    2.1318    1.0281 C   0  0  0  0  0  0  0  0  0  0  0  0
    5.4838    2.0923    1.2347 C   0  0  0  0  0  0  0  0  0  0  0  0
    6.1828    3.0107    1.9801 O   0  0  0  0  0  0  0  0  0  0  0  0
    5.4488    4.0516    2.6079 C   0  0  0  0  0  0  0  0  0  0  0  0
    8.0749   -0.9330    0.7881 H   0  0  0  0  0  0  0  0  0  0  0  0
    9.4234    0.2053    0.6970 H   0  0  0  0  0  0  0  0  0  0  0  0
    8.3701    0.0312   -0.7116 H   0  0  0  0  0  0  0  0  0  0  0  0
    6.1585   -0.7297   -0.5795 H   0  0  0  0  0  0  0  0  0  0  0  0
    3.7518   -0.6389   -0.9175 H   0  0  0  0  0  0  0  0  0  0  0  0
   -1.8388    0.8294   -1.6438 H   0  0  0  0  0  0  0  0  0  0  0  0
   -0.8146   -0.5645   -1.9522 H   0  0  0  0  0  0  0  0  0  0  0  0
   -6.5249    0.8581   -0.2867 H   0  0  0  0  0  0  0  0  0  0  0  0
   -5.9724   -0.5623    0.5702 H   0  0  0  0  0  0  0  0  0  0  0  0
   -5.3731   -2.6136   -0.6821 H   0  0  0  0  0  0  0  0  0  0  0  0
   -5.5065   -3.8810   -2.7992 H   0  0  0  0  0  0  0  0  0  0  0  0
   -6.0682   -2.7011   -4.9232 H   0  0  0  0  0  0  0  0  0  0  0  0
   -6.3644    1.0120   -2.8163 H   0  0  0  0  0  0  0  0  0  0  0  0
   -3.1221   -3.8705    2.5224 H   0  0  0  0  0  0  0  0  0  0  0  0
   -0.9662   -5.1228    2.2036 H   0  0  0  0  0  0  0  0  0  0  0  0
    0.5716   -2.3099   -0.4189 H   0  0  0  0  0  0  0  0  0  0  0  0
   -1.7162    3.1605   -0.0317 H   0  0  0  0  0  0  0  0  0  0  0  0
   -0.5455    3.8187    1.1184 H   0  0  0  0  0  0  0  0  0  0  0  0
   -1.5648    2.4475    1.5897 H   0  0  0  0  0  0  0  0  0  0  0  0
    3.4964    2.9215    1.4669 H   0  0  0  0  0  0  0  0  0  0  0  0
    4.9584    4.6915    1.8672 H   0  0  0  0  0  0  0  0  0  0  0  0
    6.1579    4.6720    3.1639 H   0  0  0  0  0  0  0  0  0  0  0  0
    4.7262    3.6495    3.3255 H   0  0  0  0  0  0  0  0  0  0  0  0
  1  2  1  0
  2  3  1  0
  3  4  2  0
  4  5  1  0
  5  6  2  0
  6  7  1  0
  7  8  2  0
  8  9  1  0
  9 10  1  0
 10 11  1  0
 11 12  1  0
 12 13  1  0
 13 14  1  0
 14 15  1  0
 15 16  2  0
 16 17  1  0
 17 18  2  0
 18 19  1  0
 19 20  1  0
 19 21  2  0
 12 22  2  0
 22 23  1  0
 23 24  2  0
 24 25  1  0
 25 26  2  0
 26 27  1  0
 27 28  2  0
  9 29  2  0
 29 30  1  0
 29 31  1  0
  6 32  1  0
 32 33  2  0
 33 34  1  0
 34 35  1  0
 33  3  1  0
 31  7  1  0
 28 11  1  0
 21 15  1  0
 28 23  1  0
  1 36  1  0
  1 37  1  0
  1 38  1  0
  4 39  1  0
  5 40  1  0
 10 41  1  0
 10 42  1  0
 14 43  1  0
 14 44  1  0
 16 45  1  0
 17 46  1  0
 18 47  1  0
 21 48  1  0
 24 49  1  0
 25 50  1  0
 27 51  1  0
 30 52  1  0
 30 53  1  0
 30 54  1  0
 32 55  1  0
 35 56  1  0
 35 57  1  0
 35 58  1  0
M  END
$$$$
