
     RDKit          3D

 38 40  0  0  0  0  0  0  0  0999 V2000
    1.4007   -1.0996   -1.9011 O   0  0  0  0  0  0  0  0  0  0  0  0
    0.7052   -0.9656   -0.8980 C   0  0  0  0  0  0  0  0  0  0  0  0
    1.1597   -1.2812    0.3576 N   0  0  0  0  0  0  0  0  0  0  0  0
    2.5146   -1.7510    0.5555 C   0  0  0  0  0  0  0  0  0  0  0  0
    3.4379   -0.6170    0.9286 C   0  0  0  0  0  0  0  0  0  0  0  0
    3.9885    0.2038   -0.0673 C   0  0  0  0  0  0  0  0  0  0  0  0
    4.8248    1.2693    0.2726 C   0  0  0  0  0  0  0  0  0  0  0  0
    5.1111    1.5228    1.6116 C   0  0  0  0  0  0  0  0  0  0  0  0
    6.1403    2.8357    2.0332 Cl  0  0  0  0  0  0  0  0  0  0  0  0
    4.5662    0.7220    2.6134 C   0  0  0  0  0  0  0  0  0  0  0  0
    3.7287   -0.3434    2.2735 C   0  0  0  0  0  0  0  0  0  0  0  0
   -0.6008   -0.4903   -0.9374 N   0  0  0  0  0  0  0  0  0  0  0  0
   -1.1448   -0.1748   -2.2552 C   0  0  0  0  0  0  0  0  0  0  0  0
   -2.1917    0.9321   -2.1772 C   0  0  0  0  0  0  0  0  0  0  0  0
   -3.2439    0.6242   -1.1455 C   0  0  0  0  0  0  0  0  0  0  0  0
   -4.5087    1.2219   -1.2304 C   0  0  0  0  0  0  0  0  0  0  0  0
   -5.4783    0.9602   -0.2635 C   0  0  0  0  0  0  0  0  0  0  0  0
   -5.1897    0.1077    0.7988 C   0  0  0  0  0  0  0  0  0  0  0  0
   -3.9283   -0.4799    0.8986 C   0  0  0  0  0  0  0  0  0  0  0  0
   -2.9406   -0.2221   -0.0653 C   0  0  0  0  0  0  0  0  0  0  0  0
   -1.5848   -0.8764    0.0760 C   0  0  0  0  0  0  0  0  0  0  0  0
    0.8169   -0.6738    1.0847 H   0  0  0  0  0  0  0  0  0  0  0  0
    2.8852   -2.2709   -0.3352 H   0  0  0  0  0  0  0  0  0  0  0  0
    2.4807   -2.4876    1.3661 H   0  0  0  0  0  0  0  0  0  0  0  0
    3.7606    0.0167   -1.1165 H   0  0  0  0  0  0  0  0  0  0  0  0
    5.2436    1.8952   -0.5107 H   0  0  0  0  0  0  0  0  0  0  0  0
    4.7883    0.9222    3.6581 H   0  0  0  0  0  0  0  0  0  0  0  0
    3.3074   -0.9592    3.0652 H   0  0  0  0  0  0  0  0  0  0  0  0
   -1.5757   -1.0981   -2.6634 H   0  0  0  0  0  0  0  0  0  0  0  0
   -0.3459    0.1404   -2.9358 H   0  0  0  0  0  0  0  0  0  0  0  0
   -1.7114    1.8793   -1.9026 H   0  0  0  0  0  0  0  0  0  0  0  0
   -2.6511    1.0589   -3.1643 H   0  0  0  0  0  0  0  0  0  0  0  0
   -4.7444    1.8943   -2.0522 H   0  0  0  0  0  0  0  0  0  0  0  0
   -6.4588    1.4233   -0.3385 H   0  0  0  0  0  0  0  0  0  0  0  0
   -5.9464   -0.0970    1.5517 H   0  0  0  0  0  0  0  0  0  0  0  0
   -3.7180   -1.1410    1.7365 H   0  0  0  0  0  0  0  0  0  0  0  0
   -1.1917   -0.6361    1.0690 H   0  0  0  0  0  0  0  0  0  0  0  0
   -1.7054   -1.9650    0.0092 H   0  0  0  0  0  0  0  0  0  0  0  0
  1  2  2  0
  2  3  1  0
  3  4  1  0
  4  5  1  0
  5  6  2  0
  6  7  1  0
  7  8  2  0
  8  9  1  0
  8 10  1  0
 10 11  2  0
  2 12  1  0
 12 13  1  0
 13 14  1  0
 14 15  1  0
 15 16  2  0
 16 17  1  0
 17 18  2  0
 18 19  1  0
 19 20  2  0
 20 21  1  0
 11  5  1  0
 21 12  1  0
 20 15  1  0
  3 22  1  0
  4 23  1  0
  4 24  1  0
  6 25  1  0
  7 26  1  0
 10 27  1  0
 11 28  1  0
 13 29  1  0
 13 30  1  0
 14 31  1  0
 14 32  1  0
 16 33  1  0
 17 34  1  0
 18 35  1  0
 19 36  1  0
 21 37  1  0
 21 38  1  0
M  END
$$$$
