
     RDKit          3D

 27 27  0  0  0  0  0  0  0  0999 V2000
    3.4878   -1.2512    0.2791 C   0  0  0  0  0  0  0  0  0  0  0  0
    2.2239   -0.5432   -0.0297 C   0  0  0  0  0  0  0  0  0  0  0  0
    2.0229    0.5517   -0.8799 C   0  0  0  0  0  0  0  0  0  0  0  0
    0.6666    0.8456   -0.8313 C   0  0  0  0  0  0  0  0  0  0  0  0
   -0.0106    1.8941   -1.5424 C   0  0  0  0  0  0  0  0  0  0  0  0
   -1.1910    2.2011   -1.5418 O   0  0  0  0  0  0  0  0  0  0  0  0
    0.8517    2.6041   -2.3047 O   0  0  0  0  0  0  0  0  0  0  0  0
    0.1329   -0.0884    0.0439 N   0  0  0  0  0  0  0  0  0  0  0  0
   -1.2608   -0.2897    0.5042 C   0  0  0  0  0  0  0  0  0  0  0  0
   -1.3632   -1.4839    1.4998 C   0  0  0  0  0  0  0  0  0  0  0  0
   -2.1841   -0.6483   -0.6755 C   0  0  0  0  0  0  0  0  0  0  0  0
   -1.7694    0.9428    1.2756 C   0  0  0  0  0  0  0  0  0  0  0  0
    1.0808   -0.9313    0.5298 N   0  0  0  0  0  0  0  0  0  0  0  0
    3.4180   -2.3053   -0.0082 H   0  0  0  0  0  0  0  0  0  0  0  0
    3.7068   -1.1973    1.3504 H   0  0  0  0  0  0  0  0  0  0  0  0
    4.3307   -0.8084   -0.2612 H   0  0  0  0  0  0  0  0  0  0  0  0
    2.7676    1.0750   -1.4649 H   0  0  0  0  0  0  0  0  0  0  0  0
    0.2755    3.2727   -2.7275 H   0  0  0  0  0  0  0  0  0  0  0  0
   -1.0382   -2.4238    1.0376 H   0  0  0  0  0  0  0  0  0  0  0  0
   -0.7500   -1.3178    2.3938 H   0  0  0  0  0  0  0  0  0  0  0  0
   -2.3962   -1.6293    1.8380 H   0  0  0  0  0  0  0  0  0  0  0  0
   -1.8105   -1.5302   -1.2097 H   0  0  0  0  0  0  0  0  0  0  0  0
   -3.1981   -0.8761   -0.3261 H   0  0  0  0  0  0  0  0  0  0  0  0
   -2.2791    0.1520   -1.4094 H   0  0  0  0  0  0  0  0  0  0  0  0
   -1.8392    1.8399    0.6603 H   0  0  0  0  0  0  0  0  0  0  0  0
   -2.7705    0.7645    1.6856 H   0  0  0  0  0  0  0  0  0  0  0  0
   -1.1041    1.1805    2.1143 H   0  0  0  0  0  0  0  0  0  0  0  0
  1  2  1  0
  2  3  1  0
  3  4  2  0
  4  5  1  0
  5  6  2  0
  5  7  1  0
  4  8  1  0
  8  9  1  0
  9 10  1  0
  9 11  1  0
  9 12  1  0
  8 13  1  0
 13  2  2  0
  1 14  1  0
  1 15  1  0
  1 16  1  0
  3 17  1  0
  7 18  1  0
 10 19  1  0
 10 20  1  0
 10 21  1  0
 11 22  1  0
 11 23  1  0
 11 24  1  0
 12 25  1  0
 12 26  1  0
 12 27  1  0
M  END
$$$$
