
     RDKit          3D

 49 51  0  0  0  0  0  0  0  0999 V2000
    2.2959    0.3726    0.4517 O   0  0  0  0  0  0  0  0  0  0  0  0
    2.4591    0.2662   -0.7544 C   0  0  0  0  0  0  0  0  0  0  0  0
    3.6573    0.0590   -1.3965 N   0  0  0  0  0  0  0  0  0  0  0  0
    4.8716   -0.2360   -0.6825 C   0  0  0  0  0  0  0  0  0  0  0  0
    5.1104   -1.7216   -0.6200 C   0  0  0  0  0  0  0  0  0  0  0  0
    5.9105   -2.3597   -1.5784 C   0  0  0  0  0  0  0  0  0  0  0  0
    6.1097   -3.7404   -1.5272 C   0  0  0  0  0  0  0  0  0  0  0  0
    5.5064   -4.4966   -0.5236 C   0  0  0  0  0  0  0  0  0  0  0  0
    4.7005   -3.8745    0.4280 C   0  0  0  0  0  0  0  0  0  0  0  0
    4.5003   -2.4945    0.3789 C   0  0  0  0  0  0  0  0  0  0  0  0
    1.2557    0.3511   -1.7227 C   0  0  0  0  0  0  0  0  0  0  0  0
    1.4435    0.3161   -2.9317 O   0  0  0  0  0  0  0  0  0  0  0  0
    0.0307    0.4501   -1.1028 N   0  0  0  0  0  0  0  0  0  0  0  0
   -1.2031    0.3436   -1.8585 C   0  0  0  0  0  0  0  0  0  0  0  0
   -2.4396    0.9016   -1.1251 C   0  0  0  0  0  0  0  0  0  0  0  0
   -3.4956    1.1367   -2.0815 O   0  0  0  0  0  0  0  0  0  0  0  0
   -4.4443    0.0759   -1.9245 C   0  0  0  0  0  0  0  0  0  0  0  0
   -4.3999   -0.2350   -0.4462 C   0  0  0  0  0  0  0  0  0  0  0  0
   -2.9775   -0.0656   -0.1544 N   0  0  0  0  0  0  0  0  0  0  0  0
   -2.4501   -0.0355    1.4300 S   0  0  0  0  0  6  0  0  0  0  0  0
   -3.1374   -1.0919    2.1414 O   0  0  0  0  0  0  0  0  0  0  0  0
   -1.0044    0.0285    1.4043 O   0  0  0  0  0  0  0  0  0  0  0  0
   -3.0440    1.5144    2.0752 C   0  0  0  0  0  0  0  0  0  0  0  0
   -4.3094    1.5772    2.6691 C   0  0  0  0  0  0  0  0  0  0  0  0
   -4.7604    2.7847    3.2061 C   0  0  0  0  0  0  0  0  0  0  0  0
   -3.9386    3.9119    3.1639 C   0  0  0  0  0  0  0  0  0  0  0  0
   -4.5522    5.5447    3.8926 Br  0  0  0  0  0  0  0  0  0  0  0  0
   -2.6644    3.8427    2.5995 C   0  0  0  0  0  0  0  0  0  0  0  0
   -2.2088    2.6374    2.0612 C   0  0  0  0  0  0  0  0  0  0  0  0
    3.6065   -0.1183   -2.3951 H   0  0  0  0  0  0  0  0  0  0  0  0
    5.6924    0.2609   -1.2112 H   0  0  0  0  0  0  0  0  0  0  0  0
    4.8342    0.1856    0.3287 H   0  0  0  0  0  0  0  0  0  0  0  0
    6.3837   -1.7853   -2.3713 H   0  0  0  0  0  0  0  0  0  0  0  0
    6.7336   -4.2276   -2.2721 H   0  0  0  0  0  0  0  0  0  0  0  0
    5.6606   -5.5716   -0.4853 H   0  0  0  0  0  0  0  0  0  0  0  0
    4.2238   -4.4632    1.2075 H   0  0  0  0  0  0  0  0  0  0  0  0
    3.8602   -2.0210    1.1222 H   0  0  0  0  0  0  0  0  0  0  0  0
    0.0242    0.2445   -0.0964 H   0  0  0  0  0  0  0  0  0  0  0  0
   -1.0709    0.8744   -2.8093 H   0  0  0  0  0  0  0  0  0  0  0  0
   -1.3445   -0.7141   -2.1126 H   0  0  0  0  0  0  0  0  0  0  0  0
   -2.2133    1.8695   -0.6713 H   0  0  0  0  0  0  0  0  0  0  0  0
   -4.1162   -0.7758   -2.5309 H   0  0  0  0  0  0  0  0  0  0  0  0
   -5.4316    0.3990   -2.2643 H   0  0  0  0  0  0  0  0  0  0  0  0
   -4.9994    0.4960    0.1032 H   0  0  0  0  0  0  0  0  0  0  0  0
   -4.7548   -1.2457   -0.2330 H   0  0  0  0  0  0  0  0  0  0  0  0
   -4.9430    0.6944    2.7259 H   0  0  0  0  0  0  0  0  0  0  0  0
   -5.7456    2.8352    3.6634 H   0  0  0  0  0  0  0  0  0  0  0  0
   -2.0169    4.7164    2.5839 H   0  0  0  0  0  0  0  0  0  0  0  0
   -1.2047    2.5838    1.6447 H   0  0  0  0  0  0  0  0  0  0  0  0
  1  2  2  0
  2  3  1  0
  3  4  1  0
  4  5  1  0
  5  6  2  0
  6  7  1  0
  7  8  2  0
  8  9  1  0
  9 10  2  0
  2 11  1  0
 11 12  2  0
 11 13  1  0
 13 14  1  0
 14 15  1  0
 15 16  1  0
 16 17  1  0
 17 18  1  0
 18 19  1  0
 19 20  1  0
 20 21  2  0
 20 22  2  0
 20 23  1  0
 23 24  2  0
 24 25  1  0
 25 26  2  0
 26 27  1  0
 26 28  1  0
 28 29  2  0
 10  5  1  0
 19 15  1  0
 29 23  1  0
  3 30  1  0
  4 31  1  0
  4 32  1  0
  6 33  1  0
  7 34  1  0
  8 35  1  0
  9 36  1  0
 10 37  1  0
 13 38  1  0
 14 39  1  0
 14 40  1  0
 15 41  1  0
 17 42  1  0
 17 43  1  0
 18 44  1  0
 18 45  1  0
 24 46  1  0
 25 47  1  0
 28 48  1  0
 29 49  1  0
M  END
$$$$
