
     RDKit          3D

 49 51  0  0  0  0  0  0  0  0999 V2000
    4.4587    5.1799   -1.9338 C   0  0  0  0  0  0  0  0  0  0  0  0
    4.2733    4.0621   -1.0774 O   0  0  0  0  0  0  0  0  0  0  0  0
    3.5085    3.0211   -1.5431 C   0  0  0  0  0  0  0  0  0  0  0  0
    2.8433    3.0205   -2.7760 C   0  0  0  0  0  0  0  0  0  0  0  0
    2.0783    1.9195   -3.1642 C   0  0  0  0  0  0  0  0  0  0  0  0
    1.9743    0.8208   -2.3111 C   0  0  0  0  0  0  0  0  0  0  0  0
    0.9992   -0.5776   -2.8074 S   0  0  0  0  0  6  0  0  0  0  0  0
    1.1536   -0.7138   -4.2408 O   0  0  0  0  0  0  0  0  0  0  0  0
    1.2858   -1.6819   -1.9175 O   0  0  0  0  0  0  0  0  0  0  0  0
   -0.5823   -0.0306   -2.5519 N   0  0  0  0  0  0  0  0  0  0  0  0
   -1.1072   -0.1169   -1.2305 C   0  0  0  0  0  0  0  0  0  0  0  0
   -0.8433    0.8911   -0.3137 C   0  0  0  0  0  0  0  0  0  0  0  0
   -1.2960    0.7581    0.9943 C   0  0  0  0  0  0  0  0  0  0  0  0
   -2.0168   -0.3832    1.3897 C   0  0  0  0  0  0  0  0  0  0  0  0
   -2.3341   -1.3927    0.4543 C   0  0  0  0  0  0  0  0  0  0  0  0
   -1.8307   -1.2503   -0.8484 C   0  0  0  0  0  0  0  0  0  0  0  0
   -3.1192   -2.5400    0.8547 N   0  0  0  0  0  0  0  0  0  0  0  0
   -3.7727   -3.3608   -0.0876 C   0  0  0  0  0  0  0  0  0  0  0  0
   -4.5032   -4.5668    0.4635 C   0  0  0  0  0  0  0  0  0  0  0  0
   -3.8110   -3.1701   -1.3040 O   0  0  0  0  0  0  0  0  0  0  0  0
   -3.4446   -2.6794    2.2809 C   0  0  0  0  0  0  0  0  0  0  0  0
   -2.5203   -1.9352    3.2267 C   0  0  0  0  0  0  0  0  0  0  0  0
   -2.4647   -0.4787    2.8216 C   0  0  0  0  0  0  0  0  0  0  0  0
    2.6454    0.7959   -1.0847 C   0  0  0  0  0  0  0  0  0  0  0  0
    3.4100    1.8979   -0.6921 C   0  0  0  0  0  0  0  0  0  0  0  0
    4.0891    1.9817    0.4986 O   0  0  0  0  0  0  0  0  0  0  0  0
    4.0929    0.8349    1.3377 C   0  0  0  0  0  0  0  0  0  0  0  0
    5.1147    5.8894   -1.4203 H   0  0  0  0  0  0  0  0  0  0  0  0
    4.9518    4.8871   -2.8666 H   0  0  0  0  0  0  0  0  0  0  0  0
    3.5089    5.6880   -2.1296 H   0  0  0  0  0  0  0  0  0  0  0  0
    2.9004    3.8632   -3.4572 H   0  0  0  0  0  0  0  0  0  0  0  0
    1.5675    1.9261   -4.1248 H   0  0  0  0  0  0  0  0  0  0  0  0
   -1.1903   -0.3581   -3.3039 H   0  0  0  0  0  0  0  0  0  0  0  0
   -0.2929    1.7811   -0.6038 H   0  0  0  0  0  0  0  0  0  0  0  0
   -1.0783    1.5476    1.7111 H   0  0  0  0  0  0  0  0  0  0  0  0
   -1.9589   -2.0337   -1.5876 H   0  0  0  0  0  0  0  0  0  0  0  0
   -5.3106   -4.2585    1.1320 H   0  0  0  0  0  0  0  0  0  0  0  0
   -3.8033   -5.2331    0.9743 H   0  0  0  0  0  0  0  0  0  0  0  0
   -4.9499   -5.1264   -0.3649 H   0  0  0  0  0  0  0  0  0  0  0  0
   -3.4175   -3.7382    2.5568 H   0  0  0  0  0  0  0  0  0  0  0  0
   -4.4792   -2.3371    2.4115 H   0  0  0  0  0  0  0  0  0  0  0  0
   -2.8807   -2.0290    4.2570 H   0  0  0  0  0  0  0  0  0  0  0  0
   -1.5165   -2.3783    3.1908 H   0  0  0  0  0  0  0  0  0  0  0  0
   -1.7652    0.0475    3.4816 H   0  0  0  0  0  0  0  0  0  0  0  0
   -3.4474   -0.0036    2.9249 H   0  0  0  0  0  0  0  0  0  0  0  0
    2.5471   -0.0809   -0.4525 H   0  0  0  0  0  0  0  0  0  0  0  0
    4.5359   -0.0277    0.8290 H   0  0  0  0  0  0  0  0  0  0  0  0
    4.7140    1.0611    2.2097 H   0  0  0  0  0  0  0  0  0  0  0  0
    3.0842    0.6084    1.6986 H   0  0  0  0  0  0  0  0  0  0  0  0
  1  2  1  0
  2  3  1  0
  3  4  2  0
  4  5  1  0
  5  6  2  0
  6  7  1  0
  7  8  2  0
  7  9  2  0
  7 10  1  0
 10 11  1  0
 11 12  2  0
 12 13  1  0
 13 14  2  0
 14 15  1  0
 15 16  2  0
 15 17  1  0
 17 18  1  0
 18 19  1  0
 18 20  2  0
 17 21  1  0
 21 22  1  0
 22 23  1  0
  6 24  1  0
 24 25  2  0
 25 26  1  0
 26 27  1  0
 25  3  1  0
 16 11  1  0
 23 14  1  0
  1 28  1  0
  1 29  1  0
  1 30  1  0
  4 31  1  0
  5 32  1  0
 10 33  1  0
 12 34  1  0
 13 35  1  0
 16 36  1  0
 19 37  1  0
 19 38  1  0
 19 39  1  0
 21 40  1  0
 21 41  1  0
 22 42  1  0
 22 43  1  0
 23 44  1  0
 23 45  1  0
 24 46  1  0
 27 47  1  0
 27 48  1  0
 27 49  1  0
M  END
$$$$
