
     RDKit          3D

 62 65  0  0  0  0  0  0  0  0999 V2000
   -3.7241   -0.2411    3.7176 C   0  0  0  0  0  0  0  0  0  0  0  0
   -3.6845   -1.3230    2.6489 C   0  0  0  0  0  0  0  0  0  0  0  0
   -3.5453   -0.7374    1.3199 N   0  0  0  0  0  0  0  0  0  0  0  0
   -2.3664   -0.3894    0.6321 C   0  0  0  0  0  0  0  0  0  0  0  0
   -1.1186   -0.5836    1.1090 C   0  0  0  0  0  0  0  0  0  0  0  0
    0.1462   -0.2740    0.4774 C   0  0  0  0  0  0  0  0  0  0  0  0
    1.3195   -0.5016    1.0854 C   0  0  0  0  0  0  0  0  0  0  0  0
    2.6102   -0.2254    0.4187 C   0  0  0  0  0  0  0  0  0  0  0  0
    3.0105    0.9023   -0.0941 N   0  0  0  0  0  4  0  0  0  0  0  0
    2.3527    2.2255   -0.1197 C   0  0  0  0  0  0  0  0  0  0  0  0
    1.8082    2.5233   -1.5062 C   0  0  0  0  0  0  0  0  0  0  0  0
    4.3820    0.7417   -0.6162 C   0  0  0  0  0  0  0  0  0  0  0  0
    5.2027    1.6832   -1.2123 C   0  0  0  0  0  0  0  0  0  0  0  0
    6.4726    1.2678   -1.6214 C   0  0  0  0  0  0  0  0  0  0  0  0
    6.8904   -0.0591   -1.4265 C   0  0  0  0  0  0  0  0  0  0  0  0
    6.0492   -0.9925   -0.8170 C   0  0  0  0  0  0  0  0  0  0  0  0
    4.7922   -0.5719   -0.4132 C   0  0  0  0  0  0  0  0  0  0  0  0
    3.6912   -1.3290    0.2754 C   0  0  0  0  0  0  0  0  0  0  0  0
    4.1467   -1.8384    1.6456 C   0  0  0  0  0  0  0  0  0  0  0  0
    3.1731   -2.4747   -0.5986 C   0  0  0  0  0  0  0  0  0  0  0  0
   -2.7802    0.2538   -0.7365 C   0  0  0  0  0  0  0  0  0  0  0  0
   -2.3245    1.7157   -0.8627 C   0  0  0  0  0  0  0  0  0  0  0  0
   -2.3389   -0.5901   -1.9412 C   0  0  0  0  0  0  0  0  0  0  0  0
   -4.3015    0.2215   -0.6369 C   0  0  0  0  0  0  0  0  0  0  0  0
   -5.2474    0.6742   -1.5506 C   0  0  0  0  0  0  0  0  0  0  0  0
   -6.5967    0.5458   -1.2263 C   0  0  0  0  0  0  0  0  0  0  0  0
   -6.9798   -0.0253   -0.0063 C   0  0  0  0  0  0  0  0  0  0  0  0
   -6.0186   -0.4787    0.9043 C   0  0  0  0  0  0  0  0  0  0  0  0
   -4.6751   -0.3577    0.5859 C   0  0  0  0  0  0  0  0  0  0  0  0
   -3.8151   -0.6931    4.7104 H   0  0  0  0  0  0  0  0  0  0  0  0
   -2.8121    0.3647    3.7024 H   0  0  0  0  0  0  0  0  0  0  0  0
   -4.5748    0.4323    3.5718 H   0  0  0  0  0  0  0  0  0  0  0  0
   -4.5797   -1.9515    2.7189 H   0  0  0  0  0  0  0  0  0  0  0  0
   -2.8504   -2.0040    2.8541 H   0  0  0  0  0  0  0  0  0  0  0  0
   -1.0315   -1.0344    2.0961 H   0  0  0  0  0  0  0  0  0  0  0  0
    0.1165    0.1268   -0.5273 H   0  0  0  0  0  0  0  0  0  0  0  0
    1.3671   -0.9708    2.0650 H   0  0  0  0  0  0  0  0  0  0  0  0
    1.5425    2.2270    0.6160 H   0  0  0  0  0  0  0  0  0  0  0  0
    3.0769    2.9828    0.1993 H   0  0  0  0  0  0  0  0  0  0  0  0
    2.6059    2.6077   -2.2509 H   0  0  0  0  0  0  0  0  0  0  0  0
    1.1218    1.7442   -1.8526 H   0  0  0  0  0  0  0  0  0  0  0  0
    1.2634    3.4731   -1.4972 H   0  0  0  0  0  0  0  0  0  0  0  0
    4.9064    2.7140   -1.3722 H   0  0  0  0  0  0  0  0  0  0  0  0
    7.1519    1.9755   -2.0964 H   0  0  0  0  0  0  0  0  0  0  0  0
    7.8857   -0.3611   -1.7530 H   0  0  0  0  0  0  0  0  0  0  0  0
    6.3869   -2.0153   -0.6674 H   0  0  0  0  0  0  0  0  0  0  0  0
    3.3441   -2.3806    2.1576 H   0  0  0  0  0  0  0  0  0  0  0  0
    4.4498   -1.0124    2.3001 H   0  0  0  0  0  0  0  0  0  0  0  0
    4.9997   -2.5208    1.5574 H   0  0  0  0  0  0  0  0  0  0  0  0
    2.8061   -2.1081   -1.5649 H   0  0  0  0  0  0  0  0  0  0  0  0
    2.3418   -2.9994   -0.1146 H   0  0  0  0  0  0  0  0  0  0  0  0
    3.9583   -3.2118   -0.8012 H   0  0  0  0  0  0  0  0  0  0  0  0
   -2.6488    2.3131   -0.0013 H   0  0  0  0  0  0  0  0  0  0  0  0
   -1.2384    1.8074   -0.9339 H   0  0  0  0  0  0  0  0  0  0  0  0
   -2.7412    2.1888   -1.7601 H   0  0  0  0  0  0  0  0  0  0  0  0
   -1.2528   -0.5993   -2.0656 H   0  0  0  0  0  0  0  0  0  0  0  0
   -2.7615   -0.2028   -2.8760 H   0  0  0  0  0  0  0  0  0  0  0  0
   -2.6683   -1.6321   -1.8440 H   0  0  0  0  0  0  0  0  0  0  0  0
   -4.9539    1.1188   -2.4956 H   0  0  0  0  0  0  0  0  0  0  0  0
   -7.3578    0.8911   -1.9221 H   0  0  0  0  0  0  0  0  0  0  0  0
   -8.0364   -0.1180    0.2354 H   0  0  0  0  0  0  0  0  0  0  0  0
   -6.3478   -0.9138    1.8407 H   0  0  0  0  0  0  0  0  0  0  0  0
  1  2  1  0
  2  3  1  0
  3  4  1  0
  4  5  2  3
  5  6  1  0
  6  7  2  3
  7  8  1  0
  8  9  2  0
  9 10  1  0
 10 11  1  0
  9 12  1  0
 12 13  2  0
 13 14  1  0
 14 15  2  0
 15 16  1  0
 16 17  2  0
 17 18  1  0
 18 19  1  0
 18 20  1  0
  4 21  1  0
 21 22  1  0
 21 23  1  0
 21 24  1  0
 24 25  2  0
 25 26  1  0
 26 27  2  0
 27 28  1  0
 28 29  2  0
 29  3  1  0
 18  8  1  0
 29 24  1  0
 17 12  1  0
  1 30  1  0
  1 31  1  0
  1 32  1  0
  2 33  1  0
  2 34  1  0
  5 35  1  0
  6 36  1  0
  7 37  1  0
 10 38  1  0
 10 39  1  0
 11 40  1  0
 11 41  1  0
 11 42  1  0
 13 43  1  0
 14 44  1  0
 15 45  1  0
 16 46  1  0
 19 47  1  0
 19 48  1  0
 19 49  1  0
 20 50  1  0
 20 51  1  0
 20 52  1  0
 22 53  1  0
 22 54  1  0
 22 55  1  0
 23 56  1  0
 23 57  1  0
 23 58  1  0
 25 59  1  0
 26 60  1  0
 27 61  1  0
 28 62  1  0
M  CHG  1   9   1
M  END
$$$$
