
     RDKit          3D

 60 64  0  0  0  0  0  0  0  0999 V2000
   -1.0393    1.5103   -2.8832 C   0  0  0  0  0  0  0  0  0  0  0  0
   -1.8399    0.8895   -1.8313 N   0  0  0  0  0  0  0  0  0  0  0  0
   -3.1915    0.6813   -2.1104 C   0  0  0  0  0  0  0  0  0  0  0  0
   -3.6870    0.9813   -3.2015 O   0  0  0  0  0  0  0  0  0  0  0  0
   -4.0807    0.1267   -1.0379 C   0  0  0  0  0  0  0  0  0  0  0  0
   -5.3813    0.4743   -1.0899 C   0  0  0  0  0  0  0  0  0  0  0  0
   -6.4349    0.0265   -0.1744 C   0  0  0  0  0  0  0  0  0  0  0  0
   -7.0724   -1.2018   -0.3723 C   0  0  0  0  0  0  0  0  0  0  0  0
   -8.0847   -1.6171    0.4973 C   0  0  0  0  0  0  0  0  0  0  0  0
   -8.4716   -0.8109    1.5785 C   0  0  0  0  0  0  0  0  0  0  0  0
   -9.5867   -1.2479    2.4969 C   0  0  0  0  0  0  0  0  0  0  0  0
   -9.5227   -0.6756    3.7330 F   0  0  0  0  0  0  0  0  0  0  0  0
  -10.8161   -0.9326    2.0025 F   0  0  0  0  0  0  0  0  0  0  0  0
   -9.6033   -2.5936    2.7128 F   0  0  0  0  0  0  0  0  0  0  0  0
   -7.8314    0.4240    1.7654 C   0  0  0  0  0  0  0  0  0  0  0  0
   -6.8176    0.8378    0.8972 C   0  0  0  0  0  0  0  0  0  0  0  0
   -3.4270   -0.9787    0.1010 S   0  0  0  0  0  0  0  0  0  0  0  0
   -1.8617   -0.1991    0.3909 C   0  0  0  0  0  0  0  0  0  0  0  0
   -1.2390   -0.4686    1.6238 C   0  0  0  0  0  0  0  0  0  0  0  0
    0.0168    0.0567    1.9189 C   0  0  0  0  0  0  0  0  0  0  0  0
    0.6611    0.8384    0.9665 C   0  0  0  0  0  0  0  0  0  0  0  0
    1.9736    1.4333    1.2911 C   0  0  0  0  0  0  0  0  0  0  0  0
    2.0184    2.2234    2.2300 O   0  0  0  0  0  0  0  0  0  0  0  0
    3.0720    1.0764    0.5189 N   0  0  0  0  0  0  0  0  0  0  0  0
    3.1039   -0.0923   -0.3765 C   0  0  0  0  0  0  0  0  0  0  0  0
    4.4906   -0.3541   -0.9962 C   0  0  0  0  0  0  0  0  0  0  0  0
    5.5193   -0.4173    0.0542 N   0  0  0  0  0  0  0  0  0  0  0  0
    6.7859   -0.8136   -0.3802 C   0  0  0  0  0  0  0  0  0  0  0  0
    7.8159   -1.0396    0.5364 C   0  0  0  0  0  0  0  0  0  0  0  0
    9.0744   -1.4455    0.0922 C   0  0  0  0  0  0  0  0  0  0  0  0
    9.2848   -1.6315   -1.2641 C   0  0  0  0  0  0  0  0  0  0  0  0
    8.2190   -1.4094   -2.1137 C   0  0  0  0  0  0  0  0  0  0  0  0
    6.9929   -1.0150   -1.7010 N   0  0  0  0  0  0  0  0  0  0  0  0
    5.4604    0.6277    1.0977 C   0  0  0  0  0  0  0  0  0  0  0  0
    4.3727    1.6813    0.8145 C   0  0  0  0  0  0  0  0  0  0  0  0
    0.0445    1.1257   -0.2576 C   0  0  0  0  0  0  0  0  0  0  0  0
   -1.2258    0.6073   -0.5680 C   0  0  0  0  0  0  0  0  0  0  0  0
   -1.5453    1.4930   -3.8532 H   0  0  0  0  0  0  0  0  0  0  0  0
   -0.8513    2.5565   -2.6204 H   0  0  0  0  0  0  0  0  0  0  0  0
   -0.0962    0.9659   -3.0028 H   0  0  0  0  0  0  0  0  0  0  0  0
   -5.7351    1.1596   -1.8595 H   0  0  0  0  0  0  0  0  0  0  0  0
   -6.7872   -1.8416   -1.2050 H   0  0  0  0  0  0  0  0  0  0  0  0
   -8.5732   -2.5755    0.3259 H   0  0  0  0  0  0  0  0  0  0  0  0
   -8.1213    1.0725    2.5910 H   0  0  0  0  0  0  0  0  0  0  0  0
   -6.3322    1.7972    1.0624 H   0  0  0  0  0  0  0  0  0  0  0  0
   -1.7355   -1.0907    2.3676 H   0  0  0  0  0  0  0  0  0  0  0  0
    0.4831   -0.1391    2.8810 H   0  0  0  0  0  0  0  0  0  0  0  0
    2.7923   -0.9627    0.2139 H   0  0  0  0  0  0  0  0  0  0  0  0
    2.3712    0.0518   -1.1763 H   0  0  0  0  0  0  0  0  0  0  0  0
    4.4387   -1.3004   -1.5508 H   0  0  0  0  0  0  0  0  0  0  0  0
    4.7269    0.4466   -1.7100 H   0  0  0  0  0  0  0  0  0  0  0  0
    7.6428   -0.9246    1.6009 H   0  0  0  0  0  0  0  0  0  0  0  0
    9.8749   -1.6218    0.8042 H   0  0  0  0  0  0  0  0  0  0  0  0
   10.2470   -1.9487   -1.6486 H   0  0  0  0  0  0  0  0  0  0  0  0
    8.3204   -1.5474   -3.1858 H   0  0  0  0  0  0  0  0  0  0  0  0
    6.4134    1.1591    1.2016 H   0  0  0  0  0  0  0  0  0  0  0  0
    5.2457    0.1370    2.0543 H   0  0  0  0  0  0  0  0  0  0  0  0
    4.6495    2.2717   -0.0680 H   0  0  0  0  0  0  0  0  0  0  0  0
    4.3059    2.3787    1.6564 H   0  0  0  0  0  0  0  0  0  0  0  0
    0.5737    1.7850   -0.9409 H   0  0  0  0  0  0  0  0  0  0  0  0
  1  2  1  0
  2  3  1  0
  3  4  2  0
  3  5  1  0
  5  6  2  3
  6  7  1  0
  7  8  2  0
  8  9  1  0
  9 10  2  0
 10 11  1  0
 11 12  1  0
 11 13  1  0
 11 14  1  0
 10 15  1  0
 15 16  2  0
  5 17  1  0
 17 18  1  0
 18 19  2  0
 19 20  1  0
 20 21  2  0
 21 22  1  0
 22 23  2  0
 22 24  1  0
 24 25  1  0
 25 26  1  0
 26 27  1  0
 27 28  1  0
 28 29  2  0
 29 30  1  0
 30 31  2  0
 31 32  1  0
 32 33  2  0
 27 34  1  0
 34 35  1  0
 21 36  1  0
 36 37  2  0
 37  2  1  0
 16  7  1  0
 37 18  1  0
 35 24  1  0
 33 28  1  0
  1 38  1  0
  1 39  1  0
  1 40  1  0
  6 41  1  0
  8 42  1  0
  9 43  1  0
 15 44  1  0
 16 45  1  0
 19 46  1  0
 20 47  1  0
 25 48  1  0
 25 49  1  0
 26 50  1  0
 26 51  1  0
 29 52  1  0
 30 53  1  0
 31 54  1  0
 32 55  1  0
 34 56  1  0
 34 57  1  0
 35 58  1  0
 35 59  1  0
 36 60  1  0
M  END
$$$$
