
     RDKit          3D

 34 37  0  0  0  0  0  0  0  0999 V2000
   -3.4288   -2.6778    1.1680 C   0  0  0  0  0  0  0  0  0  0  0  0
   -2.9244   -1.7204    0.2455 O   0  0  0  0  0  0  0  0  0  0  0  0
   -3.5924   -0.5262    0.1454 C   0  0  0  0  0  0  0  0  0  0  0  0
   -4.7697   -0.2122    0.8325 C   0  0  0  0  0  0  0  0  0  0  0  0
   -5.3803    1.0337    0.6571 C   0  0  0  0  0  0  0  0  0  0  0  0
   -4.8174    1.9685   -0.2074 C   0  0  0  0  0  0  0  0  0  0  0  0
   -5.6482    3.6502   -0.4403 Br  0  0  0  0  0  0  0  0  0  0  0  0
   -3.6467    1.6736   -0.9013 C   0  0  0  0  0  0  0  0  0  0  0  0
   -3.0287    0.4278   -0.7269 C   0  0  0  0  0  0  0  0  0  0  0  0
   -1.7888    0.1551   -1.4672 C   0  0  0  0  0  0  0  0  0  0  0  0
   -0.5553    0.2395   -0.9506 C   0  0  0  0  0  0  0  0  0  0  0  0
   -0.1241    0.7165    0.6825 S   0  0  0  0  0  0  0  0  0  0  0  0
    1.5307    0.4728    0.3061 C   0  0  0  0  0  0  0  0  0  0  0  0
    2.6553    0.5879    0.9498 N   0  0  0  0  0  0  0  0  0  0  0  0
    3.5715    0.2243   -0.0262 C   0  0  0  0  0  0  0  0  0  0  0  0
    5.1114    0.1955    0.2469 C   0  0  0  0  0  0  0  0  0  0  0  0
    6.0885   -0.1527   -0.6667 C   0  0  0  0  0  0  0  0  0  0  0  0
    7.3316   -0.0398    0.0018 C   0  0  0  0  0  0  0  0  0  0  0  0
    7.0392    0.3698    1.2807 C   0  0  0  0  0  0  0  0  0  0  0  0
    5.6991    0.5151    1.4399 O   0  0  0  0  0  0  0  0  0  0  0  0
    3.0388   -0.1001   -1.2241 N   0  0  0  0  0  0  0  0  0  0  0  0
    1.7308    0.0710   -0.9641 N   0  0  0  0  0  0  0  0  0  0  0  0
    0.6373   -0.0945   -1.7862 C   0  0  0  0  0  0  0  0  0  0  0  0
    0.7024   -0.4400   -2.9519 O   0  0  0  0  0  0  0  0  0  0  0  0
   -2.7637   -3.5464    1.1445 H   0  0  0  0  0  0  0  0  0  0  0  0
   -3.4247   -2.2834    2.1895 H   0  0  0  0  0  0  0  0  0  0  0  0
   -4.4284   -3.0164    0.8766 H   0  0  0  0  0  0  0  0  0  0  0  0
   -5.2417   -0.9144    1.5120 H   0  0  0  0  0  0  0  0  0  0  0  0
   -6.2946    1.2621    1.1995 H   0  0  0  0  0  0  0  0  0  0  0  0
   -3.2135    2.4104   -1.5736 H   0  0  0  0  0  0  0  0  0  0  0  0
   -1.9350   -0.1569   -2.4999 H   0  0  0  0  0  0  0  0  0  0  0  0
    5.9140   -0.4512   -1.6916 H   0  0  0  0  0  0  0  0  0  0  0  0
    8.3170   -0.2325   -0.3984 H   0  0  0  0  0  0  0  0  0  0  0  0
    7.6386    0.5913    2.1529 H   0  0  0  0  0  0  0  0  0  0  0  0
  1  2  1  0
  2  3  1  0
  3  4  2  0
  4  5  1  0
  5  6  2  0
  6  7  1  0
  6  8  1  0
  8  9  2  0
  9 10  1  0
 10 11  2  3
 11 12  1  0
 12 13  1  0
 13 14  2  0
 14 15  1  0
 15 16  1  0
 16 17  2  0
 17 18  1  0
 18 19  2  0
 19 20  1  0
 15 21  2  0
 21 22  1  0
 22 23  1  0
 23 24  2  0
  9  3  1  0
 23 11  1  0
 22 13  1  0
 20 16  1  0
  1 25  1  0
  1 26  1  0
  1 27  1  0
  4 28  1  0
  5 29  1  0
  8 30  1  0
 10 31  1  0
 17 32  1  0
 18 33  1  0
 19 34  1  0
M  END
$$$$
