
     RDKit          3D

 43 45  0  0  0  0  0  0  0  0999 V2000
   -7.2216   -1.2911    1.1480 C   0  0  0  0  0  0  0  0  0  0  0  0
   -6.8149   -0.3917    0.0694 N   0  0  0  0  0  0  0  0  0  0  0  0
   -7.6659   -0.4089   -1.1192 C   0  0  0  0  0  0  0  0  0  0  0  0
   -5.4577   -0.0773   -0.0737 C   0  0  0  0  0  0  0  0  0  0  0  0
   -4.5238   -0.3068    0.9514 C   0  0  0  0  0  0  0  0  0  0  0  0
   -3.1640    0.0193    0.8192 C   0  0  0  0  0  0  0  0  0  0  0  0
   -2.6801    0.5945   -0.3548 C   0  0  0  0  0  0  0  0  0  0  0  0
   -1.2734    0.9818   -0.5273 C   0  0  0  0  0  0  0  0  0  0  0  0
   -0.2367    0.2637   -0.0659 C   0  0  0  0  0  0  0  0  0  0  0  0
    1.1417    0.6713   -0.2602 C   0  0  0  0  0  0  0  0  0  0  0  0
    2.2361    0.0212    0.1625 C   0  0  0  0  0  0  0  0  0  0  0  0
    2.3135   -1.4503    1.0311 S   0  0  0  0  0  0  0  0  0  0  0  0
    4.0722   -1.3888    1.1698 C   0  0  0  0  0  0  0  0  0  0  0  0
    4.8552   -2.4966    2.1529 S   0  0  0  0  0  0  0  0  0  0  0  0
    4.5678   -0.3031    0.4539 N   0  0  0  0  0  0  0  0  0  0  0  0
    5.9619   -0.0075    0.2800 C   0  0  0  0  0  0  0  0  0  0  0  0
    6.9004   -1.0174    0.0179 C   0  0  0  0  0  0  0  0  0  0  0  0
    8.2558   -0.7177   -0.1585 C   0  0  0  0  0  0  0  0  0  0  0  0
    8.6959    0.5996   -0.0863 C   0  0  0  0  0  0  0  0  0  0  0  0
    7.7802    1.6183    0.1536 C   0  0  0  0  0  0  0  0  0  0  0  0
    6.4256    1.3174    0.3293 C   0  0  0  0  0  0  0  0  0  0  0  0
    3.6064    0.5411   -0.1048 C   0  0  0  0  0  0  0  0  0  0  0  0
    3.7866    1.5603   -0.7618 O   0  0  0  0  0  0  0  0  0  0  0  0
   -3.5912    0.8653   -1.3742 C   0  0  0  0  0  0  0  0  0  0  0  0
   -4.9487    0.5344   -1.2321 C   0  0  0  0  0  0  0  0  0  0  0  0
   -6.7325   -2.2669    1.0532 H   0  0  0  0  0  0  0  0  0  0  0  0
   -8.3041   -1.4618    1.1361 H   0  0  0  0  0  0  0  0  0  0  0  0
   -6.9982   -0.8599    2.1296 H   0  0  0  0  0  0  0  0  0  0  0  0
   -8.6975   -0.6778   -0.8653 H   0  0  0  0  0  0  0  0  0  0  0  0
   -7.3050   -1.1392   -1.8519 H   0  0  0  0  0  0  0  0  0  0  0  0
   -7.7211    0.5821   -1.5821 H   0  0  0  0  0  0  0  0  0  0  0  0
   -4.8288   -0.7424    1.8978 H   0  0  0  0  0  0  0  0  0  0  0  0
   -2.5012   -0.1723    1.6593 H   0  0  0  0  0  0  0  0  0  0  0  0
   -1.1080    1.9016   -1.0843 H   0  0  0  0  0  0  0  0  0  0  0  0
   -0.4203   -0.6681    0.4643 H   0  0  0  0  0  0  0  0  0  0  0  0
    1.2816    1.6044   -0.8085 H   0  0  0  0  0  0  0  0  0  0  0  0
    6.5995   -2.0549   -0.1003 H   0  0  0  0  0  0  0  0  0  0  0  0
    8.9646   -1.5166   -0.3630 H   0  0  0  0  0  0  0  0  0  0  0  0
    9.7484    0.8328   -0.2250 H   0  0  0  0  0  0  0  0  0  0  0  0
    8.1156    2.6513    0.2045 H   0  0  0  0  0  0  0  0  0  0  0  0
    5.7468    2.1437    0.5294 H   0  0  0  0  0  0  0  0  0  0  0  0
   -3.2626    1.3338   -2.2990 H   0  0  0  0  0  0  0  0  0  0  0  0
   -5.5984    0.7792   -2.0666 H   0  0  0  0  0  0  0  0  0  0  0  0
  1  2  1  0
  2  3  1  0
  2  4  1  0
  4  5  2  0
  5  6  1  0
  6  7  2  0
  7  8  1  0
  8  9  2  3
  9 10  1  0
 10 11  2  3
 11 12  1  0
 12 13  1  0
 13 14  2  0
 13 15  1  0
 15 16  1  0
 16 17  2  0
 17 18  1  0
 18 19  2  0
 19 20  1  0
 20 21  2  0
 15 22  1  0
 22 23  2  0
  7 24  1  0
 24 25  2  0
 25  4  1  0
 22 11  1  0
 21 16  1  0
  1 26  1  0
  1 27  1  0
  1 28  1  0
  3 29  1  0
  3 30  1  0
  3 31  1  0
  5 32  1  0
  6 33  1  0
  8 34  1  0
  9 35  1  0
 10 36  1  0
 17 37  1  0
 18 38  1  0
 19 39  1  0
 20 40  1  0
 21 41  1  0
 24 42  1  0
 25 43  1  0
M  END
$$$$
