
     RDKit          3D

 39 39  0  0  0  0  0  0  0  0999 V2000
   -5.6879    2.1805   -0.5522 C   0  0  0  0  0  0  0  0  0  0  0  0
   -4.4287    1.4485   -0.2023 C   0  0  0  0  0  0  0  0  0  0  0  0
   -4.0300    1.2642    0.9388 O   0  0  0  0  0  0  0  0  0  0  0  0
   -3.7995    1.0365   -1.3374 O   0  0  0  0  0  0  0  0  0  0  0  0
   -2.5847    0.2915   -1.1410 C   0  0  0  0  0  0  0  0  0  0  0  0
   -1.4145    1.2425   -0.8969 C   0  0  0  0  0  0  0  0  0  0  0  0
   -0.0578    0.5185   -0.8173 C   0  0  0  0  0  0  0  0  0  0  0  0
    0.9824    1.5556   -0.6719 N   0  0  0  0  0  0  0  0  0  0  0  0
    2.5185    1.2144   -1.2339 S   0  0  0  0  0  6  0  0  0  0  0  0
    2.4108    0.6476   -2.5575 O   0  0  0  0  0  0  0  0  0  0  0  0
    3.3144    2.3926   -0.9775 O   0  0  0  0  0  0  0  0  0  0  0  0
    3.0495    0.0542   -0.2411 O   0  0  0  0  0  0  0  0  0  0  0  0
    4.4377   -0.2657   -0.2951 C   0  0  0  0  0  0  0  0  0  0  0  0
    4.7305   -1.6351    0.3316 C   0  0  0  0  0  0  0  0  0  0  0  0
    3.9068   -2.9381   -0.5796 Cl  0  0  0  0  0  0  0  0  0  0  0  0
    6.4974   -1.9449    0.2799 Cl  0  0  0  0  0  0  0  0  0  0  0  0
    4.2003   -1.6841    2.0404 Cl  0  0  0  0  0  0  0  0  0  0  0  0
    0.0085   -0.5004    0.3047 C   0  0  0  0  0  0  0  0  0  0  0  0
   -0.2591   -0.1513    1.6381 C   0  0  0  0  0  0  0  0  0  0  0  0
   -0.1735   -1.1054    2.6536 C   0  0  0  0  0  0  0  0  0  0  0  0
    0.1822   -2.4175    2.3522 C   0  0  0  0  0  0  0  0  0  0  0  0
    0.4502   -2.7791    1.0348 C   0  0  0  0  0  0  0  0  0  0  0  0
    0.3650   -1.8277    0.0172 C   0  0  0  0  0  0  0  0  0  0  0  0
   -5.4472    3.0759   -1.1305 H   0  0  0  0  0  0  0  0  0  0  0  0
   -6.3538    1.5238   -1.1177 H   0  0  0  0  0  0  0  0  0  0  0  0
   -6.1979    2.4838    0.3666 H   0  0  0  0  0  0  0  0  0  0  0  0
   -2.7158   -0.4341   -0.3302 H   0  0  0  0  0  0  0  0  0  0  0  0
   -2.4168   -0.2811   -2.0597 H   0  0  0  0  0  0  0  0  0  0  0  0
   -1.3877    1.9788   -1.7122 H   0  0  0  0  0  0  0  0  0  0  0  0
   -1.5970    1.8384    0.0061 H   0  0  0  0  0  0  0  0  0  0  0  0
    0.0762    0.0113   -1.7811 H   0  0  0  0  0  0  0  0  0  0  0  0
    1.0208    1.9939    0.2461 H   0  0  0  0  0  0  0  0  0  0  0  0
    4.7762   -0.2556   -1.3395 H   0  0  0  0  0  0  0  0  0  0  0  0
    4.9848    0.5219    0.2377 H   0  0  0  0  0  0  0  0  0  0  0  0
   -0.5466    0.8638    1.9035 H   0  0  0  0  0  0  0  0  0  0  0  0
   -0.3876   -0.8245    3.6820 H   0  0  0  0  0  0  0  0  0  0  0  0
    0.2517   -3.1582    3.1447 H   0  0  0  0  0  0  0  0  0  0  0  0
    0.7330   -3.8024    0.7998 H   0  0  0  0  0  0  0  0  0  0  0  0
    0.5894   -2.1332   -1.0034 H   0  0  0  0  0  0  0  0  0  0  0  0
  1  2  1  0
  2  3  2  0
  2  4  1  0
  4  5  1  0
  5  6  1  0
  6  7  1  0
  7  8  1  0
  8  9  1  0
  9 10  2  0
  9 11  2  0
  9 12  1  0
 12 13  1  0
 13 14  1  0
 14 15  1  0
 14 16  1  0
 14 17  1  0
  7 18  1  0
 18 19  2  0
 19 20  1  0
 20 21  2  0
 21 22  1  0
 22 23  2  0
 23 18  1  0
  1 24  1  0
  1 25  1  0
  1 26  1  0
  5 27  1  0
  5 28  1  0
  6 29  1  0
  6 30  1  0
  7 31  1  0
  8 32  1  0
 13 33  1  0
 13 34  1  0
 19 35  1  0
 20 36  1  0
 21 37  1  0
 22 38  1  0
 23 39  1  0
M  END
$$$$
