
     RDKit          3D

 56 61  0  0  0  0  0  0  0  0999 V2000
    0.4495    1.7311   -3.1646 O   0  0  0  0  0  0  0  0  0  0  0  0
    0.4037    2.5457   -2.2549 C   0  0  0  0  0  0  0  0  0  0  0  0
   -0.0347    3.8654   -2.3844 N   0  0  0  0  0  0  0  0  0  0  0  0
    0.1312    4.5694   -1.1986 C   0  0  0  0  0  0  0  0  0  0  0  0
   -0.1587    5.8992   -0.9765 C   0  0  0  0  0  0  0  0  0  0  0  0
    0.1028    6.4082    0.2976 C   0  0  0  0  0  0  0  0  0  0  0  0
    0.6453    5.5881    1.3039 C   0  0  0  0  0  0  0  0  0  0  0  0
    0.9329    4.2428    1.0547 C   0  0  0  0  0  0  0  0  0  0  0  0
    0.6636    3.7387   -0.2077 C   0  0  0  0  0  0  0  0  0  0  0  0
    0.8510    2.3631   -0.7756 C   0  0  0  0  0  0  0  0  0  0  0  0
    2.2434    1.8186   -0.6666 N   0  0  0  0  0  0  0  0  0  0  0  0
    2.1759    0.3890   -0.1640 C   0  0  2  0  0  0  0  0  0  0  0  0
    2.5031   -0.6000   -1.3032 C   0  0  0  0  0  0  0  0  0  0  0  0
    2.6303   -2.0435   -0.8717 C   0  0  0  0  0  0  0  0  0  0  0  0
    1.6527   -2.9806   -1.2357 C   0  0  0  0  0  0  0  0  0  0  0  0
    1.7676   -4.3142   -0.8404 C   0  0  0  0  0  0  0  0  0  0  0  0
    2.8607   -4.7246   -0.0799 C   0  0  0  0  0  0  0  0  0  0  0  0
    3.8391   -3.8020    0.2866 C   0  0  0  0  0  0  0  0  0  0  0  0
    3.7260   -2.4674   -0.1075 C   0  0  0  0  0  0  0  0  0  0  0  0
    0.7867    0.2971    0.3372 C   0  0  0  0  0  0  0  0  0  0  0  0
    0.0250    1.4121   -0.0194 C   0  0  0  0  0  0  0  0  0  0  0  0
   -1.2459    1.2436    0.4676 C   0  0  0  0  0  0  0  0  0  0  0  0
   -2.3287    2.0091    0.4138 O   0  0  0  0  0  0  0  0  0  0  0  0
   -1.2552    0.0230    1.1296 N   0  0  0  0  0  0  0  0  0  0  0  0
   -2.3941   -0.4970    1.8814 C   0  0  0  0  0  0  0  0  0  0  0  0
   -2.9613   -1.7561    1.2685 C   0  0  0  0  0  0  0  0  0  0  0  0
   -3.3913   -1.7783   -0.0669 C   0  0  0  0  0  0  0  0  0  0  0  0
   -3.9120   -2.9465   -0.6249 C   0  0  0  0  0  0  0  0  0  0  0  0
   -4.0174   -4.1023    0.1463 C   0  0  0  0  0  0  0  0  0  0  0  0
   -3.6086   -4.0899    1.4785 C   0  0  0  0  0  0  0  0  0  0  0  0
   -3.0878   -2.9225    2.0392 C   0  0  0  0  0  0  0  0  0  0  0  0
    0.0067   -0.5547    1.0691 C   0  0  0  0  0  0  0  0  0  0  0  0
    0.3226   -1.7054    1.6484 O   0  0  0  0  0  0  0  0  0  0  0  0
   -0.3570    4.2496   -3.2601 H   0  0  0  0  0  0  0  0  0  0  0  0
   -0.5676    6.5341   -1.7538 H   0  0  0  0  0  0  0  0  0  0  0  0
   -0.1079    7.4531    0.5163 H   0  0  0  0  0  0  0  0  0  0  0  0
    0.8482    6.0068    2.2873 H   0  0  0  0  0  0  0  0  0  0  0  0
    1.3563    3.6080    1.8278 H   0  0  0  0  0  0  0  0  0  0  0  0
    2.6476    1.8172   -1.6017 H   0  0  0  0  0  0  0  0  0  0  0  0
    2.8914    0.2910    0.6598 H   0  0  0  0  0  0  0  0  0  0  0  0
    1.7517   -0.5250   -2.1008 H   0  0  0  0  0  0  0  0  0  0  0  0
    3.4567   -0.3176   -1.7707 H   0  0  0  0  0  0  0  0  0  0  0  0
    0.7884   -2.6724   -1.8203 H   0  0  0  0  0  0  0  0  0  0  0  0
    1.0014   -5.0304   -1.1239 H   0  0  0  0  0  0  0  0  0  0  0  0
    2.9488   -5.7623    0.2300 H   0  0  0  0  0  0  0  0  0  0  0  0
    4.6898   -4.1204    0.8830 H   0  0  0  0  0  0  0  0  0  0  0  0
    4.4973   -1.7603    0.1883 H   0  0  0  0  0  0  0  0  0  0  0  0
   -2.0697    2.8565    0.0085 H   0  0  0  0  0  0  0  0  0  0  0  0
   -3.1752    0.2678    1.9393 H   0  0  0  0  0  0  0  0  0  0  0  0
   -2.0335   -0.6751    2.9013 H   0  0  0  0  0  0  0  0  0  0  0  0
   -3.3180   -0.8834   -0.6833 H   0  0  0  0  0  0  0  0  0  0  0  0
   -4.2347   -2.9538   -1.6629 H   0  0  0  0  0  0  0  0  0  0  0  0
   -4.4237   -5.0111   -0.2902 H   0  0  0  0  0  0  0  0  0  0  0  0
   -3.6980   -4.9903    2.0814 H   0  0  0  0  0  0  0  0  0  0  0  0
   -2.7787   -2.9332    3.0830 H   0  0  0  0  0  0  0  0  0  0  0  0
   -0.4376   -2.3083    1.5819 H   0  0  0  0  0  0  0  0  0  0  0  0
  1  2  2  0
  2  3  1  0
  3  4  1  0
  4  5  2  0
  5  6  1  0
  6  7  2  0
  7  8  1  0
  8  9  2  0
  9 10  1  0
 10 11  1  0
 11 12  1  0
 12 13  1  0
 13 14  1  0
 14 15  2  0
 15 16  1  0
 16 17  2  0
 17 18  1  0
 18 19  2  0
 12 20  1  0
 20 21  1  0
 21 22  2  0
 22 23  1  0
 22 24  1  0
 24 25  1  0
 25 26  1  0
 26 27  2  0
 27 28  1  0
 28 29  2  0
 29 30  1  0
 30 31  2  0
 24 32  1  0
 32 33  1  0
 10  2  1  0
 19 14  1  0
 32 20  2  0
  9  4  1  0
 21 10  1  0
 31 26  1  0
  3 34  1  0
  5 35  1  0
  6 36  1  0
  7 37  1  0
  8 38  1  0
 11 39  1  0
 12 40  1  1
 13 41  1  0
 13 42  1  0
 15 43  1  0
 16 44  1  0
 17 45  1  0
 18 46  1  0
 19 47  1  0
 23 48  1  0
 25 49  1  0
 25 50  1  0
 27 51  1  0
 28 52  1  0
 29 53  1  0
 30 54  1  0
 31 55  1  0
 33 56  1  0
M  END
$$$$
