
     RDKit          3D

 60 65  0  0  0  0  0  0  0  0999 V2000
    4.4740   -3.4564   -4.0579 C   0  0  0  0  0  0  0  0  0  0  0  0
    4.5504   -2.1112   -3.6038 O   0  0  0  0  0  0  0  0  0  0  0  0
    3.8057   -1.7877   -2.5040 C   0  0  0  0  0  0  0  0  0  0  0  0
    2.9739   -2.6472   -1.7936 C   0  0  0  0  0  0  0  0  0  0  0  0
    2.2568   -2.1794   -0.6839 C   0  0  0  0  0  0  0  0  0  0  0  0
    2.3468   -0.8444   -0.2612 C   0  0  0  0  0  0  0  0  0  0  0  0
    3.2213   -0.0053   -0.9639 C   0  0  0  0  0  0  0  0  0  0  0  0
    3.9228   -0.4650   -2.0824 C   0  0  0  0  0  0  0  0  0  0  0  0
    3.4231    1.3127   -0.6536 O   0  0  0  0  0  0  0  0  0  0  0  0
    3.0719    1.6573    0.6831 C   0  0  0  0  0  0  0  0  0  0  0  0
    1.6759    1.2003    1.0607 C   0  0  0  0  0  0  0  0  0  0  0  0
    1.5641   -0.3257    0.9375 C   0  0  0  0  0  0  0  0  0  0  0  0
    0.1109   -0.5538    0.8506 N   0  0  0  0  0  0  0  0  0  0  0  0
   -0.4396   -1.7381    1.3000 C   0  0  0  0  0  0  0  0  0  0  0  0
    0.2500   -2.6727    1.7081 O   0  0  0  0  0  0  0  0  0  0  0  0
   -1.9073   -1.9285    1.3332 C   0  0  0  0  0  0  0  0  0  0  0  0
   -2.3704   -3.2197    1.0238 C   0  0  0  0  0  0  0  0  0  0  0  0
   -3.7150   -3.5569    1.1818 C   0  0  0  0  0  0  0  0  0  0  0  0
   -4.6191   -2.6140    1.6721 C   0  0  0  0  0  0  0  0  0  0  0  0
   -6.0554   -2.9836    1.9003 C   0  0  0  0  0  0  0  0  0  0  0  0
   -4.1527   -1.3352    2.0072 C   0  0  0  0  0  0  0  0  0  0  0  0
   -2.8098   -0.9717    1.8103 C   0  0  0  0  0  0  0  0  0  0  0  0
   -2.4735    0.3411    2.1605 N   0  0  0  0  0  0  0  0  0  0  0  0
   -1.4191    1.1070    1.7465 C   0  0  0  0  0  0  0  0  0  0  0  0
   -1.1885    2.1209    2.4054 O   0  0  0  0  0  0  0  0  0  0  0  0
   -0.6209    0.6809    0.4811 C   0  0  0  0  0  0  0  0  0  0  0  0
   -1.5258    0.5166   -0.7522 C   0  0  0  0  0  0  0  0  0  0  0  0
    0.5437    1.6758    0.1187 C   0  0  0  0  0  0  0  0  0  0  0  0
    0.2582    3.1649    0.0357 C   0  0  0  0  0  0  0  0  0  0  0  0
   -0.2458    3.6967   -1.1649 C   0  0  0  0  0  0  0  0  0  0  0  0
   -0.5026    5.0629   -1.3007 C   0  0  0  0  0  0  0  0  0  0  0  0
   -0.2566    5.9260   -0.2382 C   0  0  0  0  0  0  0  0  0  0  0  0
    0.2482    5.4218    0.9563 C   0  0  0  0  0  0  0  0  0  0  0  0
    0.5074    4.0547    1.0898 C   0  0  0  0  0  0  0  0  0  0  0  0
    3.4554   -3.7108   -4.3691 H   0  0  0  0  0  0  0  0  0  0  0  0
    4.8406   -4.1520   -3.2957 H   0  0  0  0  0  0  0  0  0  0  0  0
    5.1228   -3.5508   -4.9340 H   0  0  0  0  0  0  0  0  0  0  0  0
    2.8558   -3.6898   -2.0694 H   0  0  0  0  0  0  0  0  0  0  0  0
    1.6297   -2.8895   -0.1532 H   0  0  0  0  0  0  0  0  0  0  0  0
    4.5752    0.2161   -2.6231 H   0  0  0  0  0  0  0  0  0  0  0  0
    3.1536    2.7458    0.7663 H   0  0  0  0  0  0  0  0  0  0  0  0
    3.8204    1.2352    1.3664 H   0  0  0  0  0  0  0  0  0  0  0  0
    1.4619    1.4957    2.0955 H   0  0  0  0  0  0  0  0  0  0  0  0
    1.9647   -0.8078    1.8383 H   0  0  0  0  0  0  0  0  0  0  0  0
   -1.6695   -3.9816    0.6852 H   0  0  0  0  0  0  0  0  0  0  0  0
   -4.0424   -4.5669    0.9435 H   0  0  0  0  0  0  0  0  0  0  0  0
   -6.3763   -3.7598    1.1976 H   0  0  0  0  0  0  0  0  0  0  0  0
   -6.1886   -3.3542    2.9213 H   0  0  0  0  0  0  0  0  0  0  0  0
   -6.7091   -2.1183    1.7483 H   0  0  0  0  0  0  0  0  0  0  0  0
   -4.8593   -0.6075    2.4036 H   0  0  0  0  0  0  0  0  0  0  0  0
   -3.0641    0.8205    2.8307 H   0  0  0  0  0  0  0  0  0  0  0  0
   -2.2687   -0.2766   -0.6611 H   0  0  0  0  0  0  0  0  0  0  0  0
   -0.9366    0.2730   -1.6439 H   0  0  0  0  0  0  0  0  0  0  0  0
   -2.0843    1.4375   -0.9504 H   0  0  0  0  0  0  0  0  0  0  0  0
    0.8690    1.4185   -0.9011 H   0  0  0  0  0  0  0  0  0  0  0  0
   -0.4298    3.0495   -2.0203 H   0  0  0  0  0  0  0  0  0  0  0  0
   -0.8890    5.4522   -2.2389 H   0  0  0  0  0  0  0  0  0  0  0  0
   -0.4563    6.9890   -0.3401 H   0  0  0  0  0  0  0  0  0  0  0  0
    0.4370    6.0905    1.7920 H   0  0  0  0  0  0  0  0  0  0  0  0
    0.8847    3.6993    2.0455 H   0  0  0  0  0  0  0  0  0  0  0  0
  1  2  1  0
  2  3  1  0
  3  4  2  0
  4  5  1  0
  5  6  2  0
  6  7  1  0
  7  8  2  0
  7  9  1  0
  9 10  1  0
 10 11  1  0
 11 12  1  0
 12 13  1  0
 13 14  1  0
 14 15  2  0
 14 16  1  0
 16 17  2  0
 17 18  1  0
 18 19  2  0
 19 20  1  0
 19 21  1  0
 21 22  2  0
 22 23  1  0
 23 24  1  0
 24 25  2  0
 24 26  1  0
 26 27  1  0
 26 28  1  0
 28 29  1  0
 29 30  2  0
 30 31  1  0
 31 32  2  0
 32 33  1  0
 33 34  2  0
  8  3  1  0
 28 11  1  0
 34 29  1  0
 12  6  1  0
 26 13  1  0
 22 16  1  0
  1 35  1  0
  1 36  1  0
  1 37  1  0
  4 38  1  0
  5 39  1  0
  8 40  1  0
 10 41  1  0
 10 42  1  0
 11 43  1  0
 12 44  1  0
 17 45  1  0
 18 46  1  0
 20 47  1  0
 20 48  1  0
 20 49  1  0
 21 50  1  0
 23 51  1  0
 27 52  1  0
 27 53  1  0
 27 54  1  0
 28 55  1  0
 30 56  1  0
 31 57  1  0
 32 58  1  0
 33 59  1  0
 34 60  1  0
M  END
$$$$
