
     RDKit          3D

 92 94  0  0  0  0  0  0  0  0999 V2000
   -4.1424   -4.6244    0.2448 C   0  0  0  0  0  0  0  0  0  0  0  0
   -3.5284   -3.5012    1.0234 C   0  0  0  0  0  0  0  0  0  0  0  0
   -3.6178   -3.3771    2.2370 O   0  0  0  0  0  0  0  0  0  0  0  0
   -2.8872   -2.6475    0.1768 O   0  0  0  0  0  0  0  0  0  0  0  0
   -2.1842   -1.5174    0.7810 C   0  0  1  0  0  0  0  0  0  0  0  0
   -0.6800   -1.6967    0.3922 C   0  0  2  0  0  0  0  0  0  0  0  0
    0.1382   -1.0569    1.3806 O   0  0  0  0  0  0  0  0  0  0  0  0
    0.5331   -1.8249    2.4343 C   0  0  0  0  0  0  0  0  0  0  0  0
    1.1897   -0.9855    3.4880 C   0  0  0  0  0  0  0  0  0  0  0  0
    0.3373   -3.0272    2.5485 O   0  0  0  0  0  0  0  0  0  0  0  0
   -0.2855   -1.3062   -1.0463 C   0  0  0  0  0  0  0  0  0  0  0  0
   -0.8993   -2.2209   -2.0917 C   0  0  0  0  0  0  0  0  0  0  0  0
    0.5566   -0.3441   -1.4890 C   0  0  0  0  0  0  0  0  0  0  0  0
    1.3492    0.7003   -0.7197 C   0  0  1  0  0  0  0  0  0  0  0  0
    2.8817    0.5494   -0.8875 C   0  0  1  0  0  0  0  0  0  0  0  0
    3.2902   -0.8191   -0.9972 O   0  0  0  0  0  0  0  0  0  0  0  0
    3.3989   -1.4894    0.1757 C   0  0  0  0  0  0  0  0  0  0  0  0
    3.3056   -0.9982    1.2881 O   0  0  0  0  0  0  0  0  0  0  0  0
    3.6145   -2.9410   -0.0590 C   0  0  0  0  0  0  0  0  0  0  0  0
    3.6674   -3.7838    1.0604 C   0  0  0  0  0  0  0  0  0  0  0  0
    3.8603   -5.1566    0.9007 C   0  0  0  0  0  0  0  0  0  0  0  0
    4.0116   -5.6920   -0.3764 C   0  0  0  0  0  0  0  0  0  0  0  0
    3.9474   -4.8630   -1.4975 C   0  0  0  0  0  0  0  0  0  0  0  0
    3.7555   -3.4886   -1.3409 C   0  0  0  0  0  0  0  0  0  0  0  0
    3.2635    1.3859   -2.1284 C   0  0  1  0  0  0  0  0  0  0  0  0
    3.6393    0.5767   -3.3679 C   0  0  0  0  0  0  0  0  0  0  0  0
    2.0678    2.3216   -2.3919 C   0  0  0  0  0  0  0  0  0  0  0  0
    1.1077    2.1648   -1.1899 C   0  0  1  0  0  0  0  0  0  0  0  0
   -0.2316    2.3764   -1.6607 O   0  0  0  0  0  0  0  0  0  0  0  0
    1.4101    3.2129   -0.0560 C   0  0  1  0  0  0  0  0  0  0  0  0
    1.1452    4.5416   -0.5854 O   0  0  0  0  0  0  0  0  0  0  0  0
    2.1420    5.4561   -0.4857 C   0  0  0  0  0  0  0  0  0  0  0  0
    1.6960    6.7812   -1.0160 C   0  0  0  0  0  0  0  0  0  0  0  0
    3.2644    5.2436   -0.0476 O   0  0  0  0  0  0  0  0  0  0  0  0
    0.6145    3.0189    1.2820 C   0  0  1  0  0  0  0  0  0  0  0  0
    0.7158    4.2331    2.2079 C   0  0  0  0  0  0  0  0  0  0  0  0
   -0.8441    2.6654    1.0817 C   0  0  0  0  0  0  0  0  0  0  0  0
   -1.4147    1.5520    1.5775 C   0  0  0  0  0  0  0  0  0  0  0  0
   -2.8332    1.0468    1.3503 C   0  0  0  0  0  0  0  0  0  0  0  0
   -3.4206    0.6809    2.7345 C   0  0  0  0  0  0  0  0  0  0  0  0
   -3.7429    2.1736    0.7846 C   0  0  0  0  0  0  0  0  0  0  0  0
   -2.8907   -0.1853    0.3550 C   0  0  2  0  0  0  0  0  0  0  0  0
   -4.3136   -0.4936    0.1918 O   0  0  0  0  0  0  0  0  0  0  0  0
   -4.7850   -0.6372   -1.0737 C   0  0  0  0  0  0  0  0  0  0  0  0
   -6.2460   -0.9605   -1.0267 C   0  0  0  0  0  0  0  0  0  0  0  0
   -4.1367   -0.5278   -2.1034 O   0  0  0  0  0  0  0  0  0  0  0  0
   -5.0283   -4.2631   -0.2838 H   0  0  0  0  0  0  0  0  0  0  0  0
   -3.4142   -5.0281   -0.4618 H   0  0  0  0  0  0  0  0  0  0  0  0
   -4.4219   -5.4292    0.9293 H   0  0  0  0  0  0  0  0  0  0  0  0
   -2.2532   -1.5944    1.8681 H   0  0  0  0  0  0  0  0  0  0  0  0
   -0.4691   -2.7748    0.4285 H   0  0  0  0  0  0  0  0  0  0  0  0
    2.0431   -1.5322    3.9027 H   0  0  0  0  0  0  0  0  0  0  0  0
    0.4634   -0.7586    4.2712 H   0  0  0  0  0  0  0  0  0  0  0  0
    1.5690   -0.0531    3.0657 H   0  0  0  0  0  0  0  0  0  0  0  0
   -0.4775   -2.0615   -3.0897 H   0  0  0  0  0  0  0  0  0  0  0  0
   -1.9764   -2.0541   -2.1655 H   0  0  0  0  0  0  0  0  0  0  0  0
   -0.7178   -3.2707   -1.8394 H   0  0  0  0  0  0  0  0  0  0  0  0
    0.7220   -0.2894   -2.5648 H   0  0  0  0  0  0  0  0  0  0  0  0
    1.1144    0.6084    0.3337 H   0  0  0  0  0  0  0  0  0  0  0  0
    3.3829    1.0135   -0.0261 H   0  0  0  0  0  0  0  0  0  0  0  0
    3.5435   -3.3783    2.0608 H   0  0  0  0  0  0  0  0  0  0  0  0
    3.8949   -5.8017    1.7757 H   0  0  0  0  0  0  0  0  0  0  0  0
    4.1608   -6.7612   -0.5002 H   0  0  0  0  0  0  0  0  0  0  0  0
    4.0580   -5.2892   -2.4901 H   0  0  0  0  0  0  0  0  0  0  0  0
    3.7053   -2.8572   -2.2250 H   0  0  0  0  0  0  0  0  0  0  0  0
    4.1385    1.9966   -1.8617 H   0  0  0  0  0  0  0  0  0  0  0  0
    2.7956   -0.0208   -3.7343 H   0  0  0  0  0  0  0  0  0  0  0  0
    4.4762   -0.1053   -3.1527 H   0  0  0  0  0  0  0  0  0  0  0  0
    3.9549    1.2411   -4.1812 H   0  0  0  0  0  0  0  0  0  0  0  0
    2.4070    3.3530   -2.5194 H   0  0  0  0  0  0  0  0  0  0  0  0
    1.5657    2.0561   -3.3286 H   0  0  0  0  0  0  0  0  0  0  0  0
   -0.4005    1.8132   -2.4338 H   0  0  0  0  0  0  0  0  0  0  0  0
    2.4703    3.1287    0.2058 H   0  0  0  0  0  0  0  0  0  0  0  0
    1.9255    7.5582   -0.2840 H   0  0  0  0  0  0  0  0  0  0  0  0
    0.6125    6.7847   -1.1747 H   0  0  0  0  0  0  0  0  0  0  0  0
    2.1949    6.9816   -1.9651 H   0  0  0  0  0  0  0  0  0  0  0  0
    1.0951    2.1884    1.8152 H   0  0  0  0  0  0  0  0  0  0  0  0
    1.7625    4.5035    2.3846 H   0  0  0  0  0  0  0  0  0  0  0  0
    0.1985    5.1065    1.7943 H   0  0  0  0  0  0  0  0  0  0  0  0
    0.2604    4.0154    3.1828 H   0  0  0  0  0  0  0  0  0  0  0  0
   -1.4018    3.3427    0.4379 H   0  0  0  0  0  0  0  0  0  0  0  0
   -0.8023    0.9323    2.2323 H   0  0  0  0  0  0  0  0  0  0  0  0
   -3.4817    1.5616    3.3838 H   0  0  0  0  0  0  0  0  0  0  0  0
   -4.4331    0.2707    2.6514 H   0  0  0  0  0  0  0  0  0  0  0  0
   -2.8114   -0.0594    3.2667 H   0  0  0  0  0  0  0  0  0  0  0  0
   -4.8001    1.8834    0.7901 H   0  0  0  0  0  0  0  0  0  0  0  0
   -3.4782    2.4244   -0.2490 H   0  0  0  0  0  0  0  0  0  0  0  0
   -3.6694    3.0893    1.3843 H   0  0  0  0  0  0  0  0  0  0  0  0
   -2.4841    0.1447   -0.6072 H   0  0  0  0  0  0  0  0  0  0  0  0
   -6.4059   -1.8722   -0.4436 H   0  0  0  0  0  0  0  0  0  0  0  0
   -6.6064   -1.1371   -2.0435 H   0  0  0  0  0  0  0  0  0  0  0  0
   -6.8014   -0.1218   -0.5979 H   0  0  0  0  0  0  0  0  0  0  0  0
  1  2  1  0
  2  3  2  0
  2  4  1  0
  4  5  1  0
  5  6  1  0
  6  7  1  0
  7  8  1  0
  8  9  1  0
  8 10  2  0
  6 11  1  0
 11 12  1  0
 11 13  2  0
 13 14  1  0
 14 15  1  0
 15 16  1  0
 16 17  1  0
 17 18  2  0
 17 19  1  0
 19 20  2  0
 20 21  1  0
 21 22  2  0
 22 23  1  0
 23 24  2  0
 15 25  1  0
 25 26  1  0
 25 27  1  0
 27 28  1  0
 28 29  1  6
 28 30  1  0
 30 31  1  0
 31 32  1  0
 32 33  1  0
 32 34  2  0
 30 35  1  0
 35 36  1  0
 35 37  1  0
 37 38  2  0
 38 39  1  0
 39 40  1  0
 39 41  1  0
 39 42  1  0
 42 43  1  0
 43 44  1  0
 44 45  1  0
 44 46  2  0
 42  5  1  0
 28 14  1  0
 24 19  1  0
  1 47  1  0
  1 48  1  0
  1 49  1  0
  5 50  1  1
  6 51  1  6
  9 52  1  0
  9 53  1  0
  9 54  1  0
 12 55  1  0
 12 56  1  0
 12 57  1  0
 13 58  1  0
 14 59  1  1
 15 60  1  1
 20 61  1  0
 21 62  1  0
 22 63  1  0
 23 64  1  0
 24 65  1  0
 25 66  1  1
 26 67  1  0
 26 68  1  0
 26 69  1  0
 27 70  1  0
 27 71  1  0
 29 72  1  0
 30 73  1  1
 33 74  1  0
 33 75  1  0
 33 76  1  0
 35 77  1  1
 36 78  1  0
 36 79  1  0
 36 80  1  0
 37 81  1  0
 38 82  1  0
 40 83  1  0
 40 84  1  0
 40 85  1  0
 41 86  1  0
 41 87  1  0
 41 88  1  0
 42 89  1  6
 45 90  1  0
 45 91  1  0
 45 92  1  0
M  END
$$$$
