
     RDKit          3D

 42 44  0  0  0  0  0  0  0  0999 V2000
   -0.5923   -3.0195   -1.1685 C   0  0  0  0  0  0  0  0  0  0  0  0
   -0.7759   -1.7875   -0.3414 C   0  0  0  0  0  0  0  0  0  0  0  0
    0.1621   -0.9867    0.1923 C   0  0  0  0  0  0  0  0  0  0  0  0
    1.5303   -0.9916    0.2607 N   0  0  0  0  0  0  0  0  0  0  0  0
    2.4215   -1.9915   -0.0618 C   0  0  0  0  0  0  0  0  0  0  0  0
    2.1168   -3.1321   -0.4055 O   0  0  0  0  0  0  0  0  0  0  0  0
    3.8802   -1.6277    0.1219 C   0  0  0  0  0  0  0  0  0  0  0  0
    4.2025   -0.3321   -0.4452 N   0  0  0  0  0  0  0  0  0  0  0  0
    4.7349   -0.0748   -1.6778 C   0  0  0  0  0  0  0  0  0  0  0  0
    4.8722    1.2933   -1.7591 C   0  0  0  0  0  0  0  0  0  0  0  0
    4.3957    1.7751   -0.5196 C   0  0  0  0  0  0  0  0  0  0  0  0
    4.3296    3.1491   -0.0486 N   0  0  0  0  0  4  0  0  0  0  0  0
    3.9206    3.3613    1.1021 O   0  0  0  0  0  0  0  0  0  0  0  0
    4.7081    4.0195   -0.8493 O   0  0  0  0  0  1  0  0  0  0  0  0
    3.9747    0.7798    0.2845 N   0  0  0  0  0  0  0  0  0  0  0  0
   -0.5888    0.1628    0.7977 C   0  0  0  0  0  0  0  0  0  0  0  0
   -0.0133    1.1138    1.3074 O   0  0  0  0  0  0  0  0  0  0  0  0
   -1.9446   -0.0807    0.5767 N   0  0  0  0  0  0  0  0  0  0  0  0
   -2.9656    0.9046    0.5365 C   0  0  0  0  0  0  0  0  0  0  0  0
   -2.8549    2.0848    1.2838 C   0  0  0  0  0  0  0  0  0  0  0  0
   -3.8608    3.0564    1.2500 C   0  0  0  0  0  0  0  0  0  0  0  0
   -4.9926    2.8659    0.4622 C   0  0  0  0  0  0  0  0  0  0  0  0
   -5.1169    1.7059   -0.2949 C   0  0  0  0  0  0  0  0  0  0  0  0
   -4.1108    0.7349   -0.2579 C   0  0  0  0  0  0  0  0  0  0  0  0
   -2.0872   -1.3312   -0.0917 N   0  0  0  0  0  0  0  0  0  0  0  0
   -3.0007   -2.2591    0.6042 C   0  0  0  0  0  0  0  0  0  0  0  0
    0.2294   -2.9017   -1.8804 H   0  0  0  0  0  0  0  0  0  0  0  0
   -0.4153   -3.8920   -0.5317 H   0  0  0  0  0  0  0  0  0  0  0  0
   -1.4849   -3.2220   -1.7714 H   0  0  0  0  0  0  0  0  0  0  0  0
    1.9179   -0.1368    0.6759 H   0  0  0  0  0  0  0  0  0  0  0  0
    4.1278   -1.6142    1.1874 H   0  0  0  0  0  0  0  0  0  0  0  0
    4.5094   -2.3725   -0.3772 H   0  0  0  0  0  0  0  0  0  0  0  0
    4.9666   -0.8677   -2.3763 H   0  0  0  0  0  0  0  0  0  0  0  0
    5.2656    1.8677   -2.5874 H   0  0  0  0  0  0  0  0  0  0  0  0
   -1.9935    2.2681    1.9215 H   0  0  0  0  0  0  0  0  0  0  0  0
   -3.7532    3.9645    1.8381 H   0  0  0  0  0  0  0  0  0  0  0  0
   -5.7699    3.6235    0.4320 H   0  0  0  0  0  0  0  0  0  0  0  0
   -5.9905    1.5580   -0.9248 H   0  0  0  0  0  0  0  0  0  0  0  0
   -4.2222   -0.1418   -0.8897 H   0  0  0  0  0  0  0  0  0  0  0  0
   -3.9744   -1.7992    0.8034 H   0  0  0  0  0  0  0  0  0  0  0  0
   -3.1820   -3.1483   -0.0096 H   0  0  0  0  0  0  0  0  0  0  0  0
   -2.5758   -2.5782    1.5640 H   0  0  0  0  0  0  0  0  0  0  0  0
  1  2  1  0
  2  3  2  0
  3  4  1  0
  4  5  1  0
  5  6  2  0
  5  7  1  0
  7  8  1  0
  8  9  1  0
  9 10  2  0
 10 11  1  0
 11 12  1  0
 12 13  2  0
 12 14  1  0
 11 15  2  0
  3 16  1  0
 16 17  2  0
 16 18  1  0
 18 19  1  0
 19 20  2  0
 20 21  1  0
 21 22  2  0
 22 23  1  0
 23 24  2  0
 18 25  1  0
 25 26  1  0
 25  2  1  0
 15  8  1  0
 24 19  1  0
  1 27  1  0
  1 28  1  0
  1 29  1  0
  4 30  1  0
  7 31  1  0
  7 32  1  0
  9 33  1  0
 10 34  1  0
 20 35  1  0
 21 36  1  0
 22 37  1  0
 23 38  1  0
 24 39  1  0
 26 40  1  0
 26 41  1  0
 26 42  1  0
M  CHG  2  12   1  14  -1
M  END
$$$$
