
     RDKit          3D

 84 86  0  0  0  0  0  0  0  0999 V2000
    1.5986    3.4202    4.4801 C   0  0  0  0  0  0  0  0  0  0  0  0
    0.9991    2.1080    4.0755 C   0  0  0  0  0  0  0  0  0  0  0  0
    1.6370    1.0782    3.9064 O   0  0  0  0  0  0  0  0  0  0  0  0
   -0.3512    2.2372    3.9390 O   0  0  0  0  0  0  0  0  0  0  0  0
   -1.0557    1.0387    3.5879 C   0  0  1  0  0  0  0  0  0  0  0  0
   -2.5807    1.1740    3.7920 C   0  0  1  0  0  0  0  0  0  0  0  0
   -3.1165    2.5956    3.9336 C   0  0  0  0  0  0  0  0  0  0  0  0
   -3.2230    0.4310    2.6037 C   0  0  0  0  0  0  0  0  0  0  0  0
   -2.0936   -0.3768    1.9085 C   0  0  2  0  0  0  0  0  0  0  0  0
   -2.3829   -0.5192    0.5111 O   0  0  0  0  0  0  0  0  0  0  0  0
   -3.4711   -1.2403    0.1424 C   0  0  0  0  0  0  0  0  0  0  0  0
   -3.5875   -1.2683   -1.3503 C   0  0  0  0  0  0  0  0  0  0  0  0
   -4.2387   -1.8066    0.9081 O   0  0  0  0  0  0  0  0  0  0  0  0
   -1.8494   -1.7330    2.6790 C   0  0  0  0  0  0  0  0  0  0  0  0
   -2.0369   -1.7817    3.9040 O   0  0  0  0  0  0  0  0  0  0  0  0
   -1.4244   -3.0293    2.0093 C   0  0  0  0  0  0  0  0  0  0  0  0
   -2.0068   -4.2331    2.7162 C   0  0  0  0  0  0  0  0  0  0  0  0
   -0.6078   -3.2338    0.9544 C   0  0  0  0  0  0  0  0  0  0  0  0
    0.1075   -2.2290    0.1114 C   0  0  0  0  0  0  0  0  0  0  0  0
    1.6458   -2.3022   -0.0647 C   0  0  0  0  0  0  0  0  0  0  0  0
    2.3445   -2.3289    1.3115 C   0  0  0  0  0  0  0  0  0  0  0  0
    2.0233   -3.6057   -0.8047 C   0  0  0  0  0  0  0  0  0  0  0  0
    2.1323   -1.0677   -0.9370 C   0  0  2  0  0  0  0  0  0  0  0  0
    3.5797   -1.1467   -1.0271 O   0  0  0  0  0  0  0  0  0  0  0  0
    4.1501   -0.5402   -2.1042 C   0  0  0  0  0  0  0  0  0  0  0  0
    5.6305   -0.7719   -2.1134 C   0  0  0  0  0  0  0  0  0  0  0  0
    3.5509    0.0873   -2.9663 O   0  0  0  0  0  0  0  0  0  0  0  0
    1.7490    0.3406   -0.3951 C   0  0  0  0  0  0  0  0  0  0  0  0
    0.3703    0.8310   -0.8774 C   0  0  2  0  0  0  0  0  0  0  0  0
    0.5005    1.2718   -2.2485 O   0  0  0  0  0  0  0  0  0  0  0  0
   -0.0667    0.4985   -3.2070 C   0  0  0  0  0  0  0  0  0  0  0  0
   -0.6725   -0.5472   -3.0263 O   0  0  0  0  0  0  0  0  0  0  0  0
    0.1048    1.1185   -4.5450 C   0  0  0  0  0  0  0  0  0  0  0  0
   -0.6919    0.6470   -5.5966 C   0  0  0  0  0  0  0  0  0  0  0  0
   -0.5749    1.2058   -6.8709 C   0  0  0  0  0  0  0  0  0  0  0  0
    0.3383    2.2338   -7.1006 C   0  0  0  0  0  0  0  0  0  0  0  0
    1.1385    2.7037   -6.0597 C   0  0  0  0  0  0  0  0  0  0  0  0
    1.0250    2.1474   -4.7833 C   0  0  0  0  0  0  0  0  0  0  0  0
   -0.2037    1.9659   -0.0334 C   0  0  0  0  0  0  0  0  0  0  0  0
   -0.1381    3.3436   -0.6499 C   0  0  0  0  0  0  0  0  0  0  0  0
   -0.7956    1.8182    1.1758 C   0  0  0  0  0  0  0  0  0  0  0  0
   -0.8765    0.5939    2.1053 C   0  0  1  0  0  0  0  0  0  0  0  0
    2.6885    3.3472    4.4344 H   0  0  0  0  0  0  0  0  0  0  0  0
    1.2794    4.2056    3.7880 H   0  0  0  0  0  0  0  0  0  0  0  0
    1.3001    3.6632    5.5034 H   0  0  0  0  0  0  0  0  0  0  0  0
   -0.7021    0.2424    4.2550 H   0  0  0  0  0  0  0  0  0  0  0  0
   -2.8406    0.6464    4.7204 H   0  0  0  0  0  0  0  0  0  0  0  0
   -2.6506    3.1112    4.7786 H   0  0  0  0  0  0  0  0  0  0  0  0
   -2.9470    3.1890    3.0317 H   0  0  0  0  0  0  0  0  0  0  0  0
   -4.1960    2.5784    4.1154 H   0  0  0  0  0  0  0  0  0  0  0  0
   -4.0349   -0.2122    2.9609 H   0  0  0  0  0  0  0  0  0  0  0  0
   -3.6757    1.1347    1.8934 H   0  0  0  0  0  0  0  0  0  0  0  0
   -3.3579   -0.2816   -1.7628 H   0  0  0  0  0  0  0  0  0  0  0  0
   -4.6165   -1.5124   -1.6275 H   0  0  0  0  0  0  0  0  0  0  0  0
   -2.9108   -2.0220   -1.7594 H   0  0  0  0  0  0  0  0  0  0  0  0
   -1.7517   -5.1753    2.2160 H   0  0  0  0  0  0  0  0  0  0  0  0
   -3.1009   -4.1696    2.7485 H   0  0  0  0  0  0  0  0  0  0  0  0
   -1.6273   -4.2988    3.7423 H   0  0  0  0  0  0  0  0  0  0  0  0
   -0.4441   -4.2651    0.6396 H   0  0  0  0  0  0  0  0  0  0  0  0
   -0.3686   -2.2344   -0.8767 H   0  0  0  0  0  0  0  0  0  0  0  0
   -0.0845   -1.2790    0.5710 H   0  0  0  0  0  0  0  0  0  0  0  0
    2.0773   -1.4627    1.9245 H   0  0  0  0  0  0  0  0  0  0  0  0
    3.4349   -2.3408    1.2108 H   0  0  0  0  0  0  0  0  0  0  0  0
    2.0706   -3.2240    1.8817 H   0  0  0  0  0  0  0  0  0  0  0  0
    3.1013   -3.6645   -0.9993 H   0  0  0  0  0  0  0  0  0  0  0  0
    1.5106   -3.6617   -1.7728 H   0  0  0  0  0  0  0  0  0  0  0  0
    1.7468   -4.4959   -0.2273 H   0  0  0  0  0  0  0  0  0  0  0  0
    1.7249   -1.2034   -1.9456 H   0  0  0  0  0  0  0  0  0  0  0  0
    6.1271    0.1065   -2.5364 H   0  0  0  0  0  0  0  0  0  0  0  0
    5.8598   -1.6573   -2.7141 H   0  0  0  0  0  0  0  0  0  0  0  0
    6.0070   -0.9036   -1.0948 H   0  0  0  0  0  0  0  0  0  0  0  0
    2.5004    1.0718   -0.7228 H   0  0  0  0  0  0  0  0  0  0  0  0
    1.8178    0.3437    0.6962 H   0  0  0  0  0  0  0  0  0  0  0  0
   -0.3748    0.0440   -0.8499 H   0  0  0  0  0  0  0  0  0  0  0  0
   -1.4059   -0.1567   -5.4292 H   0  0  0  0  0  0  0  0  0  0  0  0
   -1.1933    0.8338   -7.6847 H   0  0  0  0  0  0  0  0  0  0  0  0
    0.4302    2.6659   -8.0944 H   0  0  0  0  0  0  0  0  0  0  0  0
    1.8543    3.5017   -6.2424 H   0  0  0  0  0  0  0  0  0  0  0  0
    1.6678    2.5141   -3.9869 H   0  0  0  0  0  0  0  0  0  0  0  0
   -0.4563    4.1296    0.0451 H   0  0  0  0  0  0  0  0  0  0  0  0
    0.8896    3.5797   -0.9481 H   0  0  0  0  0  0  0  0  0  0  0  0
   -0.7819    3.3990   -1.5352 H   0  0  0  0  0  0  0  0  0  0  0  0
   -1.2230    2.7217    1.6101 H   0  0  0  0  0  0  0  0  0  0  0  0
    0.0763    0.0632    2.0492 H   0  0  0  0  0  0  0  0  0  0  0  0
  1  2  1  0
  2  3  2  0
  2  4  1  0
  4  5  1  0
  5  6  1  0
  6  7  1  0
  6  8  1  0
  8  9  1  0
  9 10  1  6
 10 11  1  0
 11 12  1  0
 11 13  2  0
  9 14  1  0
 14 15  2  0
 14 16  1  0
 16 17  1  0
 16 18  2  3
 18 19  1  0
 19 20  1  0
 20 21  1  0
 20 22  1  0
 20 23  1  0
 23 24  1  0
 24 25  1  0
 25 26  1  0
 25 27  2  0
 23 28  1  0
 28 29  1  0
 29 30  1  0
 30 31  1  0
 31 32  2  0
 31 33  1  0
 33 34  2  0
 34 35  1  0
 35 36  2  0
 36 37  1  0
 37 38  2  0
 29 39  1  0
 39 40  1  0
 39 41  2  0
 41 42  1  0
 42  5  1  0
 42  9  1  0
 38 33  1  0
  1 43  1  0
  1 44  1  0
  1 45  1  0
  5 46  1  1
  6 47  1  1
  7 48  1  0
  7 49  1  0
  7 50  1  0
  8 51  1  0
  8 52  1  0
 12 53  1  0
 12 54  1  0
 12 55  1  0
 17 56  1  0
 17 57  1  0
 17 58  1  0
 18 59  1  0
 19 60  1  0
 19 61  1  0
 21 62  1  0
 21 63  1  0
 21 64  1  0
 22 65  1  0
 22 66  1  0
 22 67  1  0
 23 68  1  6
 26 69  1  0
 26 70  1  0
 26 71  1  0
 28 72  1  0
 28 73  1  0
 29 74  1  6
 34 75  1  0
 35 76  1  0
 36 77  1  0
 37 78  1  0
 38 79  1  0
 40 80  1  0
 40 81  1  0
 40 82  1  0
 41 83  1  0
 42 84  1  1
M  END
$$$$
