
     RDKit          3D

 38 38  0  0  0  0  0  0  0  0999 V2000
    4.8956    2.0215    2.7464 C   0  0  0  0  0  0  0  0  0  0  0  0
    4.1288    2.5335    1.6632 O   0  0  0  0  0  0  0  0  0  0  0  0
    4.6469    2.1652    0.3844 C   0  0  0  0  0  0  0  0  0  0  0  0
    4.3079    0.7216   -0.0110 C   0  0  0  0  0  0  0  0  0  0  0  0
    2.8798    0.4541    0.0773 N   0  0  0  0  0  0  0  0  0  0  0  0
    2.3484   -0.2430    1.1434 C   0  0  0  0  0  0  0  0  0  0  0  0
    3.0218   -0.8333    1.9802 O   0  0  0  0  0  0  0  0  0  0  0  0
    0.8590   -0.2072    1.2369 C   0  0  0  0  0  0  0  0  0  0  0  0
    0.3229    0.0665    2.5234 C   0  0  0  0  0  0  0  0  0  0  0  0
   -0.1391    0.3074    3.5617 N   0  0  0  0  0  0  0  0  0  0  0  0
    0.1513   -0.5143    0.1293 C   0  0  0  0  0  0  0  0  0  0  0  0
   -1.2958   -0.5829   -0.1130 C   0  0  0  0  0  0  0  0  0  0  0  0
   -2.2577   -0.0953    0.9434 C   0  0  0  0  0  0  0  0  0  0  0  0
   -1.7126   -1.0610   -1.3061 C   0  0  0  0  0  0  0  0  0  0  0  0
   -3.1093   -1.2133   -1.7253 C   0  0  0  0  0  0  0  0  0  0  0  0
   -3.6821   -0.2808   -2.5961 C   0  0  0  0  0  0  0  0  0  0  0  0
   -5.0110   -0.4228   -3.0001 C   0  0  0  0  0  0  0  0  0  0  0  0
   -5.7706   -1.4969   -2.5373 C   0  0  0  0  0  0  0  0  0  0  0  0
   -5.2034   -2.4303   -1.6705 C   0  0  0  0  0  0  0  0  0  0  0  0
   -3.8749   -2.2904   -1.2652 C   0  0  0  0  0  0  0  0  0  0  0  0
    4.4316    2.3532    3.6793 H   0  0  0  0  0  0  0  0  0  0  0  0
    4.9160    0.9295    2.7404 H   0  0  0  0  0  0  0  0  0  0  0  0
    5.9159    2.4149    2.7080 H   0  0  0  0  0  0  0  0  0  0  0  0
    5.7286    2.3378    0.3450 H   0  0  0  0  0  0  0  0  0  0  0  0
    4.1851    2.8453   -0.3403 H   0  0  0  0  0  0  0  0  0  0  0  0
    4.8554    0.0126    0.6171 H   0  0  0  0  0  0  0  0  0  0  0  0
    4.6036    0.5490   -1.0508 H   0  0  0  0  0  0  0  0  0  0  0  0
    2.2682    1.0511   -0.4648 H   0  0  0  0  0  0  0  0  0  0  0  0
    0.7384   -0.7850   -0.7522 H   0  0  0  0  0  0  0  0  0  0  0  0
   -2.2474   -0.7628    1.8108 H   0  0  0  0  0  0  0  0  0  0  0  0
   -3.2938   -0.0472    0.5954 H   0  0  0  0  0  0  0  0  0  0  0  0
   -2.0030    0.9221    1.2587 H   0  0  0  0  0  0  0  0  0  0  0  0
   -1.0047   -1.3905   -2.0646 H   0  0  0  0  0  0  0  0  0  0  0  0
   -3.1011    0.5627   -2.9606 H   0  0  0  0  0  0  0  0  0  0  0  0
   -5.4543    0.3052   -3.6745 H   0  0  0  0  0  0  0  0  0  0  0  0
   -6.8055   -1.6060   -2.8514 H   0  0  0  0  0  0  0  0  0  0  0  0
   -5.7957   -3.2669   -1.3089 H   0  0  0  0  0  0  0  0  0  0  0  0
   -3.4428   -3.0234   -0.5881 H   0  0  0  0  0  0  0  0  0  0  0  0
  1  2  1  0
  2  3  1  0
  3  4  1  0
  4  5  1  0
  5  6  1  0
  6  7  2  0
  6  8  1  0
  8  9  1  0
  9 10  3  0
  8 11  2  3
 11 12  1  0
 12 13  1  0
 12 14  2  3
 14 15  1  0
 15 16  2  0
 16 17  1  0
 17 18  2  0
 18 19  1  0
 19 20  2  0
 20 15  1  0
  1 21  1  0
  1 22  1  0
  1 23  1  0
  3 24  1  0
  3 25  1  0
  4 26  1  0
  4 27  1  0
  5 28  1  0
 11 29  1  0
 13 30  1  0
 13 31  1  0
 13 32  1  0
 14 33  1  0
 16 34  1  0
 17 35  1  0
 18 36  1  0
 19 37  1  0
 20 38  1  0
M  END
$$$$
