
     RDKit          3D

 34 36  0  0  0  0  0  0  0  0999 V2000
    3.7075   -1.8847    0.5602 N   0  0  0  0  0  0  0  0  0  0  0  0
    3.5348   -0.5522   -0.0066 C   0  0  0  0  0  0  0  0  0  0  0  0
    2.1035   -0.2987   -0.4786 C   0  0  0  0  0  0  0  0  0  0  0  0
    1.0858   -0.2947    0.6702 C   0  0  0  0  0  0  0  0  0  0  0  0
   -0.2742    0.0638    0.1993 N   0  0  0  0  0  0  0  0  0  0  0  0
   -1.1337   -1.0129   -0.1715 C   0  0  0  0  0  0  0  0  0  0  0  0
   -0.6443   -2.3141   -0.4316 C   0  0  0  0  0  0  0  0  0  0  0  0
   -1.4784   -3.3742   -0.8085 C   0  0  0  0  0  0  0  0  0  0  0  0
   -2.8404   -3.1691   -0.9426 C   0  0  0  0  0  0  0  0  0  0  0  0
   -3.3595   -1.9029   -0.7014 C   0  0  0  0  0  0  0  0  0  0  0  0
   -2.5235   -0.8323   -0.3244 C   0  0  0  0  0  0  0  0  0  0  0  0
   -3.3527    0.7105   -0.0267 S   0  0  0  0  0  0  0  0  0  0  0  0
   -1.9959    1.8434    0.1454 C   0  0  0  0  0  0  0  0  0  0  0  0
   -2.3535    3.2064    0.1950 C   0  0  0  0  0  0  0  0  0  0  0  0
   -1.3892    4.1957    0.3486 C   0  0  0  0  0  0  0  0  0  0  0  0
   -0.0611    3.8215    0.4521 C   0  0  0  0  0  0  0  0  0  0  0  0
    1.1539    5.0279    0.6340 Cl  0  0  0  0  0  0  0  0  0  0  0  0
    0.3034    2.4718    0.4064 C   0  0  0  0  0  0  0  0  0  0  0  0
   -0.6491    1.4378    0.2586 C   0  0  0  0  0  0  0  0  0  0  0  0
    4.7033   -2.0640    0.6964 H   0  0  0  0  0  0  0  0  0  0  0  0
    3.2949   -1.9328    1.4911 H   0  0  0  0  0  0  0  0  0  0  0  0
    4.2066   -0.4536   -0.8665 H   0  0  0  0  0  0  0  0  0  0  0  0
    3.8373    0.2034    0.7268 H   0  0  0  0  0  0  0  0  0  0  0  0
    2.0832    0.6639   -1.0027 H   0  0  0  0  0  0  0  0  0  0  0  0
    1.8320   -1.0439   -1.2351 H   0  0  0  0  0  0  0  0  0  0  0  0
    1.4158    0.3861    1.4656 H   0  0  0  0  0  0  0  0  0  0  0  0
    1.0741   -1.2623    1.1870 H   0  0  0  0  0  0  0  0  0  0  0  0
    0.4137   -2.5493   -0.3670 H   0  0  0  0  0  0  0  0  0  0  0  0
   -1.0519   -4.3557   -1.0002 H   0  0  0  0  0  0  0  0  0  0  0  0
   -3.4956   -3.9847   -1.2347 H   0  0  0  0  0  0  0  0  0  0  0  0
   -4.4317   -1.7498   -0.8081 H   0  0  0  0  0  0  0  0  0  0  0  0
   -3.3980    3.5027    0.1139 H   0  0  0  0  0  0  0  0  0  0  0  0
   -1.6811    5.2411    0.3834 H   0  0  0  0  0  0  0  0  0  0  0  0
    1.3638    2.2561    0.4721 H   0  0  0  0  0  0  0  0  0  0  0  0
  1  2  1  0
  2  3  1  0
  3  4  1  0
  4  5  1  0
  5  6  1  0
  6  7  2  0
  7  8  1  0
  8  9  2  0
  9 10  1  0
 10 11  2  0
 11 12  1  0
 12 13  1  0
 13 14  2  0
 14 15  1  0
 15 16  2  0
 16 17  1  0
 16 18  1  0
 18 19  2  0
 19  5  1  0
 11  6  1  0
 19 13  1  0
  1 20  1  0
  1 21  1  0
  2 22  1  0
  2 23  1  0
  3 24  1  0
  3 25  1  0
  4 26  1  0
  4 27  1  0
  7 28  1  0
  8 29  1  0
  9 30  1  0
 10 31  1  0
 14 32  1  0
 15 33  1  0
 18 34  1  0
M  END
$$$$
