
     RDKit          3D

 58 62  0  0  0  0  0  0  0  0999 V2000
    8.1380    1.9727    1.8912 C   0  0  0  0  0  0  0  0  0  0  0  0
    7.1233    2.7807    1.3096 O   0  0  0  0  0  0  0  0  0  0  0  0
    5.9987    2.1382    0.8694 C   0  0  0  0  0  0  0  0  0  0  0  0
    5.0420    2.9700    0.2837 C   0  0  0  0  0  0  0  0  0  0  0  0
    3.8457    2.4449   -0.2100 C   0  0  0  0  0  0  0  0  0  0  0  0
    3.5914    1.0720   -0.1264 C   0  0  0  0  0  0  0  0  0  0  0  0
    2.2911    0.5043   -0.6408 C   0  0  0  0  0  0  0  0  0  0  0  0
    1.1815    0.5772    0.4126 C   0  0  0  0  0  0  0  0  0  0  0  0
   -0.0673   -0.0181   -0.1026 N   0  0  0  0  0  0  0  0  0  0  0  0
   -0.9428    0.7950   -0.8365 C   0  0  0  0  0  0  0  0  0  0  0  0
   -0.6263    2.0360   -1.0843 N   0  0  0  0  0  0  0  0  0  0  0  0
   -2.2480    0.2207   -1.3373 C   0  0  0  0  0  0  0  0  0  0  0  0
   -3.2573    1.0468   -2.0608 C   0  0  0  0  0  0  0  0  0  0  0  0
   -2.9215    2.0747   -2.6427 O   0  0  0  0  0  0  0  0  0  0  0  0
   -4.5617    0.6227   -1.9756 N   0  0  0  0  0  0  0  0  0  0  0  0
   -5.6469    1.4448   -2.4645 C   0  0  0  0  0  0  0  0  0  0  0  0
   -6.1530    2.2637   -1.3373 C   0  0  0  0  0  0  0  0  0  0  0  0
   -5.8656    3.5361   -0.8885 C   0  0  0  0  0  0  0  0  0  0  0  0
   -6.6728    3.7474    0.2545 C   0  0  0  0  0  0  0  0  0  0  0  0
   -7.3961    2.5916    0.4324 C   0  0  0  0  0  0  0  0  0  0  0  0
   -7.0846    1.6818   -0.5266 O   0  0  0  0  0  0  0  0  0  0  0  0
   -2.4131   -1.0996   -1.1438 C   0  0  0  0  0  0  0  0  0  0  0  0
   -1.4381   -1.9267   -0.4465 C   0  0  0  0  0  0  0  0  0  0  0  0
   -1.7025   -3.3840   -0.2801 C   0  0  0  0  0  0  0  0  0  0  0  0
   -2.7483   -3.8682   -0.7199 O   0  0  0  0  0  0  0  0  0  0  0  0
   -0.7268   -4.1083    0.3802 N   0  0  0  0  0  0  0  0  0  0  0  0
   -0.8961   -5.4762    0.5674 C   0  0  0  0  0  0  0  0  0  0  0  0
    0.0182   -6.2189    1.2033 C   0  0  0  0  0  0  0  0  0  0  0  0
    1.2126   -5.6012    1.7140 C   0  0  0  0  0  0  0  0  0  0  0  0
    1.4155   -4.2878    1.5572 C   0  0  0  0  0  0  0  0  0  0  0  0
    0.3996   -3.4582    0.8488 C   0  0  0  0  0  0  0  0  0  0  0  0
    0.6228   -2.1912    0.7123 N   0  0  0  0  0  0  0  0  0  0  0  0
   -0.2991   -1.4034    0.0606 C   0  0  0  0  0  0  0  0  0  0  0  0
    4.5476    0.2400    0.4682 C   0  0  0  0  0  0  0  0  0  0  0  0
    5.7456    0.7694    0.9612 C   0  0  0  0  0  0  0  0  0  0  0  0
    8.5246    1.2441    1.1710 H   0  0  0  0  0  0  0  0  0  0  0  0
    7.7769    1.4787    2.7993 H   0  0  0  0  0  0  0  0  0  0  0  0
    8.9657    2.6292    2.1767 H   0  0  0  0  0  0  0  0  0  0  0  0
    5.2293    4.0385    0.2107 H   0  0  0  0  0  0  0  0  0  0  0  0
    3.1140    3.1140   -0.6594 H   0  0  0  0  0  0  0  0  0  0  0  0
    1.9968    1.0433   -1.5502 H   0  0  0  0  0  0  0  0  0  0  0  0
    2.4491   -0.5343   -0.9583 H   0  0  0  0  0  0  0  0  0  0  0  0
    1.0129    1.6168    0.7228 H   0  0  0  0  0  0  0  0  0  0  0  0
    1.4976    0.0692    1.3333 H   0  0  0  0  0  0  0  0  0  0  0  0
   -1.3570    2.4840   -1.6649 H   0  0  0  0  0  0  0  0  0  0  0  0
   -4.8165   -0.0711   -1.2863 H   0  0  0  0  0  0  0  0  0  0  0  0
   -5.3117    2.0776   -3.2921 H   0  0  0  0  0  0  0  0  0  0  0  0
   -6.4273    0.7731   -2.8353 H   0  0  0  0  0  0  0  0  0  0  0  0
   -5.1526    4.2184   -1.3321 H   0  0  0  0  0  0  0  0  0  0  0  0
   -6.7184    4.6311    0.8752 H   0  0  0  0  0  0  0  0  0  0  0  0
   -8.1329    2.2737    1.1568 H   0  0  0  0  0  0  0  0  0  0  0  0
   -3.2889   -1.6173   -1.5253 H   0  0  0  0  0  0  0  0  0  0  0  0
   -1.8067   -5.9213    0.1736 H   0  0  0  0  0  0  0  0  0  0  0  0
   -0.1221   -7.2858    1.3445 H   0  0  0  0  0  0  0  0  0  0  0  0
    1.9395   -6.2227    2.2271 H   0  0  0  0  0  0  0  0  0  0  0  0
    2.2996   -3.7842    1.9277 H   0  0  0  0  0  0  0  0  0  0  0  0
    4.3654   -0.8293    0.5513 H   0  0  0  0  0  0  0  0  0  0  0  0
    6.4569    0.0855    1.4109 H   0  0  0  0  0  0  0  0  0  0  0  0
  1  2  1  0
  2  3  1  0
  3  4  2  0
  4  5  1  0
  5  6  2  0
  6  7  1  0
  7  8  1  0
  8  9  1  0
  9 10  1  0
 10 11  2  3
 10 12  1  0
 12 13  1  0
 13 14  2  0
 13 15  1  0
 15 16  1  0
 16 17  1  0
 17 18  2  0
 18 19  1  0
 19 20  2  0
 20 21  1  0
 12 22  2  0
 22 23  1  0
 23 24  1  0
 24 25  2  0
 24 26  1  0
 26 27  1  0
 27 28  2  0
 28 29  1  0
 29 30  2  0
 30 31  1  0
 31 32  2  0
 32 33  1  0
  6 34  1  0
 34 35  2  0
 35  3  1  0
 33  9  1  0
 21 17  1  0
 33 23  2  0
 31 26  1  0
  1 36  1  0
  1 37  1  0
  1 38  1  0
  4 39  1  0
  5 40  1  0
  7 41  1  0
  7 42  1  0
  8 43  1  0
  8 44  1  0
 11 45  1  0
 15 46  1  0
 16 47  1  0
 16 48  1  0
 18 49  1  0
 19 50  1  0
 20 51  1  0
 22 52  1  0
 27 53  1  0
 28 54  1  0
 29 55  1  0
 30 56  1  0
 34 57  1  0
 35 58  1  0
M  END
$$$$
