
     RDKit          3D

 54 57  0  0  0  0  0  0  0  0999 V2000
    8.5438   -1.0512    2.0125 C   0  0  0  0  0  0  0  0  0  0  0  0
    7.6109    0.1630    1.9654 C   0  0  0  0  0  0  0  0  0  0  0  0
    8.3780    1.4178    1.5399 C   0  0  0  0  0  0  0  0  0  0  0  0
    6.3988   -0.0462    1.0742 C   0  0  0  0  0  0  0  0  0  0  0  0
    5.1356    0.3692    1.5186 C   0  0  0  0  0  0  0  0  0  0  0  0
    3.9970    0.2109    0.7181 C   0  0  0  0  0  0  0  0  0  0  0  0
    4.0979   -0.3638   -0.5475 C   0  0  0  0  0  0  0  0  0  0  0  0
    3.0047   -0.5585   -1.4179 N   0  0  0  0  0  0  0  0  0  0  0  0
    1.6830   -0.1959   -1.2069 C   0  0  0  0  0  0  0  0  0  0  0  0
    1.2325    0.3753   -0.2179 O   0  0  0  0  0  0  0  0  0  0  0  0
    0.7832   -0.5582   -2.3976 C   0  0  0  0  0  0  0  0  0  0  0  0
   -0.6064   -0.4968   -2.0776 O   0  0  0  0  0  0  0  0  0  0  0  0
   -1.0343   -1.5304   -1.3118 C   0  0  0  0  0  0  0  0  0  0  0  0
   -0.3849   -2.5253   -1.0312 O   0  0  0  0  0  0  0  0  0  0  0  0
   -2.4269   -1.2950   -0.8432 C   0  0  0  0  0  0  0  0  0  0  0  0
   -3.0051   -2.2375    0.0160 C   0  0  0  0  0  0  0  0  0  0  0  0
   -4.3088   -2.0563    0.4914 C   0  0  0  0  0  0  0  0  0  0  0  0
   -5.0606   -0.9303    0.1189 C   0  0  0  0  0  0  0  0  0  0  0  0
   -4.4774   -0.0052   -0.7353 C   0  0  0  0  0  0  0  0  0  0  0  0
   -3.1702   -0.1715   -1.2191 C   0  0  0  0  0  0  0  0  0  0  0  0
   -5.3698    1.4081   -1.2508 S   0  0  0  0  0  6  0  0  0  0  0  0
   -4.6151    2.5574   -0.7905 O   0  0  0  0  0  0  0  0  0  0  0  0
   -5.6743    1.2032   -2.6522 O   0  0  0  0  0  0  0  0  0  0  0  0
   -6.9003    1.4488   -0.4074 C   0  0  0  0  0  0  0  0  0  0  0  0
   -7.7254    2.5686   -0.5879 C   0  0  0  0  0  0  0  0  0  0  0  0
   -8.9561    2.6298    0.0634 C   0  0  0  0  0  0  0  0  0  0  0  0
   -9.3564    1.5792    0.8849 C   0  0  0  0  0  0  0  0  0  0  0  0
   -8.5225    0.4714    1.0611 C   0  0  0  0  0  0  0  0  0  0  0  0
   -7.2772    0.3974    0.4163 C   0  0  0  0  0  0  0  0  0  0  0  0
   -6.4340   -0.7962    0.6592 C   0  0  0  0  0  0  0  0  0  0  0  0
   -6.8861   -1.7080    1.3469 O   0  0  0  0  0  0  0  0  0  0  0  0
    5.3574   -0.7754   -0.9995 C   0  0  0  0  0  0  0  0  0  0  0  0
    6.4957   -0.6124   -0.2014 C   0  0  0  0  0  0  0  0  0  0  0  0
    7.9919   -1.9619    2.2766 H   0  0  0  0  0  0  0  0  0  0  0  0
    9.0437   -1.2246    1.0532 H   0  0  0  0  0  0  0  0  0  0  0  0
    9.3260   -0.9025    2.7650 H   0  0  0  0  0  0  0  0  0  0  0  0
    7.2560    0.3205    2.9941 H   0  0  0  0  0  0  0  0  0  0  0  0
    9.2179    1.6049    2.2186 H   0  0  0  0  0  0  0  0  0  0  0  0
    8.7816    1.3214    0.5247 H   0  0  0  0  0  0  0  0  0  0  0  0
    7.7280    2.2998    1.5570 H   0  0  0  0  0  0  0  0  0  0  0  0
    5.0188    0.8245    2.5001 H   0  0  0  0  0  0  0  0  0  0  0  0
    3.0449    0.5418    1.1237 H   0  0  0  0  0  0  0  0  0  0  0  0
    3.2194   -1.0248   -2.2902 H   0  0  0  0  0  0  0  0  0  0  0  0
    0.9683    0.1795   -3.1852 H   0  0  0  0  0  0  0  0  0  0  0  0
    1.0444   -1.5441   -2.8004 H   0  0  0  0  0  0  0  0  0  0  0  0
   -2.4418   -3.1190    0.3256 H   0  0  0  0  0  0  0  0  0  0  0  0
   -4.7309   -2.8043    1.1638 H   0  0  0  0  0  0  0  0  0  0  0  0
   -2.7459    0.5791   -1.8842 H   0  0  0  0  0  0  0  0  0  0  0  0
   -7.4125    3.3887   -1.2324 H   0  0  0  0  0  0  0  0  0  0  0  0
   -9.6023    3.4951   -0.0687 H   0  0  0  0  0  0  0  0  0  0  0  0
  -10.3172    1.6202    1.3947 H   0  0  0  0  0  0  0  0  0  0  0  0
   -8.8536   -0.3367    1.7134 H   0  0  0  0  0  0  0  0  0  0  0  0
    5.4775   -1.2173   -1.9848 H   0  0  0  0  0  0  0  0  0  0  0  0
    7.4587   -0.9265   -0.5975 H   0  0  0  0  0  0  0  0  0  0  0  0
  1  2  1  0
  2  3  1  0
  2  4  1  0
  4  5  2  0
  5  6  1  0
  6  7  2  0
  7  8  1  0
  8  9  1  0
  9 10  2  0
  9 11  1  0
 11 12  1  0
 12 13  1  0
 13 14  2  0
 13 15  1  0
 15 16  2  0
 16 17  1  0
 17 18  2  0
 18 19  1  0
 19 20  2  0
 19 21  1  0
 21 22  2  0
 21 23  2  0
 21 24  1  0
 24 25  2  0
 25 26  1  0
 26 27  2  0
 27 28  1  0
 28 29  2  0
 29 30  1  0
 30 31  2  0
  7 32  1  0
 32 33  2  0
 33  4  1  0
 20 15  1  0
 29 24  1  0
 30 18  1  0
  1 34  1  0
  1 35  1  0
  1 36  1  0
  2 37  1  0
  3 38  1  0
  3 39  1  0
  3 40  1  0
  5 41  1  0
  6 42  1  0
  8 43  1  0
 11 44  1  0
 11 45  1  0
 16 46  1  0
 17 47  1  0
 20 48  1  0
 25 49  1  0
 26 50  1  0
 27 51  1  0
 28 52  1  0
 32 53  1  0
 33 54  1  0
M  END
$$$$
