
     RDKit          3D

114117  0  0  0  0  0  0  0  0999 V2000
    0.1128   -4.3369    0.2657 C   0  0  0  0  0  0  0  0  0  0  0  0
    0.3444   -4.2806   -1.2483 C   0  0  0  0  0  0  0  0  0  0  0  0
    1.5546   -5.1294   -1.6250 C   0  0  0  0  0  0  0  0  0  0  0  0
    0.3975   -2.8317   -1.7960 C   0  0  0  0  0  0  0  0  0  0  0  0
   -0.8550   -2.1737   -1.4663 O   0  0  0  0  0  0  0  0  0  0  0  0
   -1.8485   -2.2833   -2.3869 C   0  0  0  0  0  0  0  0  0  0  0  0
   -1.7285   -2.8901   -3.4474 O   0  0  0  0  0  0  0  0  0  0  0  0
   -3.1459   -1.5587   -1.9791 C   0  0  0  0  0  0  0  0  0  0  0  0
   -4.3463   -2.4662   -2.3495 C   0  0  0  0  0  0  0  0  0  0  0  0
   -5.7207   -1.8713   -2.1154 C   0  0  0  0  0  0  0  0  0  0  0  0
   -6.7181   -2.6436   -1.5005 C   0  0  0  0  0  0  0  0  0  0  0  0
   -7.9987   -2.1244   -1.2978 C   0  0  0  0  0  0  0  0  0  0  0  0
   -8.3021   -0.8325   -1.7209 C   0  0  0  0  0  0  0  0  0  0  0  0
   -7.3258   -0.0600   -2.3459 C   0  0  0  0  0  0  0  0  0  0  0  0
   -6.0459   -0.5797   -2.5519 C   0  0  0  0  0  0  0  0  0  0  0  0
   -3.2145   -1.0532   -0.5800 N   0  0  0  0  0  0  0  0  0  0  0  0
   -3.1654   -2.0220    0.4997 C   0  0  0  0  0  0  0  0  0  0  0  0
   -3.0801    0.3171   -0.3646 C   0  0  0  0  0  0  0  0  0  0  0  0
   -2.8350    1.0795   -1.3072 O   0  0  0  0  0  0  0  0  0  0  0  0
   -3.2898    0.8814    1.0662 C   0  0  0  0  0  0  0  0  0  0  0  0
   -4.7064    1.4594    1.2937 C   0  0  0  0  0  0  0  0  0  0  0  0
   -5.7704    0.3711    1.4084 C   0  0  0  0  0  0  0  0  0  0  0  0
   -5.1224    2.5034    0.2502 C   0  0  0  0  0  0  0  0  0  0  0  0
   -2.3560    1.9641    1.2591 O   0  0  0  0  0  0  0  0  0  0  0  0
   -1.1185    1.5915    1.6971 C   0  0  0  0  0  0  0  0  0  0  0  0
   -0.8436    0.4712    2.1068 O   0  0  0  0  0  0  0  0  0  0  0  0
   -0.1624    2.7939    1.6721 C   0  0  0  0  0  0  0  0  0  0  0  0
   -0.1894    3.4876    3.0462 C   0  0  0  0  0  0  0  0  0  0  0  0
    0.6526    4.7424    3.0986 C   0  0  0  0  0  0  0  0  0  0  0  0
    0.2718    5.8839    2.3786 C   0  0  0  0  0  0  0  0  0  0  0  0
    1.0643    7.0330    2.4005 C   0  0  0  0  0  0  0  0  0  0  0  0
    2.2495    7.0493    3.1337 C   0  0  0  0  0  0  0  0  0  0  0  0
    2.6359    5.9224    3.8547 C   0  0  0  0  0  0  0  0  0  0  0  0
    1.8395    4.7761    3.8421 C   0  0  0  0  0  0  0  0  0  0  0  0
    1.2097    2.4261    1.2194 N   0  0  0  0  0  0  0  0  0  0  0  0
    1.9037    1.3890    1.9739 C   0  0  0  0  0  0  0  0  0  0  0  0
    1.5805    2.8361   -0.0586 C   0  0  0  0  0  0  0  0  0  0  0  0
    0.8537    3.5946   -0.7166 O   0  0  0  0  0  0  0  0  0  0  0  0
    2.9360    2.4252   -0.6972 C   0  0  0  0  0  0  0  0  0  0  0  0
    4.1053    3.3961   -0.3908 C   0  0  0  0  0  0  0  0  0  0  0  0
    3.7436    4.8520   -0.6922 C   0  0  0  0  0  0  0  0  0  0  0  0
    4.6832    3.2839    1.0186 C   0  0  0  0  0  0  0  0  0  0  0  0
    3.3253    1.0684   -0.4390 O   0  0  0  0  0  0  0  0  0  0  0  0
    3.6587    0.3120   -1.5168 C   0  0  0  0  0  0  0  0  0  0  0  0
    3.7547    0.7356   -2.6641 O   0  0  0  0  0  0  0  0  0  0  0  0
    3.8813   -1.1699   -1.1715 C   0  0  0  0  0  0  0  0  0  0  0  0
    4.2186   -1.4340    0.3131 C   0  0  0  0  0  0  0  0  0  0  0  0
    4.6222   -2.8625    0.6079 C   0  0  0  0  0  0  0  0  0  0  0  0
    3.8528   -3.6461    1.4758 C   0  0  0  0  0  0  0  0  0  0  0  0
    4.2048   -4.9694    1.7378 C   0  0  0  0  0  0  0  0  0  0  0  0
    5.3320   -5.5225    1.1408 C   0  0  0  0  0  0  0  0  0  0  0  0
    6.1152   -4.7485    0.2880 C   0  0  0  0  0  0  0  0  0  0  0  0
    5.7659   -3.4238    0.0246 C   0  0  0  0  0  0  0  0  0  0  0  0
    2.8109   -2.0079   -1.7735 N   0  0  0  0  0  0  0  0  0  0  0  0
    3.0927   -2.4888   -3.1200 C   0  0  0  0  0  0  0  0  0  0  0  0
    1.5449   -1.9879   -1.1899 C   0  0  0  0  0  0  0  0  0  0  0  0
    1.3421   -1.3069   -0.1811 O   0  0  0  0  0  0  0  0  0  0  0  0
    0.0442   -5.3766    0.6046 H   0  0  0  0  0  0  0  0  0  0  0  0
    0.9272   -3.8599    0.8182 H   0  0  0  0  0  0  0  0  0  0  0  0
   -0.8203   -3.8395    0.5421 H   0  0  0  0  0  0  0  0  0  0  0  0
   -0.5293   -4.7642   -1.7044 H   0  0  0  0  0  0  0  0  0  0  0  0
    2.4778   -4.7453   -1.1867 H   0  0  0  0  0  0  0  0  0  0  0  0
    1.4320   -6.1568   -1.2671 H   0  0  0  0  0  0  0  0  0  0  0  0
    1.6756   -5.1795   -2.7105 H   0  0  0  0  0  0  0  0  0  0  0  0
    0.5043   -2.8304   -2.8820 H   0  0  0  0  0  0  0  0  0  0  0  0
   -3.1687   -0.6960   -2.6545 H   0  0  0  0  0  0  0  0  0  0  0  0
   -4.2641   -3.4112   -1.7952 H   0  0  0  0  0  0  0  0  0  0  0  0
   -4.2969   -2.7448   -3.4130 H   0  0  0  0  0  0  0  0  0  0  0  0
   -6.5081   -3.6593   -1.1744 H   0  0  0  0  0  0  0  0  0  0  0  0
   -8.7625   -2.7312   -0.8192 H   0  0  0  0  0  0  0  0  0  0  0  0
   -9.2977   -0.4265   -1.5673 H   0  0  0  0  0  0  0  0  0  0  0  0
   -7.5601    0.9462   -2.6858 H   0  0  0  0  0  0  0  0  0  0  0  0
   -5.3058    0.0451   -3.0481 H   0  0  0  0  0  0  0  0  0  0  0  0
   -3.1542   -3.0452    0.1182 H   0  0  0  0  0  0  0  0  0  0  0  0
   -4.0405   -1.8959    1.1386 H   0  0  0  0  0  0  0  0  0  0  0  0
   -2.2618   -1.8534    1.0893 H   0  0  0  0  0  0  0  0  0  0  0  0
   -3.1197    0.1152    1.8263 H   0  0  0  0  0  0  0  0  0  0  0  0
   -4.6762    1.9864    2.2575 H   0  0  0  0  0  0  0  0  0  0  0  0
   -6.7508    0.8093    1.6291 H   0  0  0  0  0  0  0  0  0  0  0  0
   -5.8582   -0.2029    0.4841 H   0  0  0  0  0  0  0  0  0  0  0  0
   -5.5299   -0.3231    2.2215 H   0  0  0  0  0  0  0  0  0  0  0  0
   -4.3731    3.2981    0.1632 H   0  0  0  0  0  0  0  0  0  0  0  0
   -5.2725    2.0537   -0.7383 H   0  0  0  0  0  0  0  0  0  0  0  0
   -6.0674    2.9765    0.5413 H   0  0  0  0  0  0  0  0  0  0  0  0
   -0.5904    3.4948    0.9475 H   0  0  0  0  0  0  0  0  0  0  0  0
    0.1192    2.7972    3.8393 H   0  0  0  0  0  0  0  0  0  0  0  0
   -1.2224    3.7587    3.2999 H   0  0  0  0  0  0  0  0  0  0  0  0
   -0.6424    5.8863    1.7855 H   0  0  0  0  0  0  0  0  0  0  0  0
    0.7672    7.9088    1.8288 H   0  0  0  0  0  0  0  0  0  0  0  0
    2.8713    7.9413    3.1418 H   0  0  0  0  0  0  0  0  0  0  0  0
    3.5606    5.9333    4.4234 H   0  0  0  0  0  0  0  0  0  0  0  0
    2.1638    3.9028    4.4005 H   0  0  0  0  0  0  0  0  0  0  0  0
    2.9828    1.4890    1.8884 H   0  0  0  0  0  0  0  0  0  0  0  0
    1.6567    1.4540    3.0349 H   0  0  0  0  0  0  0  0  0  0  0  0
    1.6090    0.4099    1.5971 H   0  0  0  0  0  0  0  0  0  0  0  0
    2.7250    2.5268   -1.7731 H   0  0  0  0  0  0  0  0  0  0  0  0
    4.9233    3.1209   -1.0712 H   0  0  0  0  0  0  0  0  0  0  0  0
    3.0023    5.2361    0.0157 H   0  0  0  0  0  0  0  0  0  0  0  0
    3.3440    4.9529   -1.7061 H   0  0  0  0  0  0  0  0  0  0  0  0
    4.6287    5.4935   -0.6189 H   0  0  0  0  0  0  0  0  0  0  0  0
    5.5392    3.9572    1.1372 H   0  0  0  0  0  0  0  0  0  0  0  0
    5.0406    2.2690    1.2189 H   0  0  0  0  0  0  0  0  0  0  0  0
    3.9462    3.5590    1.7757 H   0  0  0  0  0  0  0  0  0  0  0  0
    4.8039   -1.4161   -1.7189 H   0  0  0  0  0  0  0  0  0  0  0  0
    5.0512   -0.7816    0.6135 H   0  0  0  0  0  0  0  0  0  0  0  0
    3.3906   -1.1444    0.9656 H   0  0  0  0  0  0  0  0  0  0  0  0
    2.9744   -3.2218    1.9584 H   0  0  0  0  0  0  0  0  0  0  0  0
    3.5953   -5.5625    2.4160 H   0  0  0  0  0  0  0  0  0  0  0  0
    5.5989   -6.5561    1.3449 H   0  0  0  0  0  0  0  0  0  0  0  0
    7.0014   -5.1801   -0.1679 H   0  0  0  0  0  0  0  0  0  0  0  0
    6.4024   -2.8390   -0.6365 H   0  0  0  0  0  0  0  0  0  0  0  0
    2.3453   -3.1779   -3.5000 H   0  0  0  0  0  0  0  0  0  0  0  0
    3.1421   -1.6336   -3.7976 H   0  0  0  0  0  0  0  0  0  0  0  0
    4.0553   -3.0082   -3.1171 H   0  0  0  0  0  0  0  0  0  0  0  0
  1  2  1  0
  2  3  1  0
  2  4  1  0
  4  5  1  0
  5  6  1  0
  6  7  2  0
  6  8  1  0
  8  9  1  0
  9 10  1  0
 10 11  2  0
 11 12  1  0
 12 13  2  0
 13 14  1  0
 14 15  2  0
  8 16  1  0
 16 17  1  0
 16 18  1  0
 18 19  2  0
 18 20  1  0
 20 21  1  0
 21 22  1  0
 21 23  1  0
 20 24  1  0
 24 25  1  0
 25 26  2  0
 25 27  1  0
 27 28  1  0
 28 29  1  0
 29 30  2  0
 30 31  1  0
 31 32  2  0
 32 33  1  0
 33 34  2  0
 27 35  1  0
 35 36  1  0
 35 37  1  0
 37 38  2  0
 37 39  1  0
 39 40  1  0
 40 41  1  0
 40 42  1  0
 39 43  1  0
 43 44  1  0
 44 45  2  0
 44 46  1  0
 46 47  1  0
 47 48  1  0
 48 49  2  0
 49 50  1  0
 50 51  2  0
 51 52  1  0
 52 53  2  0
 46 54  1  0
 54 55  1  0
 54 56  1  0
 56 57  2  0
 56  4  1  0
 15 10  1  0
 34 29  1  0
 53 48  1  0
  1 58  1  0
  1 59  1  0
  1 60  1  0
  2 61  1  0
  3 62  1  0
  3 63  1  0
  3 64  1  0
  4 65  1  0
  8 66  1  0
  9 67  1  0
  9 68  1  0
 11 69  1  0
 12 70  1  0
 13 71  1  0
 14 72  1  0
 15 73  1  0
 17 74  1  0
 17 75  1  0
 17 76  1  0
 20 77  1  0
 21 78  1  0
 22 79  1  0
 22 80  1  0
 22 81  1  0
 23 82  1  0
 23 83  1  0
 23 84  1  0
 27 85  1  0
 28 86  1  0
 28 87  1  0
 30 88  1  0
 31 89  1  0
 32 90  1  0
 33 91  1  0
 34 92  1  0
 36 93  1  0
 36 94  1  0
 36 95  1  0
 39 96  1  0
 40 97  1  0
 41 98  1  0
 41 99  1  0
 41100  1  0
 42101  1  0
 42102  1  0
 42103  1  0
 46104  1  0
 47105  1  0
 47106  1  0
 49107  1  0
 50108  1  0
 51109  1  0
 52110  1  0
 53111  1  0
 55112  1  0
 55113  1  0
 55114  1  0
M  END
$$$$
