
     RDKit          3D

 61 65  0  0  0  0  0  0  0  0999 V2000
   -8.5444    2.9267   -2.6546 C   0  0  0  0  0  0  0  0  0  0  0  0
   -7.5408    2.1006   -1.9066 C   0  0  0  0  0  0  0  0  0  0  0  0
   -6.4536    2.6991   -1.2677 C   0  0  0  0  0  0  0  0  0  0  0  0
   -5.5090    1.9189   -0.5884 C   0  0  0  0  0  0  0  0  0  0  0  0
   -5.6113    0.5160   -0.5384 C   0  0  0  0  0  0  0  0  0  0  0  0
   -4.6260   -0.3229    0.1801 C   0  0  0  0  0  0  0  0  0  0  0  0
   -3.3073    0.0494    0.3690 C   0  0  0  0  0  0  0  0  0  0  0  0
   -2.4626   -0.8056    1.0808 C   0  0  0  0  0  0  0  0  0  0  0  0
   -1.0512   -0.3667    1.2037 C   0  0  0  0  0  0  0  0  0  0  0  0
   -0.8356    0.7569    1.6370 O   0  0  0  0  0  0  0  0  0  0  0  0
   -0.1259   -1.2858    0.7452 N   0  0  0  0  0  0  0  0  0  0  0  0
    1.2786   -1.1595    0.7487 C   0  0  0  0  0  0  0  0  0  0  0  0
    2.0188   -2.2384    0.2412 C   0  0  0  0  0  0  0  0  0  0  0  0
    3.4157   -2.1966    0.2115 C   0  0  0  0  0  0  0  0  0  0  0  0
    4.0778   -1.0604    0.6815 C   0  0  0  0  0  0  0  0  0  0  0  0
    5.8559   -1.0004    0.6420 S   0  0  0  0  0  6  0  0  0  0  0  0
    6.3378   -2.3477    0.8490 O   0  0  0  0  0  0  0  0  0  0  0  0
    6.2748    0.1001    1.4793 O   0  0  0  0  0  0  0  0  0  0  0  0
    6.1049   -0.6441   -0.9988 N   0  0  0  0  0  0  0  0  0  0  0  0
    7.1679    0.3334   -1.2091 C   0  0  0  0  0  0  0  0  0  0  0  0
    8.4156   -0.0029   -1.6250 O   0  0  0  0  0  0  0  0  0  0  0  0
    9.1723    1.1410   -1.7867 N   0  0  0  0  0  0  0  0  0  0  0  0
    8.3608    2.1590   -1.4726 C   0  0  0  0  0  0  0  0  0  0  0  0
    8.8637    3.5517   -1.5378 C   0  0  0  0  0  0  0  0  0  0  0  0
    7.0582    1.7038   -1.1261 C   0  0  0  0  0  0  0  0  0  0  0  0
    5.8813    2.5177   -0.7468 C   0  0  0  0  0  0  0  0  0  0  0  0
    3.3565    0.0139    1.2044 C   0  0  0  0  0  0  0  0  0  0  0  0
    1.9589   -0.0386    1.2342 C   0  0  0  0  0  0  0  0  0  0  0  0
   -2.9428   -2.0108    1.6373 C   0  0  0  0  0  0  0  0  0  0  0  0
   -2.1897   -2.8991    2.4500 C   0  0  0  0  0  0  0  0  0  0  0  0
   -2.7480   -4.0806    2.9337 C   0  0  0  0  0  0  0  0  0  0  0  0
   -4.0649   -4.3878    2.6263 C   0  0  0  0  0  0  0  0  0  0  0  0
   -4.8182   -3.5022    1.8526 C   0  0  0  0  0  0  0  0  0  0  0  0
   -4.2871   -2.3166    1.3619 C   0  0  0  0  0  0  0  0  0  0  0  0
   -5.0894   -1.5092    0.6482 N   0  0  0  0  0  0  0  0  0  0  0  0
   -6.7105   -0.0667   -1.1947 C   0  0  0  0  0  0  0  0  0  0  0  0
   -7.6573    0.7093   -1.8736 C   0  0  0  0  0  0  0  0  0  0  0  0
   -9.5595    2.5501   -2.4810 H   0  0  0  0  0  0  0  0  0  0  0  0
   -8.5226    3.9722   -2.3245 H   0  0  0  0  0  0  0  0  0  0  0  0
   -8.3289    2.8944   -3.7278 H   0  0  0  0  0  0  0  0  0  0  0  0
   -6.3361    3.7810   -1.2810 H   0  0  0  0  0  0  0  0  0  0  0  0
   -4.6987    2.4377   -0.0796 H   0  0  0  0  0  0  0  0  0  0  0  0
   -2.9177    0.9778   -0.0366 H   0  0  0  0  0  0  0  0  0  0  0  0
   -0.4935   -2.1431    0.3491 H   0  0  0  0  0  0  0  0  0  0  0  0
    1.5190   -3.1298   -0.1333 H   0  0  0  0  0  0  0  0  0  0  0  0
    3.9726   -3.0470   -0.1760 H   0  0  0  0  0  0  0  0  0  0  0  0
    6.3756   -1.5234   -1.4456 H   0  0  0  0  0  0  0  0  0  0  0  0
    8.3704    4.1827   -0.7886 H   0  0  0  0  0  0  0  0  0  0  0  0
    8.6668    3.9755   -2.5282 H   0  0  0  0  0  0  0  0  0  0  0  0
    9.9417    3.5960   -1.3488 H   0  0  0  0  0  0  0  0  0  0  0  0
    5.8885    2.7157    0.3308 H   0  0  0  0  0  0  0  0  0  0  0  0
    4.9447    2.0098   -0.9985 H   0  0  0  0  0  0  0  0  0  0  0  0
    5.8846    3.4803   -1.2680 H   0  0  0  0  0  0  0  0  0  0  0  0
    3.8643    0.8943    1.5922 H   0  0  0  0  0  0  0  0  0  0  0  0
    1.4300    0.8166    1.6465 H   0  0  0  0  0  0  0  0  0  0  0  0
   -1.1650   -2.6663    2.7349 H   0  0  0  0  0  0  0  0  0  0  0  0
   -2.1599   -4.7504    3.5564 H   0  0  0  0  0  0  0  0  0  0  0  0
   -4.5173   -5.3038    2.9986 H   0  0  0  0  0  0  0  0  0  0  0  0
   -5.8572   -3.7399    1.6337 H   0  0  0  0  0  0  0  0  0  0  0  0
   -6.8371   -1.1502   -1.1814 H   0  0  0  0  0  0  0  0  0  0  0  0
   -8.4888    0.2146   -2.3710 H   0  0  0  0  0  0  0  0  0  0  0  0
  1  2  1  0
  2  3  2  0
  3  4  1  0
  4  5  2  0
  5  6  1  0
  6  7  2  0
  7  8  1  0
  8  9  1  0
  9 10  2  0
  9 11  1  0
 11 12  1  0
 12 13  2  0
 13 14  1  0
 14 15  2  0
 15 16  1  0
 16 17  2  0
 16 18  2  0
 16 19  1  0
 19 20  1  0
 20 21  1  0
 21 22  1  0
 22 23  2  0
 23 24  1  0
 23 25  1  0
 25 26  1  0
 15 27  1  0
 27 28  2  0
  8 29  2  0
 29 30  1  0
 30 31  2  0
 31 32  1  0
 32 33  2  0
 33 34  1  0
 34 35  2  0
  5 36  1  0
 36 37  2  0
 37  2  1  0
 35  6  1  0
 28 12  1  0
 34 29  1  0
 25 20  2  0
  1 38  1  0
  1 39  1  0
  1 40  1  0
  3 41  1  0
  4 42  1  0
  7 43  1  0
 11 44  1  0
 13 45  1  0
 14 46  1  0
 19 47  1  0
 24 48  1  0
 24 49  1  0
 24 50  1  0
 26 51  1  0
 26 52  1  0
 26 53  1  0
 27 54  1  0
 28 55  1  0
 30 56  1  0
 31 57  1  0
 32 58  1  0
 33 59  1  0
 36 60  1  0
 37 61  1  0
M  END
$$$$
