
     RDKit          3D

 42 44  0  0  0  0  0  0  0  0999 V2000
   -3.2912    3.9936    0.1601 C   0  0  0  0  0  0  0  0  0  0  0  0
   -1.9887    3.2234    0.0640 C   0  0  0  0  0  0  0  0  0  0  0  0
   -2.2931    1.8260    0.1254 O   0  0  0  0  0  0  0  0  0  0  0  0
   -1.2036    1.0073    0.0442 C   0  0  0  0  0  0  0  0  0  0  0  0
   -0.0517    1.4116   -0.0749 O   0  0  0  0  0  0  0  0  0  0  0  0
   -1.5546   -0.4087    0.1104 C   0  0  0  0  0  0  0  0  0  0  0  0
   -0.6152   -1.4397    0.0114 C   0  0  0  0  0  0  0  0  0  0  0  0
    0.7509   -1.2928   -0.1525 N   0  0  0  0  0  0  0  0  0  0  0  0
    1.7158   -2.2767   -0.2541 C   0  0  0  0  0  0  0  0  0  0  0  0
    1.5574   -3.4913   -0.2228 O   0  0  0  0  0  0  0  0  0  0  0  0
    3.0627   -1.6937   -0.4150 C   0  0  0  0  0  0  0  0  0  0  0  0
    4.2903   -2.3939   -0.5442 C   0  0  0  0  0  0  0  0  0  0  0  0
    5.2550   -1.4229   -0.6647 C   0  0  0  0  0  0  0  0  0  0  0  0
    4.5957   -0.2315   -0.6040 N   0  0  0  0  0  0  0  0  0  0  0  0
    5.1853    1.0910   -0.6903 C   0  0  0  0  0  0  0  0  0  0  0  0
    5.4039    1.7101    0.6783 C   0  0  0  0  0  0  0  0  0  0  0  0
    3.2639   -0.3596   -0.4555 N   0  0  0  0  0  0  0  0  0  0  0  0
   -1.3263   -2.9991    0.1108 S   0  0  0  0  0  0  0  0  0  0  0  0
   -2.8423   -2.3344    0.2867 C   0  0  0  0  0  0  0  0  0  0  0  0
   -2.8549   -0.9688    0.2780 C   0  0  0  0  0  0  0  0  0  0  0  0
   -4.2409   -0.4547    0.4396 C   0  0  0  0  0  0  0  0  0  0  0  0
   -5.0216   -1.7285    0.8921 C   0  0  0  0  0  0  0  0  0  0  0  0
   -4.1748   -2.9585    0.4472 C   0  0  0  0  0  0  0  0  0  0  0  0
   -3.1114    5.0714    0.1163 H   0  0  0  0  0  0  0  0  0  0  0  0
   -3.8094    3.7591    1.0960 H   0  0  0  0  0  0  0  0  0  0  0  0
   -3.9657    3.7135   -0.6559 H   0  0  0  0  0  0  0  0  0  0  0  0
   -1.4924    3.4534   -0.8855 H   0  0  0  0  0  0  0  0  0  0  0  0
   -1.3350    3.4969    0.8996 H   0  0  0  0  0  0  0  0  0  0  0  0
    1.1162   -0.3380   -0.2035 H   0  0  0  0  0  0  0  0  0  0  0  0
    4.4307   -3.4663   -0.5467 H   0  0  0  0  0  0  0  0  0  0  0  0
    6.3277   -1.4822   -0.7838 H   0  0  0  0  0  0  0  0  0  0  0  0
    6.1368    0.9983   -1.2252 H   0  0  0  0  0  0  0  0  0  0  0  0
    4.5177    1.7118   -1.2980 H   0  0  0  0  0  0  0  0  0  0  0  0
    5.8536    2.7029    0.5794 H   0  0  0  0  0  0  0  0  0  0  0  0
    6.0712    1.0911    1.2875 H   0  0  0  0  0  0  0  0  0  0  0  0
    4.4585    1.8157    1.2210 H   0  0  0  0  0  0  0  0  0  0  0  0
   -4.3183    0.3358    1.1912 H   0  0  0  0  0  0  0  0  0  0  0  0
   -4.6272   -0.0883   -0.5172 H   0  0  0  0  0  0  0  0  0  0  0  0
   -5.0997   -1.7272    1.9875 H   0  0  0  0  0  0  0  0  0  0  0  0
   -6.0396   -1.7567    0.4911 H   0  0  0  0  0  0  0  0  0  0  0  0
   -4.5391   -3.3504   -0.5079 H   0  0  0  0  0  0  0  0  0  0  0  0
   -4.1967   -3.7489    1.2022 H   0  0  0  0  0  0  0  0  0  0  0  0
  1  2  1  0
  2  3  1  0
  3  4  1  0
  4  5  2  0
  4  6  1  0
  6  7  2  0
  7  8  1  0
  8  9  1  0
  9 10  2  0
  9 11  1  0
 11 12  1  0
 12 13  2  0
 13 14  1  0
 14 15  1  0
 15 16  1  0
 14 17  1  0
  7 18  1  0
 18 19  1  0
 19 20  2  0
 20 21  1  0
 21 22  1  0
 22 23  1  0
 20  6  1  0
 17 11  2  0
 23 19  1  0
  1 24  1  0
  1 25  1  0
  1 26  1  0
  2 27  1  0
  2 28  1  0
  8 29  1  0
 12 30  1  0
 13 31  1  0
 15 32  1  0
 15 33  1  0
 16 34  1  0
 16 35  1  0
 16 36  1  0
 21 37  1  0
 21 38  1  0
 22 39  1  0
 22 40  1  0
 23 41  1  0
 23 42  1  0
M  END
$$$$
