
     RDKit          3D

 56 58  0  0  0  0  0  0  0  0999 V2000
    6.2126    0.5276    2.7676 C   0  0  0  0  0  0  0  0  0  0  0  0
    4.9418   -0.0794    2.5663 O   0  0  0  0  0  0  0  0  0  0  0  0
    4.6299   -0.4614    1.2901 C   0  0  0  0  0  0  0  0  0  0  0  0
    5.4217   -0.2545    0.1605 C   0  0  0  0  0  0  0  0  0  0  0  0
    4.9901   -0.6987   -1.0943 C   0  0  0  0  0  0  0  0  0  0  0  0
    3.7641   -1.3555   -1.2258 C   0  0  0  0  0  0  0  0  0  0  0  0
    3.2535   -1.8390   -2.4089 O   0  0  0  0  0  0  0  0  0  0  0  0
    4.1304   -1.8410   -3.5356 C   0  0  0  0  0  0  0  0  0  0  0  0
    2.9512   -1.5495   -0.0903 C   0  0  0  0  0  0  0  0  0  0  0  0
    1.7081   -2.1908   -0.2994 N   0  0  0  0  0  0  0  0  0  0  0  0
    0.7126   -2.4563    0.6178 C   0  0  0  0  0  0  0  0  0  0  0  0
    0.7650   -2.2707    1.8306 O   0  0  0  0  0  0  0  0  0  0  0  0
   -0.5180   -3.1025    0.0015 C   0  0  0  0  0  0  0  0  0  0  0  0
   -1.2975   -2.0825   -1.2825 S   0  0  0  0  0  0  0  0  0  0  0  0
   -1.4961   -0.6053   -0.3619 C   0  0  0  0  0  0  0  0  0  0  0  0
   -0.4712    0.1779   -0.3365 N   0  0  0  0  0  0  0  0  0  0  0  0
   -0.5423    1.3465    0.4225 C   0  0  0  0  0  0  0  0  0  0  0  0
    0.5911    2.1549    0.5325 C   0  0  0  0  0  0  0  0  0  0  0  0
    0.5557    3.3279    1.2934 C   0  0  0  0  0  0  0  0  0  0  0  0
   -0.6171    3.6989    1.9519 C   0  0  0  0  0  0  0  0  0  0  0  0
   -1.7537    2.8982    1.8487 C   0  0  0  0  0  0  0  0  0  0  0  0
   -1.7043    1.7256    1.0854 C   0  0  0  0  0  0  0  0  0  0  0  0
   -2.8798    0.8507    0.9512 C   0  0  0  0  0  0  0  0  0  0  0  0
   -3.9637    1.2261    1.4000 O   0  0  0  0  0  0  0  0  0  0  0  0
   -2.7005   -0.3533    0.2708 N   0  0  0  0  0  0  0  0  0  0  0  0
   -3.8856   -1.2191    0.1596 C   0  0  0  0  0  0  0  0  0  0  0  0
   -4.7839   -0.8429   -1.0276 C   0  0  0  0  0  0  0  0  0  0  0  0
   -5.3989    0.4614   -0.8797 N   0  0  0  0  0  0  0  0  0  0  0  0
   -6.1857    1.0031   -1.8649 C   0  0  0  0  0  0  0  0  0  0  0  0
   -6.7426    2.3610   -1.5330 C   0  0  0  0  0  0  0  0  0  0  0  0
   -6.4342    0.4326   -2.9231 O   0  0  0  0  0  0  0  0  0  0  0  0
    3.3944   -1.1019    1.1569 C   0  0  0  0  0  0  0  0  0  0  0  0
    7.0250   -0.1511    2.4853 H   0  0  0  0  0  0  0  0  0  0  0  0
    6.2833    1.4792    2.2288 H   0  0  0  0  0  0  0  0  0  0  0  0
    6.3164    0.7418    3.8360 H   0  0  0  0  0  0  0  0  0  0  0  0
    6.3790    0.2556    0.2182 H   0  0  0  0  0  0  0  0  0  0  0  0
    5.6320   -0.5077   -1.9465 H   0  0  0  0  0  0  0  0  0  0  0  0
    5.0581   -2.3836   -3.3173 H   0  0  0  0  0  0  0  0  0  0  0  0
    3.6272   -2.3727   -4.3505 H   0  0  0  0  0  0  0  0  0  0  0  0
    4.3335   -0.8189   -3.8774 H   0  0  0  0  0  0  0  0  0  0  0  0
    1.5042   -2.3695   -1.2797 H   0  0  0  0  0  0  0  0  0  0  0  0
   -1.2505   -3.2948    0.7921 H   0  0  0  0  0  0  0  0  0  0  0  0
   -0.2306   -4.0663   -0.4286 H   0  0  0  0  0  0  0  0  0  0  0  0
    1.5098    1.8614    0.0270 H   0  0  0  0  0  0  0  0  0  0  0  0
    1.4478    3.9443    1.3760 H   0  0  0  0  0  0  0  0  0  0  0  0
   -0.6435    4.6059    2.5517 H   0  0  0  0  0  0  0  0  0  0  0  0
   -2.6662    3.1799    2.3669 H   0  0  0  0  0  0  0  0  0  0  0  0
   -4.4627   -1.1438    1.0912 H   0  0  0  0  0  0  0  0  0  0  0  0
   -3.5850   -2.2664    0.0738 H   0  0  0  0  0  0  0  0  0  0  0  0
   -5.5926   -1.5743   -1.1231 H   0  0  0  0  0  0  0  0  0  0  0  0
   -4.2219   -0.8460   -1.9662 H   0  0  0  0  0  0  0  0  0  0  0  0
   -5.2550    0.9723   -0.0077 H   0  0  0  0  0  0  0  0  0  0  0  0
   -6.6324    3.0151   -2.4027 H   0  0  0  0  0  0  0  0  0  0  0  0
   -6.2140    2.8205   -0.6930 H   0  0  0  0  0  0  0  0  0  0  0  0
   -7.8006    2.2621   -1.2775 H   0  0  0  0  0  0  0  0  0  0  0  0
    2.7916   -1.2312    2.0495 H   0  0  0  0  0  0  0  0  0  0  0  0
  1  2  1  0
  2  3  1  0
  3  4  2  0
  4  5  1  0
  5  6  2  0
  6  7  1  0
  7  8  1  0
  6  9  1  0
  9 10  1  0
 10 11  1  0
 11 12  2  0
 11 13  1  0
 13 14  1  0
 14 15  1  0
 15 16  2  0
 16 17  1  0
 17 18  2  0
 18 19  1  0
 19 20  2  0
 20 21  1  0
 21 22  2  0
 22 23  1  0
 23 24  2  0
 23 25  1  0
 25 26  1  0
 26 27  1  0
 27 28  1  0
 28 29  1  0
 29 30  1  0
 29 31  2  0
  9 32  2  0
 32  3  1  0
 25 15  1  0
 22 17  1  0
  1 33  1  0
  1 34  1  0
  1 35  1  0
  4 36  1  0
  5 37  1  0
  8 38  1  0
  8 39  1  0
  8 40  1  0
 10 41  1  0
 13 42  1  0
 13 43  1  0
 18 44  1  0
 19 45  1  0
 20 46  1  0
 21 47  1  0
 26 48  1  0
 26 49  1  0
 27 50  1  0
 27 51  1  0
 28 52  1  0
 30 53  1  0
 30 54  1  0
 30 55  1  0
 32 56  1  0
M  END
$$$$
