
     RDKit          3D

 40 42  0  0  0  0  0  0  0  0999 V2000
    5.3438   -1.0138    0.3958 N   0  0  0  0  0  0  0  0  0  0  0  0
    4.0323   -0.6320    0.9027 C   0  0  0  0  0  0  0  0  0  0  0  0
    3.0624   -0.4261   -0.2589 C   0  0  0  0  0  0  0  0  0  0  0  0
    1.6722   -0.0335    0.2442 C   0  0  0  0  0  0  0  0  0  0  0  0
    0.6947    0.1518   -0.9261 C   0  0  0  0  0  0  0  0  0  0  0  0
   -0.6511    0.5505   -0.4532 N   0  0  0  0  0  0  0  0  0  0  0  0
   -0.9261    1.9490   -0.3843 C   0  0  0  0  0  0  0  0  0  0  0  0
    0.0998    2.9224   -0.4107 C   0  0  0  0  0  0  0  0  0  0  0  0
   -0.1588    4.2967   -0.3311 C   0  0  0  0  0  0  0  0  0  0  0  0
   -1.4613    4.7501   -0.2178 C   0  0  0  0  0  0  0  0  0  0  0  0
   -2.4973    3.8248   -0.1820 C   0  0  0  0  0  0  0  0  0  0  0  0
   -2.2415    2.4406   -0.2595 C   0  0  0  0  0  0  0  0  0  0  0  0
   -3.6809    1.4005   -0.2271 S   0  0  0  0  0  0  0  0  0  0  0  0
   -2.9731   -0.2211   -0.0753 C   0  0  0  0  0  0  0  0  0  0  0  0
   -3.8944   -1.2575    0.1729 C   0  0  0  0  0  0  0  0  0  0  0  0
   -3.4776   -2.5787    0.2935 C   0  0  0  0  0  0  0  0  0  0  0  0
   -2.1266   -2.8876    0.1616 C   0  0  0  0  0  0  0  0  0  0  0  0
   -1.6363   -4.3060    0.3160 C   0  0  0  0  0  0  0  0  0  0  0  0
   -1.1658   -4.5567    1.5684 F   0  0  0  0  0  0  0  0  0  0  0  0
   -0.6153   -4.6076   -0.5342 F   0  0  0  0  0  0  0  0  0  0  0  0
   -2.6007   -5.2394    0.0834 F   0  0  0  0  0  0  0  0  0  0  0  0
   -1.2105   -1.8435   -0.0810 C   0  0  0  0  0  0  0  0  0  0  0  0
   -1.5971   -0.4891   -0.2162 C   0  0  0  0  0  0  0  0  0  0  0  0
    5.9861   -1.1376    1.1780 H   0  0  0  0  0  0  0  0  0  0  0  0
    5.7302   -0.2601   -0.1712 H   0  0  0  0  0  0  0  0  0  0  0  0
    3.6623   -1.4207    1.5664 H   0  0  0  0  0  0  0  0  0  0  0  0
    4.1222    0.2866    1.4927 H   0  0  0  0  0  0  0  0  0  0  0  0
    3.4423    0.3566   -0.9277 H   0  0  0  0  0  0  0  0  0  0  0  0
    2.9899   -1.3487   -0.8487 H   0  0  0  0  0  0  0  0  0  0  0  0
    1.3039   -0.8011    0.9339 H   0  0  0  0  0  0  0  0  0  0  0  0
    1.7457    0.8868    0.8343 H   0  0  0  0  0  0  0  0  0  0  0  0
    1.0931    0.8800   -1.6446 H   0  0  0  0  0  0  0  0  0  0  0  0
    0.6463   -0.7633   -1.5307 H   0  0  0  0  0  0  0  0  0  0  0  0
    1.1463    2.6450   -0.4783 H   0  0  0  0  0  0  0  0  0  0  0  0
    0.6650    5.0056   -0.3541 H   0  0  0  0  0  0  0  0  0  0  0  0
   -1.6731    5.8136   -0.1558 H   0  0  0  0  0  0  0  0  0  0  0  0
   -3.5192    4.1890   -0.0938 H   0  0  0  0  0  0  0  0  0  0  0  0
   -4.9553   -1.0336    0.2745 H   0  0  0  0  0  0  0  0  0  0  0  0
   -4.2115   -3.3582    0.4901 H   0  0  0  0  0  0  0  0  0  0  0  0
   -0.1650   -2.1337   -0.1458 H   0  0  0  0  0  0  0  0  0  0  0  0
  1  2  1  0
  2  3  1  0
  3  4  1  0
  4  5  1  0
  5  6  1  0
  6  7  1  0
  7  8  2  0
  8  9  1  0
  9 10  2  0
 10 11  1  0
 11 12  2  0
 12 13  1  0
 13 14  1  0
 14 15  2  0
 15 16  1  0
 16 17  2  0
 17 18  1  0
 18 19  1  0
 18 20  1  0
 18 21  1  0
 17 22  1  0
 22 23  2  0
 23  6  1  0
 12  7  1  0
 23 14  1  0
  1 24  1  0
  1 25  1  0
  2 26  1  0
  2 27  1  0
  3 28  1  0
  3 29  1  0
  4 30  1  0
  4 31  1  0
  5 32  1  0
  5 33  1  0
  8 34  1  0
  9 35  1  0
 10 36  1  0
 11 37  1  0
 15 38  1  0
 16 39  1  0
 22 40  1  0
M  END
$$$$
