
     RDKit          3D

 55 59  0  0  0  0  0  0  0  0999 V2000
    7.5139    2.8310    1.3553 C   0  0  0  0  0  0  0  0  0  0  0  0
    6.1500    2.5811    1.0328 O   0  0  0  0  0  0  0  0  0  0  0  0
    5.6873    1.3086    1.2108 C   0  0  0  0  0  0  0  0  0  0  0  0
    6.4375    0.2130    1.6308 C   0  0  0  0  0  0  0  0  0  0  0  0
    5.8355   -1.0444    1.7509 C   0  0  0  0  0  0  0  0  0  0  0  0
    4.4822   -1.2110    1.4497 C   0  0  0  0  0  0  0  0  0  0  0  0
    3.7211   -0.1195    1.0135 C   0  0  0  0  0  0  0  0  0  0  0  0
    2.3049   -0.2547    0.6915 C   0  0  0  0  0  0  0  0  0  0  0  0
    1.3328    0.4726    1.2142 N   0  0  0  0  0  0  0  0  0  0  0  0
    0.1431    0.0653    0.6687 N   0  0  0  0  0  0  0  0  0  0  0  0
    0.4051   -0.8857   -0.1963 C   0  0  0  0  0  0  0  0  0  0  0  0
   -0.7459   -1.7235   -1.1716 S   0  0  0  0  0  0  0  0  0  0  0  0
   -2.3279   -1.1650   -0.4178 C   0  0  0  0  0  0  0  0  0  0  0  0
   -3.3893   -1.0673   -1.5248 C   0  0  0  0  0  0  0  0  0  0  0  0
   -3.7433   -2.0526   -2.1785 O   0  0  0  0  0  0  0  0  0  0  0  0
   -4.0319    0.2308   -1.7782 C   0  0  0  0  0  0  0  0  0  0  0  0
   -5.3448    0.3374   -2.1995 C   0  0  0  0  0  0  0  0  0  0  0  0
   -5.6632    1.6595   -2.3181 N   0  0  0  0  0  0  0  0  0  0  0  0
   -4.5752    2.4382   -2.0220 C   0  0  0  0  0  0  0  0  0  0  0  0
   -4.4512    3.8345   -2.0304 C   0  0  0  0  0  0  0  0  0  0  0  0
   -3.2047    4.3782   -1.7183 C   0  0  0  0  0  0  0  0  0  0  0  0
   -2.1272    3.5530   -1.4162 C   0  0  0  0  0  0  0  0  0  0  0  0
   -2.2709    2.1585   -1.4060 C   0  0  0  0  0  0  0  0  0  0  0  0
   -3.5235    1.5742   -1.6981 C   0  0  0  0  0  0  0  0  0  0  0  0
   -2.7353   -2.0729    0.7382 C   0  0  0  0  0  0  0  0  0  0  0  0
   -2.5834   -1.6101    2.0583 C   0  0  0  0  0  0  0  0  0  0  0  0
   -2.9425   -2.4116    3.1455 C   0  0  0  0  0  0  0  0  0  0  0  0
   -3.4524   -3.6904    2.9309 C   0  0  0  0  0  0  0  0  0  0  0  0
   -3.5953   -4.1704    1.6291 C   0  0  0  0  0  0  0  0  0  0  0  0
   -3.2305   -3.3730    0.5406 C   0  0  0  0  0  0  0  0  0  0  0  0
    1.7526   -1.1107   -0.2405 N   0  0  0  0  0  0  0  0  0  0  0  0
    2.4564   -2.0312   -1.0979 C   0  0  0  0  0  0  0  0  0  0  0  0
    4.3320    1.1384    0.9101 C   0  0  0  0  0  0  0  0  0  0  0  0
    8.1847    2.2433    0.7249 H   0  0  0  0  0  0  0  0  0  0  0  0
    7.7040    2.6567    2.4172 H   0  0  0  0  0  0  0  0  0  0  0  0
    7.7185    3.8867    1.1581 H   0  0  0  0  0  0  0  0  0  0  0  0
    7.4919    0.3009    1.8754 H   0  0  0  0  0  0  0  0  0  0  0  0
    6.4233   -1.8925    2.0846 H   0  0  0  0  0  0  0  0  0  0  0  0
    4.0269   -2.1895    1.5739 H   0  0  0  0  0  0  0  0  0  0  0  0
   -2.1924   -0.1604   -0.0130 H   0  0  0  0  0  0  0  0  0  0  0  0
   -6.0783   -0.4314   -2.4047 H   0  0  0  0  0  0  0  0  0  0  0  0
   -6.5602    2.0202   -2.5992 H   0  0  0  0  0  0  0  0  0  0  0  0
   -5.2894    4.4798   -2.2767 H   0  0  0  0  0  0  0  0  0  0  0  0
   -3.0735    5.4589   -1.7178 H   0  0  0  0  0  0  0  0  0  0  0  0
   -1.1588    3.9900   -1.1814 H   0  0  0  0  0  0  0  0  0  0  0  0
   -1.3993    1.5553   -1.1746 H   0  0  0  0  0  0  0  0  0  0  0  0
   -2.1707   -0.6194    2.2516 H   0  0  0  0  0  0  0  0  0  0  0  0
   -2.8206   -2.0351    4.1553 H   0  0  0  0  0  0  0  0  0  0  0  0
   -3.7348   -4.3122    3.7722 H   0  0  0  0  0  0  0  0  0  0  0  0
   -3.9961   -5.1686    1.4581 H   0  0  0  0  0  0  0  0  0  0  0  0
   -3.3442   -3.7817   -0.4625 H   0  0  0  0  0  0  0  0  0  0  0  0
    1.9868   -2.0570   -2.0847 H   0  0  0  0  0  0  0  0  0  0  0  0
    2.4231   -3.0185   -0.6292 H   0  0  0  0  0  0  0  0  0  0  0  0
    3.4937   -1.7026   -1.2221 H   0  0  0  0  0  0  0  0  0  0  0  0
    3.7492    1.9966    0.5906 H   0  0  0  0  0  0  0  0  0  0  0  0
  1  2  1  0
  2  3  1  0
  3  4  2  0
  4  5  1  0
  5  6  2  0
  6  7  1  0
  7  8  1  0
  8  9  2  0
  9 10  1  0
 10 11  2  0
 11 12  1  0
 12 13  1  0
 13 14  1  0
 14 15  2  0
 14 16  1  0
 16 17  2  0
 17 18  1  0
 18 19  1  0
 19 20  2  0
 20 21  1  0
 21 22  2  0
 22 23  1  0
 23 24  2  0
 13 25  1  0
 25 26  2  0
 26 27  1  0
 27 28  2  0
 28 29  1  0
 29 30  2  0
 11 31  1  0
 31 32  1  0
  7 33  2  0
 33  3  1  0
 31  8  1  0
 24 16  1  0
 30 25  1  0
 24 19  1  0
  1 34  1  0
  1 35  1  0
  1 36  1  0
  4 37  1  0
  5 38  1  0
  6 39  1  0
 13 40  1  0
 17 41  1  0
 18 42  1  0
 20 43  1  0
 21 44  1  0
 22 45  1  0
 23 46  1  0
 26 47  1  0
 27 48  1  0
 28 49  1  0
 29 50  1  0
 30 51  1  0
 32 52  1  0
 32 53  1  0
 32 54  1  0
 33 55  1  0
M  END
$$$$
