
     RDKit          3D

 41 42  0  0  0  0  0  0  0  0999 V2000
    7.1612    0.9141   -1.4521 C   0  0  0  0  0  0  0  0  0  0  0  0
    6.0255    0.1188   -1.1066 O   0  0  0  0  0  0  0  0  0  0  0  0
    5.1386    0.7406   -0.2783 C   0  0  0  0  0  0  0  0  0  0  0  0
    5.2708    1.8858    0.1399 O   0  0  0  0  0  0  0  0  0  0  0  0
    4.0352   -0.1540    0.0252 C   0  0  0  0  0  0  0  0  0  0  0  0
    3.8905   -1.4866   -0.3348 C   0  0  0  0  0  0  0  0  0  0  0  0
    2.6975   -1.9678    0.2340 C   0  0  0  0  0  0  0  0  0  0  0  0
    2.1048   -0.9389    0.9503 C   0  0  0  0  0  0  0  0  0  0  0  0
    0.6196   -0.9529    1.9269 S   0  0  0  0  0  6  0  0  0  0  0  0
    0.2000   -2.3373    1.9612 O   0  0  0  0  0  0  0  0  0  0  0  0
    0.9165   -0.1927    3.1197 O   0  0  0  0  0  0  0  0  0  0  0  0
   -0.5326   -0.1270    1.0136 N   0  0  0  0  0  0  0  0  0  0  0  0
   -1.7781    0.1515    1.7561 C   0  0  0  0  0  0  0  0  0  0  0  0
   -2.9824   -0.0296    0.8662 C   0  0  0  0  0  0  0  0  0  0  0  0
   -3.5492   -1.2992    0.7065 C   0  0  0  0  0  0  0  0  0  0  0  0
   -4.6409   -1.4817   -0.1463 C   0  0  0  0  0  0  0  0  0  0  0  0
   -5.1669   -0.4102   -0.8693 C   0  0  0  0  0  0  0  0  0  0  0  0
   -6.2287   -0.7248   -1.6740 O   0  0  0  0  0  0  0  0  0  0  0  0
   -6.6231    0.2615   -2.6201 C   0  0  0  0  0  0  0  0  0  0  0  0
   -4.6054    0.8557   -0.7143 C   0  0  0  0  0  0  0  0  0  0  0  0
   -3.5147    1.0449    0.1435 C   0  0  0  0  0  0  0  0  0  0  0  0
    2.9027    0.1780    0.7627 N   0  0  0  0  0  0  0  0  0  0  0  0
    2.6205    1.5080    1.2657 C   0  0  0  0  0  0  0  0  0  0  0  0
    7.7938    1.0745   -0.5715 H   0  0  0  0  0  0  0  0  0  0  0  0
    6.8511    1.8695   -1.8893 H   0  0  0  0  0  0  0  0  0  0  0  0
    7.7425    0.3699   -2.2015 H   0  0  0  0  0  0  0  0  0  0  0  0
    4.5961   -2.0567   -0.9291 H   0  0  0  0  0  0  0  0  0  0  0  0
    2.3066   -2.9787    0.1666 H   0  0  0  0  0  0  0  0  0  0  0  0
   -0.7249   -0.6765    0.1705 H   0  0  0  0  0  0  0  0  0  0  0  0
   -1.7391    1.1796    2.1369 H   0  0  0  0  0  0  0  0  0  0  0  0
   -1.8874   -0.5013    2.6290 H   0  0  0  0  0  0  0  0  0  0  0  0
   -3.1466   -2.1581    1.2414 H   0  0  0  0  0  0  0  0  0  0  0  0
   -5.0780   -2.4738   -0.2572 H   0  0  0  0  0  0  0  0  0  0  0  0
   -7.3864   -0.1843   -3.2723 H   0  0  0  0  0  0  0  0  0  0  0  0
   -7.0707    1.1291   -2.1198 H   0  0  0  0  0  0  0  0  0  0  0  0
   -5.7833    0.5633   -3.2561 H   0  0  0  0  0  0  0  0  0  0  0  0
   -4.9956    1.7194   -1.2398 H   0  0  0  0  0  0  0  0  0  0  0  0
   -3.0857    2.0391    0.2450 H   0  0  0  0  0  0  0  0  0  0  0  0
    2.8856    2.2443    0.5011 H   0  0  0  0  0  0  0  0  0  0  0  0
    1.5560    1.6253    1.4654 H   0  0  0  0  0  0  0  0  0  0  0  0
    3.2048    1.6592    2.1775 H   0  0  0  0  0  0  0  0  0  0  0  0
  1  2  1  0
  2  3  1  0
  3  4  2  0
  3  5  1  0
  5  6  2  0
  6  7  1  0
  7  8  2  0
  8  9  1  0
  9 10  2  0
  9 11  2  0
  9 12  1  0
 12 13  1  0
 13 14  1  0
 14 15  2  0
 15 16  1  0
 16 17  2  0
 17 18  1  0
 18 19  1  0
 17 20  1  0
 20 21  2  0
  8 22  1  0
 22 23  1  0
 22  5  1  0
 21 14  1  0
  1 24  1  0
  1 25  1  0
  1 26  1  0
  6 27  1  0
  7 28  1  0
 12 29  1  0
 13 30  1  0
 13 31  1  0
 15 32  1  0
 16 33  1  0
 19 34  1  0
 19 35  1  0
 19 36  1  0
 20 37  1  0
 21 38  1  0
 23 39  1  0
 23 40  1  0
 23 41  1  0
M  END
$$$$
