
     RDKit          3D

 33 34  0  0  0  0  0  0  0  0999 V2000
   -4.2589    0.1097   -2.6711 C   0  0  0  0  0  0  0  0  0  0  0  0
   -3.2632    0.0631   -1.5498 C   0  0  0  0  0  0  0  0  0  0  0  0
   -3.2772    1.0344   -0.5427 C   0  0  0  0  0  0  0  0  0  0  0  0
   -2.3745    0.9675    0.5217 C   0  0  0  0  0  0  0  0  0  0  0  0
   -1.4508   -0.0769    0.5883 C   0  0  0  0  0  0  0  0  0  0  0  0
   -0.6013   -0.1470    1.6569 O   0  0  0  0  0  0  0  0  0  0  0  0
   -1.4198   -1.0529   -0.4119 C   0  0  0  0  0  0  0  0  0  0  0  0
   -0.4721   -2.1989   -0.4019 C   0  0  0  0  0  0  0  0  0  0  0  0
   -0.8868   -3.3082   -0.7435 O   0  0  0  0  0  0  0  0  0  0  0  0
    0.9531   -2.0031    0.0555 C   0  0  0  0  0  0  0  0  0  0  0  0
    1.6149   -0.7561   -0.4776 C   0  0  0  0  0  0  0  0  0  0  0  0
    1.4416   -0.3530   -1.6269 O   0  0  0  0  0  0  0  0  0  0  0  0
    2.4662    0.0533    0.4282 C   0  0  0  0  0  0  0  0  0  0  0  0
    2.2251    1.4376    0.4341 C   0  0  0  0  0  0  0  0  0  0  0  0
    2.9599    2.2810    1.2677 C   0  0  0  0  0  0  0  0  0  0  0  0
    3.9474    1.7499    2.0932 C   0  0  0  0  0  0  0  0  0  0  0  0
    4.2091    0.3784    2.0744 C   0  0  0  0  0  0  0  0  0  0  0  0
    3.4769   -0.4742    1.2386 C   0  0  0  0  0  0  0  0  0  0  0  0
    3.9353   -2.1378    1.2232 Cl  0  0  0  0  0  0  0  0  0  0  0  0
   -2.3414   -0.9886   -1.4674 C   0  0  0  0  0  0  0  0  0  0  0  0
   -4.5544    1.1414   -2.8890 H   0  0  0  0  0  0  0  0  0  0  0  0
   -5.1512   -0.4643   -2.4030 H   0  0  0  0  0  0  0  0  0  0  0  0
   -3.8315   -0.3062   -3.5895 H   0  0  0  0  0  0  0  0  0  0  0  0
   -3.9980    1.8491   -0.5799 H   0  0  0  0  0  0  0  0  0  0  0  0
   -2.4147    1.7351    1.2889 H   0  0  0  0  0  0  0  0  0  0  0  0
   -0.8592    0.5274    2.3094 H   0  0  0  0  0  0  0  0  0  0  0  0
    1.5347   -2.8527   -0.3218 H   0  0  0  0  0  0  0  0  0  0  0  0
    0.9689   -2.0406    1.1483 H   0  0  0  0  0  0  0  0  0  0  0  0
    1.4587    1.8591   -0.2151 H   0  0  0  0  0  0  0  0  0  0  0  0
    2.7663    3.3512    1.2659 H   0  0  0  0  0  0  0  0  0  0  0  0
    4.5264    2.4049    2.7404 H   0  0  0  0  0  0  0  0  0  0  0  0
    5.0006   -0.0193    2.7063 H   0  0  0  0  0  0  0  0  0  0  0  0
   -2.3303   -1.7633   -2.2334 H   0  0  0  0  0  0  0  0  0  0  0  0
  1  2  1  0
  2  3  2  0
  3  4  1  0
  4  5  2  0
  5  6  1  0
  5  7  1  0
  7  8  1  0
  8  9  2  0
  8 10  1  0
 10 11  1  0
 11 12  2  0
 11 13  1  0
 13 14  2  0
 14 15  1  0
 15 16  2  0
 16 17  1  0
 17 18  2  0
 18 19  1  0
  7 20  2  0
 20  2  1  0
 18 13  1  0
  1 21  1  0
  1 22  1  0
  1 23  1  0
  3 24  1  0
  4 25  1  0
  6 26  1  0
 10 27  1  0
 10 28  1  0
 14 29  1  0
 15 30  1  0
 16 31  1  0
 17 32  1  0
 20 33  1  0
M  END
$$$$
