
     RDKit          3D

 57 59  0  0  0  0  0  0  0  0999 V2000
    7.8220    1.3803   -4.5886 C   0  0  0  0  0  0  0  0  0  0  0  0
    8.3164    1.5084   -3.2613 O   0  0  0  0  0  0  0  0  0  0  0  0
    7.4454    1.2160   -2.2483 C   0  0  0  0  0  0  0  0  0  0  0  0
    6.1727    0.6635   -2.3984 C   0  0  0  0  0  0  0  0  0  0  0  0
    5.3726    0.4207   -1.2752 C   0  0  0  0  0  0  0  0  0  0  0  0
    5.8362    0.7316    0.0061 C   0  0  0  0  0  0  0  0  0  0  0  0
    5.1397    0.5467    1.1711 O   0  0  0  0  0  0  0  0  0  0  0  0
    3.7183    0.4042    1.0316 C   0  0  0  0  0  0  0  0  0  0  0  0
    3.0873    0.4722    2.4242 C   0  0  0  0  0  0  0  0  0  0  0  0
    1.2782    0.7372    2.3295 S   0  0  0  0  0  0  0  0  0  0  0  0
    0.7644   -0.7911    1.7124 C   0  0  0  0  0  0  0  0  0  0  0  0
    1.2505   -1.9592    2.0654 N   0  0  0  0  0  0  0  0  0  0  0  0
    0.5575   -2.9272    1.3826 N   0  0  0  0  0  0  0  0  0  0  0  0
   -0.3413   -2.3287    0.6297 C   0  0  0  0  0  0  0  0  0  0  0  0
   -1.3105   -3.0273   -0.2593 C   0  0  0  0  0  0  0  0  0  0  0  0
   -2.5920   -3.4142    0.4841 C   0  0  0  0  0  0  0  0  0  0  0  0
   -3.4580   -2.2962    0.8218 N   0  0  0  0  0  0  0  0  0  0  0  0
   -4.1701   -1.6386   -0.1624 C   0  0  0  0  0  0  0  0  0  0  0  0
   -3.9878   -1.8277   -1.3638 O   0  0  0  0  0  0  0  0  0  0  0  0
   -5.2153   -0.6816    0.2923 C   0  0  0  0  0  0  0  0  0  0  0  0
   -5.1228    0.0101    1.5065 C   0  0  0  0  0  0  0  0  0  0  0  0
   -6.1391    0.8990    1.8911 C   0  0  0  0  0  0  0  0  0  0  0  0
   -7.2455    1.1028    1.0626 C   0  0  0  0  0  0  0  0  0  0  0  0
   -8.3095    1.9173    1.3386 O   0  0  0  0  0  0  0  0  0  0  0  0
   -8.1116    2.9105    2.3422 C   0  0  0  0  0  0  0  0  0  0  0  0
   -7.3346    0.4142   -0.1504 C   0  0  0  0  0  0  0  0  0  0  0  0
   -6.3184   -0.4636   -0.5438 C   0  0  0  0  0  0  0  0  0  0  0  0
   -0.2341   -0.9624    0.8008 N   0  0  0  0  0  0  0  0  0  0  0  0
   -0.9784    0.0828    0.1261 C   0  0  0  0  0  0  0  0  0  0  0  0
    7.1188    1.2548    0.1552 C   0  0  0  0  0  0  0  0  0  0  0  0
    7.9163    1.4999   -0.9654 C   0  0  0  0  0  0  0  0  0  0  0  0
    8.6164    1.6913   -5.2780 H   0  0  0  0  0  0  0  0  0  0  0  0
    7.5746    0.3368   -4.8180 H   0  0  0  0  0  0  0  0  0  0  0  0
    6.9585    2.0398   -4.7571 H   0  0  0  0  0  0  0  0  0  0  0  0
    5.7754    0.3924   -3.3771 H   0  0  0  0  0  0  0  0  0  0  0  0
    4.3970   -0.0289   -1.4368 H   0  0  0  0  0  0  0  0  0  0  0  0
    3.3267    1.2209    0.4116 H   0  0  0  0  0  0  0  0  0  0  0  0
    3.4926   -0.5623    0.5627 H   0  0  0  0  0  0  0  0  0  0  0  0
    3.5172    1.3114    2.9797 H   0  0  0  0  0  0  0  0  0  0  0  0
    3.3284   -0.4280    3.0022 H   0  0  0  0  0  0  0  0  0  0  0  0
   -0.8329   -3.9515   -0.6107 H   0  0  0  0  0  0  0  0  0  0  0  0
   -1.5207   -2.4389   -1.1581 H   0  0  0  0  0  0  0  0  0  0  0  0
   -2.3517   -3.9242    1.4157 H   0  0  0  0  0  0  0  0  0  0  0  0
   -3.1769   -4.1019   -0.1273 H   0  0  0  0  0  0  0  0  0  0  0  0
   -3.8190   -2.2741    1.7654 H   0  0  0  0  0  0  0  0  0  0  0  0
   -4.2612   -0.1141    2.1590 H   0  0  0  0  0  0  0  0  0  0  0  0
   -6.0408    1.4093    2.8446 H   0  0  0  0  0  0  0  0  0  0  0  0
   -7.9425    2.4578    3.3283 H   0  0  0  0  0  0  0  0  0  0  0  0
   -9.0277    3.5123    2.4094 H   0  0  0  0  0  0  0  0  0  0  0  0
   -7.2885    3.5747    2.0722 H   0  0  0  0  0  0  0  0  0  0  0  0
   -8.1957    0.5658   -0.8004 H   0  0  0  0  0  0  0  0  0  0  0  0
   -6.3978   -0.9857   -1.4962 H   0  0  0  0  0  0  0  0  0  0  0  0
   -1.4730   -0.3046   -0.7766 H   0  0  0  0  0  0  0  0  0  0  0  0
   -1.7120    0.4784    0.8261 H   0  0  0  0  0  0  0  0  0  0  0  0
   -0.2850    0.8784   -0.1810 H   0  0  0  0  0  0  0  0  0  0  0  0
    7.5016    1.4800    1.1427 H   0  0  0  0  0  0  0  0  0  0  0  0
    8.9102    1.9102   -0.8385 H   0  0  0  0  0  0  0  0  0  0  0  0
  1  2  1  0
  2  3  1  0
  3  4  2  0
  4  5  1  0
  5  6  2  0
  6  7  1  0
  7  8  1  0
  8  9  1  0
  9 10  1  0
 10 11  1  0
 11 12  2  0
 12 13  1  0
 13 14  2  0
 14 15  1  0
 15 16  1  0
 16 17  1  0
 17 18  1  0
 18 19  2  0
 18 20  1  0
 20 21  2  0
 21 22  1  0
 22 23  2  0
 23 24  1  0
 24 25  1  0
 23 26  1  0
 26 27  2  0
 14 28  1  0
 28 29  1  0
  6 30  1  0
 30 31  2  0
 31  3  1  0
 28 11  1  0
 27 20  1  0
  1 32  1  0
  1 33  1  0
  1 34  1  0
  4 35  1  0
  5 36  1  0
  8 37  1  0
  8 38  1  0
  9 39  1  0
  9 40  1  0
 15 41  1  0
 15 42  1  0
 16 43  1  0
 16 44  1  0
 17 45  1  0
 21 46  1  0
 22 47  1  0
 25 48  1  0
 25 49  1  0
 25 50  1  0
 26 51  1  0
 27 52  1  0
 29 53  1  0
 29 54  1  0
 29 55  1  0
 30 56  1  0
 31 57  1  0
M  END
$$$$
