
     RDKit          3D

 56 61  0  0  0  0  0  0  0  0999 V2000
    0.6475    1.3773    2.8110 O   0  0  0  0  0  0  0  0  0  0  0  0
    0.5238    2.0223    1.7806 C   0  0  0  0  0  0  0  0  0  0  0  0
    0.3167    3.4024    1.7196 N   0  0  0  0  0  0  0  0  0  0  0  0
    0.3250    3.8553    0.4065 C   0  0  0  0  0  0  0  0  0  0  0  0
    0.1839    5.1582   -0.0218 C   0  0  0  0  0  0  0  0  0  0  0  0
    0.2364    5.3898   -1.3985 C   0  0  0  0  0  0  0  0  0  0  0  0
    0.4315    4.3282   -2.3013 C   0  0  0  0  0  0  0  0  0  0  0  0
    0.5746    3.0152   -1.8436 C   0  0  0  0  0  0  0  0  0  0  0  0
    0.5123    2.7880   -0.4779 C   0  0  0  0  0  0  0  0  0  0  0  0
    0.6173    1.5184    0.3117 C   0  0  0  0  0  0  0  0  0  0  0  0
    1.8550    0.7198    0.0658 N   0  0  0  0  0  0  0  0  0  0  0  0
    1.4868   -0.7397    0.0027 C   0  0  2  0  0  0  0  0  0  0  0  0
    2.2857   -1.4599   -1.0925 C   0  0  0  0  0  0  0  0  0  0  0  0
    3.7441   -1.6384   -0.7353 C   0  0  0  0  0  0  0  0  0  0  0  0
    4.6956   -0.6964   -1.1487 C   0  0  0  0  0  0  0  0  0  0  0  0
    6.0392   -0.8502   -0.8049 C   0  0  0  0  0  0  0  0  0  0  0  0
    6.4436   -1.9445   -0.0430 C   0  0  0  0  0  0  0  0  0  0  0  0
    5.5048   -2.8848    0.3776 C   0  0  0  0  0  0  0  0  0  0  0  0
    4.1602   -2.7328    0.0351 C   0  0  0  0  0  0  0  0  0  0  0  0
    0.0261   -0.6900   -0.2499 C   0  0  0  0  0  0  0  0  0  0  0  0
   -0.4719    0.6084   -0.0758 C   0  0  0  0  0  0  0  0  0  0  0  0
   -1.8182    0.5991   -0.3353 C   0  0  0  0  0  0  0  0  0  0  0  0
   -2.7306    1.5632   -0.3545 O   0  0  0  0  0  0  0  0  0  0  0  0
   -2.1514   -0.7170   -0.6151 N   0  0  0  0  0  0  0  0  0  0  0  0
   -3.4902   -1.1848   -0.9521 C   0  0  0  0  0  0  0  0  0  0  0  0
   -4.2514   -1.6410    0.2687 C   0  0  0  0  0  0  0  0  0  0  0  0
   -4.2141   -2.9836    0.6725 C   0  0  0  0  0  0  0  0  0  0  0  0
   -4.9135   -3.4037    1.8051 C   0  0  0  0  0  0  0  0  0  0  0  0
   -5.6533   -2.4862    2.5486 C   0  0  0  0  0  0  0  0  0  0  0  0
   -5.6913   -1.1476    2.1632 C   0  0  0  0  0  0  0  0  0  0  0  0
   -4.9926   -0.7262    1.0307 C   0  0  0  0  0  0  0  0  0  0  0  0
   -1.0170   -1.5146   -0.5817 C   0  0  0  0  0  0  0  0  0  0  0  0
   -1.0834   -2.8154   -0.8352 O   0  0  0  0  0  0  0  0  0  0  0  0
    0.2405    3.9783    2.5446 H   0  0  0  0  0  0  0  0  0  0  0  0
    0.0420    5.9776    0.6735 H   0  0  0  0  0  0  0  0  0  0  0  0
    0.1314    6.4032   -1.7802 H   0  0  0  0  0  0  0  0  0  0  0  0
    0.4744    4.5324   -3.3694 H   0  0  0  0  0  0  0  0  0  0  0  0
    0.7281    2.1942   -2.5380 H   0  0  0  0  0  0  0  0  0  0  0  0
    2.4873    0.8464    0.8556 H   0  0  0  0  0  0  0  0  0  0  0  0
    1.6620   -1.1942    0.9864 H   0  0  0  0  0  0  0  0  0  0  0  0
    2.2010   -0.9276   -2.0502 H   0  0  0  0  0  0  0  0  0  0  0  0
    1.8574   -2.4526   -1.2832 H   0  0  0  0  0  0  0  0  0  0  0  0
    4.3907    0.1677   -1.7358 H   0  0  0  0  0  0  0  0  0  0  0  0
    6.7694   -0.1139   -1.1302 H   0  0  0  0  0  0  0  0  0  0  0  0
    7.4901   -2.0633    0.2248 H   0  0  0  0  0  0  0  0  0  0  0  0
    5.8205   -3.7368    0.9741 H   0  0  0  0  0  0  0  0  0  0  0  0
    3.4416   -3.4750    0.3745 H   0  0  0  0  0  0  0  0  0  0  0  0
   -2.2683    2.4077   -0.2058 H   0  0  0  0  0  0  0  0  0  0  0  0
   -3.3959   -1.9963   -1.6832 H   0  0  0  0  0  0  0  0  0  0  0  0
   -4.0220   -0.3734   -1.4628 H   0  0  0  0  0  0  0  0  0  0  0  0
   -3.6300   -3.7076    0.1079 H   0  0  0  0  0  0  0  0  0  0  0  0
   -4.8755   -4.4460    2.1098 H   0  0  0  0  0  0  0  0  0  0  0  0
   -6.1941   -2.8128    3.4326 H   0  0  0  0  0  0  0  0  0  0  0  0
   -6.2596   -0.4290    2.7475 H   0  0  0  0  0  0  0  0  0  0  0  0
   -5.0203    0.3242    0.7474 H   0  0  0  0  0  0  0  0  0  0  0  0
   -0.2020   -3.1918   -0.6721 H   0  0  0  0  0  0  0  0  0  0  0  0
  1  2  2  0
  2  3  1  0
  3  4  1  0
  4  5  2  0
  5  6  1  0
  6  7  2  0
  7  8  1  0
  8  9  2  0
  9 10  1  0
 10 11  1  0
 11 12  1  0
 12 13  1  0
 13 14  1  0
 14 15  2  0
 15 16  1  0
 16 17  2  0
 17 18  1  0
 18 19  2  0
 12 20  1  0
 20 21  1  0
 21 22  2  0
 22 23  1  0
 22 24  1  0
 24 25  1  0
 25 26  1  0
 26 27  2  0
 27 28  1  0
 28 29  2  0
 29 30  1  0
 30 31  2  0
 24 32  1  0
 32 33  1  0
 10  2  1  0
 19 14  1  0
 32 20  2  0
  9  4  1  0
 21 10  1  0
 31 26  1  0
  3 34  1  0
  5 35  1  0
  6 36  1  0
  7 37  1  0
  8 38  1  0
 11 39  1  0
 12 40  1  1
 13 41  1  0
 13 42  1  0
 15 43  1  0
 16 44  1  0
 17 45  1  0
 18 46  1  0
 19 47  1  0
 23 48  1  0
 25 49  1  0
 25 50  1  0
 27 51  1  0
 28 52  1  0
 29 53  1  0
 30 54  1  0
 31 55  1  0
 33 56  1  0
M  END
$$$$
