
     RDKit          3D

 36 37  0  0  0  0  0  0  0  0999 V2000
    0.8909    0.1797    0.2550 O   0  0  0  0  0  0  0  0  0  0  0  0
    0.6937    0.2886   -0.9547 C   0  0  0  0  0  0  0  0  0  0  0  0
   -0.6884    0.3637   -1.5977 C   0  0  0  0  0  0  0  0  0  0  0  0
   -1.7027    0.2736   -0.6004 O   0  0  0  0  0  0  0  0  0  0  0  0
   -2.9612    0.3143   -1.0953 C   0  0  0  0  0  0  0  0  0  0  0  0
   -3.2542    0.4224   -2.2755 O   0  0  0  0  0  0  0  0  0  0  0  0
   -3.9607    0.2064    0.0022 C   0  0  0  0  0  0  0  0  0  0  0  0
   -3.5881    0.0924    1.3497 C   0  0  0  0  0  0  0  0  0  0  0  0
   -4.5669   -0.0079    2.3435 C   0  0  0  0  0  0  0  0  0  0  0  0
   -5.9161    0.0053    1.9921 C   0  0  0  0  0  0  0  0  0  0  0  0
   -7.2366   -0.1334    3.3371 Br  0  0  0  0  0  0  0  0  0  0  0  0
   -6.2984    0.1191    0.6564 C   0  0  0  0  0  0  0  0  0  0  0  0
   -5.3211    0.2196   -0.3379 C   0  0  0  0  0  0  0  0  0  0  0  0
    1.7401    0.3318   -1.8586 N   0  0  0  0  0  0  0  0  0  0  0  0
    3.1117    0.4081   -1.3847 C   0  0  0  0  0  0  0  0  0  0  0  0
    3.5763   -0.8705   -0.6689 C   0  0  0  0  0  0  0  0  0  0  0  0
    4.4076   -0.5734    0.4787 N   0  0  0  0  0  0  0  0  0  0  0  0
    3.9642   -0.4718    1.7760 C   0  0  0  0  0  0  0  0  0  0  0  0
    2.6518   -0.6288    2.1081 O   0  0  0  0  0  0  0  0  0  0  0  0
    4.9228   -0.2070    2.6685 C   0  0  0  0  0  0  0  0  0  0  0  0
    6.4732   -0.0321    1.9075 S   0  0  0  0  0  0  0  0  0  0  0  0
    5.7644   -0.3299    0.3124 C   0  0  0  0  0  0  0  0  0  0  0  0
    6.3928   -0.3001   -0.7337 O   0  0  0  0  0  0  0  0  0  0  0  0
   -0.7818   -0.4714   -2.3017 H   0  0  0  0  0  0  0  0  0  0  0  0
   -0.7675    1.3221   -2.1234 H   0  0  0  0  0  0  0  0  0  0  0  0
   -2.5404    0.0788    1.6430 H   0  0  0  0  0  0  0  0  0  0  0  0
   -4.2655   -0.0973    3.3845 H   0  0  0  0  0  0  0  0  0  0  0  0
   -7.3495    0.1292    0.3779 H   0  0  0  0  0  0  0  0  0  0  0  0
   -5.6264    0.3076   -1.3793 H   0  0  0  0  0  0  0  0  0  0  0  0
    1.5502    0.5898   -2.8206 H   0  0  0  0  0  0  0  0  0  0  0  0
    3.7488    0.6052   -2.2534 H   0  0  0  0  0  0  0  0  0  0  0  0
    3.1748    1.2797   -0.7219 H   0  0  0  0  0  0  0  0  0  0  0  0
    4.1636   -1.4698   -1.3764 H   0  0  0  0  0  0  0  0  0  0  0  0
    2.7462   -1.5128   -0.3564 H   0  0  0  0  0  0  0  0  0  0  0  0
    2.0848   -0.3360    1.3617 H   0  0  0  0  0  0  0  0  0  0  0  0
    4.7674   -0.0949    3.7320 H   0  0  0  0  0  0  0  0  0  0  0  0
  1  2  2  0
  2  3  1  0
  3  4  1  0
  4  5  1  0
  5  6  2  0
  5  7  1  0
  7  8  2  0
  8  9  1  0
  9 10  2  0
 10 11  1  0
 10 12  1  0
 12 13  2  0
  2 14  1  0
 14 15  1  0
 15 16  1  0
 16 17  1  0
 17 18  1  0
 18 19  1  0
 18 20  2  0
 20 21  1  0
 21 22  1  0
 22 23  2  0
 13  7  1  0
 22 17  1  0
  3 24  1  0
  3 25  1  0
  8 26  1  0
  9 27  1  0
 12 28  1  0
 13 29  1  0
 14 30  1  0
 15 31  1  0
 15 32  1  0
 16 33  1  0
 16 34  1  0
 19 35  1  0
 20 36  1  0
M  END
$$$$
