
     RDKit          3D

130132  0  0  0  0  0  0  0  0999 V2000
    2.1995    4.5580   -0.9695 C   0  0  0  0  0  0  0  0  0  0  0  0
    2.4519    3.5031   -2.0442 C   0  0  0  0  0  0  0  0  0  0  0  0
    1.4298    2.3464   -2.0217 C   0  0  0  0  0  0  0  0  0  0  0  0
    0.0275    2.8601   -2.2985 C   0  0  0  0  0  0  0  0  0  0  0  0
   -1.0363    2.8264   -1.4799 C   0  0  0  0  0  0  0  0  0  0  0  0
   -1.0802    2.2187   -0.1689 C   0  0  0  0  0  0  0  0  0  0  0  0
   -1.9695    2.4904    0.8007 C   0  0  0  0  0  0  0  0  0  0  0  0
   -3.0442    3.5435    0.7911 C   0  0  0  0  0  0  0  0  0  0  0  0
   -4.4569    2.9939    0.4861 C   0  0  0  0  0  0  0  0  0  0  0  0
   -5.1555    3.9549   -0.4969 C   0  0  0  0  0  0  0  0  0  0  0  0
   -5.3905    2.7768    1.7122 C   0  0  0  0  0  0  0  0  0  0  0  0
   -5.4302    3.9745    2.4977 O   0  0  0  0  0  0  0  0  0  0  0  0
   -5.0790    1.5606    2.6231 C   0  0  0  0  0  0  0  0  0  0  0  0
   -6.0414    1.4956    3.8187 C   0  0  0  0  0  0  0  0  0  0  0  0
   -3.7871    1.7485    3.2127 O   0  0  0  0  0  0  0  0  0  0  0  0
   -5.1316    0.2291    1.8289 C   0  0  0  0  0  0  0  0  0  0  0  0
   -4.1072   -0.4565    1.6996 O   0  0  0  0  0  0  0  0  0  0  0  0
   -6.4743   -0.2449    1.2829 C   0  0  0  0  0  0  0  0  0  0  0  0
   -6.9283   -1.4870    2.0547 C   0  0  0  0  0  0  0  0  0  0  0  0
   -6.4736   -0.4281   -0.2520 C   0  0  0  0  0  0  0  0  0  0  0  0
   -7.8359   -0.6660   -0.6453 O   0  0  0  0  0  0  0  0  0  0  0  0
   -5.5470   -1.5586   -0.7983 C   0  0  0  0  0  0  0  0  0  0  0  0
   -6.2224   -2.4008   -1.8885 C   0  0  0  0  0  0  0  0  0  0  0  0
   -4.2431   -0.9755   -1.3670 C   0  0  0  0  0  0  0  0  0  0  0  0
   -4.1722    0.2241   -1.6624 O   0  0  0  0  0  0  0  0  0  0  0  0
   -3.0612   -1.9233   -1.6369 C   0  0  0  0  0  0  0  0  0  0  0  0
   -1.9481   -1.1771   -2.3855 C   0  0  0  0  0  0  0  0  0  0  0  0
   -2.5499   -2.6162   -0.3522 C   0  0  0  0  0  0  0  0  0  0  0  0
   -1.9611   -1.6435    0.5127 O   0  0  0  0  0  0  0  0  0  0  0  0
   -1.4928   -3.7354   -0.6069 C   0  0  0  0  0  0  0  0  0  0  0  0
   -1.9725   -4.7864   -1.6177 C   0  0  0  0  0  0  0  0  0  0  0  0
   -1.1460   -4.4625    0.6831 C   0  0  0  0  0  0  0  0  0  0  0  0
    0.0747   -4.7213    1.1817 C   0  0  0  0  0  0  0  0  0  0  0  0
    1.3750   -4.3342    0.5971 C   0  0  0  0  0  0  0  0  0  0  0  0
    2.2947   -5.1244    0.4606 O   0  0  0  0  0  0  0  0  0  0  0  0
    1.4051   -3.0106    0.3366 O   0  0  0  0  0  0  0  0  0  0  0  0
    2.6037   -2.4748   -0.2690 C   0  0  0  0  0  0  0  0  0  0  0  0
    2.1426   -1.4950   -1.3836 C   0  0  0  0  0  0  0  0  0  0  0  0
    1.9922   -2.2953   -2.6871 C   0  0  0  0  0  0  0  0  0  0  0  0
    3.1171   -0.3011   -1.4798 C   0  0  0  0  0  0  0  0  0  0  0  0
    3.0881    0.4934   -2.7952 C   0  0  0  0  0  0  0  0  0  0  0  0
    1.7736    1.2487   -3.0546 C   0  0  0  0  0  0  0  0  0  0  0  0
    4.4387   -0.8028   -1.2917 O   0  0  0  0  0  0  0  0  0  0  0  0
    4.7235   -1.1454    0.0789 C   0  0  0  0  0  0  0  0  0  0  0  0
    5.9237   -2.1036    0.0252 C   0  0  0  0  0  0  0  0  0  0  0  0
    7.1341   -1.4494   -0.6513 C   0  0  0  0  0  0  0  0  0  0  0  0
    7.1910    0.0685   -0.4025 C   0  0  0  0  0  0  0  0  0  0  0  0
    8.6460    0.5400   -0.4106 C   0  0  0  0  0  0  0  0  0  0  0  0
    6.4266    0.4138    0.8924 C   0  0  0  0  0  0  0  0  0  0  0  0
    6.4808    1.9070    1.2485 C   0  0  0  0  0  0  0  0  0  0  0  0
    5.5518    2.3282    2.3943 C   0  0  0  0  0  0  0  0  0  0  0  0
    5.8165    1.5911    3.7004 C   0  0  0  0  0  0  0  0  0  0  0  0
    5.7268    3.7274    2.6258 O   0  0  0  0  0  0  0  0  0  0  0  0
    5.0464    0.0475    0.8072 O   0  0  0  0  0  0  0  0  0  0  0  0
    3.4615   -1.7424    0.7751 C   0  0  0  0  0  0  0  0  0  0  0  0
    3.7834   -2.5874    2.0133 C   0  0  0  0  0  0  0  0  0  0  0  0
    3.0032    5.3026   -0.9760 H   0  0  0  0  0  0  0  0  0  0  0  0
    2.1739    4.1028    0.0265 H   0  0  0  0  0  0  0  0  0  0  0  0
    1.2538    5.0848   -1.1336 H   0  0  0  0  0  0  0  0  0  0  0  0
    2.4567    3.9896   -3.0256 H   0  0  0  0  0  0  0  0  0  0  0  0
    3.4631    3.1135   -1.8771 H   0  0  0  0  0  0  0  0  0  0  0  0
    1.4656    1.9020   -1.0232 H   0  0  0  0  0  0  0  0  0  0  0  0
   -0.1064    3.3421   -3.2653 H   0  0  0  0  0  0  0  0  0  0  0  0
   -1.9598    3.2853   -1.8323 H   0  0  0  0  0  0  0  0  0  0  0  0
   -0.3492    1.4414    0.0400 H   0  0  0  0  0  0  0  0  0  0  0  0
   -1.8498    1.9348    1.7275 H   0  0  0  0  0  0  0  0  0  0  0  0
   -3.0165    4.0600    1.7571 H   0  0  0  0  0  0  0  0  0  0  0  0
   -2.7692    4.3165    0.0631 H   0  0  0  0  0  0  0  0  0  0  0  0
   -4.3670    2.0422   -0.0404 H   0  0  0  0  0  0  0  0  0  0  0  0
   -5.2796    4.9552   -0.0656 H   0  0  0  0  0  0  0  0  0  0  0  0
   -4.5731    4.0480   -1.4227 H   0  0  0  0  0  0  0  0  0  0  0  0
   -6.1472    3.5785   -0.7726 H   0  0  0  0  0  0  0  0  0  0  0  0
   -6.4112    2.6541    1.3318 H   0  0  0  0  0  0  0  0  0  0  0  0
   -4.6528    3.9402    3.0877 H   0  0  0  0  0  0  0  0  0  0  0  0
   -5.8684    0.5817    4.3994 H   0  0  0  0  0  0  0  0  0  0  0  0
   -5.8785    2.3309    4.5098 H   0  0  0  0  0  0  0  0  0  0  0  0
   -7.0907    1.5031    3.5113 H   0  0  0  0  0  0  0  0  0  0  0  0
   -3.3219    0.8916    3.1312 H   0  0  0  0  0  0  0  0  0  0  0  0
   -7.2249    0.5282    1.4962 H   0  0  0  0  0  0  0  0  0  0  0  0
   -7.0655   -1.2514    3.1140 H   0  0  0  0  0  0  0  0  0  0  0  0
   -6.1960   -2.2986    2.0084 H   0  0  0  0  0  0  0  0  0  0  0  0
   -7.8844   -1.8647    1.6757 H   0  0  0  0  0  0  0  0  0  0  0  0
   -6.2095    0.5364   -0.7010 H   0  0  0  0  0  0  0  0  0  0  0  0
   -8.2619    0.1991   -0.7809 H   0  0  0  0  0  0  0  0  0  0  0  0
   -5.2815   -2.2249    0.0229 H   0  0  0  0  0  0  0  0  0  0  0  0
   -5.5653   -3.1973   -2.2495 H   0  0  0  0  0  0  0  0  0  0  0  0
   -6.4959   -1.7805   -2.7471 H   0  0  0  0  0  0  0  0  0  0  0  0
   -7.1225   -2.8927   -1.5039 H   0  0  0  0  0  0  0  0  0  0  0  0
   -3.4490   -2.6740   -2.3295 H   0  0  0  0  0  0  0  0  0  0  0  0
   -1.1469   -1.8542   -2.7009 H   0  0  0  0  0  0  0  0  0  0  0  0
   -1.5022   -0.3908   -1.7657 H   0  0  0  0  0  0  0  0  0  0  0  0
   -2.3409   -0.6973   -3.2866 H   0  0  0  0  0  0  0  0  0  0  0  0
   -3.3826   -3.0722    0.1948 H   0  0  0  0  0  0  0  0  0  0  0  0
   -2.6865   -1.1740    0.9803 H   0  0  0  0  0  0  0  0  0  0  0  0
   -0.5904   -3.2736   -1.0135 H   0  0  0  0  0  0  0  0  0  0  0  0
   -2.9521   -5.1948   -1.3399 H   0  0  0  0  0  0  0  0  0  0  0  0
   -1.2672   -5.6232   -1.6921 H   0  0  0  0  0  0  0  0  0  0  0  0
   -2.0519   -4.3606   -2.6238 H   0  0  0  0  0  0  0  0  0  0  0  0
   -1.9946   -4.8510    1.2428 H   0  0  0  0  0  0  0  0  0  0  0  0
    0.1742   -5.3259    2.0774 H   0  0  0  0  0  0  0  0  0  0  0  0
    3.2035   -3.2805   -0.7150 H   0  0  0  0  0  0  0  0  0  0  0  0
    1.1469   -1.1027   -1.1439 H   0  0  0  0  0  0  0  0  0  0  0  0
    2.9671   -2.6315   -3.0611 H   0  0  0  0  0  0  0  0  0  0  0  0
    1.5083   -1.7090   -3.4747 H   0  0  0  0  0  0  0  0  0  0  0  0
    1.3781   -3.1895   -2.5313 H   0  0  0  0  0  0  0  0  0  0  0  0
    2.9106    0.4056   -0.6686 H   0  0  0  0  0  0  0  0  0  0  0  0
    3.9316    1.1967   -2.8052 H   0  0  0  0  0  0  0  0  0  0  0  0
    3.2988   -0.1737   -3.6416 H   0  0  0  0  0  0  0  0  0  0  0  0
    0.9506    0.5227   -3.1046 H   0  0  0  0  0  0  0  0  0  0  0  0
    1.8349    1.6979   -4.0554 H   0  0  0  0  0  0  0  0  0  0  0  0
    5.6781   -3.0240   -0.5125 H   0  0  0  0  0  0  0  0  0  0  0  0
    6.2297   -2.3891    1.0371 H   0  0  0  0  0  0  0  0  0  0  0  0
    7.1017   -1.6322   -1.7316 H   0  0  0  0  0  0  0  0  0  0  0  0
    8.0459   -1.9474   -0.2888 H   0  0  0  0  0  0  0  0  0  0  0  0
    6.6792    0.5576   -1.2416 H   0  0  0  0  0  0  0  0  0  0  0  0
    9.1946    0.1422    0.4506 H   0  0  0  0  0  0  0  0  0  0  0  0
    9.1556    0.2101   -1.3227 H   0  0  0  0  0  0  0  0  0  0  0  0
    8.7068    1.6319   -0.3766 H   0  0  0  0  0  0  0  0  0  0  0  0
    6.8648   -0.1517    1.7236 H   0  0  0  0  0  0  0  0  0  0  0  0
    7.5064    2.2035    1.4929 H   0  0  0  0  0  0  0  0  0  0  0  0
    6.2043    2.4996    0.3646 H   0  0  0  0  0  0  0  0  0  0  0  0
    4.5053    2.1870    2.1006 H   0  0  0  0  0  0  0  0  0  0  0  0
    5.5993    0.5242    3.6171 H   0  0  0  0  0  0  0  0  0  0  0  0
    5.1946    2.0068    4.5025 H   0  0  0  0  0  0  0  0  0  0  0  0
    6.8575    1.7120    4.0132 H   0  0  0  0  0  0  0  0  0  0  0  0
    6.6392    3.8643    2.9322 H   0  0  0  0  0  0  0  0  0  0  0  0
    2.8566   -0.9111    1.1696 H   0  0  0  0  0  0  0  0  0  0  0  0
    4.2528   -3.5372    1.7470 H   0  0  0  0  0  0  0  0  0  0  0  0
    2.8734   -2.8125    2.5788 H   0  0  0  0  0  0  0  0  0  0  0  0
    4.4583   -2.0536    2.6931 H   0  0  0  0  0  0  0  0  0  0  0  0
  1  2  1  0
  2  3  1  0
  3  4  1  0
  4  5  2  3
  5  6  1  0
  6  7  2  3
  7  8  1  0
  8  9  1  0
  9 10  1  0
  9 11  1  0
 11 12  1  0
 11 13  1  0
 13 14  1  0
 13 15  1  0
 13 16  1  0
 16 17  2  0
 16 18  1  0
 18 19  1  0
 18 20  1  0
 20 21  1  0
 20 22  1  0
 22 23  1  0
 22 24  1  0
 24 25  2  0
 24 26  1  0
 26 27  1  0
 26 28  1  0
 28 29  1  0
 28 30  1  0
 30 31  1  0
 30 32  1  0
 32 33  2  3
 33 34  1  0
 34 35  2  0
 34 36  1  0
 36 37  1  0
 37 38  1  0
 38 39  1  0
 38 40  1  0
 40 41  1  0
 41 42  1  0
 40 43  1  0
 43 44  1  0
 44 45  1  0
 45 46  1  0
 46 47  1  0
 47 48  1  0
 47 49  1  0
 49 50  1  0
 50 51  1  0
 51 52  1  0
 51 53  1  0
 49 54  1  0
 44 55  1  0
 55 56  1  0
 42  3  1  0
 54 44  1  0
 55 37  1  0
  1 57  1  0
  1 58  1  0
  1 59  1  0
  2 60  1  0
  2 61  1  0
  3 62  1  0
  4 63  1  0
  5 64  1  0
  6 65  1  0
  7 66  1  0
  8 67  1  0
  8 68  1  0
  9 69  1  0
 10 70  1  0
 10 71  1  0
 10 72  1  0
 11 73  1  0
 12 74  1  0
 14 75  1  0
 14 76  1  0
 14 77  1  0
 15 78  1  0
 18 79  1  0
 19 80  1  0
 19 81  1  0
 19 82  1  0
 20 83  1  0
 21 84  1  0
 22 85  1  0
 23 86  1  0
 23 87  1  0
 23 88  1  0
 26 89  1  0
 27 90  1  0
 27 91  1  0
 27 92  1  0
 28 93  1  0
 29 94  1  0
 30 95  1  0
 31 96  1  0
 31 97  1  0
 31 98  1  0
 32 99  1  0
 33100  1  0
 37101  1  0
 38102  1  0
 39103  1  0
 39104  1  0
 39105  1  0
 40106  1  0
 41107  1  0
 41108  1  0
 42109  1  0
 42110  1  0
 45111  1  0
 45112  1  0
 46113  1  0
 46114  1  0
 47115  1  0
 48116  1  0
 48117  1  0
 48118  1  0
 49119  1  0
 50120  1  0
 50121  1  0
 51122  1  0
 52123  1  0
 52124  1  0
 52125  1  0
 53126  1  0
 55127  1  0
 56128  1  0
 56129  1  0
 56130  1  0
M  END
$$$$
