
     RDKit          3D

 37 39  0  0  0  0  0  0  0  0999 V2000
    4.9418    1.3608   -1.3810 C   0  0  0  0  0  0  0  0  0  0  0  0
    5.0841    0.4379   -0.3090 O   0  0  0  0  0  0  0  0  0  0  0  0
    3.9438    0.0250    0.3245 C   0  0  0  0  0  0  0  0  0  0  0  0
    4.1723   -0.8202    1.4220 C   0  0  0  0  0  0  0  0  0  0  0  0
    3.1121   -1.3336    2.1684 C   0  0  0  0  0  0  0  0  0  0  0  0
    1.8233   -0.9884    1.7984 C   0  0  0  0  0  0  0  0  0  0  0  0
    1.5649   -0.1361    0.7040 C   0  0  0  0  0  0  0  0  0  0  0  0
    2.6350    0.3655   -0.0392 C   0  0  0  0  0  0  0  0  0  0  0  0
    0.1727    0.1007    0.4548 N   0  0  0  0  0  0  0  0  0  0  0  0
   -0.1004    1.4917    0.0775 C   0  0  0  0  0  0  0  0  0  0  0  0
   -0.6031   -0.6102    1.3862 C   0  0  0  0  0  0  0  0  0  0  0  0
   -1.9354   -0.7982    1.4032 C   0  0  0  0  0  0  0  0  0  0  0  0
   -2.8773   -0.3401    0.3841 C   0  0  0  0  0  0  0  0  0  0  0  0
   -3.8443    0.6102    0.7370 C   0  0  0  0  0  0  0  0  0  0  0  0
   -4.7430    1.0765   -0.2132 C   0  0  0  0  0  0  0  0  0  0  0  0
   -4.6707    0.5863   -1.5069 C   0  0  0  0  0  0  0  0  0  0  0  0
   -3.7123   -0.3683   -1.8220 C   0  0  0  0  0  0  0  0  0  0  0  0
   -2.8451   -0.8290   -0.8881 N   0  0  0  0  0  4  0  0  0  0  0  0
   -1.8829   -1.8784   -1.2919 C   0  0  0  0  0  0  0  0  0  0  0  0
    0.3280   -1.5062    2.6143 S   0  0  0  0  0  0  0  0  0  0  0  0
    5.9438    1.6151   -1.7395 H   0  0  0  0  0  0  0  0  0  0  0  0
    4.4620    2.2861   -1.0453 H   0  0  0  0  0  0  0  0  0  0  0  0
    4.3930    0.9114   -2.2151 H   0  0  0  0  0  0  0  0  0  0  0  0
    5.1945   -1.0777    1.6947 H   0  0  0  0  0  0  0  0  0  0  0  0
    3.3015   -1.9827    3.0176 H   0  0  0  0  0  0  0  0  0  0  0  0
    2.4496    0.9947   -0.8993 H   0  0  0  0  0  0  0  0  0  0  0  0
   -1.1711    1.6781   -0.0355 H   0  0  0  0  0  0  0  0  0  0  0  0
    0.2744    2.1897    0.8357 H   0  0  0  0  0  0  0  0  0  0  0  0
    0.3497    1.7357   -0.8905 H   0  0  0  0  0  0  0  0  0  0  0  0
   -2.3961   -1.3782    2.2021 H   0  0  0  0  0  0  0  0  0  0  0  0
   -3.8921    0.9989    1.7536 H   0  0  0  0  0  0  0  0  0  0  0  0
   -5.4927    1.8198    0.0551 H   0  0  0  0  0  0  0  0  0  0  0  0
   -5.3637    0.9412   -2.2674 H   0  0  0  0  0  0  0  0  0  0  0  0
   -3.6357   -0.7760   -2.8268 H   0  0  0  0  0  0  0  0  0  0  0  0
   -2.2768   -2.4097   -2.1632 H   0  0  0  0  0  0  0  0  0  0  0  0
   -0.9418   -1.3909   -1.5531 H   0  0  0  0  0  0  0  0  0  0  0  0
   -1.7622   -2.6016   -0.4826 H   0  0  0  0  0  0  0  0  0  0  0  0
  1  2  1  0
  2  3  1  0
  3  4  2  0
  4  5  1  0
  5  6  2  0
  6  7  1  0
  7  8  2  0
  7  9  1  0
  9 10  1  0
  9 11  1  0
 11 12  2  3
 12 13  1  0
 13 14  2  0
 14 15  1  0
 15 16  2  0
 16 17  1  0
 17 18  2  0
 18 19  1  0
 11 20  1  0
  8  3  1  0
 18 13  1  0
 20  6  1  0
  1 21  1  0
  1 22  1  0
  1 23  1  0
  4 24  1  0
  5 25  1  0
  8 26  1  0
 10 27  1  0
 10 28  1  0
 10 29  1  0
 12 30  1  0
 14 31  1  0
 15 32  1  0
 16 33  1  0
 17 34  1  0
 19 35  1  0
 19 36  1  0
 19 37  1  0
M  CHG  1  18   1
M  END
$$$$
