
     RDKit          3D

 36 37  0  0  0  0  0  0  0  0999 V2000
   -3.5686   -1.5622    0.8407 C   0  0  0  0  0  0  0  0  0  0  0  0
   -2.4458   -0.5980    1.2148 C   0  0  0  0  0  0  0  0  0  0  0  0
   -1.8832    0.2171    0.1217 N   0  0  0  0  0  0  0  0  0  0  0  0
   -2.9029    1.1258   -0.4507 C   0  0  0  0  0  0  0  0  0  0  0  0
   -2.2476    2.3800   -1.0500 C   0  0  0  0  0  0  0  0  0  0  0  0
   -1.3675    2.9659   -0.0918 O   0  0  0  0  0  0  0  0  0  0  0  0
   -1.2291   -0.5779   -0.9347 C   0  0  0  0  0  0  0  0  0  0  0  0
    0.0128   -1.2505   -0.4123 C   0  0  0  0  0  0  0  0  0  0  0  0
    0.0946   -2.6019   -0.1321 C   0  0  0  0  0  0  0  0  0  0  0  0
    1.6232   -3.0721    0.4458 S   0  0  0  0  0  0  0  0  0  0  0  0
    2.2467   -1.4752    0.3102 C   0  0  0  0  0  0  0  0  0  0  0  0
    3.5555   -1.0530    0.6250 C   0  0  0  0  0  0  0  0  0  0  0  0
    3.9117    0.2898    0.4421 C   0  0  0  0  0  0  0  0  0  0  0  0
    5.2901    0.7592    0.8055 C   0  0  0  0  0  0  0  0  0  0  0  0
    2.9608    1.1926   -0.0248 C   0  0  0  0  0  0  0  0  0  0  0  0
    1.6639    0.7682   -0.3349 C   0  0  0  0  0  0  0  0  0  0  0  0
    1.2803   -0.5867   -0.1689 C   0  0  0  0  0  0  0  0  0  0  0  0
   -3.2289   -2.3353    0.1458 H   0  0  0  0  0  0  0  0  0  0  0  0
   -3.9324   -2.0698    1.7406 H   0  0  0  0  0  0  0  0  0  0  0  0
   -4.4195   -1.0408    0.3923 H   0  0  0  0  0  0  0  0  0  0  0  0
   -2.8197    0.0809    1.9927 H   0  0  0  0  0  0  0  0  0  0  0  0
   -1.6465   -1.1595    1.7120 H   0  0  0  0  0  0  0  0  0  0  0  0
   -3.5602    1.4779    0.3551 H   0  0  0  0  0  0  0  0  0  0  0  0
   -3.5343    0.6247   -1.1936 H   0  0  0  0  0  0  0  0  0  0  0  0
   -1.6705    2.1503   -1.9501 H   0  0  0  0  0  0  0  0  0  0  0  0
   -3.0087    3.1204   -1.3142 H   0  0  0  0  0  0  0  0  0  0  0  0
   -1.0307    2.2105    0.4347 H   0  0  0  0  0  0  0  0  0  0  0  0
   -1.9151   -1.3121   -1.3738 H   0  0  0  0  0  0  0  0  0  0  0  0
   -0.9157    0.0671   -1.7644 H   0  0  0  0  0  0  0  0  0  0  0  0
   -0.6878   -3.3418   -0.2302 H   0  0  0  0  0  0  0  0  0  0  0  0
    4.2790   -1.7701    1.0043 H   0  0  0  0  0  0  0  0  0  0  0  0
    5.3162    1.0649    1.8559 H   0  0  0  0  0  0  0  0  0  0  0  0
    6.0271   -0.0355    0.6492 H   0  0  0  0  0  0  0  0  0  0  0  0
    5.5913    1.6076    0.1820 H   0  0  0  0  0  0  0  0  0  0  0  0
    3.2147    2.2428   -0.1543 H   0  0  0  0  0  0  0  0  0  0  0  0
    0.9469    1.4968   -0.7043 H   0  0  0  0  0  0  0  0  0  0  0  0
  1  2  1  0
  2  3  1  0
  3  4  1  0
  4  5  1  0
  5  6  1  0
  3  7  1  0
  7  8  1  0
  8  9  2  0
  9 10  1  0
 10 11  1  0
 11 12  2  0
 12 13  1  0
 13 14  1  0
 13 15  2  0
 15 16  1  0
 16 17  2  0
 17  8  1  0
 17 11  1  0
  1 18  1  0
  1 19  1  0
  1 20  1  0
  2 21  1  0
  2 22  1  0
  4 23  1  0
  4 24  1  0
  5 25  1  0
  5 26  1  0
  6 27  1  0
  7 28  1  0
  7 29  1  0
  9 30  1  0
 12 31  1  0
 14 32  1  0
 14 33  1  0
 14 34  1  0
 15 35  1  0
 16 36  1  0
M  END
$$$$
