
     RDKit          3D

 46 48  0  0  0  0  0  0  0  0999 V2000
    8.0042   -1.0142    2.6048 C   0  0  0  0  0  0  0  0  0  0  0  0
    7.7105   -1.8039    1.3432 C   0  0  0  0  0  0  0  0  0  0  0  0
    6.8747   -1.0374    0.4635 O   0  0  0  0  0  0  0  0  0  0  0  0
    5.5399   -1.1456    0.6747 C   0  0  0  0  0  0  0  0  0  0  0  0
    5.0006   -1.8236    1.5351 O   0  0  0  0  0  0  0  0  0  0  0  0
    4.7842   -0.3088   -0.2961 C   0  0  0  0  0  0  0  0  0  0  0  0
    5.4173    0.4668   -1.2728 C   0  0  0  0  0  0  0  0  0  0  0  0
    4.6529    1.2323   -2.1523 C   0  0  0  0  0  0  0  0  0  0  0  0
    3.2574    1.2270   -2.0635 C   0  0  0  0  0  0  0  0  0  0  0  0
    2.6100    0.4554   -1.0972 C   0  0  0  0  0  0  0  0  0  0  0  0
    1.2086    0.4006   -0.9392 N   0  0  0  0  0  0  0  0  0  0  0  0
    0.2509    1.0043   -1.7342 C   0  0  0  0  0  0  0  0  0  0  0  0
    0.4451    1.6403   -2.7632 O   0  0  0  0  0  0  0  0  0  0  0  0
   -1.1576    0.8035   -1.2875 C   0  0  0  0  0  0  0  0  0  0  0  0
   -2.1596    0.7127   -2.2581 C   0  0  0  0  0  0  0  0  0  0  0  0
   -3.4928    0.5257   -1.8784 C   0  0  0  0  0  0  0  0  0  0  0  0
   -3.8470    0.4348   -0.5257 C   0  0  0  0  0  0  0  0  0  0  0  0
   -5.2145    0.2457   -0.2340 N   0  0  0  0  0  0  0  0  0  0  0  0
   -5.8083    0.0900    1.0132 C   0  0  0  0  0  0  0  0  0  0  0  0
   -5.1866    0.0747    2.0716 O   0  0  0  0  0  0  0  0  0  0  0  0
   -7.2582   -0.0663    0.9648 C   0  0  0  0  0  0  0  0  0  0  0  0
   -8.1957   -0.0403   -0.0570 C   0  0  0  0  0  0  0  0  0  0  0  0
   -9.4648   -0.2578    0.5368 C   0  0  0  0  0  0  0  0  0  0  0  0
   -9.2354   -0.4031    1.8821 C   0  0  0  0  0  0  0  0  0  0  0  0
   -7.9123   -0.2889    2.1512 O   0  0  0  0  0  0  0  0  0  0  0  0
   -2.8438    0.5472    0.4400 C   0  0  0  0  0  0  0  0  0  0  0  0
   -1.5065    0.7356    0.0649 C   0  0  0  0  0  0  0  0  0  0  0  0
    3.3826   -0.3086   -0.2134 C   0  0  0  0  0  0  0  0  0  0  0  0
    8.6886   -1.5646    3.2565 H   0  0  0  0  0  0  0  0  0  0  0  0
    7.0846   -0.8052    3.1605 H   0  0  0  0  0  0  0  0  0  0  0  0
    8.4533   -0.0468    2.3569 H   0  0  0  0  0  0  0  0  0  0  0  0
    7.2608   -2.7765    1.5739 H   0  0  0  0  0  0  0  0  0  0  0  0
    8.6442   -2.0006    0.8063 H   0  0  0  0  0  0  0  0  0  0  0  0
    6.5005    0.4872   -1.3609 H   0  0  0  0  0  0  0  0  0  0  0  0
    5.1404    1.8390   -2.9121 H   0  0  0  0  0  0  0  0  0  0  0  0
    2.7036    1.8435   -2.7654 H   0  0  0  0  0  0  0  0  0  0  0  0
    0.8761   -0.2030   -0.1977 H   0  0  0  0  0  0  0  0  0  0  0  0
   -1.9044    0.7859   -3.3138 H   0  0  0  0  0  0  0  0  0  0  0  0
   -4.2447    0.4546   -2.6605 H   0  0  0  0  0  0  0  0  0  0  0  0
   -5.8265    0.2031   -1.0350 H   0  0  0  0  0  0  0  0  0  0  0  0
   -8.0071    0.1192   -1.1086 H   0  0  0  0  0  0  0  0  0  0  0  0
  -10.4272   -0.3014    0.0460 H   0  0  0  0  0  0  0  0  0  0  0  0
   -9.8717   -0.5821    2.7380 H   0  0  0  0  0  0  0  0  0  0  0  0
   -3.0650    0.5075    1.5026 H   0  0  0  0  0  0  0  0  0  0  0  0
   -0.7626    0.8578    0.8478 H   0  0  0  0  0  0  0  0  0  0  0  0
    2.9012   -0.9157    0.5509 H   0  0  0  0  0  0  0  0  0  0  0  0
  1  2  1  0
  2  3  1  0
  3  4  1  0
  4  5  2  0
  4  6  1  0
  6  7  2  0
  7  8  1  0
  8  9  2  0
  9 10  1  0
 10 11  1  0
 11 12  1  0
 12 13  2  0
 12 14  1  0
 14 15  2  0
 15 16  1  0
 16 17  2  0
 17 18  1  0
 18 19  1  0
 19 20  2  0
 19 21  1  0
 21 22  2  0
 22 23  1  0
 23 24  2  0
 24 25  1  0
 17 26  1  0
 26 27  2  0
 10 28  2  0
 28  6  1  0
 27 14  1  0
 25 21  1  0
  1 29  1  0
  1 30  1  0
  1 31  1  0
  2 32  1  0
  2 33  1  0
  7 34  1  0
  8 35  1  0
  9 36  1  0
 11 37  1  0
 15 38  1  0
 16 39  1  0
 18 40  1  0
 22 41  1  0
 23 42  1  0
 24 43  1  0
 26 44  1  0
 27 45  1  0
 28 46  1  0
M  END
$$$$
