
     RDKit          3D

 55 60  0  0  0  0  0  0  0  0999 V2000
   -5.1534   -1.0963    0.3962 O   0  0  0  0  0  0  0  0  0  0  0  0
   -4.4550   -0.1599    0.0105 C   0  0  0  0  0  0  0  0  0  0  0  0
   -5.0526    0.9248   -0.7506 C   0  0  0  0  0  0  0  0  0  0  0  0
   -6.3606    1.4722   -0.5991 C   0  0  0  0  0  0  0  0  0  0  0  0
   -6.4989    2.4379   -1.5671 C   0  0  0  0  0  0  0  0  0  0  0  0
   -5.3779    2.5059   -2.3288 O   0  0  0  0  0  0  0  0  0  0  0  0
   -4.5181    1.5717   -1.8478 C   0  0  0  0  0  0  0  0  0  0  0  0
   -3.0815   -0.1227    0.2686 N   0  0  0  0  0  0  0  0  0  0  0  0
   -2.2912    1.0939    0.3863 C   0  0  0  0  0  0  0  0  0  0  0  0
   -0.9463    0.9523   -0.3272 C   0  0  0  0  0  0  0  0  0  0  0  0
   -0.3159   -0.4705   -0.1879 C   0  0  0  0  0  0  0  0  0  0  0  0
   -0.9686   -1.2202    0.9987 C   0  0  0  0  0  0  0  0  0  0  0  0
   -2.4870   -1.3240    0.8379 C   0  0  0  0  0  0  0  0  0  0  0  0
   -0.7123   -1.1383   -1.4180 O   0  0  0  0  0  0  0  0  0  0  0  0
   -0.0008   -2.2294   -1.8151 C   0  0  0  0  0  0  0  0  0  0  0  0
   -0.5708   -2.9925   -2.8359 C   0  0  0  0  0  0  0  0  0  0  0  0
    0.0764   -4.1410   -3.2947 C   0  0  0  0  0  0  0  0  0  0  0  0
    1.2912   -4.5167   -2.7307 C   0  0  0  0  0  0  0  0  0  0  0  0
    1.9068   -5.6217   -3.1696 F   0  0  0  0  0  0  0  0  0  0  0  0
    1.8753   -3.7626   -1.7217 C   0  0  0  0  0  0  0  0  0  0  0  0
    1.2242   -2.6093   -1.2763 C   0  0  0  0  0  0  0  0  0  0  0  0
    1.8174   -1.7783   -0.2214 C   0  0  0  0  0  0  0  0  0  0  0  0
    2.7226   -2.2330    0.4733 O   0  0  0  0  0  0  0  0  0  0  0  0
    1.2299   -0.3813   -0.0599 C   0  0  0  0  0  0  0  0  0  0  0  0
    1.7280    0.2770    1.2203 C   0  0  0  0  0  0  0  0  0  0  0  0
    2.8431    1.0844    0.6484 C   0  0  0  0  0  0  0  0  0  0  0  0
    3.8533    1.7494    1.5054 C   0  0  0  0  0  0  0  0  0  0  0  0
    3.7808    1.6958    2.9021 C   0  0  0  0  0  0  0  0  0  0  0  0
    4.7486    2.3396    3.6784 C   0  0  0  0  0  0  0  0  0  0  0  0
    5.7880    3.0382    3.0656 C   0  0  0  0  0  0  0  0  0  0  0  0
    5.8641    3.0958    1.6754 C   0  0  0  0  0  0  0  0  0  0  0  0
    4.8997    2.4539    0.8964 C   0  0  0  0  0  0  0  0  0  0  0  0
    2.8332    1.1869   -0.6426 N   0  0  0  0  0  0  0  0  0  0  0  0
    1.7486    0.4266   -1.1289 O   0  0  0  0  0  0  0  0  0  0  0  0
   -7.1036    1.1857    0.1327 H   0  0  0  0  0  0  0  0  0  0  0  0
   -7.2942    3.1170   -1.8418 H   0  0  0  0  0  0  0  0  0  0  0  0
   -3.5853    1.4810   -2.3874 H   0  0  0  0  0  0  0  0  0  0  0  0
   -2.1293    1.2630    1.4590 H   0  0  0  0  0  0  0  0  0  0  0  0
   -2.8194    1.9811    0.0327 H   0  0  0  0  0  0  0  0  0  0  0  0
   -0.2888    1.7369    0.0616 H   0  0  0  0  0  0  0  0  0  0  0  0
   -1.0928    1.1818   -1.3912 H   0  0  0  0  0  0  0  0  0  0  0  0
   -0.7449   -0.6976    1.9370 H   0  0  0  0  0  0  0  0  0  0  0  0
   -0.5700   -2.2353    1.1067 H   0  0  0  0  0  0  0  0  0  0  0  0
   -2.7464   -2.1686    0.1878 H   0  0  0  0  0  0  0  0  0  0  0  0
   -2.9494   -1.5149    1.8139 H   0  0  0  0  0  0  0  0  0  0  0  0
   -1.5233   -2.6971   -3.2700 H   0  0  0  0  0  0  0  0  0  0  0  0
   -0.3592   -4.7446   -4.0854 H   0  0  0  0  0  0  0  0  0  0  0  0
    2.8283   -4.0707   -1.3017 H   0  0  0  0  0  0  0  0  0  0  0  0
    2.0649   -0.4280    1.9837 H   0  0  0  0  0  0  0  0  0  0  0  0
    1.0052    0.9650    1.6681 H   0  0  0  0  0  0  0  0  0  0  0  0
    2.9856    1.1613    3.4120 H   0  0  0  0  0  0  0  0  0  0  0  0
    4.6937    2.2949    4.7635 H   0  0  0  0  0  0  0  0  0  0  0  0
    6.5408    3.5366    3.6715 H   0  0  0  0  0  0  0  0  0  0  0  0
    6.6748    3.6384    1.1954 H   0  0  0  0  0  0  0  0  0  0  0  0
    4.9731    2.5056   -0.1883 H   0  0  0  0  0  0  0  0  0  0  0  0
  1  2  2  0
  2  3  1  0
  3  4  1  0
  4  5  2  0
  5  6  1  0
  6  7  1  0
  2  8  1  0
  8  9  1  0
  9 10  1  0
 10 11  1  0
 11 12  1  0
 12 13  1  0
 11 14  1  0
 14 15  1  0
 15 16  2  0
 16 17  1  0
 17 18  2  0
 18 19  1  0
 18 20  1  0
 20 21  2  0
 21 22  1  0
 22 23  2  0
 22 24  1  0
 24 25  1  0
 25 26  1  0
 26 27  1  0
 27 28  2  0
 28 29  1  0
 29 30  2  0
 30 31  1  0
 31 32  2  0
 26 33  2  0
 33 34  1  0
  7  3  2  0
 13  8  1  0
 21 15  1  0
 34 24  1  0
 24 11  1  0
 32 27  1  0
  4 35  1  0
  5 36  1  0
  7 37  1  0
  9 38  1  0
  9 39  1  0
 10 40  1  0
 10 41  1  0
 12 42  1  0
 12 43  1  0
 13 44  1  0
 13 45  1  0
 16 46  1  0
 17 47  1  0
 20 48  1  0
 25 49  1  0
 25 50  1  0
 28 51  1  0
 29 52  1  0
 30 53  1  0
 31 54  1  0
 32 55  1  0
M  END
$$$$
