
     RDKit          3D

 69 71  0  0  0  0  0  0  0  0999 V2000
   -3.4645    5.3833   -1.2992 C   0  0  0  0  0  0  0  0  0  0  0  0
   -2.9462    4.1885   -1.8676 O   0  0  0  0  0  0  0  0  0  0  0  0
   -3.0149    3.0457   -1.1136 C   0  0  0  0  0  0  0  0  0  0  0  0
   -3.5758    2.9704    0.1623 C   0  0  0  0  0  0  0  0  0  0  0  0
   -3.5644    1.7653    0.8654 C   0  0  0  0  0  0  0  0  0  0  0  0
   -2.9856    0.6261    0.3060 C   0  0  0  0  0  0  0  0  0  0  0  0
   -2.4182    0.6620   -0.9776 C   0  0  0  0  0  0  0  0  0  0  0  0
   -1.7447   -0.5676   -1.5881 C   0  0  0  0  0  0  0  0  0  0  0  0
   -2.4244   -1.9170   -1.2096 C   0  0  0  0  0  0  0  0  0  0  0  0
   -3.5156   -2.2316   -1.6885 O   0  0  0  0  0  0  0  0  0  0  0  0
   -1.7905   -2.6788   -0.2487 N   0  0  0  0  0  0  0  0  0  0  0  0
   -2.3221   -3.9142    0.3419 C   0  0  0  0  0  0  0  0  0  0  0  0
   -1.2608   -4.4633    1.3135 C   0  0  0  0  0  0  0  0  0  0  0  0
   -2.5821   -4.9814   -0.7337 C   0  0  0  0  0  0  0  0  0  0  0  0
   -3.6094   -3.6313    1.1309 C   0  0  0  0  0  0  0  0  0  0  0  0
   -0.2604   -0.5282   -1.4767 N   0  0  0  0  0  0  0  0  0  0  0  0
    0.3494   -0.4279   -0.2303 C   0  0  0  0  0  0  0  0  0  0  0  0
   -0.2449   -0.7049    0.8152 O   0  0  0  0  0  0  0  0  0  0  0  0
    1.8104   -0.0153   -0.2107 C   0  0  0  0  0  0  0  0  0  0  0  0
    2.2825    0.2662    1.2123 C   0  0  0  0  0  0  0  0  0  0  0  0
    3.7355    0.6999    1.2541 C   0  0  0  0  0  0  0  0  0  0  0  0
    4.4137    0.7846    0.2380 O   0  0  0  0  0  0  0  0  0  0  0  0
    4.1382    0.9599    2.5505 N   0  0  0  0  0  0  0  0  0  0  0  0
    5.4046    1.3774    2.9133 C   0  0  0  0  0  0  0  0  0  0  0  0
    5.7870    1.6276    4.2545 C   0  0  0  0  0  0  0  0  0  0  0  0
    7.1000    2.0181    4.1762 C   0  0  0  0  0  0  0  0  0  0  0  0
    8.1180    2.4255    5.1588 C   0  0  0  0  0  0  0  0  0  0  0  0
    7.4872    2.0042    2.8753 O   0  0  0  0  0  0  0  0  0  0  0  0
    6.4281    1.6037    2.0863 N   0  0  0  0  0  0  0  0  0  0  0  0
    0.4676   -0.3352   -2.7137 C   0  0  0  0  0  0  0  0  0  0  0  0
    0.2410   -1.2231   -3.9153 C   0  0  0  0  0  0  0  0  0  0  0  0
    1.5282   -1.3106   -3.1623 C   0  0  0  0  0  0  0  0  0  0  0  0
   -2.4608    1.8819   -1.6833 C   0  0  0  0  0  0  0  0  0  0  0  0
   -1.8784    1.9254   -2.9309 O   0  0  0  0  0  0  0  0  0  0  0  0
   -2.8748    1.9921   -3.9534 C   0  0  0  0  0  0  0  0  0  0  0  0
   -4.5395    5.2959   -1.1101 H   0  0  0  0  0  0  0  0  0  0  0  0
   -2.9220    5.6565   -0.3879 H   0  0  0  0  0  0  0  0  0  0  0  0
   -3.3206    6.1889   -2.0260 H   0  0  0  0  0  0  0  0  0  0  0  0
   -4.0233    3.8325    0.6444 H   0  0  0  0  0  0  0  0  0  0  0  0
   -3.9979    1.7149    1.8615 H   0  0  0  0  0  0  0  0  0  0  0  0
   -2.9731   -0.2879    0.8958 H   0  0  0  0  0  0  0  0  0  0  0  0
   -1.9640   -0.5239   -2.6645 H   0  0  0  0  0  0  0  0  0  0  0  0
   -1.1358   -2.1535    0.3304 H   0  0  0  0  0  0  0  0  0  0  0  0
   -1.0451   -3.7435    2.1119 H   0  0  0  0  0  0  0  0  0  0  0  0
   -0.3166   -4.6642    0.7943 H   0  0  0  0  0  0  0  0  0  0  0  0
   -1.5920   -5.3952    1.7849 H   0  0  0  0  0  0  0  0  0  0  0  0
   -3.3898   -4.6942   -1.4138 H   0  0  0  0  0  0  0  0  0  0  0  0
   -2.8675   -5.9377   -0.2800 H   0  0  0  0  0  0  0  0  0  0  0  0
   -1.6868   -5.1522   -1.3427 H   0  0  0  0  0  0  0  0  0  0  0  0
   -4.4150   -3.2739    0.4818 H   0  0  0  0  0  0  0  0  0  0  0  0
   -3.9702   -4.5341    1.6358 H   0  0  0  0  0  0  0  0  0  0  0  0
   -3.4422   -2.8621    1.8938 H   0  0  0  0  0  0  0  0  0  0  0  0
    2.4115   -0.8240   -0.6382 H   0  0  0  0  0  0  0  0  0  0  0  0
    1.9403    0.8844   -0.8225 H   0  0  0  0  0  0  0  0  0  0  0  0
    1.6702    1.0583    1.6607 H   0  0  0  0  0  0  0  0  0  0  0  0
    2.1761   -0.6345    1.8293 H   0  0  0  0  0  0  0  0  0  0  0  0
    3.4743    0.8400    3.3010 H   0  0  0  0  0  0  0  0  0  0  0  0
    5.1930    1.5376    5.1504 H   0  0  0  0  0  0  0  0  0  0  0  0
    8.4636    3.4432    4.9546 H   0  0  0  0  0  0  0  0  0  0  0  0
    8.9799    1.7524    5.1203 H   0  0  0  0  0  0  0  0  0  0  0  0
    7.7135    2.4017    6.1755 H   0  0  0  0  0  0  0  0  0  0  0  0
    0.6442    0.7180   -2.9283 H   0  0  0  0  0  0  0  0  0  0  0  0
   -0.4401   -2.0625   -3.8359 H   0  0  0  0  0  0  0  0  0  0  0  0
    0.2550   -0.7571   -4.8941 H   0  0  0  0  0  0  0  0  0  0  0  0
    2.4207   -0.9048   -3.6247 H   0  0  0  0  0  0  0  0  0  0  0  0
    1.7011   -2.2057   -2.5762 H   0  0  0  0  0  0  0  0  0  0  0  0
   -2.3999    1.7029   -4.8962 H   0  0  0  0  0  0  0  0  0  0  0  0
   -3.2544    3.0114   -4.0697 H   0  0  0  0  0  0  0  0  0  0  0  0
   -3.7005    1.2954   -3.7668 H   0  0  0  0  0  0  0  0  0  0  0  0
  1  2  1  0
  2  3  1  0
  3  4  2  0
  4  5  1  0
  5  6  2  0
  6  7  1  0
  7  8  1  0
  8  9  1  0
  9 10  2  0
  9 11  1  0
 11 12  1  0
 12 13  1  0
 12 14  1  0
 12 15  1  0
  8 16  1  0
 16 17  1  0
 17 18  2  0
 17 19  1  0
 19 20  1  0
 20 21  1  0
 21 22  2  0
 21 23  1  0
 23 24  1  0
 24 25  1  0
 25 26  2  0
 26 27  1  0
 26 28  1  0
 28 29  1  0
 16 30  1  0
 30 31  1  0
 31 32  1  0
  7 33  2  0
 33 34  1  0
 34 35  1  0
 33  3  1  0
 29 24  2  0
 32 30  1  0
  1 36  1  0
  1 37  1  0
  1 38  1  0
  4 39  1  0
  5 40  1  0
  6 41  1  0
  8 42  1  0
 11 43  1  0
 13 44  1  0
 13 45  1  0
 13 46  1  0
 14 47  1  0
 14 48  1  0
 14 49  1  0
 15 50  1  0
 15 51  1  0
 15 52  1  0
 19 53  1  0
 19 54  1  0
 20 55  1  0
 20 56  1  0
 23 57  1  0
 25 58  1  0
 27 59  1  0
 27 60  1  0
 27 61  1  0
 30 62  1  0
 31 63  1  0
 31 64  1  0
 32 65  1  0
 32 66  1  0
 35 67  1  0
 35 68  1  0
 35 69  1  0
M  END
$$$$
