
     RDKit          3D

 42 41  0  0  0  0  0  0  0  0999 V2000
   -3.2139   -1.6213    3.0595 C   0  0  0  0  0  0  0  0  0  0  0  0
   -4.1201   -1.5082    1.8658 C   0  0  0  0  0  0  0  0  0  0  0  0
   -5.3523   -2.3697    1.9274 C   0  0  0  0  0  0  0  0  0  0  0  0
   -3.8808   -0.7171    0.8013 C   0  0  0  0  0  0  0  0  0  0  0  0
   -2.7269    0.2318    0.6148 C   0  0  0  0  0  0  0  0  0  0  0  0
   -1.5691   -0.4202   -0.1467 C   0  0  0  0  0  0  0  0  0  0  0  0
   -0.4816    0.5794   -0.5003 C   0  0  0  0  0  0  0  0  0  0  0  0
   -0.6638    1.2560   -1.8326 C   0  0  0  0  0  0  0  0  0  0  0  0
    0.5489    0.7809    0.3466 C   0  0  0  0  0  0  0  0  0  0  0  0
    1.7290    1.7010    0.1785 C   0  0  0  0  0  0  0  0  0  0  0  0
    3.0852    0.9965    0.3377 C   0  0  0  0  0  0  0  0  0  0  0  0
    3.3915   -0.0420   -0.7232 C   0  0  0  0  0  0  0  0  0  0  0  0
    3.1291   -1.4719   -0.3258 C   0  0  0  0  0  0  0  0  0  0  0  0
    3.9031    0.2416   -1.9391 C   0  0  0  0  0  0  0  0  0  0  0  0
    4.2245    1.5820   -2.5123 C   0  0  0  0  0  0  0  0  0  0  0  0
    5.5862    1.5614   -2.9122 O   0  0  0  0  0  0  0  0  0  0  0  0
   -3.0955   -2.6709    3.3548 H   0  0  0  0  0  0  0  0  0  0  0  0
   -3.6361   -1.0697    3.9048 H   0  0  0  0  0  0  0  0  0  0  0  0
   -2.2095   -1.2337    2.8653 H   0  0  0  0  0  0  0  0  0  0  0  0
   -5.9126   -2.1686    2.8441 H   0  0  0  0  0  0  0  0  0  0  0  0
   -6.0263   -2.1855    1.0853 H   0  0  0  0  0  0  0  0  0  0  0  0
   -5.0747   -3.4290    1.9146 H   0  0  0  0  0  0  0  0  0  0  0  0
   -4.5916   -0.7214   -0.0246 H   0  0  0  0  0  0  0  0  0  0  0  0
   -3.0981    1.1069    0.0667 H   0  0  0  0  0  0  0  0  0  0  0  0
   -2.3772    0.6166    1.5811 H   0  0  0  0  0  0  0  0  0  0  0  0
   -1.9336   -0.8999   -1.0652 H   0  0  0  0  0  0  0  0  0  0  0  0
   -1.1464   -1.2336    0.4589 H   0  0  0  0  0  0  0  0  0  0  0  0
    0.1312    1.9616   -2.0776 H   0  0  0  0  0  0  0  0  0  0  0  0
   -0.6885    0.5070   -2.6329 H   0  0  0  0  0  0  0  0  0  0  0  0
   -1.6082    1.8087   -1.8501 H   0  0  0  0  0  0  0  0  0  0  0  0
    0.5526    0.2277    1.2876 H   0  0  0  0  0  0  0  0  0  0  0  0
    1.7090    2.2350   -0.7749 H   0  0  0  0  0  0  0  0  0  0  0  0
    1.6553    2.4707    0.9570 H   0  0  0  0  0  0  0  0  0  0  0  0
    3.8751    1.7585    0.3408 H   0  0  0  0  0  0  0  0  0  0  0  0
    3.1423    0.5322    1.3317 H   0  0  0  0  0  0  0  0  0  0  0  0
    2.0660   -1.6271   -0.1278 H   0  0  0  0  0  0  0  0  0  0  0  0
    3.4220   -2.1805   -1.1088 H   0  0  0  0  0  0  0  0  0  0  0  0
    3.6918   -1.7319    0.5763 H   0  0  0  0  0  0  0  0  0  0  0  0
    4.1097   -0.5827   -2.6223 H   0  0  0  0  0  0  0  0  0  0  0  0
    3.6021    1.7593   -3.3966 H   0  0  0  0  0  0  0  0  0  0  0  0
    4.0798    2.4060   -1.8122 H   0  0  0  0  0  0  0  0  0  0  0  0
    5.7726    2.4239   -3.3154 H   0  0  0  0  0  0  0  0  0  0  0  0
  1  2  1  0
  2  3  1  0
  2  4  2  3
  4  5  1  0
  5  6  1  0
  6  7  1  0
  7  8  1  0
  7  9  2  3
  9 10  1  0
 10 11  1  0
 11 12  1  0
 12 13  1  0
 12 14  2  3
 14 15  1  0
 15 16  1  0
  1 17  1  0
  1 18  1  0
  1 19  1  0
  3 20  1  0
  3 21  1  0
  3 22  1  0
  4 23  1  0
  5 24  1  0
  5 25  1  0
  6 26  1  0
  6 27  1  0
  8 28  1  0
  8 29  1  0
  8 30  1  0
  9 31  1  0
 10 32  1  0
 10 33  1  0
 11 34  1  0
 11 35  1  0
 13 36  1  0
 13 37  1  0
 13 38  1  0
 14 39  1  0
 15 40  1  0
 15 41  1  0
 16 42  1  0
M  END
$$$$
