
     RDKit          3D

 59 62  0  0  0  0  0  0  0  0999 V2000
   -6.9310    1.1704   -2.6039 C   0  0  0  0  0  0  0  0  0  0  0  0
   -6.1481   -0.0679   -3.0034 C   0  0  0  0  0  0  0  0  0  0  0  0
   -5.6830   -0.8228   -1.8492 N   0  0  0  0  0  0  0  0  0  0  0  0
   -6.3855   -1.8490   -1.2456 C   0  0  0  0  0  0  0  0  0  0  0  0
   -7.6500   -2.3960   -1.5240 C   0  0  0  0  0  0  0  0  0  0  0  0
   -8.1029   -3.4531   -0.7290 C   0  0  0  0  0  0  0  0  0  0  0  0
   -7.3249   -3.9502    0.3110 C   0  0  0  0  0  0  0  0  0  0  0  0
   -6.0698   -3.3973    0.5837 C   0  0  0  0  0  0  0  0  0  0  0  0
   -5.5891   -2.3285   -0.2034 C   0  0  0  0  0  0  0  0  0  0  0  0
   -4.3867   -1.5547   -0.1863 C   0  0  0  0  0  0  0  0  0  0  0  0
   -3.2293   -1.5690    0.6254 C   0  0  0  0  0  0  0  0  0  0  0  0
   -2.1866   -0.6567    0.3960 C   0  0  0  0  0  0  0  0  0  0  0  0
   -1.0702   -0.7357    1.2569 N   0  0  0  0  0  0  0  0  0  0  0  0
    0.0974    0.0136    1.2012 C   0  0  0  0  0  0  0  0  0  0  0  0
    0.3716    0.8681    0.3623 O   0  0  0  0  0  0  0  0  0  0  0  0
    1.0683   -0.3128    2.3575 C   0  0  0  0  0  0  0  0  0  0  0  0
    0.5834    0.3662    3.6324 C   0  0  0  0  0  0  0  0  0  0  0  0
    2.3890    0.1700    2.0887 O   0  0  0  0  0  0  0  0  0  0  0  0
    3.0719   -0.5667    1.1779 C   0  0  0  0  0  0  0  0  0  0  0  0
    2.7094   -1.6373    0.7146 O   0  0  0  0  0  0  0  0  0  0  0  0
    4.3566    0.0914    0.8200 C   0  0  0  0  0  0  0  0  0  0  0  0
    5.2349   -0.5877   -0.0310 C   0  0  0  0  0  0  0  0  0  0  0  0
    6.4488   -0.0020   -0.4071 C   0  0  0  0  0  0  0  0  0  0  0  0
    6.8037    1.2720    0.0562 C   0  0  0  0  0  0  0  0  0  0  0  0
    8.0407    1.7924   -0.3833 N   0  0  0  0  0  0  0  0  0  0  0  0
    8.5821    3.0396   -0.0930 C   0  0  0  0  0  0  0  0  0  0  0  0
    8.0517    3.9073    0.5933 O   0  0  0  0  0  0  0  0  0  0  0  0
    9.9193    3.2685   -0.7689 C   0  0  0  0  0  0  0  0  0  0  0  0
   10.8260    4.0417    0.0827 C   0  0  0  0  0  0  0  0  0  0  0  0
   11.5976    4.6313    0.7198 N   0  0  0  0  0  0  0  0  0  0  0  0
    5.9261    1.9451    0.9085 C   0  0  0  0  0  0  0  0  0  0  0  0
    4.7093    1.3614    1.2880 C   0  0  0  0  0  0  0  0  0  0  0  0
   -2.3075    0.2675   -0.6386 C   0  0  0  0  0  0  0  0  0  0  0  0
   -3.4434    0.3035   -1.4592 C   0  0  0  0  0  0  0  0  0  0  0  0
   -4.4713   -0.6198   -1.2170 C   0  0  0  0  0  0  0  0  0  0  0  0
   -7.8135    0.9072   -2.0119 H   0  0  0  0  0  0  0  0  0  0  0  0
   -6.3175    1.8504   -2.0037 H   0  0  0  0  0  0  0  0  0  0  0  0
   -7.2665    1.7107   -3.4946 H   0  0  0  0  0  0  0  0  0  0  0  0
   -6.7624   -0.7309   -3.6214 H   0  0  0  0  0  0  0  0  0  0  0  0
   -5.2762    0.2034   -3.6071 H   0  0  0  0  0  0  0  0  0  0  0  0
   -8.2695   -2.0170   -2.3303 H   0  0  0  0  0  0  0  0  0  0  0  0
   -9.0780   -3.8919   -0.9280 H   0  0  0  0  0  0  0  0  0  0  0  0
   -7.6933   -4.7735    0.9178 H   0  0  0  0  0  0  0  0  0  0  0  0
   -5.4702   -3.7906    1.3992 H   0  0  0  0  0  0  0  0  0  0  0  0
   -3.1669   -2.2998    1.4256 H   0  0  0  0  0  0  0  0  0  0  0  0
   -1.1159   -1.4584    1.9638 H   0  0  0  0  0  0  0  0  0  0  0  0
    1.0933   -1.3968    2.5275 H   0  0  0  0  0  0  0  0  0  0  0  0
    1.2776    0.1741    4.4571 H   0  0  0  0  0  0  0  0  0  0  0  0
    0.5372    1.4534    3.5019 H   0  0  0  0  0  0  0  0  0  0  0  0
   -0.4117    0.0167    3.9233 H   0  0  0  0  0  0  0  0  0  0  0  0
    4.9753   -1.5745   -0.4105 H   0  0  0  0  0  0  0  0  0  0  0  0
    7.1031   -0.5592   -1.0726 H   0  0  0  0  0  0  0  0  0  0  0  0
    8.5682    1.1829   -0.9965 H   0  0  0  0  0  0  0  0  0  0  0  0
    9.7303    3.7959   -1.7110 H   0  0  0  0  0  0  0  0  0  0  0  0
   10.3898    2.3096   -1.0157 H   0  0  0  0  0  0  0  0  0  0  0  0
    6.1494    2.9333    1.2996 H   0  0  0  0  0  0  0  0  0  0  0  0
    4.0452    1.9215    1.9425 H   0  0  0  0  0  0  0  0  0  0  0  0
   -1.5268    0.9939   -0.8446 H   0  0  0  0  0  0  0  0  0  0  0  0
   -3.5092    1.0367   -2.2569 H   0  0  0  0  0  0  0  0  0  0  0  0
  1  2  1  0
  2  3  1  0
  3  4  1  0
  4  5  2  0
  5  6  1  0
  6  7  2  0
  7  8  1  0
  8  9  2  0
  9 10  1  0
 10 11  2  0
 11 12  1  0
 12 13  1  0
 13 14  1  0
 14 15  2  0
 14 16  1  0
 16 17  1  0
 16 18  1  0
 18 19  1  0
 19 20  2  0
 19 21  1  0
 21 22  2  0
 22 23  1  0
 23 24  2  0
 24 25  1  0
 25 26  1  0
 26 27  2  0
 26 28  1  0
 28 29  1  0
 29 30  3  0
 24 31  1  0
 31 32  2  0
 12 33  2  0
 33 34  1  0
 34 35  2  0
 35  3  1  0
  9  4  1  0
 35 10  1  0
 32 21  1  0
  1 36  1  0
  1 37  1  0
  1 38  1  0
  2 39  1  0
  2 40  1  0
  5 41  1  0
  6 42  1  0
  7 43  1  0
  8 44  1  0
 11 45  1  0
 13 46  1  0
 16 47  1  0
 17 48  1  0
 17 49  1  0
 17 50  1  0
 22 51  1  0
 23 52  1  0
 25 53  1  0
 28 54  1  0
 28 55  1  0
 31 56  1  0
 32 57  1  0
 33 58  1  0
 34 59  1  0
M  END
$$$$
