
     RDKit          3D

 43 45  0  0  0  0  0  0  0  0999 V2000
   -5.2504   -2.3335    1.3986 C   0  0  0  0  0  0  0  0  0  0  0  0
   -5.1248   -0.8782    1.3635 N   0  0  0  0  0  0  0  0  0  0  0  0
   -6.2885   -0.1309    1.8416 C   0  0  0  0  0  0  0  0  0  0  0  0
   -4.2970   -0.2824    0.4044 C   0  0  0  0  0  0  0  0  0  0  0  0
   -3.4514   -1.0326   -0.4320 C   0  0  0  0  0  0  0  0  0  0  0  0
   -2.6088   -0.4324   -1.3802 C   0  0  0  0  0  0  0  0  0  0  0  0
   -2.5700    0.9537   -1.5128 C   0  0  0  0  0  0  0  0  0  0  0  0
   -1.7086    1.6019   -2.5044 C   0  0  0  0  0  0  0  0  0  0  0  0
   -0.3652    1.6278   -2.5067 C   0  0  0  0  0  0  0  0  0  0  0  0
    0.5090    1.0397   -1.5072 C   0  0  0  0  0  0  0  0  0  0  0  0
    1.8504    1.0278   -1.5278 C   0  0  0  0  0  0  0  0  0  0  0  0
    2.8870    1.6953   -2.7146 S   0  0  0  0  0  0  0  0  0  0  0  0
    4.3444    1.0938   -1.9223 C   0  0  0  0  0  0  0  0  0  0  0  0
    5.8162    1.2217   -2.7125 S   0  0  0  0  0  0  0  0  0  0  0  0
    4.0139    0.4908   -0.7126 N   0  0  0  0  0  0  0  0  0  0  0  0
    4.9670   -0.0339    0.2247 C   0  0  0  0  0  0  0  0  0  0  0  0
    6.1575    0.6471    0.5228 C   0  0  0  0  0  0  0  0  0  0  0  0
    7.0783    0.1287    1.4409 C   0  0  0  0  0  0  0  0  0  0  0  0
    6.8187   -1.0753    2.0872 C   0  0  0  0  0  0  0  0  0  0  0  0
    5.6361   -1.7575    1.8215 C   0  0  0  0  0  0  0  0  0  0  0  0
    4.7168   -1.2380    0.9039 C   0  0  0  0  0  0  0  0  0  0  0  0
    2.6475    0.3881   -0.4428 C   0  0  0  0  0  0  0  0  0  0  0  0
    2.1096   -0.1147    0.5372 O   0  0  0  0  0  0  0  0  0  0  0  0
   -3.3895    1.7257   -0.6948 C   0  0  0  0  0  0  0  0  0  0  0  0
   -4.2294    1.1141    0.2484 C   0  0  0  0  0  0  0  0  0  0  0  0
   -5.7156   -2.7111    0.4814 H   0  0  0  0  0  0  0  0  0  0  0  0
   -4.2759   -2.8137    1.5436 H   0  0  0  0  0  0  0  0  0  0  0  0
   -5.8702   -2.6551    2.2430 H   0  0  0  0  0  0  0  0  0  0  0  0
   -6.9354    0.1688    1.0103 H   0  0  0  0  0  0  0  0  0  0  0  0
   -6.8956   -0.7330    2.5264 H   0  0  0  0  0  0  0  0  0  0  0  0
   -5.9834    0.7551    2.4096 H   0  0  0  0  0  0  0  0  0  0  0  0
   -3.4244   -2.1162   -0.3746 H   0  0  0  0  0  0  0  0  0  0  0  0
   -1.9857   -1.0643   -2.0091 H   0  0  0  0  0  0  0  0  0  0  0  0
   -2.2465    2.1103   -3.3026 H   0  0  0  0  0  0  0  0  0  0  0  0
    0.1104    2.1550   -3.3328 H   0  0  0  0  0  0  0  0  0  0  0  0
    0.0128    0.5698   -0.6570 H   0  0  0  0  0  0  0  0  0  0  0  0
    6.3823    1.6158    0.0842 H   0  0  0  0  0  0  0  0  0  0  0  0
    7.9945    0.6738    1.6554 H   0  0  0  0  0  0  0  0  0  0  0  0
    7.5333   -1.4773    2.8009 H   0  0  0  0  0  0  0  0  0  0  0  0
    5.4230   -2.6959    2.3271 H   0  0  0  0  0  0  0  0  0  0  0  0
    3.8120   -1.8122    0.7156 H   0  0  0  0  0  0  0  0  0  0  0  0
   -3.3801    2.8103   -0.7692 H   0  0  0  0  0  0  0  0  0  0  0  0
   -4.8245    1.7732    0.8725 H   0  0  0  0  0  0  0  0  0  0  0  0
  1  2  1  0
  2  3  1  0
  2  4  1  0
  4  5  2  0
  5  6  1  0
  6  7  2  0
  7  8  1  0
  8  9  2  3
  9 10  1  0
 10 11  2  3
 11 12  1  0
 12 13  1  0
 13 14  2  0
 13 15  1  0
 15 16  1  0
 16 17  2  0
 17 18  1  0
 18 19  2  0
 19 20  1  0
 20 21  2  0
 15 22  1  0
 22 23  2  0
  7 24  1  0
 24 25  2  0
 25  4  1  0
 22 11  1  0
 21 16  1  0
  1 26  1  0
  1 27  1  0
  1 28  1  0
  3 29  1  0
  3 30  1  0
  3 31  1  0
  5 32  1  0
  6 33  1  0
  8 34  1  0
  9 35  1  0
 10 36  1  0
 17 37  1  0
 18 38  1  0
 19 39  1  0
 20 40  1  0
 21 41  1  0
 24 42  1  0
 25 43  1  0
M  END
$$$$
