
     RDKit          3D

 31 32  0  0  0  0  0  0  0  0999 V2000
    2.7829    1.2007    3.2573 C   0  0  0  0  0  0  0  0  0  0  0  0
    3.9864    0.2059    2.3318 S   0  0  0  0  0  0  0  0  0  0  0  0
    2.9288   -0.5163    1.0875 C   0  0  0  0  0  0  0  0  0  0  0  0
    3.3661   -0.5189   -0.2418 C   0  0  0  0  0  0  0  0  0  0  0  0
    2.5695   -1.0665   -1.2498 C   0  0  0  0  0  0  0  0  0  0  0  0
    1.3312   -1.6232   -0.9337 C   0  0  0  0  0  0  0  0  0  0  0  0
    0.8995   -1.6431    0.3920 C   0  0  0  0  0  0  0  0  0  0  0  0
   -0.3827   -2.1897    0.7158 N   0  0  0  0  0  0  0  0  0  0  0  0
   -1.6112   -1.0562    1.0553 S   0  0  0  0  0  6  0  0  0  0  0  0
   -2.8102   -1.8039    1.3716 O   0  0  0  0  0  0  0  0  0  0  0  0
   -1.1148   -0.0048    1.9188 O   0  0  0  0  0  0  0  0  0  0  0  0
   -2.0160   -0.2564   -0.4434 C   0  0  0  0  0  0  0  0  0  0  0  0
   -2.5655    1.0026   -0.5811 C   0  0  0  0  0  0  0  0  0  0  0  0
   -2.7062    1.1760   -1.9268 N   0  0  0  0  0  0  0  0  0  0  0  0
   -3.2416    2.3380   -2.5901 C   0  0  0  0  0  0  0  0  0  0  0  0
   -2.2516    0.0480   -2.5513 C   0  0  0  0  0  0  0  0  0  0  0  0
   -1.8232   -0.8455   -1.6869 N   0  0  0  0  0  0  0  0  0  0  0  0
    1.6967   -1.0975    1.3998 C   0  0  0  0  0  0  0  0  0  0  0  0
    2.1056    0.5622    3.8299 H   0  0  0  0  0  0  0  0  0  0  0  0
    2.2055    1.8368    2.5806 H   0  0  0  0  0  0  0  0  0  0  0  0
    3.3210    1.8425    3.9601 H   0  0  0  0  0  0  0  0  0  0  0  0
    4.3294   -0.0860   -0.5037 H   0  0  0  0  0  0  0  0  0  0  0  0
    2.9138   -1.0535   -2.2807 H   0  0  0  0  0  0  0  0  0  0  0  0
    0.7123   -2.0310   -1.7287 H   0  0  0  0  0  0  0  0  0  0  0  0
   -0.7496   -2.8235    0.0031 H   0  0  0  0  0  0  0  0  0  0  0  0
   -2.8504    1.7457    0.1515 H   0  0  0  0  0  0  0  0  0  0  0  0
   -2.5115    2.6856   -3.3255 H   0  0  0  0  0  0  0  0  0  0  0  0
   -4.1753    2.0536   -3.0817 H   0  0  0  0  0  0  0  0  0  0  0  0
   -3.4301    3.1243   -1.8548 H   0  0  0  0  0  0  0  0  0  0  0  0
   -2.2578   -0.0677   -3.6281 H   0  0  0  0  0  0  0  0  0  0  0  0
    1.3490   -1.1382    2.4281 H   0  0  0  0  0  0  0  0  0  0  0  0
  1  2  1  0
  2  3  1  0
  3  4  2  0
  4  5  1  0
  5  6  2  0
  6  7  1  0
  7  8  1  0
  8  9  1  0
  9 10  2  0
  9 11  2  0
  9 12  1  0
 12 13  2  0
 13 14  1  0
 14 15  1  0
 14 16  1  0
 16 17  2  0
  7 18  2  0
 18  3  1  0
 17 12  1  0
  1 19  1  0
  1 20  1  0
  1 21  1  0
  4 22  1  0
  5 23  1  0
  6 24  1  0
  8 25  1  0
 13 26  1  0
 15 27  1  0
 15 28  1  0
 15 29  1  0
 16 30  1  0
 18 31  1  0
M  END
$$$$
