
     RDKit          3D

 52 54  0  0  0  0  0  0  0  0999 V2000
    6.7800    2.2890   -0.3844 C   0  0  0  0  0  0  0  0  0  0  0  0
    5.9598    1.1854   -0.9837 C   0  0  0  0  0  0  0  0  0  0  0  0
    4.6906    1.4521   -1.5085 C   0  0  0  0  0  0  0  0  0  0  0  0
    3.9130    0.4205   -2.0392 C   0  0  0  0  0  0  0  0  0  0  0  0
    4.3889   -0.8975   -2.0514 C   0  0  0  0  0  0  0  0  0  0  0  0
    3.5362   -2.0080   -2.6064 C   0  0  0  0  0  0  0  0  0  0  0  0
    2.6130   -2.4930   -1.6145 N   0  0  0  0  0  0  0  0  0  0  0  0
    1.3176   -2.0392   -1.5320 C   0  0  0  0  0  0  0  0  0  0  0  0
    0.7547   -1.3100   -2.3347 O   0  0  0  0  0  0  0  0  0  0  0  0
    0.5766   -2.5374   -0.2691 C   0  0  0  0  0  0  0  0  0  0  0  0
    1.1466   -3.2792    0.5204 O   0  0  0  0  0  0  0  0  0  0  0  0
   -0.7113   -2.0664   -0.1428 N   0  0  0  0  0  0  0  0  0  0  0  0
   -1.4626   -2.2768    1.0807 C   0  0  0  0  0  0  0  0  0  0  0  0
   -2.9789   -1.9937    0.9624 C   0  0  0  0  0  0  0  0  0  0  0  0
   -3.6695   -2.7192    2.0004 O   0  0  0  0  0  0  0  0  0  0  0  0
   -3.7615   -1.8177    3.1063 C   0  0  0  0  0  0  0  0  0  0  0  0
   -4.0227   -0.4724    2.4664 C   0  0  0  0  0  0  0  0  0  0  0  0
   -3.4050   -0.5888    1.1356 N   0  0  0  0  0  0  0  0  0  0  0  0
   -2.4237    0.6447    0.5846 S   0  0  0  0  0  6  0  0  0  0  0  0
   -1.4576    0.9317    1.6224 O   0  0  0  0  0  0  0  0  0  0  0  0
   -2.0061    0.3150   -0.7608 O   0  0  0  0  0  0  0  0  0  0  0  0
   -3.5534    2.0101    0.4741 C   0  0  0  0  0  0  0  0  0  0  0  0
   -3.4530    3.0797    1.3690 C   0  0  0  0  0  0  0  0  0  0  0  0
   -4.3472    4.1470    1.2647 C   0  0  0  0  0  0  0  0  0  0  0  0
   -5.3238    4.1389    0.2668 C   0  0  0  0  0  0  0  0  0  0  0  0
   -6.5331    5.5858    0.1309 Br  0  0  0  0  0  0  0  0  0  0  0  0
   -5.4154    3.0757   -0.6331 C   0  0  0  0  0  0  0  0  0  0  0  0
   -4.5246    2.0059   -0.5331 C   0  0  0  0  0  0  0  0  0  0  0  0
    5.6490   -1.1665   -1.5017 C   0  0  0  0  0  0  0  0  0  0  0  0
    6.4266   -0.1337   -0.9714 C   0  0  0  0  0  0  0  0  0  0  0  0
    7.8504    2.0772   -0.4798 H   0  0  0  0  0  0  0  0  0  0  0  0
    6.5355    2.4040    0.6761 H   0  0  0  0  0  0  0  0  0  0  0  0
    6.5904    3.2381   -0.8970 H   0  0  0  0  0  0  0  0  0  0  0  0
    4.2955    2.4654   -1.5054 H   0  0  0  0  0  0  0  0  0  0  0  0
    2.9257    0.6483   -2.4392 H   0  0  0  0  0  0  0  0  0  0  0  0
    4.1620   -2.8532   -2.9135 H   0  0  0  0  0  0  0  0  0  0  0  0
    2.9969   -1.6633   -3.4961 H   0  0  0  0  0  0  0  0  0  0  0  0
    2.9651   -2.9905   -0.8022 H   0  0  0  0  0  0  0  0  0  0  0  0
   -0.9649   -1.3027   -0.7798 H   0  0  0  0  0  0  0  0  0  0  0  0
   -0.9992   -1.6771    1.8720 H   0  0  0  0  0  0  0  0  0  0  0  0
   -1.3169   -3.3237    1.3767 H   0  0  0  0  0  0  0  0  0  0  0  0
   -3.3570   -2.3685    0.0051 H   0  0  0  0  0  0  0  0  0  0  0  0
   -4.5624   -2.1289    3.7822 H   0  0  0  0  0  0  0  0  0  0  0  0
   -2.8122   -1.8299    3.6531 H   0  0  0  0  0  0  0  0  0  0  0  0
   -5.0972   -0.3129    2.3268 H   0  0  0  0  0  0  0  0  0  0  0  0
   -3.6291    0.3419    3.0795 H   0  0  0  0  0  0  0  0  0  0  0  0
   -2.6879    3.0927    2.1425 H   0  0  0  0  0  0  0  0  0  0  0  0
   -4.2732    4.9801    1.9598 H   0  0  0  0  0  0  0  0  0  0  0  0
   -6.1705    3.0745   -1.4156 H   0  0  0  0  0  0  0  0  0  0  0  0
   -4.5886    1.1788   -1.2374 H   0  0  0  0  0  0  0  0  0  0  0  0
    6.0344   -2.1833   -1.4795 H   0  0  0  0  0  0  0  0  0  0  0  0
    7.4003   -0.3665   -0.5463 H   0  0  0  0  0  0  0  0  0  0  0  0
  1  2  1  0
  2  3  2  0
  3  4  1  0
  4  5  2  0
  5  6  1  0
  6  7  1  0
  7  8  1  0
  8  9  2  0
  8 10  1  0
 10 11  2  0
 10 12  1  0
 12 13  1  0
 13 14  1  0
 14 15  1  0
 15 16  1  0
 16 17  1  0
 17 18  1  0
 18 19  1  0
 19 20  2  0
 19 21  2  0
 19 22  1  0
 22 23  2  0
 23 24  1  0
 24 25  2  0
 25 26  1  0
 25 27  1  0
 27 28  2  0
  5 29  1  0
 29 30  2  0
 30  2  1  0
 18 14  1  0
 28 22  1  0
  1 31  1  0
  1 32  1  0
  1 33  1  0
  3 34  1  0
  4 35  1  0
  6 36  1  0
  6 37  1  0
  7 38  1  0
 12 39  1  0
 13 40  1  0
 13 41  1  0
 14 42  1  0
 16 43  1  0
 16 44  1  0
 17 45  1  0
 17 46  1  0
 23 47  1  0
 24 48  1  0
 27 49  1  0
 28 50  1  0
 29 51  1  0
 30 52  1  0
M  END
$$$$
