
     RDKit          3D

 60 62  0  0  0  0  0  0  0  0999 V2000
   -4.4819    3.6402   -1.4065 C   0  0  0  0  0  0  0  0  0  0  0  0
   -4.7440    2.8665   -0.1235 C   0  0  0  0  0  0  0  0  0  0  0  0
   -3.7513    1.7493    0.0688 C   0  0  0  0  0  0  0  0  0  0  0  0
   -2.5345    1.9816    0.7171 C   0  0  0  0  0  0  0  0  0  0  0  0
   -1.6112    0.9448    0.8797 C   0  0  0  0  0  0  0  0  0  0  0  0
   -1.8821   -0.3395    0.3931 C   0  0  0  0  0  0  0  0  0  0  0  0
   -0.8930   -1.3201    0.5885 N   0  0  0  0  0  0  0  0  0  0  0  0
   -0.9123   -2.6555    0.2120 C   0  0  0  0  0  0  0  0  0  0  0  0
   -1.8420   -3.2266   -0.3472 O   0  0  0  0  0  0  0  0  0  0  0  0
    0.4443   -3.3485    0.4842 C   0  0  0  0  0  0  0  0  0  0  0  0
    1.0692   -2.7610    1.7014 N   0  0  0  0  0  0  0  0  0  0  0  0
    2.7088   -2.3974    1.6831 S   0  0  0  0  0  6  0  0  0  0  0  0
    3.3626   -3.2294    0.7003 O   0  0  0  0  0  0  0  0  0  0  0  0
    3.1240   -2.3600    3.0665 O   0  0  0  0  0  0  0  0  0  0  0  0
    2.6588   -0.7270    1.0820 C   0  0  0  0  0  0  0  0  0  0  0  0
    2.4885    0.3256    1.9976 C   0  0  0  0  0  0  0  0  0  0  0  0
    2.3797    1.6421    1.5398 C   0  0  0  0  0  0  0  0  0  0  0  0
    2.4470    1.8790    0.1759 C   0  0  0  0  0  0  0  0  0  0  0  0
    2.6435    0.8290   -0.7244 C   0  0  0  0  0  0  0  0  0  0  0  0
    2.7582   -0.4838   -0.2910 C   0  0  0  0  0  0  0  0  0  0  0  0
    2.6766    1.3194   -2.1358 C   0  0  0  0  0  0  0  0  0  0  0  0
    2.5337    2.8357   -1.9542 C   0  0  0  0  0  0  0  0  0  0  0  0
    2.3422    3.0980   -0.5170 N   0  0  0  0  0  0  0  0  0  0  0  0
    2.0967    4.3342    0.0533 C   0  0  0  0  0  0  0  0  0  0  0  0
    2.0702    5.4966   -0.9103 C   0  0  0  0  0  0  0  0  0  0  0  0
    1.8972    4.5324    1.2512 O   0  0  0  0  0  0  0  0  0  0  0  0
    0.3919   -4.8872    0.6236 C   0  0  0  0  0  0  0  0  0  0  0  0
    0.1785   -5.5782   -0.7265 C   0  0  0  0  0  0  0  0  0  0  0  0
   -0.6386   -5.3823    1.6436 C   0  0  0  0  0  0  0  0  0  0  0  0
   -3.0920   -0.5700   -0.2599 C   0  0  0  0  0  0  0  0  0  0  0  0
   -4.0192    0.4665   -0.4219 C   0  0  0  0  0  0  0  0  0  0  0  0
   -4.5533    2.9888   -2.2837 H   0  0  0  0  0  0  0  0  0  0  0  0
   -3.4836    4.0901   -1.4028 H   0  0  0  0  0  0  0  0  0  0  0  0
   -5.2160    4.4441   -1.5206 H   0  0  0  0  0  0  0  0  0  0  0  0
   -5.7622    2.4578   -0.1400 H   0  0  0  0  0  0  0  0  0  0  0  0
   -4.7042    3.5471    0.7362 H   0  0  0  0  0  0  0  0  0  0  0  0
   -2.2948    2.9711    1.1013 H   0  0  0  0  0  0  0  0  0  0  0  0
   -0.6768    1.1639    1.3894 H   0  0  0  0  0  0  0  0  0  0  0  0
   -0.0663   -1.0344    1.1002 H   0  0  0  0  0  0  0  0  0  0  0  0
    1.0565   -3.0898   -0.3894 H   0  0  0  0  0  0  0  0  0  0  0  0
    0.7366   -3.0812    2.6121 H   0  0  0  0  0  0  0  0  0  0  0  0
    2.4306    0.1281    3.0663 H   0  0  0  0  0  0  0  0  0  0  0  0
    2.2444    2.4471    2.2549 H   0  0  0  0  0  0  0  0  0  0  0  0
    2.9045   -1.2932   -1.0006 H   0  0  0  0  0  0  0  0  0  0  0  0
    1.8382    0.9126   -2.7090 H   0  0  0  0  0  0  0  0  0  0  0  0
    3.6187    1.0662   -2.6304 H   0  0  0  0  0  0  0  0  0  0  0  0
    1.6794    3.2283   -2.5169 H   0  0  0  0  0  0  0  0  0  0  0  0
    3.4355    3.3612   -2.2894 H   0  0  0  0  0  0  0  0  0  0  0  0
    1.9300    6.4270   -0.3515 H   0  0  0  0  0  0  0  0  0  0  0  0
    1.2376    5.3876   -1.6101 H   0  0  0  0  0  0  0  0  0  0  0  0
    3.0180    5.5660   -1.4505 H   0  0  0  0  0  0  0  0  0  0  0  0
    1.3745   -5.2213    0.9853 H   0  0  0  0  0  0  0  0  0  0  0  0
   -0.8118   -5.3748   -1.1440 H   0  0  0  0  0  0  0  0  0  0  0  0
    0.2734   -6.6646   -0.6192 H   0  0  0  0  0  0  0  0  0  0  0  0
    0.9295   -5.2521   -1.4540 H   0  0  0  0  0  0  0  0  0  0  0  0
   -1.6649   -5.1692    1.3290 H   0  0  0  0  0  0  0  0  0  0  0  0
   -0.4822   -4.9266    2.6260 H   0  0  0  0  0  0  0  0  0  0  0  0
   -0.5552   -6.4677    1.7711 H   0  0  0  0  0  0  0  0  0  0  0  0
   -3.3501   -1.5461   -0.6574 H   0  0  0  0  0  0  0  0  0  0  0  0
   -4.9551    0.2596   -0.9364 H   0  0  0  0  0  0  0  0  0  0  0  0
  1  2  1  0
  2  3  1  0
  3  4  2  0
  4  5  1  0
  5  6  2  0
  6  7  1  0
  7  8  1  0
  8  9  2  0
  8 10  1  0
 10 11  1  0
 11 12  1  0
 12 13  2  0
 12 14  2  0
 12 15  1  0
 15 16  2  0
 16 17  1  0
 17 18  2  0
 18 19  1  0
 19 20  2  0
 19 21  1  0
 21 22  1  0
 22 23  1  0
 23 24  1  0
 24 25  1  0
 24 26  2  0
 10 27  1  0
 27 28  1  0
 27 29  1  0
  6 30  1  0
 30 31  2  0
 31  3  1  0
 20 15  1  0
 23 18  1  0
  1 32  1  0
  1 33  1  0
  1 34  1  0
  2 35  1  0
  2 36  1  0
  4 37  1  0
  5 38  1  0
  7 39  1  0
 10 40  1  0
 11 41  1  0
 16 42  1  0
 17 43  1  0
 20 44  1  0
 21 45  1  0
 21 46  1  0
 22 47  1  0
 22 48  1  0
 25 49  1  0
 25 50  1  0
 25 51  1  0
 27 52  1  0
 28 53  1  0
 28 54  1  0
 28 55  1  0
 29 56  1  0
 29 57  1  0
 29 58  1  0
 30 59  1  0
 31 60  1  0
M  END
$$$$
