
     RDKit          3D

 46 48  0  0  0  0  0  0  0  0999 V2000
    1.1256    2.5446   -2.1922 O   0  0  0  0  0  0  0  0  0  0  0  0
    0.7632    2.1809   -1.0729 C   0  0  0  0  0  0  0  0  0  0  0  0
   -0.1783    3.0083   -0.1981 C   0  0  0  0  0  0  0  0  0  0  0  0
   -0.7423    2.3201    0.9092 O   0  0  0  0  0  0  0  0  0  0  0  0
   -1.8651    1.5704    0.6938 C   0  0  0  0  0  0  0  0  0  0  0  0
   -2.4160    1.2456   -0.5436 C   0  0  0  0  0  0  0  0  0  0  0  0
   -3.5694    0.4534   -0.6133 C   0  0  0  0  0  0  0  0  0  0  0  0
   -4.1954   -0.0294    0.5461 C   0  0  0  0  0  0  0  0  0  0  0  0
   -5.4108   -0.8553    0.4675 C   0  0  0  0  0  0  0  0  0  0  0  0
   -5.4411   -2.0283   -0.3030 C   0  0  0  0  0  0  0  0  0  0  0  0
   -6.5952   -2.8134   -0.3751 C   0  0  0  0  0  0  0  0  0  0  0  0
   -7.7403   -2.4364    0.3215 C   0  0  0  0  0  0  0  0  0  0  0  0
   -7.7319   -1.2773    1.0910 C   0  0  0  0  0  0  0  0  0  0  0  0
   -6.5766   -0.4941    1.1630 C   0  0  0  0  0  0  0  0  0  0  0  0
   -3.6251    0.3026    1.7824 C   0  0  0  0  0  0  0  0  0  0  0  0
   -2.4720    1.0894    1.8536 C   0  0  0  0  0  0  0  0  0  0  0  0
    1.2067    1.0065   -0.4958 N   0  0  0  0  0  0  0  0  0  0  0  0
    2.3286    0.3855   -1.0981 N   0  0  0  0  0  0  0  0  0  0  0  0
    3.4389    0.2209   -0.2785 C   0  0  0  0  0  0  0  0  0  0  0  0
    3.3868    0.4366    0.9279 O   0  0  0  0  0  0  0  0  0  0  0  0
    4.5279   -0.2192   -0.9945 N   0  0  0  0  0  0  0  0  0  0  0  0
    5.8349   -0.4546   -0.5215 C   0  0  0  0  0  0  0  0  0  0  0  0
    6.2651   -0.1728    0.7766 C   0  0  0  0  0  0  0  0  0  0  0  0
    7.5879   -0.4383    1.1474 C   0  0  0  0  0  0  0  0  0  0  0  0
    8.4752   -0.9787    0.2221 C   0  0  0  0  0  0  0  0  0  0  0  0
    9.7389   -1.2269    0.5871 F   0  0  0  0  0  0  0  0  0  0  0  0
    8.0711   -1.2621   -1.0729 C   0  0  0  0  0  0  0  0  0  0  0  0
    6.7553   -0.9975   -1.4316 C   0  0  0  0  0  0  0  0  0  0  0  0
    6.3576   -1.2705   -2.6851 F   0  0  0  0  0  0  0  0  0  0  0  0
    0.4288    3.8213    0.2165 H   0  0  0  0  0  0  0  0  0  0  0  0
   -0.9489    3.4803   -0.8186 H   0  0  0  0  0  0  0  0  0  0  0  0
   -1.9803    1.5788   -1.4793 H   0  0  0  0  0  0  0  0  0  0  0  0
   -3.9863    0.2213   -1.5915 H   0  0  0  0  0  0  0  0  0  0  0  0
   -4.5537   -2.3475   -0.8457 H   0  0  0  0  0  0  0  0  0  0  0  0
   -6.5968   -3.7201   -0.9729 H   0  0  0  0  0  0  0  0  0  0  0  0
   -8.6380   -3.0464    0.2654 H   0  0  0  0  0  0  0  0  0  0  0  0
   -8.6241   -0.9787    1.6340 H   0  0  0  0  0  0  0  0  0  0  0  0
   -6.5950    0.4142    1.7620 H   0  0  0  0  0  0  0  0  0  0  0  0
   -4.0708   -0.0609    2.7066 H   0  0  0  0  0  0  0  0  0  0  0  0
   -2.0476    1.3285    2.8257 H   0  0  0  0  0  0  0  0  0  0  0  0
    1.1462    0.9095    0.5208 H   0  0  0  0  0  0  0  0  0  0  0  0
    2.5114    0.7362   -2.0369 H   0  0  0  0  0  0  0  0  0  0  0  0
    4.3560   -0.4943   -1.9538 H   0  0  0  0  0  0  0  0  0  0  0  0
    5.6000    0.2539    1.5208 H   0  0  0  0  0  0  0  0  0  0  0  0
    7.9283   -0.2240    2.1561 H   0  0  0  0  0  0  0  0  0  0  0  0
    8.7666   -1.6821   -1.7891 H   0  0  0  0  0  0  0  0  0  0  0  0
  1  2  2  0
  2  3  1  0
  3  4  1  0
  4  5  1  0
  5  6  2  0
  6  7  1  0
  7  8  2  0
  8  9  1  0
  9 10  2  0
 10 11  1  0
 11 12  2  0
 12 13  1  0
 13 14  2  0
  8 15  1  0
 15 16  2  0
  2 17  1  0
 17 18  1  0
 18 19  1  0
 19 20  2  0
 19 21  1  0
 21 22  1  0
 22 23  2  0
 23 24  1  0
 24 25  2  0
 25 26  1  0
 25 27  1  0
 27 28  2  0
 28 29  1  0
 16  5  1  0
 28 22  1  0
 14  9  1  0
  3 30  1  0
  3 31  1  0
  6 32  1  0
  7 33  1  0
 10 34  1  0
 11 35  1  0
 12 36  1  0
 13 37  1  0
 14 38  1  0
 15 39  1  0
 16 40  1  0
 17 41  1  0
 18 42  1  0
 21 43  1  0
 23 44  1  0
 24 45  1  0
 27 46  1  0
M  END
$$$$
