
     RDKit          3D

 53 58  0  0  0  0  0  0  0  0999 V2000
   -0.9768   -1.2755   -1.5381 O   0  0  0  0  0  0  0  0  0  0  0  0
   -1.4533   -0.2425   -1.0579 C   0  0  0  0  0  0  0  0  0  0  0  0
   -0.5927    1.0395   -1.1122 C   0  0  0  0  0  0  0  0  0  0  0  0
    0.8183    0.7146   -0.8278 N   0  0  0  0  0  4  0  0  0  0  0  0
    1.4644    0.8127    0.4033 C   0  0  0  0  0  0  0  0  0  0  0  0
    2.7627    0.3338    0.2706 C   0  0  0  0  0  0  0  0  0  0  0  0
    3.8595    0.2838    1.3970 C   0  0  0  0  0  0  0  0  0  0  0  0
    3.5414    0.6757    2.7025 C   0  0  0  0  0  0  0  0  0  0  0  0
    4.5149    0.6330    3.7071 C   0  0  0  0  0  0  0  0  0  0  0  0
    5.8120    0.2041    3.4174 C   0  0  0  0  0  0  0  0  0  0  0  0
    6.9600    0.1792    4.7039 Cl  0  0  0  0  0  0  0  0  0  0  0  0
    6.1325   -0.1819    2.1138 C   0  0  0  0  0  0  0  0  0  0  0  0
    7.7129   -0.7173    1.6668 Cl  0  0  0  0  0  0  0  0  0  0  0  0
    5.1574   -0.1407    1.1071 C   0  0  0  0  0  0  0  0  0  0  0  0
    2.8206   -0.0665   -1.0526 N   0  0  0  0  0  0  0  0  0  0  0  0
    1.6707    0.1602   -1.6841 C   0  0  0  0  0  0  0  0  0  0  0  0
    1.6932   -0.2528   -3.1066 C   0  0  0  0  0  0  0  0  0  0  0  0
    2.9634   -1.1224   -3.1675 C   0  0  0  0  0  0  0  0  0  0  0  0
    3.7973   -0.7062   -1.9253 C   0  0  0  0  0  0  0  0  0  0  0  0
   -2.6552   -0.1413   -0.3359 N   0  0  0  0  0  0  0  0  0  0  0  0
   -3.4173    1.0803   -0.2964 C   0  0  0  0  0  0  0  0  0  0  0  0
   -3.4779    1.8946   -1.4457 C   0  0  0  0  0  0  0  0  0  0  0  0
   -4.1935    3.0946   -1.4474 C   0  0  0  0  0  0  0  0  0  0  0  0
   -4.8754    3.4960   -0.3058 C   0  0  0  0  0  0  0  0  0  0  0  0
   -4.8600    2.6866    0.8279 C   0  0  0  0  0  0  0  0  0  0  0  0
   -4.1507    1.4768    0.8323 C   0  0  0  0  0  0  0  0  0  0  0  0
   -4.1754    0.5026    2.3103 S   0  0  0  0  0  0  0  0  0  0  0  0
   -3.9362   -1.0988    1.5729 C   0  0  0  0  0  0  0  0  0  0  0  0
   -4.4454   -2.2053    2.2714 C   0  0  0  0  0  0  0  0  0  0  0  0
   -4.2445   -3.4962    1.7950 C   0  0  0  0  0  0  0  0  0  0  0  0
   -3.5284   -3.6866    0.6219 C   0  0  0  0  0  0  0  0  0  0  0  0
   -3.0110   -2.5875   -0.0730 C   0  0  0  0  0  0  0  0  0  0  0  0
   -3.2034   -1.2703    0.3809 C   0  0  0  0  0  0  0  0  0  0  0  0
   -0.9046    1.7835   -0.3748 H   0  0  0  0  0  0  0  0  0  0  0  0
   -0.6472    1.4712   -2.1160 H   0  0  0  0  0  0  0  0  0  0  0  0
    0.9101    1.2236    1.2303 H   0  0  0  0  0  0  0  0  0  0  0  0
    2.5459    1.0127    2.9794 H   0  0  0  0  0  0  0  0  0  0  0  0
    4.2554    0.9361    4.7207 H   0  0  0  0  0  0  0  0  0  0  0  0
    5.4476   -0.4324    0.1059 H   0  0  0  0  0  0  0  0  0  0  0  0
    1.7860    0.6640   -3.6930 H   0  0  0  0  0  0  0  0  0  0  0  0
    0.7831   -0.7990   -3.3506 H   0  0  0  0  0  0  0  0  0  0  0  0
    3.5138   -1.0082   -4.1053 H   0  0  0  0  0  0  0  0  0  0  0  0
    2.6808   -2.1773   -3.0685 H   0  0  0  0  0  0  0  0  0  0  0  0
    4.2421   -1.5790   -1.4421 H   0  0  0  0  0  0  0  0  0  0  0  0
    4.5638    0.0274   -2.1917 H   0  0  0  0  0  0  0  0  0  0  0  0
   -3.0275    1.5831   -2.3851 H   0  0  0  0  0  0  0  0  0  0  0  0
   -4.2427    3.7044   -2.3478 H   0  0  0  0  0  0  0  0  0  0  0  0
   -5.4432    4.4245   -0.3037 H   0  0  0  0  0  0  0  0  0  0  0  0
   -5.4200    3.0022    1.7073 H   0  0  0  0  0  0  0  0  0  0  0  0
   -5.0033   -2.0677    3.1962 H   0  0  0  0  0  0  0  0  0  0  0  0
   -4.6484   -4.3486    2.3364 H   0  0  0  0  0  0  0  0  0  0  0  0
   -3.3777   -4.6922    0.2353 H   0  0  0  0  0  0  0  0  0  0  0  0
   -2.4979   -2.8043   -1.0052 H   0  0  0  0  0  0  0  0  0  0  0  0
  1  2  2  0
  2  3  1  0
  3  4  1  0
  4  5  1  0
  5  6  2  0
  6  7  1  0
  7  8  2  0
  8  9  1  0
  9 10  2  0
 10 11  1  0
 10 12  1  0
 12 13  1  0
 12 14  2  0
  6 15  1  0
 15 16  1  0
 16 17  1  0
 17 18  1  0
 18 19  1  0
  2 20  1  0
 20 21  1  0
 21 22  2  0
 22 23  1  0
 23 24  2  0
 24 25  1  0
 25 26  2  0
 26 27  1  0
 27 28  1  0
 28 29  2  0
 29 30  1  0
 30 31  2  0
 31 32  1  0
 32 33  2  0
 16  4  2  0
 33 20  1  0
 14  7  1  0
 19 15  1  0
 26 21  1  0
 33 28  1  0
  3 34  1  0
  3 35  1  0
  5 36  1  0
  8 37  1  0
  9 38  1  0
 14 39  1  0
 17 40  1  0
 17 41  1  0
 18 42  1  0
 18 43  1  0
 19 44  1  0
 19 45  1  0
 22 46  1  0
 23 47  1  0
 24 48  1  0
 25 49  1  0
 29 50  1  0
 30 51  1  0
 31 52  1  0
 32 53  1  0
M  CHG  1   4   1
M  END
$$$$
