
     RDKit          3D

 57 60  0  0  0  0  0  0  0  0999 V2000
    5.5717    3.1383   -0.8599 C   0  0  0  0  0  0  0  0  0  0  0  0
    4.4572    2.1606   -0.6888 C   0  0  0  0  0  0  0  0  0  0  0  0
    3.1182    2.3782   -0.9415 C   0  0  0  0  0  0  0  0  0  0  0  0
    2.3995    1.2362   -0.5309 C   0  0  0  0  0  0  0  0  0  0  0  0
    0.9785    1.1209   -0.6276 C   0  0  0  0  0  0  0  0  0  0  0  0
    0.1882    0.3808    0.1669 C   0  0  0  0  0  0  0  0  0  0  0  0
   -1.2710    0.3703    0.0266 C   0  0  0  0  0  0  0  0  0  0  0  0
   -1.9776    1.5169    0.3928 C   0  0  0  0  0  0  0  0  0  0  0  0
   -3.3586    1.5327    0.3193 C   0  0  0  0  0  0  0  0  0  0  0  0
   -4.0369    0.3947   -0.1053 C   0  0  0  0  0  0  0  0  0  0  0  0
   -5.4456    0.3935   -0.1696 C   0  0  0  0  0  0  0  0  0  0  0  0
   -6.1924   -0.7246   -0.5751 C   0  0  0  0  0  0  0  0  0  0  0  0
   -7.5815   -0.7007   -0.6569 N   0  0  0  0  0  0  0  0  0  0  0  0
   -8.3381    0.4055   -0.0660 C   0  0  0  0  0  0  0  0  0  0  0  0
   -8.3304   -1.9459   -0.8416 C   0  0  0  0  0  0  0  0  0  0  0  0
   -5.4448   -1.8546   -0.9303 C   0  0  0  0  0  0  0  0  0  0  0  0
   -4.0412   -1.8797   -0.8774 C   0  0  0  0  0  0  0  0  0  0  0  0
   -3.3055   -0.7585   -0.4702 C   0  0  0  0  0  0  0  0  0  0  0  0
   -1.9326   -0.7386   -0.4126 N   0  0  0  0  0  4  0  0  0  0  0  0
   -1.1737   -1.9309   -0.8600 C   0  0  0  0  0  0  0  0  0  0  0  0
    3.3215    0.2962   -0.0950 C   0  0  0  0  0  0  0  0  0  0  0  0
    3.1236   -1.1408    0.2686 C   0  0  0  0  0  0  0  0  0  0  0  0
    4.5917    0.8893   -0.1396 N   0  0  0  0  0  0  0  0  0  0  0  0
    5.8082    0.2956    0.3079 C   0  0  0  0  0  0  0  0  0  0  0  0
    6.9597    0.3604   -0.4852 C   0  0  0  0  0  0  0  0  0  0  0  0
    8.1471   -0.2231   -0.0384 C   0  0  0  0  0  0  0  0  0  0  0  0
    8.1900   -0.8662    1.1978 C   0  0  0  0  0  0  0  0  0  0  0  0
    7.0458   -0.9298    1.9915 C   0  0  0  0  0  0  0  0  0  0  0  0
    5.8540   -0.3519    1.5497 C   0  0  0  0  0  0  0  0  0  0  0  0
    6.2633    3.1193   -0.0124 H   0  0  0  0  0  0  0  0  0  0  0  0
    5.1769    4.1583   -0.9269 H   0  0  0  0  0  0  0  0  0  0  0  0
    6.1227    2.9410   -1.7841 H   0  0  0  0  0  0  0  0  0  0  0  0
    2.7113    3.2968   -1.3480 H   0  0  0  0  0  0  0  0  0  0  0  0
    0.5183    1.7446   -1.3955 H   0  0  0  0  0  0  0  0  0  0  0  0
    0.5935   -0.2169    0.9775 H   0  0  0  0  0  0  0  0  0  0  0  0
   -1.4526    2.4031    0.7483 H   0  0  0  0  0  0  0  0  0  0  0  0
   -3.8977    2.4348    0.6082 H   0  0  0  0  0  0  0  0  0  0  0  0
   -5.9648    1.3087    0.1088 H   0  0  0  0  0  0  0  0  0  0  0  0
   -8.1669    0.4616    1.0146 H   0  0  0  0  0  0  0  0  0  0  0  0
   -9.4158    0.2867   -0.2241 H   0  0  0  0  0  0  0  0  0  0  0  0
   -8.0685    1.3596   -0.5315 H   0  0  0  0  0  0  0  0  0  0  0  0
   -9.4095   -1.7636   -0.8941 H   0  0  0  0  0  0  0  0  0  0  0  0
   -8.1524   -2.6351   -0.0088 H   0  0  0  0  0  0  0  0  0  0  0  0
   -8.0602   -2.4317   -1.7853 H   0  0  0  0  0  0  0  0  0  0  0  0
   -5.9414   -2.7618   -1.2685 H   0  0  0  0  0  0  0  0  0  0  0  0
   -3.5684   -2.8131   -1.1682 H   0  0  0  0  0  0  0  0  0  0  0  0
   -1.3684   -2.7363   -0.1466 H   0  0  0  0  0  0  0  0  0  0  0  0
   -1.5101   -2.1927   -1.8673 H   0  0  0  0  0  0  0  0  0  0  0  0
   -0.1019   -1.7467   -0.9129 H   0  0  0  0  0  0  0  0  0  0  0  0
    2.9199   -1.2433    1.3386 H   0  0  0  0  0  0  0  0  0  0  0  0
    2.2790   -1.5674   -0.2809 H   0  0  0  0  0  0  0  0  0  0  0  0
    3.9893   -1.7574    0.0085 H   0  0  0  0  0  0  0  0  0  0  0  0
    6.9462    0.8219   -1.4684 H   0  0  0  0  0  0  0  0  0  0  0  0
    9.0400   -0.1806   -0.6578 H   0  0  0  0  0  0  0  0  0  0  0  0
    9.1179   -1.3154    1.5441 H   0  0  0  0  0  0  0  0  0  0  0  0
    7.0872   -1.4205    2.9610 H   0  0  0  0  0  0  0  0  0  0  0  0
    4.9881   -0.3784    2.2050 H   0  0  0  0  0  0  0  0  0  0  0  0
  1  2  1  0
  2  3  2  0
  3  4  1  0
  4  5  1  0
  5  6  2  3
  6  7  1  0
  7  8  2  0
  8  9  1  0
  9 10  2  0
 10 11  1  0
 11 12  2  0
 12 13  1  0
 13 14  1  0
 13 15  1  0
 12 16  1  0
 16 17  2  0
 17 18  1  0
 18 19  2  0
 19 20  1  0
  4 21  2  0
 21 22  1  0
 21 23  1  0
 23 24  1  0
 24 25  2  0
 25 26  1  0
 26 27  2  0
 27 28  1  0
 28 29  2  0
 23  2  1  0
 29 24  1  0
 19  7  1  0
 18 10  1  0
  1 30  1  0
  1 31  1  0
  1 32  1  0
  3 33  1  0
  5 34  1  0
  6 35  1  0
  8 36  1  0
  9 37  1  0
 11 38  1  0
 14 39  1  0
 14 40  1  0
 14 41  1  0
 15 42  1  0
 15 43  1  0
 15 44  1  0
 16 45  1  0
 17 46  1  0
 20 47  1  0
 20 48  1  0
 20 49  1  0
 22 50  1  0
 22 51  1  0
 22 52  1  0
 25 53  1  0
 26 54  1  0
 27 55  1  0
 28 56  1  0
 29 57  1  0
M  CHG  1  19   1
M  END
$$$$
