
     RDKit          3D

 51 54  0  0  0  0  0  0  0  0999 V2000
    6.2787    1.1161   -2.3963 C   0  0  0  0  0  0  0  0  0  0  0  0
    5.6818    0.1049   -1.4296 C   0  0  0  0  0  0  0  0  0  0  0  0
    4.2648    0.4522   -1.0542 C   0  0  0  0  0  0  0  0  0  0  0  0
    3.9877    1.1323    0.1326 C   0  0  0  0  0  0  0  0  0  0  0  0
    2.6699    1.4650    0.4728 C   0  0  0  0  0  0  0  0  0  0  0  0
    1.5881    1.1354   -0.3600 C   0  0  0  0  0  0  0  0  0  0  0  0
    0.2248    1.4850   -0.0010 N   0  0  0  0  0  0  0  0  0  0  0  0
    0.0084    2.6773    0.7012 C   0  0  0  0  0  0  0  0  0  0  0  0
    0.8546    3.5397    0.9387 O   0  0  0  0  0  0  0  0  0  0  0  0
   -1.3631    2.9599    1.1526 C   0  0  0  0  0  0  0  0  0  0  0  0
   -1.6002    4.0664    1.9871 C   0  0  0  0  0  0  0  0  0  0  0  0
   -2.8915    4.3623    2.4114 C   0  0  0  0  0  0  0  0  0  0  0  0
   -3.9443    3.5547    2.0021 C   0  0  0  0  0  0  0  0  0  0  0  0
   -3.7055    2.4575    1.1671 C   0  0  0  0  0  0  0  0  0  0  0  0
   -2.4076    2.1476    0.7280 C   0  0  0  0  0  0  0  0  0  0  0  0
   -2.1227    1.0441   -0.1122 N   0  0  0  0  0  0  0  0  0  0  0  0
   -3.2048    0.1998   -0.6304 C   0  0  0  0  0  0  0  0  0  0  0  0
   -3.5701   -0.9049    0.3601 C   0  0  0  0  0  0  0  0  0  0  0  0
   -4.5367   -0.8174    1.1130 O   0  0  0  0  0  0  0  0  0  0  0  0
   -2.7118   -1.9796    0.3523 N   0  0  0  0  0  0  0  0  0  0  0  0
   -2.8191   -3.0125    1.3530 C   0  0  0  0  0  0  0  0  0  0  0  0
   -1.9738   -4.1561    0.9431 C   0  0  0  0  0  0  0  0  0  0  0  0
   -2.2084   -5.2845    0.1846 C   0  0  0  0  0  0  0  0  0  0  0  0
   -0.9854   -5.9948    0.1373 C   0  0  0  0  0  0  0  0  0  0  0  0
   -0.0844   -5.2555    0.8664 C   0  0  0  0  0  0  0  0  0  0  0  0
   -0.6744   -4.1368    1.3583 O   0  0  0  0  0  0  0  0  0  0  0  0
   -0.8181    0.6344   -0.3902 C   0  0  0  0  0  0  0  0  0  0  0  0
   -0.6509   -0.4715   -0.9192 O   0  0  0  0  0  0  0  0  0  0  0  0
    1.8859    0.4585   -1.5541 C   0  0  0  0  0  0  0  0  0  0  0  0
    3.2020    0.1217   -1.8971 C   0  0  0  0  0  0  0  0  0  0  0  0
    5.7111    1.1565   -3.3320 H   0  0  0  0  0  0  0  0  0  0  0  0
    7.3109    0.8442   -2.6385 H   0  0  0  0  0  0  0  0  0  0  0  0
    6.2853    2.1221   -1.9635 H   0  0  0  0  0  0  0  0  0  0  0  0
    5.7042   -0.8964   -1.8759 H   0  0  0  0  0  0  0  0  0  0  0  0
    6.3034    0.0488   -0.5274 H   0  0  0  0  0  0  0  0  0  0  0  0
    4.7925    1.4099    0.8098 H   0  0  0  0  0  0  0  0  0  0  0  0
    2.5146    1.9688    1.4238 H   0  0  0  0  0  0  0  0  0  0  0  0
   -0.7758    4.7013    2.3077 H   0  0  0  0  0  0  0  0  0  0  0  0
   -3.0728    5.2158    3.0597 H   0  0  0  0  0  0  0  0  0  0  0  0
   -4.9573    3.7700    2.3359 H   0  0  0  0  0  0  0  0  0  0  0  0
   -4.5673    1.8515    0.9020 H   0  0  0  0  0  0  0  0  0  0  0  0
   -4.0896    0.7926   -0.8818 H   0  0  0  0  0  0  0  0  0  0  0  0
   -2.8987   -0.2680   -1.5747 H   0  0  0  0  0  0  0  0  0  0  0  0
   -1.8028   -1.8503   -0.0942 H   0  0  0  0  0  0  0  0  0  0  0  0
   -2.4890   -2.5964    2.3107 H   0  0  0  0  0  0  0  0  0  0  0  0
   -3.8668   -3.3131    1.4557 H   0  0  0  0  0  0  0  0  0  0  0  0
   -3.1462   -5.5538   -0.2811 H   0  0  0  0  0  0  0  0  0  0  0  0
   -0.7835   -6.9289   -0.3675 H   0  0  0  0  0  0  0  0  0  0  0  0
    0.9595   -5.3808    1.1189 H   0  0  0  0  0  0  0  0  0  0  0  0
    1.1075    0.2016   -2.2676 H   0  0  0  0  0  0  0  0  0  0  0  0
    3.3870   -0.3964   -2.8357 H   0  0  0  0  0  0  0  0  0  0  0  0
  1  2  1  0
  2  3  1  0
  3  4  2  0
  4  5  1  0
  5  6  2  0
  6  7  1  0
  7  8  1  0
  8  9  2  0
  8 10  1  0
 10 11  2  0
 11 12  1  0
 12 13  2  0
 13 14  1  0
 14 15  2  0
 15 16  1  0
 16 17  1  0
 17 18  1  0
 18 19  2  0
 18 20  1  0
 20 21  1  0
 21 22  1  0
 22 23  2  0
 23 24  1  0
 24 25  2  0
 25 26  1  0
 16 27  1  0
 27 28  2  0
  6 29  1  0
 29 30  2  0
 30  3  1  0
 27  7  1  0
 15 10  1  0
 26 22  1  0
  1 31  1  0
  1 32  1  0
  1 33  1  0
  2 34  1  0
  2 35  1  0
  4 36  1  0
  5 37  1  0
 11 38  1  0
 12 39  1  0
 13 40  1  0
 14 41  1  0
 17 42  1  0
 17 43  1  0
 20 44  1  0
 21 45  1  0
 21 46  1  0
 23 47  1  0
 24 48  1  0
 25 49  1  0
 29 50  1  0
 30 51  1  0
M  END
$$$$
