
     RDKit          3D

 31 31  0  0  0  0  0  0  0  0999 V2000
    5.4217   -0.0928    1.0687 C   0  0  0  0  0  0  0  0  0  0  0  0
    4.2795    0.5092    0.4784 O   0  0  0  0  0  0  0  0  0  0  0  0
    3.0720   -0.0590    0.9793 C   0  0  0  0  0  0  0  0  0  0  0  0
    1.9568    0.5844    0.3593 O   0  0  0  0  0  0  0  0  0  0  0  0
    0.7556    0.0256    0.7240 C   0  0  0  0  0  0  0  0  0  0  0  0
   -0.3626    0.2057    0.0030 C   0  0  0  0  0  0  0  0  0  0  0  0
   -0.3070    0.9682   -1.1424 N   0  0  0  0  0  0  0  0  0  0  0  0
   -1.3274    1.2674   -2.0235 C   0  0  0  0  0  0  0  0  0  0  0  0
   -0.8651    2.1417   -3.1621 C   0  0  0  0  0  0  0  0  0  0  0  0
   -2.4880    0.8778   -1.9627 O   0  0  0  0  0  0  0  0  0  0  0  0
   -1.6033   -0.4227    0.4756 C   0  0  0  0  0  0  0  0  0  0  0  0
   -1.9448   -1.7165    0.0600 C   0  0  0  0  0  0  0  0  0  0  0  0
   -3.1011   -2.3304    0.5458 C   0  0  0  0  0  0  0  0  0  0  0  0
   -3.9201   -1.6579    1.4522 C   0  0  0  0  0  0  0  0  0  0  0  0
   -3.5871   -0.3705    1.8720 C   0  0  0  0  0  0  0  0  0  0  0  0
   -2.4315    0.2455    1.3873 C   0  0  0  0  0  0  0  0  0  0  0  0
    5.4529   -1.1627    0.8411 H   0  0  0  0  0  0  0  0  0  0  0  0
    5.4209    0.0621    2.1520 H   0  0  0  0  0  0  0  0  0  0  0  0
    6.3150    0.3786    0.6501 H   0  0  0  0  0  0  0  0  0  0  0  0
    3.0561   -1.1311    0.7457 H   0  0  0  0  0  0  0  0  0  0  0  0
    3.0244    0.0949    2.0645 H   0  0  0  0  0  0  0  0  0  0  0  0
    0.7738   -0.5515    1.6404 H   0  0  0  0  0  0  0  0  0  0  0  0
    0.6142    1.3479   -1.3412 H   0  0  0  0  0  0  0  0  0  0  0  0
   -0.0824    2.8331   -2.8369 H   0  0  0  0  0  0  0  0  0  0  0  0
   -0.4844    1.5110   -3.9697 H   0  0  0  0  0  0  0  0  0  0  0  0
   -1.7083    2.7345   -3.5284 H   0  0  0  0  0  0  0  0  0  0  0  0
   -1.3194   -2.2435   -0.6559 H   0  0  0  0  0  0  0  0  0  0  0  0
   -3.3678   -3.3281    0.2082 H   0  0  0  0  0  0  0  0  0  0  0  0
   -4.8250   -2.1326    1.8221 H   0  0  0  0  0  0  0  0  0  0  0  0
   -4.2319    0.1584    2.5685 H   0  0  0  0  0  0  0  0  0  0  0  0
   -2.1857    1.2533    1.7123 H   0  0  0  0  0  0  0  0  0  0  0  0
  1  2  1  0
  2  3  1  0
  3  4  1  0
  4  5  1  0
  5  6  2  3
  6  7  1  0
  7  8  1  0
  8  9  1  0
  8 10  2  0
  6 11  1  0
 11 12  2  0
 12 13  1  0
 13 14  2  0
 14 15  1  0
 15 16  2  0
 16 11  1  0
  1 17  1  0
  1 18  1  0
  1 19  1  0
  3 20  1  0
  3 21  1  0
  5 22  1  0
  7 23  1  0
  9 24  1  0
  9 25  1  0
  9 26  1  0
 12 27  1  0
 13 28  1  0
 14 29  1  0
 15 30  1  0
 16 31  1  0
M  END
$$$$
