
     RDKit          3D

 53 58  0  0  0  0  0  0  0  0999 V2000
    1.2770   -1.8655   -0.6604 O   0  0  0  0  0  0  0  0  0  0  0  0
    1.3455   -1.1862    0.3659 C   0  0  0  0  0  0  0  0  0  0  0  0
    0.0700   -0.8469    1.1597 C   0  0  0  0  0  0  0  0  0  0  0  0
   -1.0567   -0.5040    0.2749 N   0  0  0  0  0  4  0  0  0  0  0  0
   -1.6758    0.7389    0.1504 C   0  0  0  0  0  0  0  0  0  0  0  0
   -2.6958    0.6455   -0.7897 C   0  0  0  0  0  0  0  0  0  0  0  0
   -3.6253    1.8167   -1.2800 C   0  0  0  0  0  0  0  0  0  0  0  0
   -4.5638    1.6039   -2.2953 C   0  0  0  0  0  0  0  0  0  0  0  0
   -5.3781    2.6549   -2.7303 C   0  0  0  0  0  0  0  0  0  0  0  0
   -5.2507    3.9117   -2.1518 C   0  0  0  0  0  0  0  0  0  0  0  0
   -6.0298    4.9150   -2.5731 F   0  0  0  0  0  0  0  0  0  0  0  0
   -4.3226    4.1388   -1.1440 C   0  0  0  0  0  0  0  0  0  0  0  0
   -3.5049    3.0916   -0.7058 C   0  0  0  0  0  0  0  0  0  0  0  0
   -2.6674   -0.6879   -1.1548 N   0  0  0  0  0  0  0  0  0  0  0  0
   -1.6758   -1.3433   -0.5533 C   0  0  0  0  0  0  0  0  0  0  0  0
   -1.6150   -2.7760   -0.9330 C   0  0  0  0  0  0  0  0  0  0  0  0
   -2.9906   -2.9873   -1.5953 C   0  0  0  0  0  0  0  0  0  0  0  0
   -3.4435   -1.5650   -2.0236 C   0  0  0  0  0  0  0  0  0  0  0  0
    2.5215   -0.7326    0.9754 N   0  0  0  0  0  0  0  0  0  0  0  0
    3.6081   -1.6356    1.2736 C   0  0  0  0  0  0  0  0  0  0  0  0
    3.6585   -2.9211    0.6942 C   0  0  0  0  0  0  0  0  0  0  0  0
    4.6997   -3.8169    0.9690 C   0  0  0  0  0  0  0  0  0  0  0  0
    5.7137   -3.4578    1.8456 C   0  0  0  0  0  0  0  0  0  0  0  0
    5.6765   -2.2074    2.4544 C   0  0  0  0  0  0  0  0  0  0  0  0
    4.6339   -1.3029    2.1814 C   0  0  0  0  0  0  0  0  0  0  0  0
    4.6319    0.1939    3.1346 S   0  0  0  0  0  0  0  0  0  0  0  0
    3.6261    1.2126    2.0985 C   0  0  0  0  0  0  0  0  0  0  0  0
    3.7509    2.6036    2.2547 C   0  0  0  0  0  0  0  0  0  0  0  0
    3.0032    3.4827    1.4736 C   0  0  0  0  0  0  0  0  0  0  0  0
    2.1316    2.9776    0.5191 C   0  0  0  0  0  0  0  0  0  0  0  0
    1.9932    1.5945    0.3687 C   0  0  0  0  0  0  0  0  0  0  0  0
    2.7160    0.6834    1.1729 C   0  0  0  0  0  0  0  0  0  0  0  0
    0.2236   -0.0341    1.8745 H   0  0  0  0  0  0  0  0  0  0  0  0
   -0.2126   -1.7373    1.7334 H   0  0  0  0  0  0  0  0  0  0  0  0
   -1.2969    1.5528    0.7468 H   0  0  0  0  0  0  0  0  0  0  0  0
   -4.6831    0.6430   -2.7796 H   0  0  0  0  0  0  0  0  0  0  0  0
   -6.1098    2.5046   -3.5198 H   0  0  0  0  0  0  0  0  0  0  0  0
   -4.2439    5.1313   -0.7077 H   0  0  0  0  0  0  0  0  0  0  0  0
   -2.7933    3.3054    0.0863 H   0  0  0  0  0  0  0  0  0  0  0  0
   -1.4588   -3.3810   -0.0401 H   0  0  0  0  0  0  0  0  0  0  0  0
   -0.8036   -2.8824   -1.6536 H   0  0  0  0  0  0  0  0  0  0  0  0
   -2.9622   -3.6953   -2.4283 H   0  0  0  0  0  0  0  0  0  0  0  0
   -3.6925   -3.3721   -0.8460 H   0  0  0  0  0  0  0  0  0  0  0  0
   -3.1725   -1.3598   -3.0632 H   0  0  0  0  0  0  0  0  0  0  0  0
   -4.5155   -1.4307   -1.8634 H   0  0  0  0  0  0  0  0  0  0  0  0
    2.9167   -3.2661   -0.0218 H   0  0  0  0  0  0  0  0  0  0  0  0
    4.7185   -4.7945    0.4878 H   0  0  0  0  0  0  0  0  0  0  0  0
    6.5267   -4.1481    2.0615 H   0  0  0  0  0  0  0  0  0  0  0  0
    6.4691   -1.9442    3.1567 H   0  0  0  0  0  0  0  0  0  0  0  0
    4.4509    3.0151    2.9823 H   0  0  0  0  0  0  0  0  0  0  0  0
    3.1290    4.5570    1.5946 H   0  0  0  0  0  0  0  0  0  0  0  0
    1.5897    3.6595   -0.1323 H   0  0  0  0  0  0  0  0  0  0  0  0
    1.3589    1.2480   -0.4441 H   0  0  0  0  0  0  0  0  0  0  0  0
  1  2  2  0
  2  3  1  0
  3  4  1  0
  4  5  1  0
  5  6  2  0
  6  7  1  0
  7  8  2  0
  8  9  1  0
  9 10  2  0
 10 11  1  0
 10 12  1  0
 12 13  2  0
  6 14  1  0
 14 15  1  0
 15 16  1  0
 16 17  1  0
 17 18  1  0
  2 19  1  0
 19 20  1  0
 20 21  2  0
 21 22  1  0
 22 23  2  0
 23 24  1  0
 24 25  2  0
 25 26  1  0
 26 27  1  0
 27 28  2  0
 28 29  1  0
 29 30  2  0
 30 31  1  0
 31 32  2  0
 15  4  2  0
 32 19  1  0
 13  7  1  0
 18 14  1  0
 25 20  1  0
 32 27  1  0
  3 33  1  0
  3 34  1  0
  5 35  1  0
  8 36  1  0
  9 37  1  0
 12 38  1  0
 13 39  1  0
 16 40  1  0
 16 41  1  0
 17 42  1  0
 17 43  1  0
 18 44  1  0
 18 45  1  0
 21 46  1  0
 22 47  1  0
 23 48  1  0
 24 49  1  0
 28 50  1  0
 29 51  1  0
 30 52  1  0
 31 53  1  0
M  CHG  1   4   1
M  END
$$$$
