
     RDKit          3D

 40 42  0  0  0  0  0  0  0  0999 V2000
    2.4217    5.3159    0.2040 C   0  0  0  0  0  0  0  0  0  0  0  0
    2.0219    3.8506    0.2043 C   0  0  0  0  0  0  0  0  0  0  0  0
    0.3099    3.6783   -0.3963 S   0  0  0  0  0  0  0  0  0  0  0  0
    0.1055    1.9036   -0.3121 C   0  0  0  0  0  0  0  0  0  0  0  0
   -1.0866    1.3593   -0.7390 C   0  0  0  0  0  0  0  0  0  0  0  0
   -1.2271   -0.0112   -0.6592 C   0  0  0  0  0  0  0  0  0  0  0  0
   -2.3921   -0.6394   -1.0870 N   0  0  0  0  0  0  0  0  0  0  0  0
   -2.3771   -2.1122   -1.0973 C   0  0  0  0  0  0  0  0  0  0  0  0
   -3.7059   -2.6300   -1.6694 C   0  0  0  0  0  0  0  0  0  0  0  0
   -4.8617   -2.2265   -0.9172 O   0  0  0  0  0  0  0  0  0  0  0  0
   -4.6424   -1.0511   -0.1260 C   0  0  0  0  0  0  0  0  0  0  0  0
   -3.6995   -0.0287   -0.7840 C   0  0  0  0  0  0  0  0  0  0  0  0
   -0.2138   -0.7691   -0.2085 N   0  0  0  0  0  0  0  0  0  0  0  0
    0.9186   -0.1609    0.1922 C   0  0  0  0  0  0  0  0  0  0  0  0
    2.0158   -1.0117    0.6991 C   0  0  0  0  0  0  0  0  0  0  0  0
    1.8901   -2.4135    0.7651 C   0  0  0  0  0  0  0  0  0  0  0  0
    2.9268   -3.2210    1.2447 C   0  0  0  0  0  0  0  0  0  0  0  0
    4.1186   -2.6439    1.6715 C   0  0  0  0  0  0  0  0  0  0  0  0
    4.2740   -1.2623    1.6191 C   0  0  0  0  0  0  0  0  0  0  0  0
    3.2347   -0.4584    1.1388 C   0  0  0  0  0  0  0  0  0  0  0  0
    1.1160    1.1653    0.1639 N   0  0  0  0  0  0  0  0  0  0  0  0
    1.7779    5.9090    0.8624 H   0  0  0  0  0  0  0  0  0  0  0  0
    3.4502    5.4207    0.5653 H   0  0  0  0  0  0  0  0  0  0  0  0
    2.3800    5.7441   -0.8033 H   0  0  0  0  0  0  0  0  0  0  0  0
    2.6989    3.2876   -0.4463 H   0  0  0  0  0  0  0  0  0  0  0  0
    2.0977    3.4522    1.2212 H   0  0  0  0  0  0  0  0  0  0  0  0
   -1.8690    1.9865   -1.1443 H   0  0  0  0  0  0  0  0  0  0  0  0
   -1.5558   -2.4828   -1.7222 H   0  0  0  0  0  0  0  0  0  0  0  0
   -2.2464   -2.4956   -0.0773 H   0  0  0  0  0  0  0  0  0  0  0  0
   -3.8426   -2.2700   -2.6958 H   0  0  0  0  0  0  0  0  0  0  0  0
   -3.7023   -3.7241   -1.7036 H   0  0  0  0  0  0  0  0  0  0  0  0
   -4.2446   -1.3687    0.8452 H   0  0  0  0  0  0  0  0  0  0  0  0
   -5.6197   -0.5935    0.0586 H   0  0  0  0  0  0  0  0  0  0  0  0
   -3.6157    0.8347   -0.1145 H   0  0  0  0  0  0  0  0  0  0  0  0
   -4.1359    0.3142   -1.7292 H   0  0  0  0  0  0  0  0  0  0  0  0
    0.9684   -2.8919    0.4375 H   0  0  0  0  0  0  0  0  0  0  0  0
    2.7992   -4.2997    1.2830 H   0  0  0  0  0  0  0  0  0  0  0  0
    4.9251   -3.2699    2.0441 H   0  0  0  0  0  0  0  0  0  0  0  0
    5.2027   -0.8055    1.9511 H   0  0  0  0  0  0  0  0  0  0  0  0
    3.3845    0.6197    1.1093 H   0  0  0  0  0  0  0  0  0  0  0  0
  1  2  1  0
  2  3  1  0
  3  4  1  0
  4  5  2  0
  5  6  1  0
  6  7  1  0
  7  8  1  0
  8  9  1  0
  9 10  1  0
 10 11  1  0
 11 12  1  0
  6 13  2  0
 13 14  1  0
 14 15  1  0
 15 16  2  0
 16 17  1  0
 17 18  2  0
 18 19  1  0
 19 20  2  0
 14 21  2  0
 21  4  1  0
 12  7  1  0
 20 15  1  0
  1 22  1  0
  1 23  1  0
  1 24  1  0
  2 25  1  0
  2 26  1  0
  5 27  1  0
  8 28  1  0
  8 29  1  0
  9 30  1  0
  9 31  1  0
 11 32  1  0
 11 33  1  0
 12 34  1  0
 12 35  1  0
 16 36  1  0
 17 37  1  0
 18 38  1  0
 19 39  1  0
 20 40  1  0
M  END
$$$$
