
     RDKit          3D

 55 60  0  0  0  0  0  0  0  0999 V2000
    3.3968    3.4582   -0.6118 O   0  0  0  0  0  0  0  0  0  0  0  0
    3.5587    2.3963   -0.0129 C   0  0  0  0  0  0  0  0  0  0  0  0
    4.8882    1.8058    0.0674 C   0  0  0  0  0  0  0  0  0  0  0  0
    5.5422    1.0735    1.1019 C   0  0  0  0  0  0  0  0  0  0  0  0
    6.8082    0.7885    0.6461 C   0  0  0  0  0  0  0  0  0  0  0  0
    6.9934    1.3118   -0.5908 O   0  0  0  0  0  0  0  0  0  0  0  0
    5.8404    1.9434   -0.9253 C   0  0  0  0  0  0  0  0  0  0  0  0
    2.4889    1.7281    0.5971 N   0  0  0  0  0  0  0  0  0  0  0  0
    2.5081    0.3073    0.9339 C   0  0  0  0  0  0  0  0  0  0  0  0
    1.1097   -0.3191    0.9365 C   0  0  0  0  0  0  0  0  0  0  0  0
    0.2976    0.1072   -0.3135 C   0  0  0  0  0  0  0  0  0  0  0  0
    0.2522    1.6658   -0.4225 C   0  0  0  0  0  0  0  0  0  0  0  0
    1.1794    2.3611    0.5735 C   0  0  0  0  0  0  0  0  0  0  0  0
    1.0527   -0.2970   -1.4899 O   0  0  0  0  0  0  0  0  0  0  0  0
    0.9148   -1.5759   -1.9376 C   0  0  0  0  0  0  0  0  0  0  0  0
    1.8294   -1.9861   -2.9076 C   0  0  0  0  0  0  0  0  0  0  0  0
    1.7831   -3.2894   -3.4089 C   0  0  0  0  0  0  0  0  0  0  0  0
    0.8184   -4.1802   -2.9387 C   0  0  0  0  0  0  0  0  0  0  0  0
    0.7701   -5.7864   -3.5513 Cl  0  0  0  0  0  0  0  0  0  0  0  0
   -0.1055   -3.7773   -1.9785 C   0  0  0  0  0  0  0  0  0  0  0  0
   -0.0555   -2.4669   -1.4926 C   0  0  0  0  0  0  0  0  0  0  0  0
   -1.0240   -2.0046   -0.4908 C   0  0  0  0  0  0  0  0  0  0  0  0
   -1.6680   -2.8237    0.1593 O   0  0  0  0  0  0  0  0  0  0  0  0
   -1.1347   -0.4946   -0.3208 C   0  0  0  0  0  0  0  0  0  0  0  0
   -1.9842   -0.1369    0.8914 C   0  0  0  0  0  0  0  0  0  0  0  0
   -3.2941    0.0518    0.2040 C   0  0  0  0  0  0  0  0  0  0  0  0
   -4.5713    0.1485    0.9501 C   0  0  0  0  0  0  0  0  0  0  0  0
   -5.7685    0.2647    0.2301 C   0  0  0  0  0  0  0  0  0  0  0  0
   -6.9905    0.3618    0.9015 C   0  0  0  0  0  0  0  0  0  0  0  0
   -7.0170    0.3438    2.2937 C   0  0  0  0  0  0  0  0  0  0  0  0
   -8.5185    0.4641    3.1235 Cl  0  0  0  0  0  0  0  0  0  0  0  0
   -5.8321    0.2301    3.0195 C   0  0  0  0  0  0  0  0  0  0  0  0
   -4.6075    0.1330    2.3496 C   0  0  0  0  0  0  0  0  0  0  0  0
   -3.2201    0.1581   -1.0844 N   0  0  0  0  0  0  0  0  0  0  0  0
   -1.8651    0.0089   -1.4509 O   0  0  0  0  0  0  0  0  0  0  0  0
    5.1534    0.8046    2.0728 H   0  0  0  0  0  0  0  0  0  0  0  0
    7.6576    0.2663    1.0645 H   0  0  0  0  0  0  0  0  0  0  0  0
    5.8389    2.4387   -1.8872 H   0  0  0  0  0  0  0  0  0  0  0  0
    3.1494   -0.2257    0.2236 H   0  0  0  0  0  0  0  0  0  0  0  0
    2.9427    0.2037    1.9331 H   0  0  0  0  0  0  0  0  0  0  0  0
    0.5816   -0.0218    1.8507 H   0  0  0  0  0  0  0  0  0  0  0  0
    1.2302   -1.4073    0.9871 H   0  0  0  0  0  0  0  0  0  0  0  0
   -0.7565    2.0606   -0.2602 H   0  0  0  0  0  0  0  0  0  0  0  0
    0.5358    1.9746   -1.4376 H   0  0  0  0  0  0  0  0  0  0  0  0
    1.2521    3.4269    0.3325 H   0  0  0  0  0  0  0  0  0  0  0  0
    0.7662    2.3028    1.5879 H   0  0  0  0  0  0  0  0  0  0  0  0
    2.5838   -1.2922   -3.2725 H   0  0  0  0  0  0  0  0  0  0  0  0
    2.5012   -3.6020   -4.1634 H   0  0  0  0  0  0  0  0  0  0  0  0
   -0.8636   -4.4687   -1.6181 H   0  0  0  0  0  0  0  0  0  0  0  0
   -1.7038    0.8141    1.3539 H   0  0  0  0  0  0  0  0  0  0  0  0
   -2.0153   -0.9124    1.6599 H   0  0  0  0  0  0  0  0  0  0  0  0
   -5.7594    0.2782   -0.8587 H   0  0  0  0  0  0  0  0  0  0  0  0
   -7.9121    0.4498    0.3318 H   0  0  0  0  0  0  0  0  0  0  0  0
   -5.8555    0.2157    4.1065 H   0  0  0  0  0  0  0  0  0  0  0  0
   -3.7024    0.0471    2.9429 H   0  0  0  0  0  0  0  0  0  0  0  0
  1  2  2  0
  2  3  1  0
  3  4  1  0
  4  5  2  0
  5  6  1  0
  6  7  1  0
  2  8  1  0
  8  9  1  0
  9 10  1  0
 10 11  1  0
 11 12  1  0
 12 13  1  0
 11 14  1  0
 14 15  1  0
 15 16  2  0
 16 17  1  0
 17 18  2  0
 18 19  1  0
 18 20  1  0
 20 21  2  0
 21 22  1  0
 22 23  2  0
 22 24  1  0
 24 25  1  0
 25 26  1  0
 26 27  1  0
 27 28  2  0
 28 29  1  0
 29 30  2  0
 30 31  1  0
 30 32  1  0
 32 33  2  0
 26 34  2  0
 34 35  1  0
  7  3  2  0
 13  8  1  0
 21 15  1  0
 35 24  1  0
 24 11  1  0
 33 27  1  0
  4 36  1  0
  5 37  1  0
  7 38  1  0
  9 39  1  0
  9 40  1  0
 10 41  1  0
 10 42  1  0
 12 43  1  0
 12 44  1  0
 13 45  1  0
 13 46  1  0
 16 47  1  0
 17 48  1  0
 20 49  1  0
 25 50  1  0
 25 51  1  0
 28 52  1  0
 29 53  1  0
 32 54  1  0
 33 55  1  0
M  END
$$$$
