
     RDKit          3D

 49 51  0  0  0  0  0  0  0  0999 V2000
   -0.1475    5.9127   -1.5161 C   0  0  0  0  0  0  0  0  0  0  0  0
    0.7245    5.4826   -0.4808 O   0  0  0  0  0  0  0  0  0  0  0  0
    1.1250    4.1693   -0.4872 C   0  0  0  0  0  0  0  0  0  0  0  0
    0.6745    3.2116   -1.4046 C   0  0  0  0  0  0  0  0  0  0  0  0
    1.1314    1.8948   -1.3311 C   0  0  0  0  0  0  0  0  0  0  0  0
    2.0329    1.5360   -0.3290 C   0  0  0  0  0  0  0  0  0  0  0  0
    2.6155   -0.1363   -0.2262 S   0  0  0  0  0  6  0  0  0  0  0  0
    2.2678   -0.8327   -1.4461 O   0  0  0  0  0  0  0  0  0  0  0  0
    3.9850   -0.0910    0.2413 O   0  0  0  0  0  0  0  0  0  0  0  0
    1.7047   -0.7595    1.0546 N   0  0  0  0  0  0  0  0  0  0  0  0
    0.3543   -1.1197    0.7958 C   0  0  0  0  0  0  0  0  0  0  0  0
   -0.6557   -0.2185    1.1070 C   0  0  0  0  0  0  0  0  0  0  0  0
   -1.9806   -0.5730    0.8758 C   0  0  0  0  0  0  0  0  0  0  0  0
   -2.2927   -1.8198    0.3096 C   0  0  0  0  0  0  0  0  0  0  0  0
   -1.2680   -2.7025   -0.0912 C   0  0  0  0  0  0  0  0  0  0  0  0
    0.0534   -2.3532    0.2129 C   0  0  0  0  0  0  0  0  0  0  0  0
   -1.6078   -3.9374   -0.7323 N   0  0  0  0  0  0  0  0  0  0  0  0
   -0.8028   -4.6828   -1.6010 C   0  0  0  0  0  0  0  0  0  0  0  0
    0.3984   -4.0416   -2.2527 C   0  0  0  0  0  0  0  0  0  0  0  0
   -1.0934   -5.8422   -1.9185 O   0  0  0  0  0  0  0  0  0  0  0  0
   -2.9778   -4.4433   -0.6024 C   0  0  0  0  0  0  0  0  0  0  0  0
   -3.8700   -3.6881    0.3681 C   0  0  0  0  0  0  0  0  0  0  0  0
   -3.7365   -2.1983    0.1205 C   0  0  0  0  0  0  0  0  0  0  0  0
    2.5049    2.4810    0.5870 C   0  0  0  0  0  0  0  0  0  0  0  0
    2.0520    3.8011    0.5131 C   0  0  0  0  0  0  0  0  0  0  0  0
    2.4409    4.7998    1.3715 O   0  0  0  0  0  0  0  0  0  0  0  0
    3.4937    4.5139    2.2819 C   0  0  0  0  0  0  0  0  0  0  0  0
   -1.1126    5.3989   -1.4570 H   0  0  0  0  0  0  0  0  0  0  0  0
    0.3120    5.7816   -2.5013 H   0  0  0  0  0  0  0  0  0  0  0  0
   -0.3320    6.9821   -1.3754 H   0  0  0  0  0  0  0  0  0  0  0  0
   -0.0333    3.4592   -2.1889 H   0  0  0  0  0  0  0  0  0  0  0  0
    0.7746    1.1599   -2.0499 H   0  0  0  0  0  0  0  0  0  0  0  0
    2.2621   -1.3912    1.6292 H   0  0  0  0  0  0  0  0  0  0  0  0
   -0.4245    0.7438    1.5558 H   0  0  0  0  0  0  0  0  0  0  0  0
   -2.7722    0.1202    1.1529 H   0  0  0  0  0  0  0  0  0  0  0  0
    0.8710   -3.0395    0.0285 H   0  0  0  0  0  0  0  0  0  0  0  0
    0.2709   -2.9652   -2.3825 H   0  0  0  0  0  0  0  0  0  0  0  0
    0.5100   -4.4625   -3.2581 H   0  0  0  0  0  0  0  0  0  0  0  0
    1.3037   -4.2733   -1.6879 H   0  0  0  0  0  0  0  0  0  0  0  0
   -2.9348   -5.4974   -0.3007 H   0  0  0  0  0  0  0  0  0  0  0  0
   -3.4246   -4.4206   -1.6056 H   0  0  0  0  0  0  0  0  0  0  0  0
   -3.5776   -3.9265    1.3993 H   0  0  0  0  0  0  0  0  0  0  0  0
   -4.9111   -4.0065    0.2467 H   0  0  0  0  0  0  0  0  0  0  0  0
   -4.3755   -1.6587    0.8289 H   0  0  0  0  0  0  0  0  0  0  0  0
   -4.0553   -1.9319   -0.8939 H   0  0  0  0  0  0  0  0  0  0  0  0
    3.2127    2.1643    1.3462 H   0  0  0  0  0  0  0  0  0  0  0  0
    4.4008    4.1991    1.7553 H   0  0  0  0  0  0  0  0  0  0  0  0
    3.7268    5.4357    2.8236 H   0  0  0  0  0  0  0  0  0  0  0  0
    3.1828    3.7658    3.0183 H   0  0  0  0  0  0  0  0  0  0  0  0
  1  2  1  0
  2  3  1  0
  3  4  2  0
  4  5  1  0
  5  6  2  0
  6  7  1  0
  7  8  2  0
  7  9  2  0
  7 10  1  0
 10 11  1  0
 11 12  2  0
 12 13  1  0
 13 14  2  0
 14 15  1  0
 15 16  2  0
 15 17  1  0
 17 18  1  0
 18 19  1  0
 18 20  2  0
 17 21  1  0
 21 22  1  0
 22 23  1  0
  6 24  1  0
 24 25  2  0
 25 26  1  0
 26 27  1  0
 25  3  1  0
 16 11  1  0
 23 14  1  0
  1 28  1  0
  1 29  1  0
  1 30  1  0
  4 31  1  0
  5 32  1  0
 10 33  1  0
 12 34  1  0
 13 35  1  0
 16 36  1  0
 19 37  1  0
 19 38  1  0
 19 39  1  0
 21 40  1  0
 21 41  1  0
 22 42  1  0
 22 43  1  0
 23 44  1  0
 23 45  1  0
 24 46  1  0
 27 47  1  0
 27 48  1  0
 27 49  1  0
M  END
$$$$
