
     RDKit          3D

 58 62  0  0  0  0  0  0  0  0999 V2000
    7.8999   -0.3154    2.7527 C   0  0  0  0  0  0  0  0  0  0  0  0
    7.3171    0.8846    2.2646 O   0  0  0  0  0  0  0  0  0  0  0  0
    5.9844    0.8573    1.9359 C   0  0  0  0  0  0  0  0  0  0  0  0
    5.1526   -0.2533    2.1000 C   0  0  0  0  0  0  0  0  0  0  0  0
    3.8037   -0.1841    1.7382 C   0  0  0  0  0  0  0  0  0  0  0  0
    3.2595    0.9923    1.2083 C   0  0  0  0  0  0  0  0  0  0  0  0
    1.8452    1.0291    0.8447 C   0  0  0  0  0  0  0  0  0  0  0  0
    0.9315    0.0825    0.9531 N   0  0  0  0  0  0  0  0  0  0  0  0
   -0.2202    0.6549    0.4503 C   0  0  0  0  0  0  0  0  0  0  0  0
   -1.4868   -0.1191    0.3930 C   0  0  0  0  0  0  0  0  0  0  0  0
   -1.7680   -0.5604   -0.9632 N   0  0  0  0  0  0  0  0  0  0  0  0
   -2.7729   -0.1369   -1.7958 C   0  0  0  0  0  0  0  0  0  0  0  0
   -3.9173    1.0940   -1.3772 S   0  0  0  0  0  0  0  0  0  0  0  0
   -5.4524    0.3408   -2.0000 C   0  0  0  0  0  0  0  0  0  0  0  0
   -5.9435   -0.7708   -1.1034 C   0  0  0  0  0  0  0  0  0  0  0  0
   -5.6451   -2.1116   -1.3979 C   0  0  0  0  0  0  0  0  0  0  0  0
   -6.0721   -3.1409   -0.5541 C   0  0  0  0  0  0  0  0  0  0  0  0
   -6.8019   -2.8410    0.5941 C   0  0  0  0  0  0  0  0  0  0  0  0
   -7.0974   -1.5155    0.8887 C   0  0  0  0  0  0  0  0  0  0  0  0
   -7.7940   -1.2260    1.9958 F   0  0  0  0  0  0  0  0  0  0  0  0
   -6.6768   -0.4820    0.0563 C   0  0  0  0  0  0  0  0  0  0  0  0
   -2.7714   -0.7782   -2.9413 N   0  0  0  0  0  0  0  0  0  0  0  0
   -1.7329   -1.6700   -2.8541 C   0  0  0  0  0  0  0  0  0  0  0  0
   -1.2885   -2.6045   -3.7887 C   0  0  0  0  0  0  0  0  0  0  0  0
   -0.2111   -3.3805   -3.3956 C   0  0  0  0  0  0  0  0  0  0  0  0
    0.4147   -3.2871   -2.1990 N   0  0  0  0  0  0  0  0  0  0  0  0
   -0.0105   -2.3719   -1.2956 C   0  0  0  0  0  0  0  0  0  0  0  0
   -1.0910   -1.5656   -1.6256 C   0  0  0  0  0  0  0  0  0  0  0  0
    0.0470    1.9539    0.0691 C   0  0  0  0  0  0  0  0  0  0  0  0
   -0.7389    3.0532   -0.5179 C   0  0  0  0  0  0  0  0  0  0  0  0
    1.3681    2.2000    0.3161 O   0  0  0  0  0  0  0  0  0  0  0  0
    4.0984    2.1060    1.0449 C   0  0  0  0  0  0  0  0  0  0  0  0
    5.4525    2.0482    1.4028 C   0  0  0  0  0  0  0  0  0  0  0  0
    6.3335    3.0938    1.2732 O   0  0  0  0  0  0  0  0  0  0  0  0
    5.8482    4.3037    0.7076 C   0  0  0  0  0  0  0  0  0  0  0  0
    8.9610   -0.1214    2.9354 H   0  0  0  0  0  0  0  0  0  0  0  0
    7.4491   -0.6143    3.7046 H   0  0  0  0  0  0  0  0  0  0  0  0
    7.8320   -1.1189    2.0117 H   0  0  0  0  0  0  0  0  0  0  0  0
    5.5190   -1.1889    2.5082 H   0  0  0  0  0  0  0  0  0  0  0  0
    3.1740   -1.0629    1.8732 H   0  0  0  0  0  0  0  0  0  0  0  0
   -2.3202    0.4724    0.7792 H   0  0  0  0  0  0  0  0  0  0  0  0
   -1.4216   -1.0191    1.0159 H   0  0  0  0  0  0  0  0  0  0  0  0
   -6.2174    1.1247   -2.0472 H   0  0  0  0  0  0  0  0  0  0  0  0
   -5.3227   -0.0126   -3.0293 H   0  0  0  0  0  0  0  0  0  0  0  0
   -5.0675   -2.3603   -2.2876 H   0  0  0  0  0  0  0  0  0  0  0  0
   -5.8319   -4.1739   -0.7935 H   0  0  0  0  0  0  0  0  0  0  0  0
   -7.1388   -3.6289    1.2610 H   0  0  0  0  0  0  0  0  0  0  0  0
   -6.9225    0.5415    0.3247 H   0  0  0  0  0  0  0  0  0  0  0  0
   -1.7583   -2.7143   -4.7561 H   0  0  0  0  0  0  0  0  0  0  0  0
    0.1970   -4.1341   -4.0644 H   0  0  0  0  0  0  0  0  0  0  0  0
    0.5255   -2.3190   -0.3555 H   0  0  0  0  0  0  0  0  0  0  0  0
   -0.9470    2.8525   -1.5732 H   0  0  0  0  0  0  0  0  0  0  0  0
   -1.6901    3.1709    0.0096 H   0  0  0  0  0  0  0  0  0  0  0  0
   -0.2004    4.0041   -0.4527 H   0  0  0  0  0  0  0  0  0  0  0  0
    3.6741    3.0167    0.6348 H   0  0  0  0  0  0  0  0  0  0  0  0
    5.4896    4.1471   -0.3148 H   0  0  0  0  0  0  0  0  0  0  0  0
    5.0713    4.7497    1.3370 H   0  0  0  0  0  0  0  0  0  0  0  0
    6.6824    5.0093    0.6609 H   0  0  0  0  0  0  0  0  0  0  0  0
  1  2  1  0
  2  3  1  0
  3  4  2  0
  4  5  1  0
  5  6  2  0
  6  7  1  0
  7  8  2  0
  8  9  1  0
  9 10  1  0
 10 11  1  0
 11 12  1  0
 12 13  1  0
 13 14  1  0
 14 15  1  0
 15 16  2  0
 16 17  1  0
 17 18  2  0
 18 19  1  0
 19 20  1  0
 19 21  2  0
 12 22  2  0
 22 23  1  0
 23 24  2  0
 24 25  1  0
 25 26  2  0
 26 27  1  0
 27 28  2  0
  9 29  2  0
 29 30  1  0
 29 31  1  0
  6 32  1  0
 32 33  2  0
 33 34  1  0
 34 35  1  0
 33  3  1  0
 31  7  1  0
 28 11  1  0
 21 15  1  0
 28 23  1  0
  1 36  1  0
  1 37  1  0
  1 38  1  0
  4 39  1  0
  5 40  1  0
 10 41  1  0
 10 42  1  0
 14 43  1  0
 14 44  1  0
 16 45  1  0
 17 46  1  0
 18 47  1  0
 21 48  1  0
 24 49  1  0
 25 50  1  0
 27 51  1  0
 30 52  1  0
 30 53  1  0
 30 54  1  0
 32 55  1  0
 35 56  1  0
 35 57  1  0
 35 58  1  0
M  END
$$$$
