
     RDKit          3D

 68 69  0  0  0  0  0  0  0  0999 V2000
    0.0035    4.5477    1.7107 C   0  0  0  0  0  0  0  0  0  0  0  0
   -0.1705    3.6828    0.5963 O   0  0  0  0  0  0  0  0  0  0  0  0
   -0.2102    2.3101    0.9908 C   0  0  0  0  0  0  0  0  0  0  0  0
   -0.4054    1.4481   -0.2613 C   0  0  0  0  0  0  0  0  0  0  0  0
   -0.2914    0.0005   -0.0062 N   0  0  0  0  0  0  0  0  0  0  0  0
    0.8955   -0.7115   -0.1422 C   0  0  0  0  0  0  0  0  0  0  0  0
    0.9275   -1.9413   -0.0553 O   0  0  0  0  0  0  0  0  0  0  0  0
    2.1736    0.0766   -0.3773 C   0  0  0  0  0  0  0  0  0  0  0  0
    3.3853   -0.8489   -0.4551 C   0  0  0  0  0  0  0  0  0  0  0  0
    4.6864   -0.0795   -0.5699 C   0  0  0  0  0  0  0  0  0  0  0  0
    4.7449    1.1375   -0.4361 O   0  0  0  0  0  0  0  0  0  0  0  0
    5.7539   -0.9172   -0.8050 N   0  0  0  0  0  0  0  0  0  0  0  0
    7.0682   -0.5235   -0.9181 C   0  0  0  0  0  0  0  0  0  0  0  0
    7.6334    0.7681   -0.8221 C   0  0  0  0  0  0  0  0  0  0  0  0
    8.9793    0.5687   -1.0025 C   0  0  0  0  0  0  0  0  0  0  0  0
   10.1581    1.4523   -1.0242 C   0  0  0  0  0  0  0  0  0  0  0  0
    9.2119   -0.7577   -1.1944 O   0  0  0  0  0  0  0  0  0  0  0  0
    8.0137   -1.4448   -1.1392 N   0  0  0  0  0  0  0  0  0  0  0  0
   -1.5349   -0.7932    0.0950 C   0  0  0  0  0  0  0  0  0  0  0  0
   -2.1735   -1.0341   -1.3066 C   0  0  0  0  0  0  0  0  0  0  0  0
   -1.8965   -0.3570   -2.2945 O   0  0  0  0  0  0  0  0  0  0  0  0
   -3.1062   -2.0611   -1.3286 N   0  0  0  0  0  0  0  0  0  0  0  0
   -3.9040   -2.4478   -2.5013 C   0  0  0  0  0  0  0  0  0  0  0  0
   -3.0026   -2.8760   -3.6705 C   0  0  0  0  0  0  0  0  0  0  0  0
   -4.8222   -1.2965   -2.9382 C   0  0  0  0  0  0  0  0  0  0  0  0
   -4.7789   -3.6512   -2.1036 C   0  0  0  0  0  0  0  0  0  0  0  0
   -2.5080   -0.2396    1.1322 C   0  0  0  0  0  0  0  0  0  0  0  0
   -2.2853   -0.5189    2.4913 C   0  0  0  0  0  0  0  0  0  0  0  0
   -3.1419   -0.0215    3.4805 C   0  0  0  0  0  0  0  0  0  0  0  0
   -4.2318    0.7721    3.1277 C   0  0  0  0  0  0  0  0  0  0  0  0
   -5.1401    1.3231    3.9881 O   0  0  0  0  0  0  0  0  0  0  0  0
   -4.8913    1.1595    5.3779 C   0  0  0  0  0  0  0  0  0  0  0  0
   -4.4570    1.0580    1.7805 C   0  0  0  0  0  0  0  0  0  0  0  0
   -3.6037    0.5647    0.7897 C   0  0  0  0  0  0  0  0  0  0  0  0
    0.0295    5.5786    1.3443 H   0  0  0  0  0  0  0  0  0  0  0  0
   -0.8333    4.4468    2.4077 H   0  0  0  0  0  0  0  0  0  0  0  0
    0.9491    4.3337    2.2196 H   0  0  0  0  0  0  0  0  0  0  0  0
   -1.0341    2.1602    1.6944 H   0  0  0  0  0  0  0  0  0  0  0  0
    0.7238    2.0504    1.4977 H   0  0  0  0  0  0  0  0  0  0  0  0
   -1.3780    1.6736   -0.7122 H   0  0  0  0  0  0  0  0  0  0  0  0
    0.3236    1.7477   -1.0211 H   0  0  0  0  0  0  0  0  0  0  0  0
    2.0935    0.6268   -1.3207 H   0  0  0  0  0  0  0  0  0  0  0  0
    2.3022    0.7909    0.4419 H   0  0  0  0  0  0  0  0  0  0  0  0
    3.4469   -1.4719    0.4450 H   0  0  0  0  0  0  0  0  0  0  0  0
    3.2886   -1.5148   -1.3204 H   0  0  0  0  0  0  0  0  0  0  0  0
    5.6170   -1.9148   -0.9023 H   0  0  0  0  0  0  0  0  0  0  0  0
    7.1362    1.7112   -0.6388 H   0  0  0  0  0  0  0  0  0  0  0  0
   10.7710    1.2909   -0.1308 H   0  0  0  0  0  0  0  0  0  0  0  0
   10.7751    1.2557   -1.9075 H   0  0  0  0  0  0  0  0  0  0  0  0
    9.8580    2.5035   -1.0488 H   0  0  0  0  0  0  0  0  0  0  0  0
   -1.2741   -1.8019    0.4443 H   0  0  0  0  0  0  0  0  0  0  0  0
   -3.3572   -2.4752   -0.4382 H   0  0  0  0  0  0  0  0  0  0  0  0
   -3.5932   -3.2660   -4.5081 H   0  0  0  0  0  0  0  0  0  0  0  0
   -2.4109   -2.0404   -4.0582 H   0  0  0  0  0  0  0  0  0  0  0  0
   -2.3014   -3.6580   -3.3587 H   0  0  0  0  0  0  0  0  0  0  0  0
   -4.2512   -0.4355   -3.3020 H   0  0  0  0  0  0  0  0  0  0  0  0
   -5.4422   -0.9469   -2.1042 H   0  0  0  0  0  0  0  0  0  0  0  0
   -5.4910   -1.6109   -3.7477 H   0  0  0  0  0  0  0  0  0  0  0  0
   -5.3963   -3.9936   -2.9421 H   0  0  0  0  0  0  0  0  0  0  0  0
   -4.1620   -4.4961   -1.7750 H   0  0  0  0  0  0  0  0  0  0  0  0
   -5.4482   -3.3965   -1.2728 H   0  0  0  0  0  0  0  0  0  0  0  0
   -1.4318   -1.1274    2.7893 H   0  0  0  0  0  0  0  0  0  0  0  0
   -2.9278   -0.2743    4.5135 H   0  0  0  0  0  0  0  0  0  0  0  0
   -4.9535    0.1038    5.6659 H   0  0  0  0  0  0  0  0  0  0  0  0
   -3.9261    1.5929    5.6636 H   0  0  0  0  0  0  0  0  0  0  0  0
   -5.6726    1.6996    5.9219 H   0  0  0  0  0  0  0  0  0  0  0  0
   -5.3034    1.6800    1.4986 H   0  0  0  0  0  0  0  0  0  0  0  0
   -3.8061    0.8294   -0.2465 H   0  0  0  0  0  0  0  0  0  0  0  0
  1  2  1  0
  2  3  1  0
  3  4  1  0
  4  5  1  0
  5  6  1  0
  6  7  2  0
  6  8  1  0
  8  9  1  0
  9 10  1  0
 10 11  2  0
 10 12  1  0
 12 13  1  0
 13 14  1  0
 14 15  2  0
 15 16  1  0
 15 17  1  0
 17 18  1  0
  5 19  1  0
 19 20  1  0
 20 21  2  0
 20 22  1  0
 22 23  1  0
 23 24  1  0
 23 25  1  0
 23 26  1  0
 19 27  1  0
 27 28  2  0
 28 29  1  0
 29 30  2  0
 30 31  1  0
 31 32  1  0
 30 33  1  0
 33 34  2  0
 18 13  2  0
 34 27  1  0
  1 35  1  0
  1 36  1  0
  1 37  1  0
  3 38  1  0
  3 39  1  0
  4 40  1  0
  4 41  1  0
  8 42  1  0
  8 43  1  0
  9 44  1  0
  9 45  1  0
 12 46  1  0
 14 47  1  0
 16 48  1  0
 16 49  1  0
 16 50  1  0
 19 51  1  0
 22 52  1  0
 24 53  1  0
 24 54  1  0
 24 55  1  0
 25 56  1  0
 25 57  1  0
 25 58  1  0
 26 59  1  0
 26 60  1  0
 26 61  1  0
 28 62  1  0
 29 63  1  0
 32 64  1  0
 32 65  1  0
 32 66  1  0
 33 67  1  0
 34 68  1  0
M  END
$$$$
