
     RDKit          3D

 44 46  0  0  0  0  0  0  0  0999 V2000
    8.4289   -0.6175    1.3218 C   0  0  0  0  0  0  0  0  0  0  0  0
    7.0518   -0.8993    0.7949 C   0  0  0  0  0  0  0  0  0  0  0  0
    6.0703   -1.4585    1.6224 C   0  0  0  0  0  0  0  0  0  0  0  0
    4.7982   -1.7488    1.1207 C   0  0  0  0  0  0  0  0  0  0  0  0
    4.4990   -1.4868   -0.2213 C   0  0  0  0  0  0  0  0  0  0  0  0
    3.1635   -1.7906   -0.8036 C   0  0  0  0  0  0  0  0  0  0  0  0
    3.0438   -2.0277   -1.9996 O   0  0  0  0  0  0  0  0  0  0  0  0
    2.0941   -1.7536    0.0676 N   0  0  0  0  0  0  0  0  0  0  0  0
    0.7361   -1.8327   -0.4479 C   0  0  0  0  0  0  0  0  0  0  0  0
    0.2109   -0.4475   -0.8055 C   0  0  0  0  0  0  0  0  0  0  0  0
    0.6882    0.6048   -0.3906 O   0  0  0  0  0  0  0  0  0  0  0  0
   -0.8921   -0.5653   -1.5942 O   0  0  0  0  0  0  0  0  0  0  0  0
   -1.5461    0.6642   -1.9424 C   0  0  0  0  0  0  0  0  0  0  0  0
   -3.0284    0.5224   -1.7988 C   0  0  0  0  0  0  0  0  0  0  0  0
   -3.8687   -0.2126   -2.6103 C   0  0  0  0  0  0  0  0  0  0  0  0
   -5.4828   -0.0842   -2.0568 S   0  0  0  0  0  0  0  0  0  0  0  0
   -4.9663    0.9356   -0.7632 C   0  0  0  0  0  0  0  0  0  0  0  0
   -5.9082    1.4886    0.2338 C   0  0  0  0  0  0  0  0  0  0  0  0
   -5.3945    2.2615    1.2909 C   0  0  0  0  0  0  0  0  0  0  0  0
   -6.2330    2.8121    2.2650 C   0  0  0  0  0  0  0  0  0  0  0  0
   -7.6079    2.6004    2.2000 C   0  0  0  0  0  0  0  0  0  0  0  0
   -8.1401    1.8403    1.1633 C   0  0  0  0  0  0  0  0  0  0  0  0
   -7.2986    1.2891    0.1883 C   0  0  0  0  0  0  0  0  0  0  0  0
   -3.6652    1.1654   -0.7480 N   0  0  0  0  0  0  0  0  0  0  0  0
    5.4859   -0.9560   -1.0583 C   0  0  0  0  0  0  0  0  0  0  0  0
    6.7539   -0.6634   -0.5524 C   0  0  0  0  0  0  0  0  0  0  0  0
    8.4160   -0.5015    2.4120 H   0  0  0  0  0  0  0  0  0  0  0  0
    8.8203    0.3161    0.9027 H   0  0  0  0  0  0  0  0  0  0  0  0
    9.1044   -1.4403    1.0629 H   0  0  0  0  0  0  0  0  0  0  0  0
    6.2920   -1.6772    2.6643 H   0  0  0  0  0  0  0  0  0  0  0  0
    4.0662   -2.2023    1.7821 H   0  0  0  0  0  0  0  0  0  0  0  0
    2.2124   -1.2302    0.9271 H   0  0  0  0  0  0  0  0  0  0  0  0
    0.7117   -2.4791   -1.3315 H   0  0  0  0  0  0  0  0  0  0  0  0
    0.1056   -2.2509    0.3406 H   0  0  0  0  0  0  0  0  0  0  0  0
   -1.2106    1.5119   -1.3353 H   0  0  0  0  0  0  0  0  0  0  0  0
   -1.3013    0.8859   -2.9868 H   0  0  0  0  0  0  0  0  0  0  0  0
   -3.6180   -0.8066   -3.4770 H   0  0  0  0  0  0  0  0  0  0  0  0
   -4.3220    2.4408    1.3594 H   0  0  0  0  0  0  0  0  0  0  0  0
   -5.8102    3.4063    3.0691 H   0  0  0  0  0  0  0  0  0  0  0  0
   -8.2623    3.0291    2.9560 H   0  0  0  0  0  0  0  0  0  0  0  0
   -9.2148    1.6751    1.1095 H   0  0  0  0  0  0  0  0  0  0  0  0
   -7.7601    0.7050   -0.6048 H   0  0  0  0  0  0  0  0  0  0  0  0
    5.2691   -0.7659   -2.1072 H   0  0  0  0  0  0  0  0  0  0  0  0
    7.5088   -0.2557   -1.2188 H   0  0  0  0  0  0  0  0  0  0  0  0
  1  2  1  0
  2  3  2  0
  3  4  1  0
  4  5  2  0
  5  6  1  0
  6  7  2  0
  6  8  1  0
  8  9  1  0
  9 10  1  0
 10 11  2  0
 10 12  1  0
 12 13  1  0
 13 14  1  0
 14 15  2  0
 15 16  1  0
 16 17  1  0
 17 18  1  0
 18 19  2  0
 19 20  1  0
 20 21  2  0
 21 22  1  0
 22 23  2  0
 17 24  2  0
  5 25  1  0
 25 26  2  0
 26  2  1  0
 24 14  1  0
 23 18  1  0
  1 27  1  0
  1 28  1  0
  1 29  1  0
  3 30  1  0
  4 31  1  0
  8 32  1  0
  9 33  1  0
  9 34  1  0
 13 35  1  0
 13 36  1  0
 15 37  1  0
 19 38  1  0
 20 39  1  0
 21 40  1  0
 22 41  1  0
 23 42  1  0
 25 43  1  0
 26 44  1  0
M  END
$$$$
