
     RDKit          3D

 46 49  0  0  0  0  0  0  0  0999 V2000
    3.1388    3.2379   -2.3732 O   0  0  0  0  0  0  0  0  0  0  0  0
    2.4323    2.3308   -1.9308 C   0  0  0  0  0  0  0  0  0  0  0  0
    0.9879    2.6139   -1.5447 C   0  0  0  0  0  0  0  0  0  0  0  0
    0.6770    2.3342    0.2267 S   0  0  0  0  0  0  0  0  0  0  0  0
    0.1204    0.6985    0.2019 C   0  0  0  0  0  0  0  0  0  0  0  0
    0.3406   -0.1462   -0.7754 N   0  0  0  0  0  0  0  0  0  0  0  0
   -0.1879   -1.3523   -0.4126 N   0  0  0  0  0  0  0  0  0  0  0  0
   -0.7226   -1.2268    0.7873 C   0  0  0  0  0  0  0  0  0  0  0  0
   -1.3770   -2.3271    1.5539 C   0  0  0  0  0  0  0  0  0  0  0  0
   -2.8726   -2.3666    1.4109 C   0  0  0  0  0  0  0  0  0  0  0  0
   -3.6688   -1.9424    0.3623 C   0  0  0  0  0  0  0  0  0  0  0  0
   -5.0532   -2.1744    0.5989 C   0  0  0  0  0  0  0  0  0  0  0  0
   -5.2741   -2.7819    1.8145 C   0  0  0  0  0  0  0  0  0  0  0  0
   -3.8175   -3.0747    2.6595 S   0  0  0  0  0  0  0  0  0  0  0  0
   -0.5655    0.0790    1.2106 N   0  0  0  0  0  0  0  0  0  0  0  0
   -0.9981    0.6527    2.4698 C   0  0  0  0  0  0  0  0  0  0  0  0
   -2.3949    1.1482    2.3916 C   0  0  0  0  0  0  0  0  0  0  0  0
   -3.5604    0.8087    3.0472 C   0  0  0  0  0  0  0  0  0  0  0  0
   -4.5710    1.6586    2.5343 C   0  0  0  0  0  0  0  0  0  0  0  0
   -3.9555    2.4748    1.6170 C   0  0  0  0  0  0  0  0  0  0  0  0
   -2.6343    2.1790    1.5303 O   0  0  0  0  0  0  0  0  0  0  0  0
    2.8272    1.0133   -1.7798 N   0  0  0  0  0  0  0  0  0  0  0  0
    4.0555    0.4240   -2.1653 C   0  0  0  0  0  0  0  0  0  0  0  0
    4.9733    1.0681   -3.0056 C   0  0  0  0  0  0  0  0  0  0  0  0
    6.1515    0.4246   -3.4060 C   0  0  0  0  0  0  0  0  0  0  0  0
    6.4211   -0.8683   -2.9707 C   0  0  0  0  0  0  0  0  0  0  0  0
    7.8595   -1.6612   -3.4819 Cl  0  0  0  0  0  0  0  0  0  0  0  0
    5.5369   -1.5218   -2.1160 C   0  0  0  0  0  0  0  0  0  0  0  0
    4.3595   -0.8792   -1.7221 C   0  0  0  0  0  0  0  0  0  0  0  0
    3.3113   -1.7314   -0.6381 Cl  0  0  0  0  0  0  0  0  0  0  0  0
    0.7974    3.6774   -1.7400 H   0  0  0  0  0  0  0  0  0  0  0  0
    0.3091    2.0450   -2.1881 H   0  0  0  0  0  0  0  0  0  0  0  0
   -0.9777   -3.2845    1.1925 H   0  0  0  0  0  0  0  0  0  0  0  0
   -1.0898   -2.2579    2.6100 H   0  0  0  0  0  0  0  0  0  0  0  0
   -3.2749   -1.4880   -0.5421 H   0  0  0  0  0  0  0  0  0  0  0  0
   -5.8431   -1.9166   -0.0965 H   0  0  0  0  0  0  0  0  0  0  0  0
   -6.2221   -3.0805    2.2431 H   0  0  0  0  0  0  0  0  0  0  0  0
   -0.8948   -0.1099    3.2463 H   0  0  0  0  0  0  0  0  0  0  0  0
   -0.3208    1.4661    2.7439 H   0  0  0  0  0  0  0  0  0  0  0  0
   -3.6764    0.0404    3.7947 H   0  0  0  0  0  0  0  0  0  0  0  0
   -5.6186    1.6772    2.8004 H   0  0  0  0  0  0  0  0  0  0  0  0
   -4.2981    3.2754    0.9771 H   0  0  0  0  0  0  0  0  0  0  0  0
    2.1784    0.3855   -1.2990 H   0  0  0  0  0  0  0  0  0  0  0  0
    4.7990    2.0714   -3.3830 H   0  0  0  0  0  0  0  0  0  0  0  0
    6.8424    0.9373   -4.0731 H   0  0  0  0  0  0  0  0  0  0  0  0
    5.7507   -2.5303   -1.7713 H   0  0  0  0  0  0  0  0  0  0  0  0
  1  2  2  0
  2  3  1  0
  3  4  1  0
  4  5  1  0
  5  6  2  0
  6  7  1  0
  7  8  2  0
  8  9  1  0
  9 10  1  0
 10 11  2  0
 11 12  1  0
 12 13  2  0
 13 14  1  0
  8 15  1  0
 15 16  1  0
 16 17  1  0
 17 18  2  0
 18 19  1  0
 19 20  2  0
 20 21  1  0
  2 22  1  0
 22 23  1  0
 23 24  2  0
 24 25  1  0
 25 26  2  0
 26 27  1  0
 26 28  1  0
 28 29  2  0
 29 30  1  0
 15  5  1  0
 21 17  1  0
 29 23  1  0
 14 10  1  0
  3 31  1  0
  3 32  1  0
  9 33  1  0
  9 34  1  0
 11 35  1  0
 12 36  1  0
 13 37  1  0
 16 38  1  0
 16 39  1  0
 18 40  1  0
 19 41  1  0
 20 42  1  0
 22 43  1  0
 24 44  1  0
 25 45  1  0
 28 46  1  0
M  END
$$$$
