
     RDKit          3D

 56 58  0  0  0  0  0  0  0  0999 V2000
    9.4745   -0.0993    0.6060 C   0  0  0  0  0  0  0  0  0  0  0  0
    8.4248   -1.0518    0.4936 O   0  0  0  0  0  0  0  0  0  0  0  0
    7.4301   -0.7722   -0.4024 C   0  0  0  0  0  0  0  0  0  0  0  0
    6.4042   -1.7181   -0.4496 C   0  0  0  0  0  0  0  0  0  0  0  0
    5.3230   -1.5550   -1.3185 C   0  0  0  0  0  0  0  0  0  0  0  0
    5.2564   -0.4416   -2.1648 C   0  0  0  0  0  0  0  0  0  0  0  0
    4.0755   -0.2491   -3.0799 C   0  0  0  0  0  0  0  0  0  0  0  0
    3.0277    0.4814   -2.4169 N   0  0  0  0  0  0  0  0  0  0  0  0
    2.0047   -0.1477   -1.7486 C   0  0  0  0  0  0  0  0  0  0  0  0
    1.7593   -1.3458   -1.7532 O   0  0  0  0  0  0  0  0  0  0  0  0
    1.1317    0.8191   -0.9160 C   0  0  0  0  0  0  0  0  0  0  0  0
    1.4242    2.0045   -0.8503 O   0  0  0  0  0  0  0  0  0  0  0  0
    0.0723    0.2062   -0.2894 N   0  0  0  0  0  0  0  0  0  0  0  0
   -0.7104    0.8870    0.7291 C   0  0  0  0  0  0  0  0  0  0  0  0
   -2.0330    0.1553    1.0284 C   0  0  0  0  0  0  0  0  0  0  0  0
   -1.7353   -1.1995    1.4466 O   0  0  0  0  0  0  0  0  0  0  0  0
   -1.8935   -1.2357    2.8702 C   0  0  0  0  0  0  0  0  0  0  0  0
   -3.0164   -0.2597    3.1385 C   0  0  0  0  0  0  0  0  0  0  0  0
   -2.7459    0.7793    2.1474 N   0  0  0  0  0  0  0  0  0  0  0  0
   -3.8985    1.9472    1.8200 S   0  0  0  0  0  6  0  0  0  0  0  0
   -3.3418    2.8483    0.8343 O   0  0  0  0  0  0  0  0  0  0  0  0
   -4.3911    2.4393    3.0893 O   0  0  0  0  0  0  0  0  0  0  0  0
   -5.2298    1.0582    1.0409 C   0  0  0  0  0  0  0  0  0  0  0  0
   -5.2819    0.9666   -0.3526 C   0  0  0  0  0  0  0  0  0  0  0  0
   -6.3434    0.2936   -0.9603 C   0  0  0  0  0  0  0  0  0  0  0  0
   -7.3594   -0.2797   -0.1839 C   0  0  0  0  0  0  0  0  0  0  0  0
   -8.5175   -0.9698   -0.8443 C   0  0  0  0  0  0  0  0  0  0  0  0
   -7.3196   -0.1401    1.2098 C   0  0  0  0  0  0  0  0  0  0  0  0
   -6.2606    0.5311    1.8238 C   0  0  0  0  0  0  0  0  0  0  0  0
    6.2836    0.5098   -2.1096 C   0  0  0  0  0  0  0  0  0  0  0  0
    7.3656    0.3438   -1.2367 C   0  0  0  0  0  0  0  0  0  0  0  0
    9.0930    0.8725    0.9364 H   0  0  0  0  0  0  0  0  0  0  0  0
   10.1721   -0.4587    1.3685 H   0  0  0  0  0  0  0  0  0  0  0  0
   10.0271   -0.0085   -0.3350 H   0  0  0  0  0  0  0  0  0  0  0  0
    6.4439   -2.5885    0.2008 H   0  0  0  0  0  0  0  0  0  0  0  0
    4.5288   -2.2998   -1.3268 H   0  0  0  0  0  0  0  0  0  0  0  0
    3.7008   -1.2180   -3.4296 H   0  0  0  0  0  0  0  0  0  0  0  0
    4.3701    0.3250   -3.9652 H   0  0  0  0  0  0  0  0  0  0  0  0
    3.1652    1.4631   -2.1935 H   0  0  0  0  0  0  0  0  0  0  0  0
    0.0890   -0.8131   -0.2897 H   0  0  0  0  0  0  0  0  0  0  0  0
   -0.8890    1.9184    0.4084 H   0  0  0  0  0  0  0  0  0  0  0  0
   -0.0808    0.9249    1.6262 H   0  0  0  0  0  0  0  0  0  0  0  0
   -2.6396    0.0718    0.1236 H   0  0  0  0  0  0  0  0  0  0  0  0
   -0.9536   -0.9137    3.3321 H   0  0  0  0  0  0  0  0  0  0  0  0
   -2.1235   -2.2528    3.1979 H   0  0  0  0  0  0  0  0  0  0  0  0
   -2.9899    0.1199    4.1622 H   0  0  0  0  0  0  0  0  0  0  0  0
   -3.9770   -0.7444    2.9450 H   0  0  0  0  0  0  0  0  0  0  0  0
   -4.5123    1.4218   -0.9724 H   0  0  0  0  0  0  0  0  0  0  0  0
   -6.3794    0.2266   -2.0462 H   0  0  0  0  0  0  0  0  0  0  0  0
   -9.3013   -0.2430   -1.0790 H   0  0  0  0  0  0  0  0  0  0  0  0
   -8.9355   -1.7434   -0.1915 H   0  0  0  0  0  0  0  0  0  0  0  0
   -8.2008   -1.4625   -1.7697 H   0  0  0  0  0  0  0  0  0  0  0  0
   -8.1207   -0.5464    1.8245 H   0  0  0  0  0  0  0  0  0  0  0  0
   -6.2531    0.6458    2.9055 H   0  0  0  0  0  0  0  0  0  0  0  0
    6.2493    1.3915   -2.7460 H   0  0  0  0  0  0  0  0  0  0  0  0
    8.1377    1.1057   -1.2326 H   0  0  0  0  0  0  0  0  0  0  0  0
  1  2  1  0
  2  3  1  0
  3  4  2  0
  4  5  1  0
  5  6  2  0
  6  7  1  0
  7  8  1  0
  8  9  1  0
  9 10  2  0
  9 11  1  0
 11 12  2  0
 11 13  1  0
 13 14  1  0
 14 15  1  0
 15 16  1  0
 16 17  1  0
 17 18  1  0
 18 19  1  0
 19 20  1  0
 20 21  2  0
 20 22  2  0
 20 23  1  0
 23 24  2  0
 24 25  1  0
 25 26  2  0
 26 27  1  0
 26 28  1  0
 28 29  2  0
  6 30  1  0
 30 31  2  0
 31  3  1  0
 19 15  1  0
 29 23  1  0
  1 32  1  0
  1 33  1  0
  1 34  1  0
  4 35  1  0
  5 36  1  0
  7 37  1  0
  7 38  1  0
  8 39  1  0
 13 40  1  0
 14 41  1  0
 14 42  1  0
 15 43  1  0
 17 44  1  0
 17 45  1  0
 18 46  1  0
 18 47  1  0
 24 48  1  0
 25 49  1  0
 27 50  1  0
 27 51  1  0
 27 52  1  0
 28 53  1  0
 29 54  1  0
 30 55  1  0
 31 56  1  0
M  END
$$$$
