
     RDKit          3D

 40 42  0  0  0  0  0  0  0  0999 V2000
    2.3793    5.3121    0.5157 C   0  0  0  0  0  0  0  0  0  0  0  0
    1.9895    3.8458    0.4450 C   0  0  0  0  0  0  0  0  0  0  0  0
    0.2751    3.6907   -0.1532 S   0  0  0  0  0  0  0  0  0  0  0  0
    0.0870    1.9125   -0.1637 C   0  0  0  0  0  0  0  0  0  0  0  0
   -1.0971    1.3801   -0.6238 C   0  0  0  0  0  0  0  0  0  0  0  0
   -1.2200    0.0048   -0.6168 C   0  0  0  0  0  0  0  0  0  0  0  0
   -2.4049   -0.5930   -1.0940 N   0  0  0  0  0  0  0  0  0  0  0  0
   -3.6091   -0.1989   -0.3269 C   0  0  0  0  0  0  0  0  0  0  0  0
   -4.8596   -0.8344   -0.9580 C   0  0  0  0  0  0  0  0  0  0  0  0
   -4.7452   -2.2635   -1.0391 O   0  0  0  0  0  0  0  0  0  0  0  0
   -3.6006   -2.6225   -1.8310 C   0  0  0  0  0  0  0  0  0  0  0  0
   -2.3035   -2.0653   -1.2249 C   0  0  0  0  0  0  0  0  0  0  0  0
   -0.2035   -0.7686   -0.2024 N   0  0  0  0  0  0  0  0  0  0  0  0
    0.9198   -0.1695    0.2359 C   0  0  0  0  0  0  0  0  0  0  0  0
    2.0240   -1.0332    0.7041 C   0  0  0  0  0  0  0  0  0  0  0  0
    1.9179   -2.4380    0.6872 C   0  0  0  0  0  0  0  0  0  0  0  0
    2.9613   -3.2576    1.1304 C   0  0  0  0  0  0  0  0  0  0  0  0
    4.1402   -2.6899    1.6033 C   0  0  0  0  0  0  0  0  0  0  0  0
    4.2762   -1.3056    1.6330 C   0  0  0  0  0  0  0  0  0  0  0  0
    3.2304   -0.4896    1.1883 C   0  0  0  0  0  0  0  0  0  0  0  0
    1.1025    1.1590    0.2782 N   0  0  0  0  0  0  0  0  0  0  0  0
    3.4104    5.4056    0.8725 H   0  0  0  0  0  0  0  0  0  0  0  0
    1.7382    5.8661    1.2099 H   0  0  0  0  0  0  0  0  0  0  0  0
    2.3251    5.7910   -0.4679 H   0  0  0  0  0  0  0  0  0  0  0  0
    2.6668    3.3209   -0.2364 H   0  0  0  0  0  0  0  0  0  0  0  0
    2.0743    3.3980    1.4404 H   0  0  0  0  0  0  0  0  0  0  0  0
   -1.8874    2.0151   -1.0006 H   0  0  0  0  0  0  0  0  0  0  0  0
   -3.7468    0.8877   -0.3169 H   0  0  0  0  0  0  0  0  0  0  0  0
   -3.5105   -0.5458    0.7101 H   0  0  0  0  0  0  0  0  0  0  0  0
   -5.0380   -0.4346   -1.9635 H   0  0  0  0  0  0  0  0  0  0  0  0
   -5.7392   -0.6068   -0.3476 H   0  0  0  0  0  0  0  0  0  0  0  0
   -3.7471   -2.2574   -2.8546 H   0  0  0  0  0  0  0  0  0  0  0  0
   -3.5540   -3.7153   -1.8689 H   0  0  0  0  0  0  0  0  0  0  0  0
   -1.4668   -2.3402   -1.8784 H   0  0  0  0  0  0  0  0  0  0  0  0
   -2.1514   -2.5208   -0.2373 H   0  0  0  0  0  0  0  0  0  0  0  0
    1.0066   -2.9096    0.3223 H   0  0  0  0  0  0  0  0  0  0  0  0
    2.8489   -4.3384    1.1047 H   0  0  0  0  0  0  0  0  0  0  0  0
    4.9516   -3.3252    1.9484 H   0  0  0  0  0  0  0  0  0  0  0  0
    5.1947   -0.8560    2.0014 H   0  0  0  0  0  0  0  0  0  0  0  0
    3.3650    0.5904    1.2232 H   0  0  0  0  0  0  0  0  0  0  0  0
  1  2  1  0
  2  3  1  0
  3  4  1  0
  4  5  2  0
  5  6  1  0
  6  7  1  0
  7  8  1  0
  8  9  1  0
  9 10  1  0
 10 11  1  0
 11 12  1  0
  6 13  2  0
 13 14  1  0
 14 15  1  0
 15 16  2  0
 16 17  1  0
 17 18  2  0
 18 19  1  0
 19 20  2  0
 14 21  2  0
 21  4  1  0
 12  7  1  0
 20 15  1  0
  1 22  1  0
  1 23  1  0
  1 24  1  0
  2 25  1  0
  2 26  1  0
  5 27  1  0
  8 28  1  0
  8 29  1  0
  9 30  1  0
  9 31  1  0
 11 32  1  0
 11 33  1  0
 12 34  1  0
 12 35  1  0
 16 36  1  0
 17 37  1  0
 18 38  1  0
 19 39  1  0
 20 40  1  0
M  END
$$$$
