
     RDKit          3D

 55 58  0  0  0  0  0  0  0  0999 V2000
    8.5418    2.5984    0.3038 C   0  0  0  0  0  0  0  0  0  0  0  0
    8.0101    1.3260   -0.0359 O   0  0  0  0  0  0  0  0  0  0  0  0
    6.6491    1.1632    0.0371 C   0  0  0  0  0  0  0  0  0  0  0  0
    5.7665    2.1215    0.5441 C   0  0  0  0  0  0  0  0  0  0  0  0
    4.3943    1.8632    0.5848 C   0  0  0  0  0  0  0  0  0  0  0  0
    3.8915    0.6397    0.1308 C   0  0  0  0  0  0  0  0  0  0  0  0
    2.4195    0.4093    0.2005 C   0  0  0  0  0  0  0  0  0  0  0  0
    1.9652   -0.9838    0.5187 C   0  0  0  0  0  0  0  0  0  0  0  0
    0.6333   -1.1804    0.5834 C   0  0  0  0  0  0  0  0  0  0  0  0
    0.0060   -2.4849    0.8941 C   0  0  0  0  0  0  0  0  0  0  0  0
    0.9493   -3.4489    1.1012 F   0  0  0  0  0  0  0  0  0  0  0  0
   -0.7447   -2.4557    2.0233 F   0  0  0  0  0  0  0  0  0  0  0  0
   -0.7766   -2.9476   -0.1128 F   0  0  0  0  0  0  0  0  0  0  0  0
   -0.2308   -0.1141    0.3634 N   0  0  0  0  0  0  0  0  0  0  0  0
   -1.5843   -0.1102    0.3878 N   0  0  0  0  0  0  0  0  0  0  0  0
   -1.9533    1.1574    0.1298 C   0  0  0  0  0  0  0  0  0  0  0  0
   -3.3574    1.6146    0.0155 C   0  0  0  0  0  0  0  0  0  0  0  0
   -3.6087    2.6241   -0.6450 O   0  0  0  0  0  0  0  0  0  0  0  0
   -4.3744    0.8981    0.6546 N   0  0  0  0  0  0  0  0  0  0  0  0
   -4.1503   -0.1511    1.6410 C   0  0  0  0  0  0  0  0  0  0  0  0
   -5.7620    1.1935    0.3058 C   0  0  0  0  0  0  0  0  0  0  0  0
   -6.4781    0.0091   -0.3026 C   0  0  0  0  0  0  0  0  0  0  0  0
   -7.5966   -0.5529    0.3300 C   0  0  0  0  0  0  0  0  0  0  0  0
   -8.2533   -1.6494   -0.2334 C   0  0  0  0  0  0  0  0  0  0  0  0
   -7.8013   -2.1929   -1.4346 C   0  0  0  0  0  0  0  0  0  0  0  0
   -6.6947   -1.6388   -2.0762 C   0  0  0  0  0  0  0  0  0  0  0  0
   -6.0373   -0.5420   -1.5149 C   0  0  0  0  0  0  0  0  0  0  0  0
   -0.8149    1.9727   -0.0870 C   0  0  0  0  0  0  0  0  0  0  0  0
    0.2747    1.1564    0.0842 C   0  0  0  0  0  0  0  0  0  0  0  0
    1.6121    1.4147    0.0123 N   0  0  0  0  0  0  0  0  0  0  0  0
    4.7673   -0.3199   -0.3949 C   0  0  0  0  0  0  0  0  0  0  0  0
    6.1449   -0.0664   -0.4388 C   0  0  0  0  0  0  0  0  0  0  0  0
    7.0800   -0.9461   -0.9291 O   0  0  0  0  0  0  0  0  0  0  0  0
    6.6216   -2.1790   -1.4648 C   0  0  0  0  0  0  0  0  0  0  0  0
    8.1193    3.3858   -0.3281 H   0  0  0  0  0  0  0  0  0  0  0  0
    8.3898    2.8183    1.3659 H   0  0  0  0  0  0  0  0  0  0  0  0
    9.6220    2.5685    0.1210 H   0  0  0  0  0  0  0  0  0  0  0  0
    6.1124    3.0804    0.9169 H   0  0  0  0  0  0  0  0  0  0  0  0
    3.7213    2.6238    0.9779 H   0  0  0  0  0  0  0  0  0  0  0  0
    2.6840   -1.7692    0.7142 H   0  0  0  0  0  0  0  0  0  0  0  0
   -3.2506    0.0502    2.2278 H   0  0  0  0  0  0  0  0  0  0  0  0
   -4.0680   -1.1142    1.1291 H   0  0  0  0  0  0  0  0  0  0  0  0
   -4.9907   -0.1837    2.3407 H   0  0  0  0  0  0  0  0  0  0  0  0
   -5.8340    2.0316   -0.3957 H   0  0  0  0  0  0  0  0  0  0  0  0
   -6.2630    1.5194    1.2258 H   0  0  0  0  0  0  0  0  0  0  0  0
   -7.9637   -0.1426    1.2674 H   0  0  0  0  0  0  0  0  0  0  0  0
   -9.1172   -2.0805    0.2664 H   0  0  0  0  0  0  0  0  0  0  0  0
   -8.3124   -3.0464   -1.8709 H   0  0  0  0  0  0  0  0  0  0  0  0
   -6.3392   -2.0613   -3.0126 H   0  0  0  0  0  0  0  0  0  0  0  0
   -5.1732   -0.1203   -2.0242 H   0  0  0  0  0  0  0  0  0  0  0  0
   -0.7980    3.0254   -0.3321 H   0  0  0  0  0  0  0  0  0  0  0  0
    4.3667   -1.2461   -0.7887 H   0  0  0  0  0  0  0  0  0  0  0  0
    7.4947   -2.7379   -1.8172 H   0  0  0  0  0  0  0  0  0  0  0  0
    5.9639   -2.0156   -2.3244 H   0  0  0  0  0  0  0  0  0  0  0  0
    6.1273   -2.7836   -0.6968 H   0  0  0  0  0  0  0  0  0  0  0  0
  1  2  1  0
  2  3  1  0
  3  4  2  0
  4  5  1  0
  5  6  2  0
  6  7  1  0
  7  8  1  0
  8  9  2  0
  9 10  1  0
 10 11  1  0
 10 12  1  0
 10 13  1  0
  9 14  1  0
 14 15  1  0
 15 16  2  0
 16 17  1  0
 17 18  2  0
 17 19  1  0
 19 20  1  0
 19 21  1  0
 21 22  1  0
 22 23  2  0
 23 24  1  0
 24 25  2  0
 25 26  1  0
 26 27  2  0
 16 28  1  0
 28 29  2  0
 29 30  1  0
  6 31  1  0
 31 32  2  0
 32 33  1  0
 33 34  1  0
 32  3  1  0
 30  7  2  0
 29 14  1  0
 27 22  1  0
  1 35  1  0
  1 36  1  0
  1 37  1  0
  4 38  1  0
  5 39  1  0
  8 40  1  0
 20 41  1  0
 20 42  1  0
 20 43  1  0
 21 44  1  0
 21 45  1  0
 23 46  1  0
 24 47  1  0
 25 48  1  0
 26 49  1  0
 27 50  1  0
 28 51  1  0
 31 52  1  0
 34 53  1  0
 34 54  1  0
 34 55  1  0
M  END
$$$$
