
     RDKit          3D

 36 37  0  0  0  0  0  0  0  0999 V2000
    7.6648   -0.1849    0.1998 C   0  0  0  0  0  0  0  0  0  0  0  0
    6.2289   -0.6237    0.0528 C   0  0  0  0  0  0  0  0  0  0  0  0
    5.9554   -1.7403   -0.3723 O   0  0  0  0  0  0  0  0  0  0  0  0
    5.3370    0.3700    0.4143 N   0  0  0  0  0  0  0  0  0  0  0  0
    3.9288    0.3041    0.4039 C   0  0  0  0  0  0  0  0  0  0  0  0
    3.2025   -0.8339    0.0461 C   0  0  0  0  0  0  0  0  0  0  0  0
    1.8012   -0.8223    0.0609 C   0  0  0  0  0  0  0  0  0  0  0  0
    1.1104    0.3374    0.4276 C   0  0  0  0  0  0  0  0  0  0  0  0
   -0.3794    0.3973    0.4600 C   0  0  0  0  0  0  0  0  0  0  0  0
   -0.9232    1.1765    1.2369 O   0  0  0  0  0  0  0  0  0  0  0  0
   -1.0220   -0.4350   -0.4520 N   0  0  0  0  0  0  0  0  0  0  0  0
   -2.3724   -0.4402   -0.6963 N   0  0  0  0  0  0  0  0  0  0  0  0
   -3.1700   -0.2615    0.3094 C   0  0  0  0  0  0  0  0  0  0  0  0
   -4.6363   -0.2036    0.1335 C   0  0  0  0  0  0  0  0  0  0  0  0
   -5.4408   -0.0020    1.2614 C   0  0  0  0  0  0  0  0  0  0  0  0
   -6.8286    0.0552    1.1190 C   0  0  0  0  0  0  0  0  0  0  0  0
   -7.3967   -0.0884   -0.1433 C   0  0  0  0  0  0  0  0  0  0  0  0
   -8.7282   -0.0332   -0.2759 F   0  0  0  0  0  0  0  0  0  0  0  0
   -6.6044   -0.2874   -1.2694 C   0  0  0  0  0  0  0  0  0  0  0  0
   -5.2164   -0.3452   -1.1330 C   0  0  0  0  0  0  0  0  0  0  0  0
    1.8336    1.4736    0.8045 C   0  0  0  0  0  0  0  0  0  0  0  0
    3.2322    1.4566    0.7884 C   0  0  0  0  0  0  0  0  0  0  0  0
    8.3011   -1.0645    0.3333 H   0  0  0  0  0  0  0  0  0  0  0  0
    7.9725    0.3535   -0.7004 H   0  0  0  0  0  0  0  0  0  0  0  0
    7.7907    0.4593    1.0748 H   0  0  0  0  0  0  0  0  0  0  0  0
    5.7366    1.2527    0.7080 H   0  0  0  0  0  0  0  0  0  0  0  0
    3.6967   -1.7577   -0.2405 H   0  0  0  0  0  0  0  0  0  0  0  0
    1.2751   -1.7396   -0.1913 H   0  0  0  0  0  0  0  0  0  0  0  0
   -0.4797   -0.7697   -1.2428 H   0  0  0  0  0  0  0  0  0  0  0  0
   -2.8089   -0.1734    1.3485 H   0  0  0  0  0  0  0  0  0  0  0  0
   -4.9985    0.1151    2.2476 H   0  0  0  0  0  0  0  0  0  0  0  0
   -7.4695    0.2121    1.9809 H   0  0  0  0  0  0  0  0  0  0  0  0
   -7.0705   -0.3950   -2.2437 H   0  0  0  0  0  0  0  0  0  0  0  0
   -4.5942   -0.4986   -2.0116 H   0  0  0  0  0  0  0  0  0  0  0  0
    1.3099    2.3780    1.1096 H   0  0  0  0  0  0  0  0  0  0  0  0
    3.7625    2.3588    1.0829 H   0  0  0  0  0  0  0  0  0  0  0  0
  1  2  1  0
  2  3  2  0
  2  4  1  0
  4  5  1  0
  5  6  2  0
  6  7  1  0
  7  8  2  0
  8  9  1  0
  9 10  2  0
  9 11  1  0
 11 12  1  0
 12 13  2  3
 13 14  1  0
 14 15  2  0
 15 16  1  0
 16 17  2  0
 17 18  1  0
 17 19  1  0
 19 20  2  0
  8 21  1  0
 21 22  2  0
 22  5  1  0
 20 14  1  0
  1 23  1  0
  1 24  1  0
  1 25  1  0
  4 26  1  0
  6 27  1  0
  7 28  1  0
 11 29  1  0
 13 30  1  0
 15 31  1  0
 16 32  1  0
 19 33  1  0
 20 34  1  0
 21 35  1  0
 22 36  1  0
M  END
$$$$
