
     RDKit          3D

 31 33  0  0  0  0  0  0  0  0999 V2000
   -3.8306   -0.9343    1.1666 C   0  0  0  0  0  0  0  0  0  0  0  0
   -3.2739   -0.2240   -0.0253 C   0  0  0  0  0  0  0  0  0  0  0  0
   -4.0782    0.2255   -1.1239 C   0  0  0  0  0  0  0  0  0  0  0  0
   -3.3419    0.8457   -2.1048 C   0  0  0  0  0  0  0  0  0  0  0  0
   -1.6842    0.8960   -1.7207 S   0  0  0  0  0  0  0  0  0  0  0  0
   -1.9309    0.0835   -0.2219 C   0  0  0  0  0  0  0  0  0  0  0  0
   -0.7578   -0.2127    0.7012 C   0  0  0  0  0  0  0  0  0  0  0  0
   -0.0226    1.0474    1.1137 C   0  0  0  0  0  0  0  0  0  0  0  0
    1.0377    0.7553    2.1405 C   0  0  0  0  0  0  0  0  0  0  0  0
    0.8532    0.9797    3.3367 O   0  0  0  0  0  0  0  0  0  0  0  0
    2.2556    0.3101    1.7090 N   0  0  0  0  0  0  0  0  0  0  0  0
    2.6159   -0.0430    0.3969 C   0  0  0  0  0  0  0  0  0  0  0  0
    3.9138    0.3008   -0.0061 C   0  0  0  0  0  0  0  0  0  0  0  0
    4.3500    0.0304   -1.3035 C   0  0  0  0  0  0  0  0  0  0  0  0
    3.5032   -0.6132   -2.1993 C   0  0  0  0  0  0  0  0  0  0  0  0
    2.2302   -1.0117   -1.7887 C   0  0  0  0  0  0  0  0  0  0  0  0
    1.7729   -0.7395   -0.4897 C   0  0  0  0  0  0  0  0  0  0  0  0
    0.2605   -1.5667   -0.0048 S   0  0  0  0  0  0  0  0  0  0  0  0
   -3.6416   -0.3571    2.0774 H   0  0  0  0  0  0  0  0  0  0  0  0
   -4.9124   -1.0761    1.0757 H   0  0  0  0  0  0  0  0  0  0  0  0
   -3.3696   -1.9215    1.2736 H   0  0  0  0  0  0  0  0  0  0  0  0
   -5.1520    0.0950   -1.1905 H   0  0  0  0  0  0  0  0  0  0  0  0
   -3.7009    1.2706   -3.0319 H   0  0  0  0  0  0  0  0  0  0  0  0
   -1.1651   -0.6562    1.6186 H   0  0  0  0  0  0  0  0  0  0  0  0
    0.4214    1.5902    0.2709 H   0  0  0  0  0  0  0  0  0  0  0  0
   -0.7270    1.7579    1.5680 H   0  0  0  0  0  0  0  0  0  0  0  0
    2.9894    0.4309    2.3970 H   0  0  0  0  0  0  0  0  0  0  0  0
    4.5880    0.8154    0.6745 H   0  0  0  0  0  0  0  0  0  0  0  0
    5.3503    0.3223   -1.6139 H   0  0  0  0  0  0  0  0  0  0  0  0
    3.8412   -0.8337   -3.2090 H   0  0  0  0  0  0  0  0  0  0  0  0
    1.6053   -1.5671   -2.4862 H   0  0  0  0  0  0  0  0  0  0  0  0
  1  2  1  0
  2  3  1  0
  3  4  2  0
  4  5  1  0
  5  6  1  0
  6  7  1  0
  7  8  1  0
  8  9  1  0
  9 10  2  0
  9 11  1  0
 11 12  1  0
 12 13  2  0
 13 14  1  0
 14 15  2  0
 15 16  1  0
 16 17  2  0
 17 18  1  0
  6  2  2  0
 18  7  1  0
 17 12  1  0
  1 19  1  0
  1 20  1  0
  1 21  1  0
  3 22  1  0
  4 23  1  0
  7 24  1  0
  8 25  1  0
  8 26  1  0
 11 27  1  0
 13 28  1  0
 14 29  1  0
 15 30  1  0
 16 31  1  0
M  END
$$$$
