
     RDKit          3D

 42 44  0  0  0  0  0  0  0  0999 V2000
   -3.7799   -0.3800    3.6312 C   0  0  0  0  0  0  0  0  0  0  0  0
   -2.7672   -1.0814    2.9204 O   0  0  0  0  0  0  0  0  0  0  0  0
   -2.5983   -0.7580    1.6022 C   0  0  0  0  0  0  0  0  0  0  0  0
   -1.6093   -1.4973    0.9447 C   0  0  0  0  0  0  0  0  0  0  0  0
   -1.3294   -1.2735   -0.4042 C   0  0  0  0  0  0  0  0  0  0  0  0
   -2.0350   -0.2859   -1.0943 C   0  0  0  0  0  0  0  0  0  0  0  0
   -1.6960    0.0031   -2.8168 S   0  0  0  0  0  6  0  0  0  0  0  0
   -1.0691   -1.1834   -3.3566 O   0  0  0  0  0  0  0  0  0  0  0  0
   -2.9001    0.5471   -3.4108 O   0  0  0  0  0  0  0  0  0  0  0  0
   -0.5820    1.2709   -2.7908 N   0  0  0  0  0  0  0  0  0  0  0  0
    0.5837    1.1887   -1.9733 C   0  0  0  0  0  0  0  0  0  0  0  0
    1.5041    0.1531   -2.1755 C   0  0  0  0  0  0  0  0  0  0  0  0
    2.6289    0.0147   -1.3516 C   0  0  0  0  0  0  0  0  0  0  0  0
    3.7608   -1.3194   -1.7091 S   0  0  0  0  0  0  0  0  0  0  0  0
    3.6362   -2.2845   -0.2679 C   0  0  0  0  0  0  0  0  0  0  0  0
    4.0138   -1.8088    0.9625 N   0  0  0  0  0  0  0  0  0  0  0  0
    3.7807   -2.8311    1.7532 C   0  0  0  0  0  0  0  0  0  0  0  0
    3.2936   -3.8695    1.0230 N   0  0  0  0  0  0  0  0  0  0  0  0
    3.1943   -3.5438   -0.2749 N   0  0  0  0  0  0  0  0  0  0  0  0
    2.8282    0.9550   -0.3355 C   0  0  0  0  0  0  0  0  0  0  0  0
    3.8868    0.9134    0.5299 O   0  0  0  0  0  0  0  0  0  0  0  0
    1.9365    2.0112   -0.1516 C   0  0  0  0  0  0  0  0  0  0  0  0
    0.8004    2.1397   -0.9630 C   0  0  0  0  0  0  0  0  0  0  0  0
   -0.1402    3.2865   -0.7227 C   0  0  0  0  0  0  0  0  0  0  0  0
   -3.0394    0.4460   -0.4551 C   0  0  0  0  0  0  0  0  0  0  0  0
   -3.3152    0.2115    0.8963 C   0  0  0  0  0  0  0  0  0  0  0  0
   -3.7921   -0.7598    4.6574 H   0  0  0  0  0  0  0  0  0  0  0  0
   -4.7678   -0.5647    3.1962 H   0  0  0  0  0  0  0  0  0  0  0  0
   -3.5606    0.6919    3.6751 H   0  0  0  0  0  0  0  0  0  0  0  0
   -1.0555   -2.2586    1.4889 H   0  0  0  0  0  0  0  0  0  0  0  0
   -0.5641   -1.8668   -0.9002 H   0  0  0  0  0  0  0  0  0  0  0  0
   -1.0299    2.1764   -2.9119 H   0  0  0  0  0  0  0  0  0  0  0  0
    1.3481   -0.5530   -2.9893 H   0  0  0  0  0  0  0  0  0  0  0  0
    3.9405   -2.8779    2.8213 H   0  0  0  0  0  0  0  0  0  0  0  0
    3.0193   -4.7974    1.3273 H   0  0  0  0  0  0  0  0  0  0  0  0
    4.1943   -0.0160    0.5881 H   0  0  0  0  0  0  0  0  0  0  0  0
    2.1344    2.7281    0.6427 H   0  0  0  0  0  0  0  0  0  0  0  0
   -0.1705    3.9413   -1.5993 H   0  0  0  0  0  0  0  0  0  0  0  0
    0.1746    3.8940    0.1327 H   0  0  0  0  0  0  0  0  0  0  0  0
   -1.1474    2.9179   -0.5075 H   0  0  0  0  0  0  0  0  0  0  0  0
   -3.6120    1.1950   -0.9976 H   0  0  0  0  0  0  0  0  0  0  0  0
   -4.0980    0.7981    1.3662 H   0  0  0  0  0  0  0  0  0  0  0  0
  1  2  1  0
  2  3  1  0
  3  4  2  0
  4  5  1  0
  5  6  2  0
  6  7  1  0
  7  8  2  0
  7  9  2  0
  7 10  1  0
 10 11  1  0
 11 12  2  0
 12 13  1  0
 13 14  1  0
 14 15  1  0
 15 16  1  0
 16 17  2  0
 17 18  1  0
 18 19  1  0
 13 20  2  0
 20 21  1  0
 20 22  1  0
 22 23  2  0
 23 24  1  0
  6 25  1  0
 25 26  2  0
 26  3  1  0
 23 11  1  0
 19 15  2  0
  1 27  1  0
  1 28  1  0
  1 29  1  0
  4 30  1  0
  5 31  1  0
 10 32  1  0
 12 33  1  0
 17 34  1  0
 18 35  1  0
 21 36  1  0
 22 37  1  0
 24 38  1  0
 24 39  1  0
 24 40  1  0
 25 41  1  0
 26 42  1  0
M  END
$$$$
