
     RDKit          3D

 46 48  0  0  0  0  0  0  0  0999 V2000
   -3.7559    0.8279   -2.9024 C   0  0  0  0  0  0  0  0  0  0  0  0
   -2.6072    0.7457   -2.2175 C   0  0  0  0  0  0  0  0  0  0  0  0
   -2.3335    1.4632   -0.9265 C   0  0  0  0  0  0  0  0  0  0  0  0
   -2.1889    0.5383    0.1813 N   0  0  0  0  0  0  0  0  0  0  0  0
   -1.0359   -0.0114    0.6743 C   0  0  0  0  0  0  0  0  0  0  0  0
    0.5453    0.3506    0.0787 S   0  0  0  0  0  0  0  0  0  0  0  0
    1.5414   -0.7892    1.0881 C   0  0  0  0  0  0  0  0  0  0  0  0
    3.0115   -0.6582    0.7692 C   0  0  0  0  0  0  0  0  0  0  0  0
    3.5929   -1.4359   -0.2423 C   0  0  0  0  0  0  0  0  0  0  0  0
    4.9513   -1.3062   -0.5439 C   0  0  0  0  0  0  0  0  0  0  0  0
    5.7494   -0.3946    0.1590 C   0  0  0  0  0  0  0  0  0  0  0  0
    7.1906   -0.2996   -0.2007 C   0  0  0  0  0  0  0  0  0  0  0  0
    7.7022   -0.9339   -1.1100 O   0  0  0  0  0  0  0  0  0  0  0  0
    7.8335    0.5701    0.6189 O   0  0  0  0  0  0  0  0  0  0  0  0
    9.2279    0.7044    0.3414 C   0  0  0  0  0  0  0  0  0  0  0  0
    5.1711    0.3907    1.1643 C   0  0  0  0  0  0  0  0  0  0  0  0
    3.8115    0.2609    1.4640 C   0  0  0  0  0  0  0  0  0  0  0  0
   -1.3200   -0.8553    1.6381 N   0  0  0  0  0  0  0  0  0  0  0  0
   -2.6849   -0.8756    1.7862 N   0  0  0  0  0  0  0  0  0  0  0  0
   -3.2026   -0.0243    0.9240 C   0  0  0  0  0  0  0  0  0  0  0  0
   -4.6036    0.1925    0.7673 C   0  0  0  0  0  0  0  0  0  0  0  0
   -5.3554    1.6761    1.1755 S   0  0  0  0  0  0  0  0  0  0  0  0
   -6.8694    1.0354    0.6932 C   0  0  0  0  0  0  0  0  0  0  0  0
   -7.9945    1.7678    0.7581 N   0  0  0  0  0  0  0  0  0  0  0  0
   -6.8508   -0.2056    0.2792 N   0  0  0  0  0  0  0  0  0  0  0  0
   -5.5594   -0.7116    0.3361 C   0  0  0  0  0  0  0  0  0  0  0  0
   -5.3324   -2.1239   -0.0718 C   0  0  0  0  0  0  0  0  0  0  0  0
   -3.8869    0.2854   -3.8348 H   0  0  0  0  0  0  0  0  0  0  0  0
   -4.5958    1.4246   -2.5559 H   0  0  0  0  0  0  0  0  0  0  0  0
   -1.8018    0.1317   -2.6172 H   0  0  0  0  0  0  0  0  0  0  0  0
   -1.4197    2.0584   -1.0179 H   0  0  0  0  0  0  0  0  0  0  0  0
   -3.1276    2.1740   -0.6801 H   0  0  0  0  0  0  0  0  0  0  0  0
    1.3788   -0.5833    2.1529 H   0  0  0  0  0  0  0  0  0  0  0  0
    1.2171   -1.8208    0.9067 H   0  0  0  0  0  0  0  0  0  0  0  0
    2.9913   -2.1486   -0.8034 H   0  0  0  0  0  0  0  0  0  0  0  0
    5.3846   -1.9214   -1.3302 H   0  0  0  0  0  0  0  0  0  0  0  0
    9.3792    1.1265   -0.6568 H   0  0  0  0  0  0  0  0  0  0  0  0
    9.6549    1.3917    1.0772 H   0  0  0  0  0  0  0  0  0  0  0  0
    9.7349   -0.2610    0.4360 H   0  0  0  0  0  0  0  0  0  0  0  0
    5.7648    1.1104    1.7227 H   0  0  0  0  0  0  0  0  0  0  0  0
    3.3792    0.8837    2.2450 H   0  0  0  0  0  0  0  0  0  0  0  0
   -8.0161    2.5077    1.4495 H   0  0  0  0  0  0  0  0  0  0  0  0
   -8.8462    1.2162    0.7407 H   0  0  0  0  0  0  0  0  0  0  0  0
   -4.5942   -2.1790   -0.8779 H   0  0  0  0  0  0  0  0  0  0  0  0
   -6.2600   -2.5808   -0.4315 H   0  0  0  0  0  0  0  0  0  0  0  0
   -4.9710   -2.7137    0.7766 H   0  0  0  0  0  0  0  0  0  0  0  0
  1  2  2  0
  2  3  1  0
  3  4  1  0
  4  5  1  0
  5  6  1  0
  6  7  1  0
  7  8  1  0
  8  9  2  0
  9 10  1  0
 10 11  2  0
 11 12  1  0
 12 13  2  0
 12 14  1  0
 14 15  1  0
 11 16  1  0
 16 17  2  0
  5 18  2  0
 18 19  1  0
 19 20  2  0
 20 21  1  0
 21 22  1  0
 22 23  1  0
 23 24  1  0
 23 25  2  0
 25 26  1  0
 26 27  1  0
 20  4  1  0
 26 21  2  0
 17  8  1  0
  1 28  1  0
  1 29  1  0
  2 30  1  0
  3 31  1  0
  3 32  1  0
  7 33  1  0
  7 34  1  0
  9 35  1  0
 10 36  1  0
 15 37  1  0
 15 38  1  0
 15 39  1  0
 16 40  1  0
 17 41  1  0
 24 42  1  0
 24 43  1  0
 27 44  1  0
 27 45  1  0
 27 46  1  0
M  END
$$$$
