
     RDKit          3D

 36 37  0  0  0  0  0  0  0  0999 V2000
   -0.8431    1.6295    2.0313 O   0  0  0  0  0  0  0  0  0  0  0  0
   -0.5253    0.4683    1.7941 C   0  0  0  0  0  0  0  0  0  0  0  0
    0.4868   -0.2956    2.6526 C   0  0  0  0  0  0  0  0  0  0  0  0
    1.8154   -0.2539    2.1303 O   0  0  0  0  0  0  0  0  0  0  0  0
    2.0492   -1.0660    1.0727 C   0  0  0  0  0  0  0  0  0  0  0  0
    1.2228   -1.7977    0.5474 O   0  0  0  0  0  0  0  0  0  0  0  0
    3.4596   -0.9501    0.6149 C   0  0  0  0  0  0  0  0  0  0  0  0
    3.8811   -1.7707   -0.4421 C   0  0  0  0  0  0  0  0  0  0  0  0
    5.1943   -1.6990   -0.9111 C   0  0  0  0  0  0  0  0  0  0  0  0
    6.0925   -0.8071   -0.3267 C   0  0  0  0  0  0  0  0  0  0  0  0
    5.6742    0.0095    0.7234 C   0  0  0  0  0  0  0  0  0  0  0  0
    6.7878    1.1079    1.4408 Cl  0  0  0  0  0  0  0  0  0  0  0  0
    4.3647   -0.0546    1.1988 C   0  0  0  0  0  0  0  0  0  0  0  0
   -1.0552   -0.2663    0.7520 N   0  0  0  0  0  0  0  0  0  0  0  0
   -1.8432    0.3531   -0.3005 C   0  0  0  0  0  0  0  0  0  0  0  0
   -3.1169    1.0607    0.1867 C   0  0  0  0  0  0  0  0  0  0  0  0
   -4.0866    1.2303   -0.8836 N   0  0  0  0  0  0  0  0  0  0  0  0
   -5.0591    0.3227   -1.2342 C   0  0  0  0  0  0  0  0  0  0  0  0
   -5.3070   -0.7897   -0.4877 O   0  0  0  0  0  0  0  0  0  0  0  0
   -5.7220    0.6186   -2.3553 C   0  0  0  0  0  0  0  0  0  0  0  0
   -5.1514    2.0952   -3.0627 S   0  0  0  0  0  0  0  0  0  0  0  0
   -3.9325    2.2776   -1.7896 C   0  0  0  0  0  0  0  0  0  0  0  0
   -3.1006    3.1692   -1.7744 O   0  0  0  0  0  0  0  0  0  0  0  0
    0.1560   -1.3307    2.8038 H   0  0  0  0  0  0  0  0  0  0  0  0
    0.5058    0.1711    3.6436 H   0  0  0  0  0  0  0  0  0  0  0  0
    3.1876   -2.4706   -0.9058 H   0  0  0  0  0  0  0  0  0  0  0  0
    5.5161   -2.3368   -1.7313 H   0  0  0  0  0  0  0  0  0  0  0  0
    7.1146   -0.7520   -0.6937 H   0  0  0  0  0  0  0  0  0  0  0  0
    4.0615    0.5949    2.0158 H   0  0  0  0  0  0  0  0  0  0  0  0
   -0.5036   -1.0828    0.4787 H   0  0  0  0  0  0  0  0  0  0  0  0
   -1.1981    1.0571   -0.8389 H   0  0  0  0  0  0  0  0  0  0  0  0
   -2.0998   -0.4542   -0.9955 H   0  0  0  0  0  0  0  0  0  0  0  0
   -2.8586    2.0563    0.5667 H   0  0  0  0  0  0  0  0  0  0  0  0
   -3.5728    0.5220    1.0229 H   0  0  0  0  0  0  0  0  0  0  0  0
   -5.0799   -0.5891    0.4328 H   0  0  0  0  0  0  0  0  0  0  0  0
   -6.5142    0.0230   -2.7856 H   0  0  0  0  0  0  0  0  0  0  0  0
  1  2  2  0
  2  3  1  0
  3  4  1  0
  4  5  1  0
  5  6  2  0
  5  7  1  0
  7  8  2  0
  8  9  1  0
  9 10  2  0
 10 11  1  0
 11 12  1  0
 11 13  2  0
  2 14  1  0
 14 15  1  0
 15 16  1  0
 16 17  1  0
 17 18  1  0
 18 19  1  0
 18 20  2  0
 20 21  1  0
 21 22  1  0
 22 23  2  0
 13  7  1  0
 22 17  1  0
  3 24  1  0
  3 25  1  0
  8 26  1  0
  9 27  1  0
 10 28  1  0
 13 29  1  0
 14 30  1  0
 15 31  1  0
 15 32  1  0
 16 33  1  0
 16 34  1  0
 19 35  1  0
 20 36  1  0
M  END
$$$$
