
     RDKit          3D

 31 33  0  0  0  0  0  0  0  0999 V2000
   -2.1354    1.3962    1.6241 C   0  0  0  0  0  0  0  0  0  0  0  0
   -2.8754    0.6190    0.5817 C   0  0  0  0  0  0  0  0  0  0  0  0
   -4.3118    0.5766    0.5510 C   0  0  0  0  0  0  0  0  0  0  0  0
   -4.8079   -0.1748   -0.4854 C   0  0  0  0  0  0  0  0  0  0  0  0
   -3.5656   -0.8360   -1.4378 S   0  0  0  0  0  0  0  0  0  0  0  0
   -2.3276   -0.1184   -0.4666 C   0  0  0  0  0  0  0  0  0  0  0  0
   -0.8848   -0.3999   -0.8664 C   0  0  0  0  0  0  0  0  0  0  0  0
   -0.2907   -1.5594   -0.0828 C   0  0  0  0  0  0  0  0  0  0  0  0
    0.3189   -1.2120    1.2499 C   0  0  0  0  0  0  0  0  0  0  0  0
   -0.2191   -1.5349    2.3097 O   0  0  0  0  0  0  0  0  0  0  0  0
    1.5602   -0.6386    1.2765 N   0  0  0  0  0  0  0  0  0  0  0  0
    2.3178   -0.1713    0.1888 C   0  0  0  0  0  0  0  0  0  0  0  0
    3.7036   -0.3666    0.2616 C   0  0  0  0  0  0  0  0  0  0  0  0
    4.5336    0.0387   -0.7842 C   0  0  0  0  0  0  0  0  0  0  0  0
    3.9892    0.6719   -1.8967 C   0  0  0  0  0  0  0  0  0  0  0  0
    2.6175    0.9226   -1.9520 C   0  0  0  0  0  0  0  0  0  0  0  0
    1.7694    0.5096   -0.9135 C   0  0  0  0  0  0  0  0  0  0  0  0
    0.0963    1.1380   -0.9514 S   0  0  0  0  0  0  0  0  0  0  0  0
   -1.9351    2.4104    1.2640 H   0  0  0  0  0  0  0  0  0  0  0  0
   -2.7293    1.4764    2.5411 H   0  0  0  0  0  0  0  0  0  0  0  0
   -1.1882    0.9295    1.8948 H   0  0  0  0  0  0  0  0  0  0  0  0
   -4.9502    1.0816    1.2665 H   0  0  0  0  0  0  0  0  0  0  0  0
   -5.8446   -0.3644   -0.7269 H   0  0  0  0  0  0  0  0  0  0  0  0
   -0.9024   -0.7345   -1.9132 H   0  0  0  0  0  0  0  0  0  0  0  0
    0.4826   -2.0596   -0.6819 H   0  0  0  0  0  0  0  0  0  0  0  0
   -1.0459   -2.3376    0.0919 H   0  0  0  0  0  0  0  0  0  0  0  0
    2.0167   -0.7353    2.1759 H   0  0  0  0  0  0  0  0  0  0  0  0
    4.1491   -0.8661    1.1188 H   0  0  0  0  0  0  0  0  0  0  0  0
    5.6053   -0.1370   -0.7281 H   0  0  0  0  0  0  0  0  0  0  0  0
    4.6344    1.0003   -2.7081 H   0  0  0  0  0  0  0  0  0  0  0  0
    2.2198    1.4757   -2.8011 H   0  0  0  0  0  0  0  0  0  0  0  0
  1  2  1  0
  2  3  1  0
  3  4  2  0
  4  5  1  0
  5  6  1  0
  6  7  1  0
  7  8  1  0
  8  9  1  0
  9 10  2  0
  9 11  1  0
 11 12  1  0
 12 13  2  0
 13 14  1  0
 14 15  2  0
 15 16  1  0
 16 17  2  0
 17 18  1  0
  6  2  2  0
 18  7  1  0
 17 12  1  0
  1 19  1  0
  1 20  1  0
  1 21  1  0
  3 22  1  0
  4 23  1  0
  7 24  1  0
  8 25  1  0
  8 26  1  0
 11 27  1  0
 13 28  1  0
 14 29  1  0
 15 30  1  0
 16 31  1  0
M  END
$$$$
