
     RDKit          3D

 39 40  0  0  0  0  0  0  0  0999 V2000
   -1.8539   -0.8376   -2.4969 C   0  0  0  0  0  0  0  0  0  0  0  0
   -2.5529   -0.3323   -1.2505 C   0  0  0  0  0  0  0  0  0  0  0  0
   -1.9096   -0.1512   -0.0787 C   0  0  0  0  0  0  0  0  0  0  0  0
   -0.4360   -0.3284    0.0935 C   0  0  0  0  0  0  0  0  0  0  0  0
    0.4313   -0.0448   -0.8281 N   0  0  0  0  0  0  0  0  0  0  0  0
    1.7627   -0.1889   -0.5323 N   0  0  0  0  0  0  0  0  0  0  0  0
    2.3604    0.1375    0.6779 C   0  0  0  0  0  0  0  0  0  0  0  0
    1.7549    0.4538    1.6987 O   0  0  0  0  0  0  0  0  0  0  0  0
    3.8598    0.0992    0.7090 C   0  0  0  0  0  0  0  0  0  0  0  0
    4.4758    0.2563    1.9629 C   0  0  0  0  0  0  0  0  0  0  0  0
    5.8651    0.2308    2.0751 C   0  0  0  0  0  0  0  0  0  0  0  0
    6.6756    0.4402    3.7700 Br  0  0  0  0  0  0  0  0  0  0  0  0
    6.6630    0.0516    0.9481 C   0  0  0  0  0  0  0  0  0  0  0  0
    6.0676   -0.1015   -0.3043 C   0  0  0  0  0  0  0  0  0  0  0  0
    4.6740   -0.0764   -0.4229 C   0  0  0  0  0  0  0  0  0  0  0  0
    4.1208   -0.2177   -1.6692 O   0  0  0  0  0  0  0  0  0  0  0  0
   -2.7025    0.1897    1.1277 C   0  0  0  0  0  0  0  0  0  0  0  0
   -2.1825    0.1342    2.2414 O   0  0  0  0  0  0  0  0  0  0  0  0
   -4.0205    0.5411    0.9298 N   0  0  0  0  0  0  0  0  0  0  0  0
   -4.7965    0.9411    2.0885 C   0  0  0  0  0  0  0  0  0  0  0  0
   -4.6998    0.3471   -0.2606 C   0  0  0  0  0  0  0  0  0  0  0  0
   -5.9173    0.5211   -0.3461 O   0  0  0  0  0  0  0  0  0  0  0  0
   -3.9279   -0.0772   -1.3449 N   0  0  0  0  0  0  0  0  0  0  0  0
   -4.6289   -0.2462   -2.6176 C   0  0  0  0  0  0  0  0  0  0  0  0
   -1.6152   -0.0040   -3.1649 H   0  0  0  0  0  0  0  0  0  0  0  0
   -2.4730   -1.5569   -3.0426 H   0  0  0  0  0  0  0  0  0  0  0  0
   -0.9369   -1.3916   -2.2825 H   0  0  0  0  0  0  0  0  0  0  0  0
   -0.1418   -0.7203    1.0825 H   0  0  0  0  0  0  0  0  0  0  0  0
    2.3740   -0.1964   -1.3495 H   0  0  0  0  0  0  0  0  0  0  0  0
    3.8647    0.3979    2.8532 H   0  0  0  0  0  0  0  0  0  0  0  0
    7.7468    0.0319    1.0353 H   0  0  0  0  0  0  0  0  0  0  0  0
    6.7066   -0.2373   -1.1727 H   0  0  0  0  0  0  0  0  0  0  0  0
    4.8348   -0.2960   -2.3280 H   0  0  0  0  0  0  0  0  0  0  0  0
   -5.2614    0.0477    2.5177 H   0  0  0  0  0  0  0  0  0  0  0  0
   -4.1631    1.4119    2.8462 H   0  0  0  0  0  0  0  0  0  0  0  0
   -5.5829    1.6464    1.8028 H   0  0  0  0  0  0  0  0  0  0  0  0
   -4.0776    0.2569   -3.4180 H   0  0  0  0  0  0  0  0  0  0  0  0
   -4.7231   -1.3154   -2.8313 H   0  0  0  0  0  0  0  0  0  0  0  0
   -5.6343    0.1839   -2.5985 H   0  0  0  0  0  0  0  0  0  0  0  0
  1  2  1  0
  2  3  2  0
  3  4  1  0
  4  5  2  3
  5  6  1  0
  6  7  1  0
  7  8  2  0
  7  9  1  0
  9 10  2  0
 10 11  1  0
 11 12  1  0
 11 13  2  0
 13 14  1  0
 14 15  2  0
 15 16  1  0
  3 17  1  0
 17 18  2  0
 17 19  1  0
 19 20  1  0
 19 21  1  0
 21 22  2  0
 21 23  1  0
 23 24  1  0
 23  2  1  0
 15  9  1  0
  1 25  1  0
  1 26  1  0
  1 27  1  0
  4 28  1  0
  6 29  1  0
 10 30  1  0
 13 31  1  0
 14 32  1  0
 16 33  1  0
 20 34  1  0
 20 35  1  0
 20 36  1  0
 24 37  1  0
 24 38  1  0
 24 39  1  0
M  END
$$$$
