
     RDKit          3D

 40 42  0  0  0  0  0  0  0  0999 V2000
   -4.0490   -1.6244   -1.8683 C   0  0  0  0  0  0  0  0  0  0  0  0
   -4.8183   -0.7808   -0.8872 C   0  0  0  0  0  0  0  0  0  0  0  0
   -6.2237   -0.8420   -0.9191 C   0  0  0  0  0  0  0  0  0  0  0  0
   -6.9925   -0.0844   -0.0391 C   0  0  0  0  0  0  0  0  0  0  0  0
   -6.3661    0.7423    0.8844 C   0  0  0  0  0  0  0  0  0  0  0  0
   -4.9712    0.8142    0.9289 C   0  0  0  0  0  0  0  0  0  0  0  0
   -4.1812    0.0641    0.0498 C   0  0  0  0  0  0  0  0  0  0  0  0
   -2.7664    0.1098    0.0768 N   0  0  0  0  0  0  0  0  0  0  0  0
   -1.9592    0.9288    0.8458 C   0  0  0  0  0  0  0  0  0  0  0  0
   -2.3115    1.8272    1.5989 O   0  0  0  0  0  0  0  0  0  0  0  0
   -0.4990    0.6835    0.6821 C   0  0  0  0  0  0  0  0  0  0  0  0
    0.3713    1.7761    0.6749 C   0  0  0  0  0  0  0  0  0  0  0  0
    1.7500    1.5821    0.5236 C   0  0  0  0  0  0  0  0  0  0  0  0
    2.2757    0.2950    0.3923 C   0  0  0  0  0  0  0  0  0  0  0  0
    3.6494    0.0081    0.2430 N   0  0  0  0  0  0  0  0  0  0  0  0
    4.7025    0.9090    0.1315 C   0  0  0  0  0  0  0  0  0  0  0  0
    4.5644    2.1283    0.1120 O   0  0  0  0  0  0  0  0  0  0  0  0
    6.0133    0.2769    0.0228 C   0  0  0  0  0  0  0  0  0  0  0  0
    6.4584   -1.0345    0.0987 C   0  0  0  0  0  0  0  0  0  0  0  0
    7.8638   -1.0085   -0.0877 C   0  0  0  0  0  0  0  0  0  0  0  0
    8.1997    0.3104   -0.2643 C   0  0  0  0  0  0  0  0  0  0  0  0
    7.0952    1.0925   -0.1987 O   0  0  0  0  0  0  0  0  0  0  0  0
    1.3980   -0.7989    0.4239 C   0  0  0  0  0  0  0  0  0  0  0  0
    0.0188   -0.6105    0.5691 C   0  0  0  0  0  0  0  0  0  0  0  0
   -3.4049   -2.3328   -1.3372 H   0  0  0  0  0  0  0  0  0  0  0  0
   -4.7163   -2.2084   -2.5113 H   0  0  0  0  0  0  0  0  0  0  0  0
   -3.4402   -0.9894   -2.5200 H   0  0  0  0  0  0  0  0  0  0  0  0
   -6.7314   -1.4840   -1.6360 H   0  0  0  0  0  0  0  0  0  0  0  0
   -8.0773   -0.1392   -0.0741 H   0  0  0  0  0  0  0  0  0  0  0  0
   -6.9575    1.3363    1.5764 H   0  0  0  0  0  0  0  0  0  0  0  0
   -4.5302    1.4696    1.6735 H   0  0  0  0  0  0  0  0  0  0  0  0
   -2.2944   -0.4737   -0.5981 H   0  0  0  0  0  0  0  0  0  0  0  0
   -0.0184    2.7867    0.7865 H   0  0  0  0  0  0  0  0  0  0  0  0
    2.3818    2.4654    0.5244 H   0  0  0  0  0  0  0  0  0  0  0  0
    3.8863   -0.9708    0.1886 H   0  0  0  0  0  0  0  0  0  0  0  0
    5.8585   -1.9153    0.2747 H   0  0  0  0  0  0  0  0  0  0  0  0
    8.5477   -1.8458   -0.0891 H   0  0  0  0  0  0  0  0  0  0  0  0
    9.1310    0.8325   -0.4366 H   0  0  0  0  0  0  0  0  0  0  0  0
    1.7745   -1.8160    0.3443 H   0  0  0  0  0  0  0  0  0  0  0  0
   -0.6315   -1.4796    0.6245 H   0  0  0  0  0  0  0  0  0  0  0  0
  1  2  1  0
  2  3  2  0
  3  4  1  0
  4  5  2  0
  5  6  1  0
  6  7  2  0
  7  8  1  0
  8  9  1  0
  9 10  2  0
  9 11  1  0
 11 12  2  0
 12 13  1  0
 13 14  2  0
 14 15  1  0
 15 16  1  0
 16 17  2  0
 16 18  1  0
 18 19  2  0
 19 20  1  0
 20 21  2  0
 21 22  1  0
 14 23  1  0
 23 24  2  0
  7  2  1  0
 24 11  1  0
 22 18  1  0
  1 25  1  0
  1 26  1  0
  1 27  1  0
  3 28  1  0
  4 29  1  0
  5 30  1  0
  6 31  1  0
  8 32  1  0
 12 33  1  0
 13 34  1  0
 15 35  1  0
 19 36  1  0
 20 37  1  0
 21 38  1  0
 23 39  1  0
 24 40  1  0
M  END
$$$$
