
     RDKit          3D

 52 55  0  0  0  0  0  0  0  0999 V2000
    7.3231   -3.2227    3.1925 C   0  0  0  0  0  0  0  0  0  0  0  0
    7.2685   -1.9655    2.5310 O   0  0  0  0  0  0  0  0  0  0  0  0
    6.0274   -1.4741    2.2373 C   0  0  0  0  0  0  0  0  0  0  0  0
    4.8103   -2.0789    2.5415 C   0  0  0  0  0  0  0  0  0  0  0  0
    3.6072   -1.4589    2.1787 C   0  0  0  0  0  0  0  0  0  0  0  0
    3.6033   -0.2299    1.5074 C   0  0  0  0  0  0  0  0  0  0  0  0
    2.3492    0.3201    1.1825 N   0  0  0  0  0  0  0  0  0  0  0  0
    2.0777    1.4804    0.4827 C   0  0  0  0  0  0  0  0  0  0  0  0
    2.9170    2.2560    0.0283 O   0  0  0  0  0  0  0  0  0  0  0  0
    0.5962    1.8177    0.3489 C   0  0  0  0  0  0  0  0  0  0  0  0
   -0.4965    0.3678    0.4890 S   0  0  0  0  0  0  0  0  0  0  0  0
   -2.0122    1.1099   -0.0180 C   0  0  0  0  0  0  0  0  0  0  0  0
   -2.2210    2.3254    0.3888 N   0  0  0  0  0  0  0  0  0  0  0  0
   -3.3609    2.9263   -0.0556 C   0  0  0  0  0  0  0  0  0  0  0  0
   -4.2646    2.3640   -0.8554 C   0  0  0  0  0  0  0  0  0  0  0  0
   -4.0727    0.9695   -1.3009 C   0  0  0  0  0  0  0  0  0  0  0  0
   -4.9288    0.4009   -1.9774 O   0  0  0  0  0  0  0  0  0  0  0  0
   -2.8871    0.3870   -0.8317 N   0  0  0  0  0  0  0  0  0  0  0  0
   -2.6261   -0.9540   -1.2431 C   0  0  0  0  0  0  0  0  0  0  0  0
   -2.6440   -1.9922   -0.3000 C   0  0  0  0  0  0  0  0  0  0  0  0
   -2.4187   -3.3091   -0.7031 C   0  0  0  0  0  0  0  0  0  0  0  0
   -2.1722   -3.5960   -2.0451 C   0  0  0  0  0  0  0  0  0  0  0  0
   -2.1577   -2.5699   -2.9920 C   0  0  0  0  0  0  0  0  0  0  0  0
   -2.4027   -1.2516   -2.5985 C   0  0  0  0  0  0  0  0  0  0  0  0
   -2.3274   -0.2043   -3.4833 O   0  0  0  0  0  0  0  0  0  0  0  0
   -3.1081   -0.4138   -4.6599 C   0  0  0  0  0  0  0  0  0  0  0  0
   -5.5992    3.3552   -1.2806 S   0  0  0  0  0  0  0  0  0  0  0  0
   -5.1220    4.6253   -0.0559 C   0  0  0  0  0  0  0  0  0  0  0  0
   -3.6634    4.3458    0.3216 C   0  0  0  0  0  0  0  0  0  0  0  0
    4.8235    0.3718    1.2073 C   0  0  0  0  0  0  0  0  0  0  0  0
    6.0250   -0.2481    1.5710 C   0  0  0  0  0  0  0  0  0  0  0  0
    6.8481   -3.1710    4.1777 H   0  0  0  0  0  0  0  0  0  0  0  0
    8.3770   -3.4753    3.3439 H   0  0  0  0  0  0  0  0  0  0  0  0
    6.8765   -4.0119    2.5787 H   0  0  0  0  0  0  0  0  0  0  0  0
    4.7581   -3.0306    3.0592 H   0  0  0  0  0  0  0  0  0  0  0  0
    2.6737   -1.9563    2.4293 H   0  0  0  0  0  0  0  0  0  0  0  0
    1.5337   -0.2248    1.4440 H   0  0  0  0  0  0  0  0  0  0  0  0
    0.3507    2.5449    1.1292 H   0  0  0  0  0  0  0  0  0  0  0  0
    0.4491    2.2746   -0.6355 H   0  0  0  0  0  0  0  0  0  0  0  0
   -2.8524   -1.7867    0.7468 H   0  0  0  0  0  0  0  0  0  0  0  0
   -2.4370   -4.1127    0.0291 H   0  0  0  0  0  0  0  0  0  0  0  0
   -1.9859   -4.6215   -2.3556 H   0  0  0  0  0  0  0  0  0  0  0  0
   -1.9336   -2.8106   -4.0267 H   0  0  0  0  0  0  0  0  0  0  0  0
   -3.2952    0.5641   -5.1137 H   0  0  0  0  0  0  0  0  0  0  0  0
   -4.0779   -0.8721   -4.4357 H   0  0  0  0  0  0  0  0  0  0  0  0
   -2.5534   -1.0187   -5.3837 H   0  0  0  0  0  0  0  0  0  0  0  0
   -5.7719    4.5232    0.8196 H   0  0  0  0  0  0  0  0  0  0  0  0
   -5.2492    5.6307   -0.4675 H   0  0  0  0  0  0  0  0  0  0  0  0
   -2.9915    5.0218   -0.2209 H   0  0  0  0  0  0  0  0  0  0  0  0
   -3.5130    4.5180    1.3930 H   0  0  0  0  0  0  0  0  0  0  0  0
    4.8823    1.3252    0.6923 H   0  0  0  0  0  0  0  0  0  0  0  0
    6.9685    0.2357    1.3289 H   0  0  0  0  0  0  0  0  0  0  0  0
  1  2  1  0
  2  3  1  0
  3  4  2  0
  4  5  1  0
  5  6  2  0
  6  7  1  0
  7  8  1  0
  8  9  2  0
  8 10  1  0
 10 11  1  0
 11 12  1  0
 12 13  2  0
 13 14  1  0
 14 15  2  0
 15 16  1  0
 16 17  2  0
 16 18  1  0
 18 19  1  0
 19 20  2  0
 20 21  1  0
 21 22  2  0
 22 23  1  0
 23 24  2  0
 24 25  1  0
 25 26  1  0
 15 27  1  0
 27 28  1  0
 28 29  1  0
  6 30  1  0
 30 31  2  0
 31  3  1  0
 18 12  1  0
 24 19  1  0
 29 14  1  0
  1 32  1  0
  1 33  1  0
  1 34  1  0
  4 35  1  0
  5 36  1  0
  7 37  1  0
 10 38  1  0
 10 39  1  0
 20 40  1  0
 21 41  1  0
 22 42  1  0
 23 43  1  0
 26 44  1  0
 26 45  1  0
 26 46  1  0
 28 47  1  0
 28 48  1  0
 29 49  1  0
 29 50  1  0
 30 51  1  0
 31 52  1  0
M  END
$$$$
