
     RDKit          3D

 96 98  0  0  0  0  0  0  0  0999 V2000
    4.4290   -3.2272   -4.6291 C   0  0  0  0  0  0  0  0  0  0  0  0
    3.8362   -3.6983   -3.3093 C   0  0  0  0  0  0  0  0  0  0  0  0
    3.4183   -2.5123   -2.4430 C   0  0  0  0  0  0  0  0  0  0  0  0
    2.9314   -2.8980   -1.0407 C   0  0  0  0  0  0  0  0  0  0  0  0
    1.7423   -3.8586   -0.9879 C   0  0  0  0  0  0  0  0  0  0  0  0
    0.4821   -3.2376   -1.5596 C   0  0  0  0  0  0  0  0  0  0  0  0
    0.3557   -2.9490   -2.7468 O   0  0  0  0  0  0  0  0  0  0  0  0
   -0.5076   -3.0211   -0.6209 N   0  0  0  0  0  0  0  0  0  0  0  0
   -1.6562   -2.1851   -0.9377 C   0  0  0  0  0  0  0  0  0  0  0  0
   -2.9975   -2.8763   -0.6569 C   0  0  0  0  0  0  0  0  0  0  0  0
   -3.4347   -3.0400    0.8158 C   0  0  0  0  0  0  0  0  0  0  0  0
   -2.5408   -3.9831    1.6177 C   0  0  0  0  0  0  0  0  0  0  0  0
   -4.8769   -3.5587    0.8534 C   0  0  0  0  0  0  0  0  0  0  0  0
   -1.4963   -0.8460   -0.1919 C   0  0  0  0  0  0  0  0  0  0  0  0
   -0.7448   -0.7031    0.7736 O   0  0  0  0  0  0  0  0  0  0  0  0
   -2.2443    0.1961   -0.6994 N   0  0  0  0  0  0  0  0  0  0  0  0
   -2.3778    1.4752    0.0260 C   0  0  0  0  0  0  0  0  0  0  0  0
   -3.0478    1.2984    1.4012 C   0  0  0  0  0  0  0  0  0  0  0  0
   -3.9507    2.4517    1.7771 C   0  0  0  0  0  0  0  0  0  0  0  0
   -5.2648    2.5146    1.2935 C   0  0  0  0  0  0  0  0  0  0  0  0
   -6.0978    3.5791    1.6408 C   0  0  0  0  0  0  0  0  0  0  0  0
   -5.6265    4.5899    2.4750 C   0  0  0  0  0  0  0  0  0  0  0  0
   -4.3193    4.5433    2.9545 C   0  0  0  0  0  0  0  0  0  0  0  0
   -3.4853    3.4808    2.6049 C   0  0  0  0  0  0  0  0  0  0  0  0
   -1.0191    2.2175    0.1335 C   0  0  0  0  0  0  0  0  0  0  0  0
   -0.7654    3.0418    1.0029 O   0  0  0  0  0  0  0  0  0  0  0  0
   -0.1530    1.9507   -0.9105 N   0  0  0  0  0  0  0  0  0  0  0  0
    1.2083    2.4860   -0.9656 C   0  0  0  0  0  0  0  0  0  0  0  0
    1.5558    3.0065   -2.3752 C   0  0  0  0  0  0  0  0  0  0  0  0
    1.1960    2.0940   -3.5693 C   0  0  0  0  0  0  0  0  0  0  0  0
    1.8518    0.7192   -3.4933 C   0  0  0  0  0  0  0  0  0  0  0  0
    1.5894    2.7796   -4.8822 C   0  0  0  0  0  0  0  0  0  0  0  0
    2.2886    1.5339   -0.3813 C   0  0  0  0  0  0  0  0  0  0  0  0
    3.4762    1.6066   -0.6919 O   0  0  0  0  0  0  0  0  0  0  0  0
    1.8555    0.7117    0.6322 N   0  0  0  0  0  0  0  0  0  0  0  0
    2.7782   -0.0810    1.4511 C   0  0  0  0  0  0  0  0  0  0  0  0
    2.2240   -0.2666    2.8751 C   0  0  0  0  0  0  0  0  0  0  0  0
    2.1146    1.0311    3.6420 C   0  0  0  0  0  0  0  0  0  0  0  0
    0.8731    1.6544    3.8194 C   0  0  0  0  0  0  0  0  0  0  0  0
    0.7787    2.8617    4.5137 C   0  0  0  0  0  0  0  0  0  0  0  0
    1.9230    3.4601    5.0351 C   0  0  0  0  0  0  0  0  0  0  0  0
    3.1637    2.8515    4.8603 C   0  0  0  0  0  0  0  0  0  0  0  0
    3.2604    1.6431    4.1673 C   0  0  0  0  0  0  0  0  0  0  0  0
    3.1134   -1.4675    0.8772 C   0  0  0  0  0  0  0  0  0  0  0  0
    3.7992   -2.2948    1.4726 O   0  0  0  0  0  0  0  0  0  0  0  0
    2.5785   -1.6710   -0.3586 O   0  0  0  0  0  0  0  0  0  0  0  0
    3.7087   -2.6207   -5.1889 H   0  0  0  0  0  0  0  0  0  0  0  0
    5.3331   -2.6284   -4.4663 H   0  0  0  0  0  0  0  0  0  0  0  0
    4.6987   -4.0888   -5.2484 H   0  0  0  0  0  0  0  0  0  0  0  0
    4.5749   -4.3122   -2.7805 H   0  0  0  0  0  0  0  0  0  0  0  0
    2.9707   -4.3373   -3.5236 H   0  0  0  0  0  0  0  0  0  0  0  0
    2.6531   -1.9282   -2.9630 H   0  0  0  0  0  0  0  0  0  0  0  0
    4.2703   -1.8247   -2.3306 H   0  0  0  0  0  0  0  0  0  0  0  0
    3.7755   -3.3894   -0.5404 H   0  0  0  0  0  0  0  0  0  0  0  0
    1.9430   -4.7869   -1.5278 H   0  0  0  0  0  0  0  0  0  0  0  0
    1.5643   -4.1440    0.0554 H   0  0  0  0  0  0  0  0  0  0  0  0
   -0.2013   -2.9792    0.3457 H   0  0  0  0  0  0  0  0  0  0  0  0
   -1.6269   -1.9476   -2.0090 H   0  0  0  0  0  0  0  0  0  0  0  0
   -2.9921   -3.8611   -1.1433 H   0  0  0  0  0  0  0  0  0  0  0  0
   -3.7743   -2.2919   -1.1689 H   0  0  0  0  0  0  0  0  0  0  0  0
   -3.4304   -2.0614    1.3068 H   0  0  0  0  0  0  0  0  0  0  0  0
   -2.3672   -4.9213    1.0812 H   0  0  0  0  0  0  0  0  0  0  0  0
   -2.9990   -4.2264    2.5846 H   0  0  0  0  0  0  0  0  0  0  0  0
   -1.5717   -3.5244    1.8350 H   0  0  0  0  0  0  0  0  0  0  0  0
   -5.2455   -3.6122    1.8850 H   0  0  0  0  0  0  0  0  0  0  0  0
   -5.5476   -2.8933    0.2964 H   0  0  0  0  0  0  0  0  0  0  0  0
   -4.9471   -4.5610    0.4154 H   0  0  0  0  0  0  0  0  0  0  0  0
   -2.9511   -0.0112   -1.3976 H   0  0  0  0  0  0  0  0  0  0  0  0
   -3.0051    2.0968   -0.6259 H   0  0  0  0  0  0  0  0  0  0  0  0
   -3.6605    0.3883    1.4127 H   0  0  0  0  0  0  0  0  0  0  0  0
   -2.2956    1.1485    2.1848 H   0  0  0  0  0  0  0  0  0  0  0  0
   -5.6558    1.7305    0.6494 H   0  0  0  0  0  0  0  0  0  0  0  0
   -7.1192    3.6166    1.2682 H   0  0  0  0  0  0  0  0  0  0  0  0
   -6.2742    5.4160    2.7513 H   0  0  0  0  0  0  0  0  0  0  0  0
   -3.9448    5.3351    3.5988 H   0  0  0  0  0  0  0  0  0  0  0  0
   -2.4618    3.4632    2.9783 H   0  0  0  0  0  0  0  0  0  0  0  0
   -0.3598    1.1324   -1.4709 H   0  0  0  0  0  0  0  0  0  0  0  0
    1.2467    3.3559   -0.2963 H   0  0  0  0  0  0  0  0  0  0  0  0
    2.6214    3.2660   -2.4233 H   0  0  0  0  0  0  0  0  0  0  0  0
    1.0117    3.9504   -2.5152 H   0  0  0  0  0  0  0  0  0  0  0  0
    0.1078    1.9529   -3.5926 H   0  0  0  0  0  0  0  0  0  0  0  0
    1.4714    0.1473   -2.6425 H   0  0  0  0  0  0  0  0  0  0  0  0
    1.6361    0.1347   -4.3947 H   0  0  0  0  0  0  0  0  0  0  0  0
    2.9396    0.8015   -3.3960 H   0  0  0  0  0  0  0  0  0  0  0  0
    1.1188    3.7633   -4.9681 H   0  0  0  0  0  0  0  0  0  0  0  0
    2.6732    2.9137   -4.9511 H   0  0  0  0  0  0  0  0  0  0  0  0
    1.2697    2.1775   -5.7413 H   0  0  0  0  0  0  0  0  0  0  0  0
    0.8582    0.5310    0.7252 H   0  0  0  0  0  0  0  0  0  0  0  0
    3.7319    0.4618    1.4847 H   0  0  0  0  0  0  0  0  0  0  0  0
    1.2434   -0.7578    2.8345 H   0  0  0  0  0  0  0  0  0  0  0  0
    2.8621   -0.9449    3.4553 H   0  0  0  0  0  0  0  0  0  0  0  0
   -0.0298    1.2111    3.4041 H   0  0  0  0  0  0  0  0  0  0  0  0
   -0.1891    3.3435    4.6291 H   0  0  0  0  0  0  0  0  0  0  0  0
    1.8498    4.4050    5.5661 H   0  0  0  0  0  0  0  0  0  0  0  0
    4.0597    3.3209    5.2569 H   0  0  0  0  0  0  0  0  0  0  0  0
    4.2390    1.1867    4.0365 H   0  0  0  0  0  0  0  0  0  0  0  0
  1  2  1  0
  2  3  1  0
  3  4  1  0
  4  5  1  0
  5  6  1  0
  6  7  2  0
  6  8  1  0
  8  9  1  0
  9 10  1  0
 10 11  1  0
 11 12  1  0
 11 13  1  0
  9 14  1  0
 14 15  2  0
 14 16  1  0
 16 17  1  0
 17 18  1  0
 18 19  1  0
 19 20  2  0
 20 21  1  0
 21 22  2  0
 22 23  1  0
 23 24  2  0
 17 25  1  0
 25 26  2  0
 25 27  1  0
 27 28  1  0
 28 29  1  0
 29 30  1  0
 30 31  1  0
 30 32  1  0
 28 33  1  0
 33 34  2  0
 33 35  1  0
 35 36  1  0
 36 37  1  0
 37 38  1  0
 38 39  2  0
 39 40  1  0
 40 41  2  0
 41 42  1  0
 42 43  2  0
 36 44  1  0
 44 45  2  0
 44 46  1  0
 46  4  1  0
 24 19  1  0
 43 38  1  0
  1 47  1  0
  1 48  1  0
  1 49  1  0
  2 50  1  0
  2 51  1  0
  3 52  1  0
  3 53  1  0
  4 54  1  0
  5 55  1  0
  5 56  1  0
  8 57  1  0
  9 58  1  0
 10 59  1  0
 10 60  1  0
 11 61  1  0
 12 62  1  0
 12 63  1  0
 12 64  1  0
 13 65  1  0
 13 66  1  0
 13 67  1  0
 16 68  1  0
 17 69  1  0
 18 70  1  0
 18 71  1  0
 20 72  1  0
 21 73  1  0
 22 74  1  0
 23 75  1  0
 24 76  1  0
 27 77  1  0
 28 78  1  0
 29 79  1  0
 29 80  1  0
 30 81  1  0
 31 82  1  0
 31 83  1  0
 31 84  1  0
 32 85  1  0
 32 86  1  0
 32 87  1  0
 35 88  1  0
 36 89  1  0
 37 90  1  0
 37 91  1  0
 39 92  1  0
 40 93  1  0
 41 94  1  0
 42 95  1  0
 43 96  1  0
M  END
$$$$
