
     RDKit          3D

 42 44  0  0  0  0  0  0  0  0999 V2000
   -5.8575    0.6903    3.2144 C   0  0  0  0  0  0  0  0  0  0  0  0
   -5.3664    1.6064    2.2441 O   0  0  0  0  0  0  0  0  0  0  0  0
   -4.3235    1.1925    1.4619 C   0  0  0  0  0  0  0  0  0  0  0  0
   -3.7012   -0.0571    1.5173 C   0  0  0  0  0  0  0  0  0  0  0  0
   -2.6327   -0.3417    0.6595 C   0  0  0  0  0  0  0  0  0  0  0  0
   -2.0276   -1.5677    0.7205 O   0  0  0  0  0  0  0  0  0  0  0  0
   -2.1818    0.6123   -0.2599 C   0  0  0  0  0  0  0  0  0  0  0  0
   -1.0744    0.3103   -1.1896 C   0  0  0  0  0  0  0  0  0  0  0  0
   -1.2612    0.3050   -2.4011 O   0  0  0  0  0  0  0  0  0  0  0  0
    0.2511    0.0427   -0.5691 C   0  0  0  0  0  0  0  0  0  0  0  0
    1.3038   -0.2508   -1.3472 C   0  0  0  0  0  0  0  0  0  0  0  0
    2.6428   -0.5404   -0.8508 C   0  0  0  0  0  0  0  0  0  0  0  0
    3.4800   -1.2552   -1.6444 C   0  0  0  0  0  0  0  0  0  0  0  0
    4.8920   -1.4468   -1.1963 C   0  0  2  0  0  0  0  0  0  0  0  0
    5.5898   -2.6006   -1.6441 O   0  0  0  0  0  0  0  0  0  0  0  0
    6.6444   -2.6957   -0.6539 C   0  0  0  0  0  0  0  0  0  0  0  0
    6.3244   -1.8818    0.5028 O   0  0  0  0  0  0  0  0  0  0  0  0
    4.9365   -1.6559    0.3066 C   0  0  1  0  0  0  0  0  0  0  0  0
    4.3090   -0.4827    0.9790 C   0  0  0  0  0  0  0  0  0  0  0  0
    3.2005    0.0274    0.4017 C   0  0  0  0  0  0  0  0  0  0  0  0
   -2.8220    1.8526   -0.3264 C   0  0  0  0  0  0  0  0  0  0  0  0
   -2.3635    2.8349   -1.1644 O   0  0  0  0  0  0  0  0  0  0  0  0
   -3.2071    2.9449   -2.3127 C   0  0  0  0  0  0  0  0  0  0  0  0
   -3.8751    2.1458    0.5434 C   0  0  0  0  0  0  0  0  0  0  0  0
   -6.6797    1.1770    3.7478 H   0  0  0  0  0  0  0  0  0  0  0  0
   -5.0839    0.4421    3.9486 H   0  0  0  0  0  0  0  0  0  0  0  0
   -6.2562   -0.2120    2.7390 H   0  0  0  0  0  0  0  0  0  0  0  0
   -4.0308   -0.8112    2.2220 H   0  0  0  0  0  0  0  0  0  0  0  0
   -2.5391   -2.1604    1.2961 H   0  0  0  0  0  0  0  0  0  0  0  0
    0.3180    0.0829    0.5106 H   0  0  0  0  0  0  0  0  0  0  0  0
    1.1644   -0.2988   -2.4275 H   0  0  0  0  0  0  0  0  0  0  0  0
    3.1852   -1.6482   -2.6105 H   0  0  0  0  0  0  0  0  0  0  0  0
    5.4836   -0.5771   -1.5206 H   0  0  0  0  0  0  0  0  0  0  0  0
    6.7494   -3.7408   -0.3466 H   0  0  0  0  0  0  0  0  0  0  0  0
    7.5848   -2.3418   -1.0871 H   0  0  0  0  0  0  0  0  0  0  0  0
    4.4167   -2.5720    0.6257 H   0  0  0  0  0  0  0  0  0  0  0  0
    4.7126   -0.1006    1.9081 H   0  0  0  0  0  0  0  0  0  0  0  0
    2.6834    0.8686    0.8545 H   0  0  0  0  0  0  0  0  0  0  0  0
   -4.1419    3.4527   -2.0532 H   0  0  0  0  0  0  0  0  0  0  0  0
   -3.4202    1.9688   -2.7627 H   0  0  0  0  0  0  0  0  0  0  0  0
   -2.6839    3.5548   -3.0554 H   0  0  0  0  0  0  0  0  0  0  0  0
   -4.3427    3.1269    0.5158 H   0  0  0  0  0  0  0  0  0  0  0  0
  1  2  1  0
  2  3  1  0
  3  4  2  0
  4  5  1  0
  5  6  1  0
  5  7  2  0
  7  8  1  0
  8  9  2  0
  8 10  1  0
 10 11  2  0
 11 12  1  0
 12 13  2  0
 13 14  1  0
 14 15  1  0
 15 16  1  0
 16 17  1  0
 17 18  1  0
 18 19  1  0
 19 20  2  0
  7 21  1  0
 21 22  1  0
 22 23  1  0
 21 24  2  0
 24  3  1  0
 20 12  1  0
 18 14  1  0
  1 25  1  0
  1 26  1  0
  1 27  1  0
  4 28  1  0
  6 29  1  0
 10 30  1  0
 11 31  1  0
 13 32  1  0
 14 33  1  1
 16 34  1  0
 16 35  1  0
 18 36  1  6
 19 37  1  0
 20 38  1  0
 23 39  1  0
 23 40  1  0
 23 41  1  0
 24 42  1  0
M  END
$$$$
