
     RDKit          3D

 47 49  0  0  0  0  0  0  0  0999 V2000
    8.0977   -1.1205   -0.2695 C   0  0  0  0  0  0  0  0  0  0  0  0
    6.7263   -1.4071   -0.8618 C   0  0  0  0  0  0  0  0  0  0  0  0
    5.6357   -0.6589   -0.1390 C   0  0  0  0  0  0  0  0  0  0  0  0
    5.2601    0.6251   -0.5541 C   0  0  0  0  0  0  0  0  0  0  0  0
    4.2664    1.3267    0.1332 C   0  0  0  0  0  0  0  0  0  0  0  0
    3.6312    0.7552    1.2381 C   0  0  0  0  0  0  0  0  0  0  0  0
    2.6324    1.4640    1.9165 N   0  0  0  0  0  0  0  0  0  0  0  0
    1.4044    1.3017    1.5634 C   0  0  0  0  0  0  0  0  0  0  0  0
    0.9212    0.4855    0.5909 N   0  0  0  0  0  0  0  0  0  0  0  0
   -0.4292    0.4618    0.3883 C   0  0  0  0  0  0  0  0  0  0  0  0
   -0.9790   -0.2536   -0.4340 O   0  0  0  0  0  0  0  0  0  0  0  0
   -1.0949    1.4199    1.3200 C   0  0  0  0  0  0  0  0  0  0  0  0
   -2.3998    1.7118    1.4071 C   0  0  0  0  0  0  0  0  0  0  0  0
   -3.4556    1.1191    0.5839 C   0  0  0  0  0  0  0  0  0  0  0  0
   -4.0055   -0.1260    0.9288 C   0  0  0  0  0  0  0  0  0  0  0  0
   -5.0375   -0.6716    0.1636 C   0  0  0  0  0  0  0  0  0  0  0  0
   -5.6818   -1.8602    0.4092 O   0  0  0  0  0  0  0  0  0  0  0  0
   -5.1687   -2.6547    1.4715 C   0  0  0  0  0  0  0  0  0  0  0  0
   -5.5048    0.0313   -0.9561 C   0  0  0  0  0  0  0  0  0  0  0  0
   -6.5509   -0.4910   -1.6743 O   0  0  0  0  0  0  0  0  0  0  0  0
   -4.9361    1.2513   -1.3240 C   0  0  0  0  0  0  0  0  0  0  0  0
   -5.3802    1.9977   -2.3837 O   0  0  0  0  0  0  0  0  0  0  0  0
   -5.0668    1.3690   -3.6249 C   0  0  0  0  0  0  0  0  0  0  0  0
   -3.9271    1.8075   -0.5391 C   0  0  0  0  0  0  0  0  0  0  0  0
    0.0998    2.1663    2.3322 S   0  0  0  0  0  0  0  0  0  0  0  0
    4.0207   -0.5142    1.6701 C   0  0  0  0  0  0  0  0  0  0  0  0
    5.0135   -1.2200    0.9848 C   0  0  0  0  0  0  0  0  0  0  0  0
    8.1360   -1.3859    0.7909 H   0  0  0  0  0  0  0  0  0  0  0  0
    8.8633   -1.7000   -0.7920 H   0  0  0  0  0  0  0  0  0  0  0  0
    8.3556   -0.0598   -0.3596 H   0  0  0  0  0  0  0  0  0  0  0  0
    6.5211   -2.4839   -0.8226 H   0  0  0  0  0  0  0  0  0  0  0  0
    6.7183   -1.1370   -1.9237 H   0  0  0  0  0  0  0  0  0  0  0  0
    5.7459    1.0932   -1.4085 H   0  0  0  0  0  0  0  0  0  0  0  0
    3.9918    2.3285   -0.1889 H   0  0  0  0  0  0  0  0  0  0  0  0
    1.5206   -0.1054    0.0368 H   0  0  0  0  0  0  0  0  0  0  0  0
   -2.7538    2.4491    2.1265 H   0  0  0  0  0  0  0  0  0  0  0  0
   -3.6211   -0.6397    1.8037 H   0  0  0  0  0  0  0  0  0  0  0  0
   -5.7572   -3.5776    1.5123 H   0  0  0  0  0  0  0  0  0  0  0  0
   -4.1259   -2.9348    1.2903 H   0  0  0  0  0  0  0  0  0  0  0  0
   -5.2820   -2.1448    2.4338 H   0  0  0  0  0  0  0  0  0  0  0  0
   -6.7877   -1.3169   -1.2117 H   0  0  0  0  0  0  0  0  0  0  0  0
   -5.4149    2.0299   -4.4246 H   0  0  0  0  0  0  0  0  0  0  0  0
   -5.5691    0.4020   -3.7477 H   0  0  0  0  0  0  0  0  0  0  0  0
   -3.9816    1.2497   -3.7341 H   0  0  0  0  0  0  0  0  0  0  0  0
   -3.5142    2.7761   -0.8134 H   0  0  0  0  0  0  0  0  0  0  0  0
    3.5561   -0.9529    2.5495 H   0  0  0  0  0  0  0  0  0  0  0  0
    5.3071   -2.2059    1.3403 H   0  0  0  0  0  0  0  0  0  0  0  0
  1  2  1  0
  2  3  1  0
  3  4  2  0
  4  5  1  0
  5  6  2  0
  6  7  1  0
  7  8  2  3
  8  9  1  0
  9 10  1  0
 10 11  2  0
 10 12  1  0
 12 13  2  3
 13 14  1  0
 14 15  2  0
 15 16  1  0
 16 17  1  0
 17 18  1  0
 16 19  2  0
 19 20  1  0
 19 21  1  0
 21 22  1  0
 22 23  1  0
 21 24  2  0
 12 25  1  0
  6 26  1  0
 26 27  2  0
 27  3  1  0
 25  8  1  0
 24 14  1  0
  1 28  1  0
  1 29  1  0
  1 30  1  0
  2 31  1  0
  2 32  1  0
  4 33  1  0
  5 34  1  0
  9 35  1  0
 13 36  1  0
 15 37  1  0
 18 38  1  0
 18 39  1  0
 18 40  1  0
 20 41  1  0
 23 42  1  0
 23 43  1  0
 23 44  1  0
 24 45  1  0
 26 46  1  0
 27 47  1  0
M  END
$$$$
