
     RDKit          3D

 38 40  0  0  0  0  0  0  0  0999 V2000
   -0.6622    0.4230   -2.7947 C   0  0  0  0  0  0  0  0  0  0  0  0
   -0.7476   -0.0285   -1.3633 C   0  0  0  0  0  0  0  0  0  0  0  0
   -1.0869   -1.3633   -1.0886 C   0  0  0  0  0  0  0  0  0  0  0  0
   -1.1822   -1.8132    0.2298 C   0  0  0  0  0  0  0  0  0  0  0  0
   -1.4953   -3.1231    0.4732 O   0  0  0  0  0  0  0  0  0  0  0  0
   -0.9575   -0.9407    1.3003 C   0  0  0  0  0  0  0  0  0  0  0  0
   -1.0572   -1.4738    3.0009 S   0  0  0  0  0  0  0  0  0  0  0  0
   -2.7775   -1.4496    3.3025 C   0  0  0  0  0  0  0  0  0  0  0  0
   -3.3417   -2.1585    4.3339 N   0  0  0  0  0  0  0  0  0  0  0  0
   -4.6133   -1.8509    4.2501 C   0  0  0  0  0  0  0  0  0  0  0  0
   -4.8009   -0.9855    3.2219 N   0  0  0  0  0  0  0  0  0  0  0  0
   -3.6448   -0.7032    2.6048 N   0  0  0  0  0  0  0  0  0  0  0  0
   -0.6156    0.3893    1.0285 C   0  0  0  0  0  0  0  0  0  0  0  0
   -0.5022    0.8444   -0.2890 C   0  0  0  0  0  0  0  0  0  0  0  0
   -0.1207    2.1947   -0.5402 N   0  0  0  0  0  0  0  0  0  0  0  0
    1.3742    2.7745   -0.0181 S   0  0  0  0  0  6  0  0  0  0  0  0
    1.4540    2.7008    1.4239 O   0  0  0  0  0  0  0  0  0  0  0  0
    1.5777    4.0274   -0.7159 O   0  0  0  0  0  0  0  0  0  0  0  0
    2.5287    1.5977   -0.6927 C   0  0  0  0  0  0  0  0  0  0  0  0
    2.9357    0.5042    0.0800 C   0  0  0  0  0  0  0  0  0  0  0  0
    3.8464   -0.4120   -0.4497 C   0  0  0  0  0  0  0  0  0  0  0  0
    4.3552   -0.2206   -1.7348 C   0  0  0  0  0  0  0  0  0  0  0  0
    5.4738   -1.3531   -2.3871 Cl  0  0  0  0  0  0  0  0  0  0  0  0
    3.9680    0.8841   -2.4954 C   0  0  0  0  0  0  0  0  0  0  0  0
    3.0554    1.8029   -1.9726 C   0  0  0  0  0  0  0  0  0  0  0  0
    0.3309    0.8262   -3.0125 H   0  0  0  0  0  0  0  0  0  0  0  0
   -0.8373   -0.4048   -3.4901 H   0  0  0  0  0  0  0  0  0  0  0  0
   -1.4187    1.1884   -2.9950 H   0  0  0  0  0  0  0  0  0  0  0  0
   -1.2720   -2.0495   -1.9108 H   0  0  0  0  0  0  0  0  0  0  0  0
   -1.6575   -3.5814   -0.3661 H   0  0  0  0  0  0  0  0  0  0  0  0
   -5.4110   -2.2083    4.8851 H   0  0  0  0  0  0  0  0  0  0  0  0
   -5.6576   -0.5533    2.8957 H   0  0  0  0  0  0  0  0  0  0  0  0
   -0.4546    1.0772    1.8561 H   0  0  0  0  0  0  0  0  0  0  0  0
   -0.4350    2.6430   -1.3976 H   0  0  0  0  0  0  0  0  0  0  0  0
    2.5486    0.3571    1.0867 H   0  0  0  0  0  0  0  0  0  0  0  0
    4.1570   -1.2677    0.1450 H   0  0  0  0  0  0  0  0  0  0  0  0
    4.3782    1.0366   -3.4906 H   0  0  0  0  0  0  0  0  0  0  0  0
    2.7655    2.6693   -2.5631 H   0  0  0  0  0  0  0  0  0  0  0  0
  1  2  1  0
  2  3  2  0
  3  4  1  0
  4  5  1  0
  4  6  2  0
  6  7  1  0
  7  8  1  0
  8  9  1  0
  9 10  2  0
 10 11  1  0
 11 12  1  0
  6 13  1  0
 13 14  2  0
 14 15  1  0
 15 16  1  0
 16 17  2  0
 16 18  2  0
 16 19  1  0
 19 20  2  0
 20 21  1  0
 21 22  2  0
 22 23  1  0
 22 24  1  0
 24 25  2  0
 14  2  1  0
 25 19  1  0
 12  8  2  0
  1 26  1  0
  1 27  1  0
  1 28  1  0
  3 29  1  0
  5 30  1  0
 10 31  1  0
 11 32  1  0
 13 33  1  0
 15 34  1  0
 20 35  1  0
 21 36  1  0
 24 37  1  0
 25 38  1  0
M  END
$$$$
