
     RDKit          3D

 48 51  0  0  0  0  0  0  0  0999 V2000
    0.5631   -0.2974    3.3423 C   0  0  0  0  0  0  0  0  0  0  0  0
    0.9849   -0.5364    1.9289 C   0  0  0  0  0  0  0  0  0  0  0  0
    0.4406   -1.3752    1.0323 C   0  0  0  0  0  0  0  0  0  0  0  0
   -0.6049   -2.2563    1.0203 N   0  0  0  0  0  0  0  0  0  0  0  0
   -1.4847   -2.6134    2.0176 C   0  0  0  0  0  0  0  0  0  0  0  0
   -1.3405   -2.3653    3.2114 O   0  0  0  0  0  0  0  0  0  0  0  0
   -2.6659   -3.4545    1.5377 C   0  0  0  0  0  0  0  0  0  0  0  0
   -3.2621   -2.9771   -0.1245 S   0  0  0  0  0  0  0  0  0  0  0  0
   -3.5677   -1.2312    0.1741 C   0  0  0  0  0  0  0  0  0  0  0  0
   -4.3255   -0.9809    1.2587 N   0  0  0  0  0  0  0  0  0  0  0  0
   -4.5394    0.3090    1.5302 C   0  0  0  0  0  0  0  0  0  0  0  0
   -4.0731    1.3502    0.8313 N   0  0  0  0  0  0  0  0  0  0  0  0
   -3.3204    1.0781   -0.2411 C   0  0  0  0  0  0  0  0  0  0  0  0
   -2.8046    2.1398   -0.9751 C   0  0  0  0  0  0  0  0  0  0  0  0
   -1.9933    1.9423   -2.0957 C   0  0  0  0  0  0  0  0  0  0  0  0
   -1.6907    0.6541   -2.5053 C   0  0  0  0  0  0  0  0  0  0  0  0
   -2.2054   -0.4280   -1.7946 C   0  0  0  0  0  0  0  0  0  0  0  0
   -3.0224   -0.2293   -0.6486 C   0  0  0  0  0  0  0  0  0  0  0  0
    1.2031   -1.1589   -0.2407 C   0  0  0  0  0  0  0  0  0  0  0  0
    0.9111   -1.7466   -1.2737 O   0  0  0  0  0  0  0  0  0  0  0  0
    2.1513   -0.1697    0.0217 N   0  0  0  0  0  0  0  0  0  0  0  0
    2.6785    0.7264   -0.9452 C   0  0  0  0  0  0  0  0  0  0  0  0
    2.8311    0.3312   -2.2816 C   0  0  0  0  0  0  0  0  0  0  0  0
    3.3469    1.2111   -3.2392 C   0  0  0  0  0  0  0  0  0  0  0  0
    3.7154    2.5028   -2.8743 C   0  0  0  0  0  0  0  0  0  0  0  0
    3.5684    2.9151   -1.5535 C   0  0  0  0  0  0  0  0  0  0  0  0
    3.0546    2.0333   -0.5976 C   0  0  0  0  0  0  0  0  0  0  0  0
    2.0687    0.1928    1.3971 N   0  0  0  0  0  0  0  0  0  0  0  0
    3.3653    0.1034    2.0950 C   0  0  0  0  0  0  0  0  0  0  0  0
    0.7681   -1.1760    3.9605 H   0  0  0  0  0  0  0  0  0  0  0  0
   -0.4995   -0.0352    3.3946 H   0  0  0  0  0  0  0  0  0  0  0  0
    1.1084    0.5439    3.7892 H   0  0  0  0  0  0  0  0  0  0  0  0
   -0.7873   -2.6496    0.0972 H   0  0  0  0  0  0  0  0  0  0  0  0
   -2.3474   -4.5018    1.5074 H   0  0  0  0  0  0  0  0  0  0  0  0
   -3.4872   -3.3644    2.2561 H   0  0  0  0  0  0  0  0  0  0  0  0
   -5.1451    0.5360    2.4007 H   0  0  0  0  0  0  0  0  0  0  0  0
   -3.0339    3.1540   -0.6604 H   0  0  0  0  0  0  0  0  0  0  0  0
   -1.5946    2.7967   -2.6392 H   0  0  0  0  0  0  0  0  0  0  0  0
   -1.0505    0.4881   -3.3673 H   0  0  0  0  0  0  0  0  0  0  0  0
   -1.9491   -1.4290   -2.1336 H   0  0  0  0  0  0  0  0  0  0  0  0
    2.5709   -0.6744   -2.6021 H   0  0  0  0  0  0  0  0  0  0  0  0
    3.4596    0.8823   -4.2694 H   0  0  0  0  0  0  0  0  0  0  0  0
    4.1130    3.1871   -3.6187 H   0  0  0  0  0  0  0  0  0  0  0  0
    3.8436    3.9265   -1.2647 H   0  0  0  0  0  0  0  0  0  0  0  0
    2.9210    2.3978    0.4176 H   0  0  0  0  0  0  0  0  0  0  0  0
    3.6718   -0.9426    2.2118 H   0  0  0  0  0  0  0  0  0  0  0  0
    4.1570    0.6289    1.5503 H   0  0  0  0  0  0  0  0  0  0  0  0
    3.2986    0.5624    3.0867 H   0  0  0  0  0  0  0  0  0  0  0  0
  1  2  1  0
  2  3  2  0
  3  4  1  0
  4  5  1  0
  5  6  2  0
  5  7  1  0
  7  8  1  0
  8  9  1  0
  9 10  2  0
 10 11  1  0
 11 12  2  0
 12 13  1  0
 13 14  2  0
 14 15  1  0
 15 16  2  0
 16 17  1  0
 17 18  2  0
  3 19  1  0
 19 20  2  0
 19 21  1  0
 21 22  1  0
 22 23  2  0
 23 24  1  0
 24 25  2  0
 25 26  1  0
 26 27  2  0
 21 28  1  0
 28 29  1  0
 28  2  1  0
 18  9  1  0
 27 22  1  0
 18 13  1  0
  1 30  1  0
  1 31  1  0
  1 32  1  0
  4 33  1  0
  7 34  1  0
  7 35  1  0
 11 36  1  0
 14 37  1  0
 15 38  1  0
 16 39  1  0
 17 40  1  0
 23 41  1  0
 24 42  1  0
 25 43  1  0
 26 44  1  0
 27 45  1  0
 29 46  1  0
 29 47  1  0
 29 48  1  0
M  END
$$$$
