
     RDKit          3D

 51 53  0  0  0  0  0  0  0  0999 V2000
    5.1688   -1.5931    1.6009 C   0  0  0  0  0  0  0  0  0  0  0  0
    4.5548   -1.3104    0.3486 O   0  0  0  0  0  0  0  0  0  0  0  0
    3.1884   -1.2016    0.3251 C   0  0  0  0  0  0  0  0  0  0  0  0
    2.3668   -1.2839    1.4553 C   0  0  0  0  0  0  0  0  0  0  0  0
    0.9809   -1.1383    1.3385 C   0  0  0  0  0  0  0  0  0  0  0  0
    0.4063   -0.9020    0.0903 C   0  0  0  0  0  0  0  0  0  0  0  0
   -1.0559   -0.7441   -0.0597 C   0  0  0  0  0  0  0  0  0  0  0  0
   -1.8541   -0.8411    0.9557 N   0  0  0  0  0  0  0  0  0  0  0  0
   -3.1957   -0.6478    0.7495 N   0  0  0  0  0  0  0  0  0  0  0  0
   -3.7729    0.2290   -0.1593 C   0  0  0  0  0  0  0  0  0  0  0  0
   -3.1567    0.8730   -1.0063 O   0  0  0  0  0  0  0  0  0  0  0  0
   -5.2687    0.3766   -0.0899 C   0  0  0  0  0  0  0  0  0  0  0  0
   -5.8793    1.0159   -1.1866 C   0  0  0  0  0  0  0  0  0  0  0  0
   -7.2601    1.2005   -1.2355 C   0  0  0  0  0  0  0  0  0  0  0  0
   -8.0508    0.7479   -0.1874 C   0  0  0  0  0  0  0  0  0  0  0  0
   -7.4635    0.1178    0.9127 C   0  0  0  0  0  0  0  0  0  0  0  0
   -6.0737   -0.0681    0.9804 C   0  0  0  0  0  0  0  0  0  0  0  0
   -5.4488   -0.6710    2.0435 O   0  0  0  0  0  0  0  0  0  0  0  0
   -6.2251   -0.9319    3.2104 C   0  0  0  0  0  0  0  0  0  0  0  0
    1.2147   -0.8143   -1.0443 C   0  0  0  0  0  0  0  0  0  0  0  0
    2.6089   -0.9760   -0.9391 C   0  0  0  0  0  0  0  0  0  0  0  0
    3.4522   -0.8614   -2.1902 C   0  0  0  0  0  0  0  0  0  0  0  0
    3.6355    0.5135   -2.5625 O   0  0  0  0  0  0  0  0  0  0  0  0
    4.6605    1.1123   -1.8797 C   0  0  0  0  0  0  0  0  0  0  0  0
    5.9915    0.7308   -2.0499 C   0  0  0  0  0  0  0  0  0  0  0  0
    6.3104   -0.2567   -2.9012 F   0  0  0  0  0  0  0  0  0  0  0  0
    7.0011    1.3727   -1.3418 C   0  0  0  0  0  0  0  0  0  0  0  0
    8.2750    0.9862   -1.4924 F   0  0  0  0  0  0  0  0  0  0  0  0
    6.6902    2.4119   -0.4763 C   0  0  0  0  0  0  0  0  0  0  0  0
    7.6637    3.0248    0.2102 F   0  0  0  0  0  0  0  0  0  0  0  0
    5.3713    2.8158   -0.3207 C   0  0  0  0  0  0  0  0  0  0  0  0
    5.0740    3.8231    0.5126 F   0  0  0  0  0  0  0  0  0  0  0  0
    4.3592    2.1743   -1.0263 C   0  0  0  0  0  0  0  0  0  0  0  0
    3.0879    2.5685   -0.8624 F   0  0  0  0  0  0  0  0  0  0  0  0
    5.0042   -0.7765    2.3115 H   0  0  0  0  0  0  0  0  0  0  0  0
    4.8213   -2.5500    2.0040 H   0  0  0  0  0  0  0  0  0  0  0  0
    6.2478   -1.6741    1.4333 H   0  0  0  0  0  0  0  0  0  0  0  0
    2.7697   -1.4542    2.4482 H   0  0  0  0  0  0  0  0  0  0  0  0
    0.3568   -1.2025    2.2270 H   0  0  0  0  0  0  0  0  0  0  0  0
   -1.4129   -0.5798   -1.0893 H   0  0  0  0  0  0  0  0  0  0  0  0
   -3.7771   -0.9470    1.5296 H   0  0  0  0  0  0  0  0  0  0  0  0
   -5.2730    1.3738   -2.0178 H   0  0  0  0  0  0  0  0  0  0  0  0
   -7.7126    1.6949   -2.0916 H   0  0  0  0  0  0  0  0  0  0  0  0
   -9.1290    0.8861   -0.2229 H   0  0  0  0  0  0  0  0  0  0  0  0
   -8.1260   -0.2212    1.7028 H   0  0  0  0  0  0  0  0  0  0  0  0
   -6.6886   -0.0165    3.5934 H   0  0  0  0  0  0  0  0  0  0  0  0
   -6.9721   -1.7081    3.0166 H   0  0  0  0  0  0  0  0  0  0  0  0
   -5.5476   -1.3090    3.9819 H   0  0  0  0  0  0  0  0  0  0  0  0
    0.7682   -0.6113   -2.0158 H   0  0  0  0  0  0  0  0  0  0  0  0
    4.3958   -1.4131   -2.1054 H   0  0  0  0  0  0  0  0  0  0  0  0
    2.9181   -1.3444   -3.0187 H   0  0  0  0  0  0  0  0  0  0  0  0
  1  2  1  0
  2  3  1  0
  3  4  2  0
  4  5  1  0
  5  6  2  0
  6  7  1  0
  7  8  2  3
  8  9  1  0
  9 10  1  0
 10 11  2  0
 10 12  1  0
 12 13  2  0
 13 14  1  0
 14 15  2  0
 15 16  1  0
 16 17  2  0
 17 18  1  0
 18 19  1  0
  6 20  1  0
 20 21  2  0
 21 22  1  0
 22 23  1  0
 23 24  1  0
 24 25  2  0
 25 26  1  0
 25 27  1  0
 27 28  1  0
 27 29  2  0
 29 30  1  0
 29 31  1  0
 31 32  1  0
 31 33  2  0
 33 34  1  0
 21  3  1  0
 33 24  1  0
 17 12  1  0
  1 35  1  0
  1 36  1  0
  1 37  1  0
  4 38  1  0
  5 39  1  0
  7 40  1  0
  9 41  1  0
 13 42  1  0
 14 43  1  0
 15 44  1  0
 16 45  1  0
 19 46  1  0
 19 47  1  0
 19 48  1  0
 20 49  1  0
 22 50  1  0
 22 51  1  0
M  END
$$$$
