
     RDKit          3D

 56 61  0  0  0  0  0  0  0  0999 V2000
    7.0461    1.1610   -3.2062 C   0  0  0  0  0  0  0  0  0  0  0  0
    5.8743    0.8581   -2.3183 C   0  0  0  0  0  0  0  0  0  0  0  0
    4.7694    1.7138   -2.2857 C   0  0  0  0  0  0  0  0  0  0  0  0
    3.6645    1.4171   -1.4819 C   0  0  0  0  0  0  0  0  0  0  0  0
    3.6503    0.2524   -0.7055 C   0  0  0  0  0  0  0  0  0  0  0  0
    2.4037   -0.0747    0.1917 C   0  0  0  0  0  0  0  0  0  0  0  0
    1.2260    0.6585    0.2639 C   0  0  0  0  0  0  0  0  0  0  0  0
    0.3441    0.0192    1.1360 N   0  0  0  0  0  4  0  0  0  0  0  0
   -1.0122    0.4637    1.4959 C   0  0  0  0  0  0  0  0  0  0  0  0
   -2.0938   -0.5347    1.0449 C   0  0  0  0  0  0  0  0  0  0  0  0
   -1.9730   -1.7334    1.3006 O   0  0  0  0  0  0  0  0  0  0  0  0
   -3.1961    0.0680    0.4269 N   0  0  0  0  0  0  0  0  0  0  0  0
   -4.5404   -0.1586    0.9014 C   0  0  0  0  0  0  0  0  0  0  0  0
   -4.8278   -1.2309    1.7698 C   0  0  0  0  0  0  0  0  0  0  0  0
   -6.1215   -1.4689    2.2486 C   0  0  0  0  0  0  0  0  0  0  0  0
   -7.1627   -0.6287    1.8864 C   0  0  0  0  0  0  0  0  0  0  0  0
   -6.9041    0.4554    1.0557 C   0  0  0  0  0  0  0  0  0  0  0  0
   -5.6075    0.6968    0.5672 C   0  0  0  0  0  0  0  0  0  0  0  0
   -5.3923    2.1869   -0.3735 S   0  0  0  0  0  0  0  0  0  0  0  0
   -3.9125    1.7815   -1.2485 C   0  0  0  0  0  0  0  0  0  0  0  0
   -3.6511    2.4955   -2.4301 C   0  0  0  0  0  0  0  0  0  0  0  0
   -2.5071    2.2419   -3.1829 C   0  0  0  0  0  0  0  0  0  0  0  0
   -1.6190    1.2611   -2.7669 C   0  0  0  0  0  0  0  0  0  0  0  0
   -1.8675    0.5562   -1.5862 C   0  0  0  0  0  0  0  0  0  0  0  0
   -3.0040    0.8194   -0.7884 C   0  0  0  0  0  0  0  0  0  0  0  0
    0.9653   -1.0577    1.6132 C   0  0  0  0  0  0  0  0  0  0  0  0
    2.1857   -1.1099    1.0819 N   0  0  0  0  0  0  0  0  0  0  0  0
    2.9586   -2.2264    1.6120 C   0  0  0  0  0  0  0  0  0  0  0  0
    2.1380   -2.6736    2.8519 C   0  0  0  0  0  0  0  0  0  0  0  0
    0.7132   -2.1478    2.5872 C   0  0  0  0  0  0  0  0  0  0  0  0
    4.7422   -0.6146   -0.7518 C   0  0  0  0  0  0  0  0  0  0  0  0
    5.8459   -0.3139   -1.5566 C   0  0  0  0  0  0  0  0  0  0  0  0
    7.9705    0.7498   -2.7866 H   0  0  0  0  0  0  0  0  0  0  0  0
    7.1894    2.2422   -3.3087 H   0  0  0  0  0  0  0  0  0  0  0  0
    6.8845    0.7288   -4.1987 H   0  0  0  0  0  0  0  0  0  0  0  0
    4.7663    2.6214   -2.8880 H   0  0  0  0  0  0  0  0  0  0  0  0
    2.8371    2.1199   -1.4863 H   0  0  0  0  0  0  0  0  0  0  0  0
    0.8925    1.5629   -0.2168 H   0  0  0  0  0  0  0  0  0  0  0  0
   -1.0622    0.5381    2.5882 H   0  0  0  0  0  0  0  0  0  0  0  0
   -1.1810    1.4673    1.0955 H   0  0  0  0  0  0  0  0  0  0  0  0
   -4.0703   -1.9444    2.0795 H   0  0  0  0  0  0  0  0  0  0  0  0
   -6.3127   -2.3199    2.8986 H   0  0  0  0  0  0  0  0  0  0  0  0
   -8.1697   -0.8092    2.2546 H   0  0  0  0  0  0  0  0  0  0  0  0
   -7.7249    1.1232    0.7980 H   0  0  0  0  0  0  0  0  0  0  0  0
   -4.3513    3.2531   -2.7814 H   0  0  0  0  0  0  0  0  0  0  0  0
   -2.3303    2.7914   -4.1051 H   0  0  0  0  0  0  0  0  0  0  0  0
   -0.7495    1.0254   -3.3773 H   0  0  0  0  0  0  0  0  0  0  0  0
   -1.1802   -0.2512   -1.3404 H   0  0  0  0  0  0  0  0  0  0  0  0
    3.9629   -1.9090    1.9009 H   0  0  0  0  0  0  0  0  0  0  0  0
    2.9981   -3.0165    0.8563 H   0  0  0  0  0  0  0  0  0  0  0  0
    2.5425   -2.1781    3.7431 H   0  0  0  0  0  0  0  0  0  0  0  0
    2.1729   -3.7534    3.0197 H   0  0  0  0  0  0  0  0  0  0  0  0
    0.2263   -1.7358    3.4715 H   0  0  0  0  0  0  0  0  0  0  0  0
    0.0986   -2.8945    2.0819 H   0  0  0  0  0  0  0  0  0  0  0  0
    4.7678   -1.5408   -0.1928 H   0  0  0  0  0  0  0  0  0  0  0  0
    6.6882   -1.0034   -1.5880 H   0  0  0  0  0  0  0  0  0  0  0  0
  1  2  1  0
  2  3  2  0
  3  4  1  0
  4  5  2  0
  5  6  1  0
  6  7  2  0
  7  8  1  0
  8  9  1  0
  9 10  1  0
 10 11  2  0
 10 12  1  0
 12 13  1  0
 13 14  2  0
 14 15  1  0
 15 16  2  0
 16 17  1  0
 17 18  2  0
 18 19  1  0
 19 20  1  0
 20 21  2  0
 21 22  1  0
 22 23  2  0
 23 24  1  0
 24 25  2  0
  8 26  2  0
 26 27  1  0
 27 28  1  0
 28 29  1  0
 29 30  1  0
  5 31  1  0
 31 32  2  0
 32  2  1  0
 27  6  1  0
 25 12  1  0
 30 26  1  0
 18 13  1  0
 25 20  1  0
  1 33  1  0
  1 34  1  0
  1 35  1  0
  3 36  1  0
  4 37  1  0
  7 38  1  0
  9 39  1  0
  9 40  1  0
 14 41  1  0
 15 42  1  0
 16 43  1  0
 17 44  1  0
 21 45  1  0
 22 46  1  0
 23 47  1  0
 24 48  1  0
 28 49  1  0
 28 50  1  0
 29 51  1  0
 29 52  1  0
 30 53  1  0
 30 54  1  0
 31 55  1  0
 32 56  1  0
M  CHG  1   8   1
M  END
$$$$
