
     RDKit          3D

 42 44  0  0  0  0  0  0  0  0999 V2000
   -6.9547    1.6022   -0.6107 C   0  0  0  0  0  0  0  0  0  0  0  0
   -5.9981    0.6266   -1.0096 O   0  0  0  0  0  0  0  0  0  0  0  0
   -4.8052    0.6213   -0.3394 C   0  0  0  0  0  0  0  0  0  0  0  0
   -4.4502    1.4708    0.7025 C   0  0  0  0  0  0  0  0  0  0  0  0
   -3.1927    1.3505    1.2916 C   0  0  0  0  0  0  0  0  0  0  0  0
   -2.9380    2.2105    2.3313 O   0  0  0  0  0  0  0  0  0  0  0  0
   -2.2588    0.4024    0.8361 C   0  0  0  0  0  0  0  0  0  0  0  0
   -0.9246    0.3830    1.4920 C   0  0  0  0  0  0  0  0  0  0  0  0
   -0.8477    0.6812    2.6839 O   0  0  0  0  0  0  0  0  0  0  0  0
    0.2857    0.1194    0.6706 C   0  0  0  0  0  0  0  0  0  0  0  0
    1.4788   -0.0293    1.2670 C   0  0  0  0  0  0  0  0  0  0  0  0
    2.7275   -0.2810    0.5588 C   0  0  0  0  0  0  0  0  0  0  0  0
    3.8927    0.0292    1.1816 C   0  0  0  0  0  0  0  0  0  0  0  0
    5.1760   -0.3458    0.5148 C   0  0  2  0  0  0  0  0  0  0  0  0
    6.3332    0.4281    0.7980 O   0  0  0  0  0  0  0  0  0  0  0  0
    7.1689    0.1165   -0.3452 C   0  0  0  0  0  0  0  0  0  0  0  0
    6.3756   -0.4849   -1.3998 O   0  0  0  0  0  0  0  0  0  0  0  0
    5.0612   -0.1445   -0.9855 C   0  0  1  0  0  0  0  0  0  0  0  0
    3.9240   -0.9606   -1.4989 C   0  0  0  0  0  0  0  0  0  0  0  0
    2.8107   -1.0006   -0.7366 C   0  0  0  0  0  0  0  0  0  0  0  0
   -2.6315   -0.4884   -0.1870 C   0  0  0  0  0  0  0  0  0  0  0  0
   -1.7327   -1.4610   -0.5407 O   0  0  0  0  0  0  0  0  0  0  0  0
   -2.1655   -2.4711   -1.4455 C   0  0  0  0  0  0  0  0  0  0  0  0
   -3.8994   -0.3557   -0.7722 C   0  0  0  0  0  0  0  0  0  0  0  0
   -7.8394    1.4800   -1.2429 H   0  0  0  0  0  0  0  0  0  0  0  0
   -6.5721    2.6165   -0.7655 H   0  0  0  0  0  0  0  0  0  0  0  0
   -7.2640    1.4490    0.4284 H   0  0  0  0  0  0  0  0  0  0  0  0
   -5.1238    2.2295    1.0863 H   0  0  0  0  0  0  0  0  0  0  0  0
   -2.1404    1.8828    2.8065 H   0  0  0  0  0  0  0  0  0  0  0  0
    0.1743    0.0789   -0.4052 H   0  0  0  0  0  0  0  0  0  0  0  0
    1.5446    0.0508    2.3524 H   0  0  0  0  0  0  0  0  0  0  0  0
    3.9350    0.4892    2.1623 H   0  0  0  0  0  0  0  0  0  0  0  0
    5.4198   -1.3846    0.7853 H   0  0  0  0  0  0  0  0  0  0  0  0
    7.9509   -0.5873   -0.0444 H   0  0  0  0  0  0  0  0  0  0  0  0
    7.6250    1.0405   -0.7136 H   0  0  0  0  0  0  0  0  0  0  0  0
    4.9016    0.9080   -1.2643 H   0  0  0  0  0  0  0  0  0  0  0  0
    3.9922   -1.4542   -2.4597 H   0  0  0  0  0  0  0  0  0  0  0  0
    1.9395   -1.5598   -1.0663 H   0  0  0  0  0  0  0  0  0  0  0  0
   -1.3520   -3.1958   -1.5484 H   0  0  0  0  0  0  0  0  0  0  0  0
   -3.0394   -3.0046   -1.0575 H   0  0  0  0  0  0  0  0  0  0  0  0
   -2.3624   -2.0504   -2.4368 H   0  0  0  0  0  0  0  0  0  0  0  0
   -4.2245   -1.0075   -1.5779 H   0  0  0  0  0  0  0  0  0  0  0  0
  1  2  1  0
  2  3  1  0
  3  4  2  0
  4  5  1  0
  5  6  1  0
  5  7  2  0
  7  8  1  0
  8  9  2  0
  8 10  1  0
 10 11  2  0
 11 12  1  0
 12 13  2  0
 13 14  1  0
 14 15  1  0
 15 16  1  0
 16 17  1  0
 17 18  1  0
 18 19  1  0
 19 20  2  0
  7 21  1  0
 21 22  1  0
 22 23  1  0
 21 24  2  0
 24  3  1  0
 20 12  1  0
 18 14  1  0
  1 25  1  0
  1 26  1  0
  1 27  1  0
  4 28  1  0
  6 29  1  0
 10 30  1  0
 11 31  1  0
 13 32  1  0
 14 33  1  6
 16 34  1  0
 16 35  1  0
 18 36  1  1
 19 37  1  0
 20 38  1  0
 23 39  1  0
 23 40  1  0
 23 41  1  0
 24 42  1  0
M  END
$$$$
