
     RDKit          3D

 38 40  0  0  0  0  0  0  0  0999 V2000
   -3.6985    1.8506   -2.7013 C   0  0  0  0  0  0  0  0  0  0  0  0
   -3.4116    1.0792   -1.4461 C   0  0  0  0  0  0  0  0  0  0  0  0
   -3.6366   -0.3036   -1.3981 C   0  0  0  0  0  0  0  0  0  0  0  0
   -3.3379   -1.0295   -0.2440 C   0  0  0  0  0  0  0  0  0  0  0  0
   -2.7923   -0.3702    0.8606 C   0  0  0  0  0  0  0  0  0  0  0  0
   -2.4020   -1.2968    2.3274 S   0  0  0  0  0  6  0  0  0  0  0  0
   -2.3440   -0.3781    3.4438 O   0  0  0  0  0  0  0  0  0  0  0  0
   -3.2697   -2.4562    2.3551 O   0  0  0  0  0  0  0  0  0  0  0  0
   -0.8492   -1.8860    2.0009 N   0  0  0  0  0  0  0  0  0  0  0  0
    0.1753   -0.9675    1.6380 C   0  0  0  0  0  0  0  0  0  0  0  0
    0.6447   -0.0295    2.5544 C   0  0  0  0  0  0  0  0  0  0  0  0
    1.6123    0.8949    2.1649 C   0  0  0  0  0  0  0  0  0  0  0  0
    2.1111    0.8755    0.8632 C   0  0  0  0  0  0  0  0  0  0  0  0
    3.0595    1.8181    0.5758 O   0  0  0  0  0  0  0  0  0  0  0  0
    1.6448   -0.0583   -0.0730 C   0  0  0  0  0  0  0  0  0  0  0  0
    2.1441   -0.0885   -1.7884 S   0  0  0  0  0  0  0  0  0  0  0  0
    3.8340   -0.4789   -1.6692 C   0  0  0  0  0  0  0  0  0  0  0  0
    4.7286    0.3373   -1.0252 N   0  0  0  0  0  0  0  0  0  0  0  0
    5.8671   -0.2981   -1.1821 C   0  0  0  0  0  0  0  0  0  0  0  0
    5.6582   -1.4364   -1.8957 N   0  0  0  0  0  0  0  0  0  0  0  0
    4.3636   -1.5714   -2.2242 N   0  0  0  0  0  0  0  0  0  0  0  0
    0.6677   -0.9808    0.3304 C   0  0  0  0  0  0  0  0  0  0  0  0
   -2.5703    1.0087    0.8304 C   0  0  0  0  0  0  0  0  0  0  0  0
   -2.8686    1.7270   -0.3280 C   0  0  0  0  0  0  0  0  0  0  0  0
   -3.9795    2.8832   -2.4694 H   0  0  0  0  0  0  0  0  0  0  0  0
   -4.5322    1.4035   -3.2527 H   0  0  0  0  0  0  0  0  0  0  0  0
   -2.8131    1.8601   -3.3443 H   0  0  0  0  0  0  0  0  0  0  0  0
   -4.0517   -0.8211   -2.2608 H   0  0  0  0  0  0  0  0  0  0  0  0
   -3.5325   -2.0990   -0.2160 H   0  0  0  0  0  0  0  0  0  0  0  0
   -0.8845   -2.7788    1.5116 H   0  0  0  0  0  0  0  0  0  0  0  0
    0.2657   -0.0099    3.5735 H   0  0  0  0  0  0  0  0  0  0  0  0
    1.9808    1.6299    2.8759 H   0  0  0  0  0  0  0  0  0  0  0  0
    3.6107    1.4810   -0.1618 H   0  0  0  0  0  0  0  0  0  0  0  0
    6.8383    0.0061   -0.8174 H   0  0  0  0  0  0  0  0  0  0  0  0
    6.3245   -2.1429   -2.1889 H   0  0  0  0  0  0  0  0  0  0  0  0
    0.2756   -1.6979   -0.3866 H   0  0  0  0  0  0  0  0  0  0  0  0
   -2.1564    1.5264    1.6931 H   0  0  0  0  0  0  0  0  0  0  0  0
   -2.6763    2.7980   -0.3531 H   0  0  0  0  0  0  0  0  0  0  0  0
  1  2  1  0
  2  3  2  0
  3  4  1  0
  4  5  2  0
  5  6  1  0
  6  7  2  0
  6  8  2  0
  6  9  1  0
  9 10  1  0
 10 11  2  0
 11 12  1  0
 12 13  2  0
 13 14  1  0
 13 15  1  0
 15 16  1  0
 16 17  1  0
 17 18  1  0
 18 19  2  0
 19 20  1  0
 20 21  1  0
 15 22  2  0
  5 23  1  0
 23 24  2  0
 24  2  1  0
 22 10  1  0
 21 17  2  0
  1 25  1  0
  1 26  1  0
  1 27  1  0
  3 28  1  0
  4 29  1  0
  9 30  1  0
 11 31  1  0
 12 32  1  0
 14 33  1  0
 19 34  1  0
 20 35  1  0
 22 36  1  0
 23 37  1  0
 24 38  1  0
M  END
$$$$
