
     RDKit          3D

 58 61  0  0  0  0  0  0  0  0999 V2000
   -5.5518    3.9778   -1.0693 C   0  0  0  0  0  0  0  0  0  0  0  0
   -4.6978    4.3917   -0.0103 O   0  0  0  0  0  0  0  0  0  0  0  0
   -3.9425    3.4219    0.5907 C   0  0  0  0  0  0  0  0  0  0  0  0
   -3.1417    3.8756    1.6413 C   0  0  0  0  0  0  0  0  0  0  0  0
   -2.3189    2.9934    2.3407 C   0  0  0  0  0  0  0  0  0  0  0  0
   -2.2929    1.6444    1.9910 C   0  0  0  0  0  0  0  0  0  0  0  0
   -3.0890    1.1704    0.9404 C   0  0  0  0  0  0  0  0  0  0  0  0
   -3.0451   -0.2493    0.5644 C   0  0  0  0  0  0  0  0  0  0  0  0
   -4.4667   -1.1834    0.7556 S   0  0  0  0  0  0  0  0  0  0  0  0
   -3.7107   -2.6178    0.1935 C   0  0  0  0  0  0  0  0  0  0  0  0
   -4.3030   -3.8886    0.0618 C   0  0  0  0  0  0  0  0  0  0  0  0
   -3.5364   -4.9552   -0.4213 C   0  0  0  0  0  0  0  0  0  0  0  0
   -2.2065   -4.7681   -0.7714 C   0  0  0  0  0  0  0  0  0  0  0  0
   -1.3588   -5.7267   -1.2552 O   0  0  0  0  0  0  0  0  0  0  0  0
   -1.8935   -7.0328   -1.4294 C   0  0  0  0  0  0  0  0  0  0  0  0
   -1.6302   -3.4994   -0.6351 C   0  0  0  0  0  0  0  0  0  0  0  0
   -2.3753   -2.3955   -0.1421 C   0  0  0  0  0  0  0  0  0  0  0  0
   -1.9948   -1.0165    0.0820 C   0  0  0  0  0  0  0  0  0  0  0  0
   -0.6706   -0.4491   -0.1572 C   0  0  0  0  0  0  0  0  0  0  0  0
   -0.4737    0.5039   -1.1602 C   0  0  0  0  0  0  0  0  0  0  0  0
    0.7994    1.0366   -1.3772 C   0  0  0  0  0  0  0  0  0  0  0  0
    1.8874    0.6247   -0.6032 C   0  0  0  0  0  0  0  0  0  0  0  0
    3.0735    1.2261   -0.9214 O   0  0  0  0  0  0  0  0  0  0  0  0
    4.2164    0.8682   -0.1368 C   0  0  0  0  0  0  0  0  0  0  0  0
    5.4229    1.6603   -0.6669 C   0  0  0  0  0  0  0  0  0  0  0  0
    6.7019    1.3261   -0.0100 N   0  0  0  0  0  0  0  0  0  0  0  0
    6.7363    1.7871    1.3796 C   0  0  0  0  0  0  0  0  0  0  0  0
    7.8134    1.9257   -0.7546 C   0  0  0  0  0  0  0  0  0  0  0  0
    1.6929   -0.3319    0.3936 C   0  0  0  0  0  0  0  0  0  0  0  0
    0.4187   -0.8673    0.6153 C   0  0  0  0  0  0  0  0  0  0  0  0
   -3.9124    2.0700    0.2416 C   0  0  0  0  0  0  0  0  0  0  0  0
   -6.0915    4.8598   -1.4274 H   0  0  0  0  0  0  0  0  0  0  0  0
   -6.2941    3.2531   -0.7186 H   0  0  0  0  0  0  0  0  0  0  0  0
   -4.9734    3.5782   -1.9088 H   0  0  0  0  0  0  0  0  0  0  0  0
   -3.1595    4.9276    1.9157 H   0  0  0  0  0  0  0  0  0  0  0  0
   -1.6986    3.3578    3.1549 H   0  0  0  0  0  0  0  0  0  0  0  0
   -1.6475    0.9645    2.5424 H   0  0  0  0  0  0  0  0  0  0  0  0
   -5.3446   -4.0418    0.3311 H   0  0  0  0  0  0  0  0  0  0  0  0
   -4.0204   -5.9223   -0.5110 H   0  0  0  0  0  0  0  0  0  0  0  0
   -2.7115   -7.0308   -2.1574 H   0  0  0  0  0  0  0  0  0  0  0  0
   -1.0970   -7.6700   -1.8256 H   0  0  0  0  0  0  0  0  0  0  0  0
   -2.2154   -7.4580   -0.4731 H   0  0  0  0  0  0  0  0  0  0  0  0
   -0.5889   -3.3605   -0.9183 H   0  0  0  0  0  0  0  0  0  0  0  0
   -1.3033    0.8391   -1.7775 H   0  0  0  0  0  0  0  0  0  0  0  0
    0.9438    1.7802   -2.1571 H   0  0  0  0  0  0  0  0  0  0  0  0
    4.0290    1.1225    0.9122 H   0  0  0  0  0  0  0  0  0  0  0  0
    4.4170   -0.2055   -0.2365 H   0  0  0  0  0  0  0  0  0  0  0  0
    5.4990    1.4408   -1.7409 H   0  0  0  0  0  0  0  0  0  0  0  0
    5.2132    2.7368   -0.6024 H   0  0  0  0  0  0  0  0  0  0  0  0
    7.7048    1.5546    1.8374 H   0  0  0  0  0  0  0  0  0  0  0  0
    5.9853    1.2717    1.9863 H   0  0  0  0  0  0  0  0  0  0  0  0
    6.5697    2.8673    1.4617 H   0  0  0  0  0  0  0  0  0  0  0  0
    8.7729    1.6530   -0.3008 H   0  0  0  0  0  0  0  0  0  0  0  0
    7.7457    3.0191   -0.7897 H   0  0  0  0  0  0  0  0  0  0  0  0
    7.8378    1.5471   -1.7826 H   0  0  0  0  0  0  0  0  0  0  0  0
    2.5083   -0.6860    1.0153 H   0  0  0  0  0  0  0  0  0  0  0  0
    0.2836   -1.6111    1.3976 H   0  0  0  0  0  0  0  0  0  0  0  0
   -4.5150    1.6900   -0.5769 H   0  0  0  0  0  0  0  0  0  0  0  0
  1  2  1  0
  2  3  1  0
  3  4  2  0
  4  5  1  0
  5  6  2  0
  6  7  1  0
  7  8  1  0
  8  9  1  0
  9 10  1  0
 10 11  2  0
 11 12  1  0
 12 13  2  0
 13 14  1  0
 14 15  1  0
 13 16  1  0
 16 17  2  0
 17 18  1  0
 18 19  1  0
 19 20  2  0
 20 21  1  0
 21 22  2  0
 22 23  1  0
 23 24  1  0
 24 25  1  0
 25 26  1  0
 26 27  1  0
 26 28  1  0
 22 29  1  0
 29 30  2  0
  7 31  2  0
 31  3  1  0
 18  8  2  0
 30 19  1  0
 17 10  1  0
  1 32  1  0
  1 33  1  0
  1 34  1  0
  4 35  1  0
  5 36  1  0
  6 37  1  0
 11 38  1  0
 12 39  1  0
 15 40  1  0
 15 41  1  0
 15 42  1  0
 16 43  1  0
 20 44  1  0
 21 45  1  0
 24 46  1  0
 24 47  1  0
 25 48  1  0
 25 49  1  0
 27 50  1  0
 27 51  1  0
 27 52  1  0
 28 53  1  0
 28 54  1  0
 28 55  1  0
 29 56  1  0
 30 57  1  0
 31 58  1  0
M  END
$$$$
