
     RDKit          3D

 33 35  0  0  0  0  0  0  0  0999 V2000
    1.8282    0.3511    1.4560 O   0  0  0  0  0  0  0  0  0  0  0  0
    1.8380    0.1525    0.2502 C   0  0  0  0  0  0  0  0  0  0  0  0
    0.7260    0.0530   -0.5591 N   0  0  0  0  0  0  0  0  0  0  0  0
   -0.5397    0.2356   -0.0744 C   0  0  0  0  0  0  0  0  0  0  0  0
   -0.9539    0.7130    1.0703 N   0  0  0  0  0  0  0  0  0  0  0  0
   -2.3338    0.7444    1.1398 N   0  0  0  0  0  0  0  0  0  0  0  0
   -2.9157    0.2906    0.0435 C   0  0  0  0  0  0  0  0  0  0  0  0
   -4.3766    0.2098   -0.1491 C   0  0  0  0  0  0  0  0  0  0  0  0
   -5.2208    0.6493    0.8903 C   0  0  0  0  0  0  0  0  0  0  0  0
   -6.6123    0.5981    0.7665 C   0  0  0  0  0  0  0  0  0  0  0  0
   -7.1755    0.1050   -0.4009 C   0  0  0  0  0  0  0  0  0  0  0  0
   -8.5077    0.0541   -0.5244 F   0  0  0  0  0  0  0  0  0  0  0  0
   -6.3734   -0.3370   -1.4442 C   0  0  0  0  0  0  0  0  0  0  0  0
   -4.9800   -0.2855   -1.3200 C   0  0  0  0  0  0  0  0  0  0  0  0
   -1.7791   -0.1979   -1.1619 S   0  0  0  0  0  0  0  0  0  0  0  0
    2.9921    0.0340   -0.5186 N   0  0  0  0  0  0  0  0  0  0  0  0
    4.2883   -0.1513    0.0146 C   0  0  0  0  0  0  0  0  0  0  0  0
    5.3694    0.3750   -0.7037 C   0  0  0  0  0  0  0  0  0  0  0  0
    6.6768    0.2212   -0.2305 C   0  0  0  0  0  0  0  0  0  0  0  0
    6.9174   -0.4760    0.9527 C   0  0  0  0  0  0  0  0  0  0  0  0
    5.8514   -1.0337    1.6553 C   0  0  0  0  0  0  0  0  0  0  0  0
    4.5489   -0.8787    1.1830 C   0  0  0  0  0  0  0  0  0  0  0  0
    3.5701   -1.5238    1.8331 F   0  0  0  0  0  0  0  0  0  0  0  0
    0.8156   -0.3927   -1.4559 H   0  0  0  0  0  0  0  0  0  0  0  0
   -4.7934    1.0387    1.8147 H   0  0  0  0  0  0  0  0  0  0  0  0
   -7.2528    0.9391    1.5738 H   0  0  0  0  0  0  0  0  0  0  0  0
   -6.8355   -0.7201   -2.3489 H   0  0  0  0  0  0  0  0  0  0  0  0
   -4.3868   -0.6421   -2.1579 H   0  0  0  0  0  0  0  0  0  0  0  0
    2.9395    0.4948   -1.4152 H   0  0  0  0  0  0  0  0  0  0  0  0
    5.2114    0.9292   -1.6250 H   0  0  0  0  0  0  0  0  0  0  0  0
    7.5088    0.6492   -0.7850 H   0  0  0  0  0  0  0  0  0  0  0  0
    7.9334   -0.5954    1.3207 H   0  0  0  0  0  0  0  0  0  0  0  0
    6.0219   -1.6037    2.5634 H   0  0  0  0  0  0  0  0  0  0  0  0
  1  2  2  0
  2  3  1  0
  3  4  1  0
  4  5  2  0
  5  6  1  0
  6  7  2  0
  7  8  1  0
  8  9  2  0
  9 10  1  0
 10 11  2  0
 11 12  1  0
 11 13  1  0
 13 14  2  0
  7 15  1  0
  2 16  1  0
 16 17  1  0
 17 18  2  0
 18 19  1  0
 19 20  2  0
 20 21  1  0
 21 22  2  0
 22 23  1  0
 15  4  1  0
 22 17  1  0
 14  8  1  0
  3 24  1  0
  9 25  1  0
 10 26  1  0
 13 27  1  0
 14 28  1  0
 16 29  1  0
 18 30  1  0
 19 31  1  0
 20 32  1  0
 21 33  1  0
M  END
$$$$
