
     RDKit          3D

 53 55  0  0  0  0  0  0  0  0999 V2000
   -4.9404   -0.1620    5.2316 C   0  0  0  0  0  0  0  0  0  0  0  0
   -3.6404   -0.1757    4.6563 O   0  0  0  0  0  0  0  0  0  0  0  0
   -3.4921   -0.8421    3.4717 C   0  0  0  0  0  0  0  0  0  0  0  0
   -4.5124   -1.4593    2.7445 C   0  0  0  0  0  0  0  0  0  0  0  0
   -4.2245   -2.1109    1.5398 C   0  0  0  0  0  0  0  0  0  0  0  0
   -2.9112   -2.1425    1.0680 C   0  0  0  0  0  0  0  0  0  0  0  0
   -2.5320   -2.9624   -0.4576 S   0  0  0  0  0  6  0  0  0  0  0  0
   -3.7705   -3.3822   -1.0783 O   0  0  0  0  0  0  0  0  0  0  0  0
   -1.4685   -3.9060   -0.1898 O   0  0  0  0  0  0  0  0  0  0  0  0
   -1.8932   -1.7228   -1.3978 N   0  0  0  0  0  0  0  0  0  0  0  0
   -2.7563   -0.5818   -1.7218 C   0  0  0  0  0  0  0  0  0  0  0  0
   -1.9823    0.0649   -2.8481 C   0  0  0  0  0  0  0  0  0  0  0  0
   -1.4116   -1.0206   -3.5836 O   0  0  0  0  0  0  0  0  0  0  0  0
   -1.3460   -2.1627   -2.7059 C   0  0  0  0  0  0  0  0  0  0  0  0
    0.1104   -2.6736   -2.5933 C   0  0  0  0  0  0  0  0  0  0  0  0
    0.8924   -1.9875   -1.5756 N   0  0  0  0  0  0  0  0  0  0  0  0
    1.5030   -0.7799   -1.8048 C   0  0  0  0  0  0  0  0  0  0  0  0
    1.6907   -0.2455   -2.8878 O   0  0  0  0  0  0  0  0  0  0  0  0
    1.9574   -0.0680   -0.5107 C   0  0  0  0  0  0  0  0  0  0  0  0
    1.5342   -0.4357    0.5759 O   0  0  0  0  0  0  0  0  0  0  0  0
    2.8238    0.9739   -0.7331 N   0  0  0  0  0  0  0  0  0  0  0  0
    3.2279    1.8584    0.3260 C   0  0  0  0  0  0  0  0  0  0  0  0
    4.3708    2.7326   -0.1151 C   0  0  0  0  0  0  0  0  0  0  0  0
    4.1306    4.0113   -0.6430 C   0  0  0  0  0  0  0  0  0  0  0  0
    5.1926    4.8044   -1.0822 C   0  0  0  0  0  0  0  0  0  0  0  0
    6.4915    4.3182   -1.0000 C   0  0  0  0  0  0  0  0  0  0  0  0
    7.5086    5.0786   -1.4267 F   0  0  0  0  0  0  0  0  0  0  0  0
    6.7499    3.0522   -0.4884 C   0  0  0  0  0  0  0  0  0  0  0  0
    5.6900    2.2570   -0.0491 C   0  0  0  0  0  0  0  0  0  0  0  0
   -1.8825   -1.5298    1.7868 C   0  0  0  0  0  0  0  0  0  0  0  0
   -2.1812   -0.8799    2.9855 C   0  0  0  0  0  0  0  0  0  0  0  0
   -5.6480    0.3728    4.5899 H   0  0  0  0  0  0  0  0  0  0  0  0
   -4.8796    0.3780    6.1823 H   0  0  0  0  0  0  0  0  0  0  0  0
   -5.2893   -1.1781    5.4465 H   0  0  0  0  0  0  0  0  0  0  0  0
   -5.5411   -1.4541    3.0881 H   0  0  0  0  0  0  0  0  0  0  0  0
   -5.0271   -2.5937    0.9859 H   0  0  0  0  0  0  0  0  0  0  0  0
   -3.7333   -0.9222   -2.0822 H   0  0  0  0  0  0  0  0  0  0  0  0
   -2.8873    0.1016   -0.8802 H   0  0  0  0  0  0  0  0  0  0  0  0
   -1.1638    0.6849   -2.4664 H   0  0  0  0  0  0  0  0  0  0  0  0
   -2.6107    0.6741   -3.5029 H   0  0  0  0  0  0  0  0  0  0  0  0
   -1.9741   -2.9307   -3.1721 H   0  0  0  0  0  0  0  0  0  0  0  0
    0.6210   -2.5734   -3.5568 H   0  0  0  0  0  0  0  0  0  0  0  0
    0.1122   -3.7300   -2.3076 H   0  0  0  0  0  0  0  0  0  0  0  0
    0.6898   -2.2082   -0.6041 H   0  0  0  0  0  0  0  0  0  0  0  0
    2.9771    1.2357   -1.7041 H   0  0  0  0  0  0  0  0  0  0  0  0
    3.5055    1.2705    1.2085 H   0  0  0  0  0  0  0  0  0  0  0  0
    2.3610    2.4649    0.6109 H   0  0  0  0  0  0  0  0  0  0  0  0
    3.1157    4.3952   -0.7178 H   0  0  0  0  0  0  0  0  0  0  0  0
    5.0155    5.7950   -1.4902 H   0  0  0  0  0  0  0  0  0  0  0  0
    7.7718    2.6909   -0.4404 H   0  0  0  0  0  0  0  0  0  0  0  0
    5.8948    1.2610    0.3402 H   0  0  0  0  0  0  0  0  0  0  0  0
   -0.8562   -1.5538    1.4287 H   0  0  0  0  0  0  0  0  0  0  0  0
   -1.3830   -0.4030    3.5504 H   0  0  0  0  0  0  0  0  0  0  0  0
  1  2  1  0
  2  3  1  0
  3  4  2  0
  4  5  1  0
  5  6  2  0
  6  7  1  0
  7  8  2  0
  7  9  2  0
  7 10  1  0
 10 11  1  0
 11 12  1  0
 12 13  1  0
 13 14  1  0
 14 15  1  0
 15 16  1  0
 16 17  1  0
 17 18  2  0
 17 19  1  0
 19 20  2  0
 19 21  1  0
 21 22  1  0
 22 23  1  0
 23 24  2  0
 24 25  1  0
 25 26  2  0
 26 27  1  0
 26 28  1  0
 28 29  2  0
  6 30  1  0
 30 31  2  0
 31  3  1  0
 14 10  1  0
 29 23  1  0
  1 32  1  0
  1 33  1  0
  1 34  1  0
  4 35  1  0
  5 36  1  0
 11 37  1  0
 11 38  1  0
 12 39  1  0
 12 40  1  0
 14 41  1  0
 15 42  1  0
 15 43  1  0
 16 44  1  0
 21 45  1  0
 22 46  1  0
 22 47  1  0
 24 48  1  0
 25 49  1  0
 28 50  1  0
 29 51  1  0
 30 52  1  0
 31 53  1  0
M  END
$$$$
