
     RDKit          3D

 36 37  0  0  0  0  0  0  0  0999 V2000
   -3.1659   -2.9367    0.7276 C   0  0  0  0  0  0  0  0  0  0  0  0
   -2.3518   -1.8522    1.4052 C   0  0  0  0  0  0  0  0  0  0  0  0
   -2.0999   -0.8181    0.4455 O   0  0  0  0  0  0  0  0  0  0  0  0
   -1.3487    0.2079    0.9143 C   0  0  0  0  0  0  0  0  0  0  0  0
   -0.8989    0.3039    2.0474 O   0  0  0  0  0  0  0  0  0  0  0  0
   -1.0923    1.2132   -0.1523 C   0  0  0  0  0  0  0  0  0  0  0  0
   -1.8329    1.1978   -1.3464 C   0  0  0  0  0  0  0  0  0  0  0  0
   -1.5875    2.1450   -2.3423 C   0  0  0  0  0  0  0  0  0  0  0  0
   -0.6061    3.1146   -2.1545 C   0  0  0  0  0  0  0  0  0  0  0  0
    0.1333    3.1410   -0.9716 C   0  0  0  0  0  0  0  0  0  0  0  0
   -0.1013    2.1974    0.0335 C   0  0  0  0  0  0  0  0  0  0  0  0
    0.7116    2.2444    1.2164 N   0  0  0  0  0  0  0  0  0  0  0  0
    2.3438    1.7952    1.0918 S   0  0  0  0  0  6  0  0  0  0  0  0
    2.8410    1.7243    2.4516 O   0  0  0  0  0  0  0  0  0  0  0  0
    3.0076    2.6337    0.1184 O   0  0  0  0  0  0  0  0  0  0  0  0
    2.2692    0.1383    0.4827 C   0  0  0  0  0  0  0  0  0  0  0  0
    2.2044   -0.9267    1.3907 C   0  0  0  0  0  0  0  0  0  0  0  0
    2.1566   -2.2392    0.9173 C   0  0  0  0  0  0  0  0  0  0  0  0
    2.1839   -2.4877   -0.4552 C   0  0  0  0  0  0  0  0  0  0  0  0
    2.2620   -1.4237   -1.3544 C   0  0  0  0  0  0  0  0  0  0  0  0
    2.3103   -0.1135   -0.8824 C   0  0  0  0  0  0  0  0  0  0  0  0
    2.3605    0.8759   -1.7822 F   0  0  0  0  0  0  0  0  0  0  0  0
   -3.3856   -3.7517    1.4228 H   0  0  0  0  0  0  0  0  0  0  0  0
   -2.6254   -3.3425   -0.1340 H   0  0  0  0  0  0  0  0  0  0  0  0
   -4.1096   -2.5305    0.3488 H   0  0  0  0  0  0  0  0  0  0  0  0
   -2.9128   -1.4404    2.2515 H   0  0  0  0  0  0  0  0  0  0  0  0
   -1.4020   -2.2692    1.7587 H   0  0  0  0  0  0  0  0  0  0  0  0
   -2.6085    0.4543   -1.5157 H   0  0  0  0  0  0  0  0  0  0  0  0
   -2.1622    2.1268   -3.2657 H   0  0  0  0  0  0  0  0  0  0  0  0
   -0.4096    3.8516   -2.9299 H   0  0  0  0  0  0  0  0  0  0  0  0
    0.8983    3.9044   -0.8410 H   0  0  0  0  0  0  0  0  0  0  0  0
    0.2938    1.7896    2.0407 H   0  0  0  0  0  0  0  0  0  0  0  0
    2.1845   -0.7427    2.4636 H   0  0  0  0  0  0  0  0  0  0  0  0
    2.1032   -3.0679    1.6203 H   0  0  0  0  0  0  0  0  0  0  0  0
    2.1503   -3.5103   -0.8243 H   0  0  0  0  0  0  0  0  0  0  0  0
    2.2870   -1.6063   -2.4250 H   0  0  0  0  0  0  0  0  0  0  0  0
  1  2  1  0
  2  3  1  0
  3  4  1  0
  4  5  2  0
  4  6  1  0
  6  7  2  0
  7  8  1  0
  8  9  2  0
  9 10  1  0
 10 11  2  0
 11 12  1  0
 12 13  1  0
 13 14  2  0
 13 15  2  0
 13 16  1  0
 16 17  2  0
 17 18  1  0
 18 19  2  0
 19 20  1  0
 20 21  2  0
 21 22  1  0
 11  6  1  0
 21 16  1  0
  1 23  1  0
  1 24  1  0
  1 25  1  0
  2 26  1  0
  2 27  1  0
  7 28  1  0
  8 29  1  0
  9 30  1  0
 10 31  1  0
 12 32  1  0
 17 33  1  0
 18 34  1  0
 19 35  1  0
 20 36  1  0
M  END
$$$$
