
     RDKit          3D

 54 57  0  0  0  0  0  0  0  0999 V2000
   -6.2146   -0.5860   -0.3711 C   0  0  0  0  0  0  0  0  0  0  0  0
   -5.8557    0.7840   -0.4875 O   0  0  0  0  0  0  0  0  0  0  0  0
   -4.5209    1.0920   -0.4307 C   0  0  0  0  0  0  0  0  0  0  0  0
   -3.4832    0.1549   -0.3440 C   0  0  0  0  0  0  0  0  0  0  0  0
   -2.1269    0.5450   -0.2859 C   0  0  0  0  0  0  0  0  0  0  0  0
   -1.0613   -0.4734   -0.2034 C   0  0  0  0  0  0  0  0  0  0  0  0
    0.1056   -0.2873    0.5152 C   0  0  0  0  0  0  0  0  0  0  0  0
    1.0513   -1.3128    0.5202 C   0  0  0  0  0  0  0  0  0  0  0  0
    2.3005   -1.0447    1.2658 C   0  0  0  0  0  0  0  0  0  0  0  0
    2.2121   -0.8045    2.4622 O   0  0  0  0  0  0  0  0  0  0  0  0
    3.4338   -1.0458    0.4752 N   0  0  0  0  0  0  0  0  0  0  0  0
    4.7635   -0.8303    0.8903 C   0  0  0  0  0  0  0  0  0  0  0  0
    5.7545   -0.8465   -0.1019 C   0  0  0  0  0  0  0  0  0  0  0  0
    7.0992   -0.6459    0.2256 C   0  0  0  0  0  0  0  0  0  0  0  0
    7.4523   -0.4295    1.5517 C   0  0  0  0  0  0  0  0  0  0  0  0
    8.7484   -0.2281    1.9201 O   0  0  0  0  0  0  0  0  0  0  0  0
    6.4843   -0.4129    2.5470 C   0  0  0  0  0  0  0  0  0  0  0  0
    5.1401   -0.6135    2.2174 C   0  0  0  0  0  0  0  0  0  0  0  0
    0.8195   -2.5311   -0.1514 C   0  0  0  0  0  0  0  0  0  0  0  0
    1.6960   -3.6471   -0.1448 C   0  0  0  0  0  0  0  0  0  0  0  0
    1.3835   -4.8091   -0.8474 C   0  0  0  0  0  0  0  0  0  0  0  0
    0.1938   -4.8772   -1.5578 C   0  0  0  0  0  0  0  0  0  0  0  0
   -0.6800   -3.7874   -1.5502 C   0  0  0  0  0  0  0  0  0  0  0  0
   -0.3948   -2.6199   -0.8546 C   0  0  0  0  0  0  0  0  0  0  0  0
   -1.2973   -1.6242   -0.8821 N   0  0  0  0  0  0  0  0  0  0  0  0
   -1.8382    1.9197   -0.3174 C   0  0  0  0  0  0  0  0  0  0  0  0
   -2.8632    2.8636   -0.3840 C   0  0  0  0  0  0  0  0  0  0  0  0
   -2.5054    4.1861   -0.4453 O   0  0  0  0  0  0  0  0  0  0  0  0
   -2.7363    4.8251    0.8119 C   0  0  0  0  0  0  0  0  0  0  0  0
   -4.1967    2.4539   -0.4748 C   0  0  0  0  0  0  0  0  0  0  0  0
   -5.1923    3.3985   -0.5520 O   0  0  0  0  0  0  0  0  0  0  0  0
   -5.4825    3.6809   -1.9214 C   0  0  0  0  0  0  0  0  0  0  0  0
   -5.8838   -1.0023    0.5861 H   0  0  0  0  0  0  0  0  0  0  0  0
   -7.3066   -0.6482   -0.4012 H   0  0  0  0  0  0  0  0  0  0  0  0
   -5.8257   -1.1686   -1.2132 H   0  0  0  0  0  0  0  0  0  0  0  0
   -3.7009   -0.9098   -0.3208 H   0  0  0  0  0  0  0  0  0  0  0  0
    0.2888    0.6242    1.0757 H   0  0  0  0  0  0  0  0  0  0  0  0
    3.2977   -1.1953   -0.5184 H   0  0  0  0  0  0  0  0  0  0  0  0
    5.4946   -1.0126   -1.1447 H   0  0  0  0  0  0  0  0  0  0  0  0
    7.8470   -0.6625   -0.5607 H   0  0  0  0  0  0  0  0  0  0  0  0
    9.3076   -0.2566    1.1269 H   0  0  0  0  0  0  0  0  0  0  0  0
    6.7700   -0.2451    3.5824 H   0  0  0  0  0  0  0  0  0  0  0  0
    4.4141   -0.5944    3.0232 H   0  0  0  0  0  0  0  0  0  0  0  0
    2.6225   -3.6280    0.4269 H   0  0  0  0  0  0  0  0  0  0  0  0
    2.0617   -5.6591   -0.8307 H   0  0  0  0  0  0  0  0  0  0  0  0
   -0.0665   -5.7779   -2.1087 H   0  0  0  0  0  0  0  0  0  0  0  0
   -1.6170   -3.8542   -2.0998 H   0  0  0  0  0  0  0  0  0  0  0  0
   -0.8120    2.2758   -0.3036 H   0  0  0  0  0  0  0  0  0  0  0  0
   -3.7611    4.6912    1.1747 H   0  0  0  0  0  0  0  0  0  0  0  0
   -2.5655    5.8976    0.6788 H   0  0  0  0  0  0  0  0  0  0  0  0
   -2.0240    4.4576    1.5584 H   0  0  0  0  0  0  0  0  0  0  0  0
   -5.8954    2.8034   -2.4281 H   0  0  0  0  0  0  0  0  0  0  0  0
   -6.2380    4.4715   -1.9469 H   0  0  0  0  0  0  0  0  0  0  0  0
   -4.5969    4.0459   -2.4513 H   0  0  0  0  0  0  0  0  0  0  0  0
  1  2  1  0
  2  3  1  0
  3  4  2  0
  4  5  1  0
  5  6  1  0
  6  7  2  0
  7  8  1  0
  8  9  1  0
  9 10  2  0
  9 11  1  0
 11 12  1  0
 12 13  2  0
 13 14  1  0
 14 15  2  0
 15 16  1  0
 15 17  1  0
 17 18  2  0
  8 19  2  0
 19 20  1  0
 20 21  2  0
 21 22  1  0
 22 23  2  0
 23 24  1  0
 24 25  2  0
  5 26  2  0
 26 27  1  0
 27 28  1  0
 28 29  1  0
 27 30  2  0
 30 31  1  0
 31 32  1  0
 30  3  1  0
 25  6  1  0
 18 12  1  0
 24 19  1  0
  1 33  1  0
  1 34  1  0
  1 35  1  0
  4 36  1  0
  7 37  1  0
 11 38  1  0
 13 39  1  0
 14 40  1  0
 16 41  1  0
 17 42  1  0
 18 43  1  0
 20 44  1  0
 21 45  1  0
 22 46  1  0
 23 47  1  0
 26 48  1  0
 29 49  1  0
 29 50  1  0
 29 51  1  0
 32 52  1  0
 32 53  1  0
 32 54  1  0
M  END
$$$$
