
     RDKit          3D

 54 57  0  0  0  0  0  0  0  0999 V2000
    6.0791    2.3457    2.3854 C   0  0  0  0  0  0  0  0  0  0  0  0
    6.6579    1.1714    1.5926 C   0  0  0  0  0  0  0  0  0  0  0  0
    7.4205    0.2149    2.5127 C   0  0  0  0  0  0  0  0  0  0  0  0
    5.5808    0.4498    0.8032 C   0  0  0  0  0  0  0  0  0  0  0  0
    4.5155   -0.2051    1.4335 C   0  0  0  0  0  0  0  0  0  0  0  0
    3.5354   -0.8607    0.6810 C   0  0  0  0  0  0  0  0  0  0  0  0
    3.5952   -0.8746   -0.7167 C   0  0  0  0  0  0  0  0  0  0  0  0
    2.5677   -1.5575   -1.3953 N   0  0  0  0  0  0  0  0  0  0  0  0
    2.3681   -1.6561   -2.7607 C   0  0  0  0  0  0  0  0  0  0  0  0
    3.0594   -1.1500   -3.6405 O   0  0  0  0  0  0  0  0  0  0  0  0
    1.1449   -2.5075   -3.1236 C   0  0  0  0  0  0  0  0  0  0  0  0
   -0.1049   -1.8428   -2.9251 O   0  0  0  0  0  0  0  0  0  0  0  0
   -0.5563   -1.8237   -1.6500 C   0  0  0  0  0  0  0  0  0  0  0  0
    0.0275   -2.2976   -0.6868 O   0  0  0  0  0  0  0  0  0  0  0  0
   -1.8695   -1.1314   -1.5585 C   0  0  0  0  0  0  0  0  0  0  0  0
   -2.4926   -0.5489   -2.6679 C   0  0  0  0  0  0  0  0  0  0  0  0
   -3.7296    0.0935   -2.5250 C   0  0  0  0  0  0  0  0  0  0  0  0
   -4.3667    0.1675   -1.2754 C   0  0  0  0  0  0  0  0  0  0  0  0
   -3.7372   -0.4146   -0.1853 C   0  0  0  0  0  0  0  0  0  0  0  0
   -2.4976   -1.0613   -0.3108 C   0  0  0  0  0  0  0  0  0  0  0  0
   -4.4777   -0.3631    1.3979 S   0  0  0  0  0  6  0  0  0  0  0  0
   -4.8327   -1.7300    1.7212 O   0  0  0  0  0  0  0  0  0  0  0  0
   -3.5872    0.4160    2.2341 O   0  0  0  0  0  0  0  0  0  0  0  0
   -5.9752    0.5310    1.2951 C   0  0  0  0  0  0  0  0  0  0  0  0
   -6.7117    0.7210    2.4726 C   0  0  0  0  0  0  0  0  0  0  0  0
   -7.9116    1.4266    2.4295 C   0  0  0  0  0  0  0  0  0  0  0  0
   -8.3692    1.9371    1.2172 C   0  0  0  0  0  0  0  0  0  0  0  0
   -7.6261    1.7418    0.0493 C   0  0  0  0  0  0  0  0  0  0  0  0
   -6.4139    1.0331    0.0777 C   0  0  0  0  0  0  0  0  0  0  0  0
   -5.6732    0.8623   -1.1942 C   0  0  0  0  0  0  0  0  0  0  0  0
   -6.1585    1.3170   -2.2268 O   0  0  0  0  0  0  0  0  0  0  0  0
    4.6537   -0.2256   -1.3492 C   0  0  0  0  0  0  0  0  0  0  0  0
    5.6362    0.4302   -0.5968 C   0  0  0  0  0  0  0  0  0  0  0  0
    6.8782    2.9044    2.8846 H   0  0  0  0  0  0  0  0  0  0  0  0
    5.3749    2.0124    3.1556 H   0  0  0  0  0  0  0  0  0  0  0  0
    5.5471    3.0394    1.7249 H   0  0  0  0  0  0  0  0  0  0  0  0
    7.3884    1.5880    0.8862 H   0  0  0  0  0  0  0  0  0  0  0  0
    7.8417   -0.6221    1.9446 H   0  0  0  0  0  0  0  0  0  0  0  0
    6.7769   -0.2024    3.2947 H   0  0  0  0  0  0  0  0  0  0  0  0
    8.2485    0.7348    3.0067 H   0  0  0  0  0  0  0  0  0  0  0  0
    4.4350   -0.2119    2.5180 H   0  0  0  0  0  0  0  0  0  0  0  0
    2.7228   -1.3570    1.2064 H   0  0  0  0  0  0  0  0  0  0  0  0
    1.8510   -1.9829   -0.8055 H   0  0  0  0  0  0  0  0  0  0  0  0
    1.1779   -3.4626   -2.5845 H   0  0  0  0  0  0  0  0  0  0  0  0
    1.2135   -2.7550   -4.1889 H   0  0  0  0  0  0  0  0  0  0  0  0
   -2.0313   -0.5805   -3.6534 H   0  0  0  0  0  0  0  0  0  0  0  0
   -4.1927    0.5401   -3.4057 H   0  0  0  0  0  0  0  0  0  0  0  0
   -2.0278   -1.5083    0.5659 H   0  0  0  0  0  0  0  0  0  0  0  0
   -6.3536    0.3209    3.4201 H   0  0  0  0  0  0  0  0  0  0  0  0
   -8.4897    1.5784    3.3385 H   0  0  0  0  0  0  0  0  0  0  0  0
   -9.3061    2.4889    1.1773 H   0  0  0  0  0  0  0  0  0  0  0  0
   -8.0039    2.1507   -0.8877 H   0  0  0  0  0  0  0  0  0  0  0  0
    4.7503   -0.2106   -2.4300 H   0  0  0  0  0  0  0  0  0  0  0  0
    6.4484    0.9271   -1.1237 H   0  0  0  0  0  0  0  0  0  0  0  0
  1  2  1  0
  2  3  1  0
  2  4  1  0
  4  5  2  0
  5  6  1  0
  6  7  2  0
  7  8  1  0
  8  9  1  0
  9 10  2  0
  9 11  1  0
 11 12  1  0
 12 13  1  0
 13 14  2  0
 13 15  1  0
 15 16  2  0
 16 17  1  0
 17 18  2  0
 18 19  1  0
 19 20  2  0
 19 21  1  0
 21 22  2  0
 21 23  2  0
 21 24  1  0
 24 25  2  0
 25 26  1  0
 26 27  2  0
 27 28  1  0
 28 29  2  0
 29 30  1  0
 30 31  2  0
  7 32  1  0
 32 33  2  0
 33  4  1  0
 20 15  1  0
 29 24  1  0
 30 18  1  0
  1 34  1  0
  1 35  1  0
  1 36  1  0
  2 37  1  0
  3 38  1  0
  3 39  1  0
  3 40  1  0
  5 41  1  0
  6 42  1  0
  8 43  1  0
 11 44  1  0
 11 45  1  0
 16 46  1  0
 17 47  1  0
 20 48  1  0
 25 49  1  0
 26 50  1  0
 27 51  1  0
 28 52  1  0
 32 53  1  0
 33 54  1  0
M  END
$$$$
