
     RDKit          3D

 47 49  0  0  0  0  0  0  0  0999 V2000
    8.1015   -0.9163   -0.4679 C   0  0  0  0  0  0  0  0  0  0  0  0
    6.7219   -1.2368   -1.0231 C   0  0  0  0  0  0  0  0  0  0  0  0
    5.6270   -0.5917   -0.2112 C   0  0  0  0  0  0  0  0  0  0  0  0
    5.0305   -1.2838    0.8528 C   0  0  0  0  0  0  0  0  0  0  0  0
    4.0332   -0.6755    1.6202 C   0  0  0  0  0  0  0  0  0  0  0  0
    3.6146    0.6261    1.3325 C   0  0  0  0  0  0  0  0  0  0  0  0
    2.6071    1.2289    2.0963 N   0  0  0  0  0  0  0  0  0  0  0  0
    1.3839    1.1190    1.7075 C   0  0  0  0  0  0  0  0  0  0  0  0
    0.9175    0.4670    0.6107 N   0  0  0  0  0  0  0  0  0  0  0  0
   -0.4308    0.4655    0.3936 C   0  0  0  0  0  0  0  0  0  0  0  0
   -0.9641   -0.1009   -0.5455 O   0  0  0  0  0  0  0  0  0  0  0  0
   -1.1164    1.2411    1.4693 C   0  0  0  0  0  0  0  0  0  0  0  0
   -2.4287    1.4722    1.6082 C   0  0  0  0  0  0  0  0  0  0  0  0
   -3.4694    0.9927    0.6965 C   0  0  0  0  0  0  0  0  0  0  0  0
   -4.1794   -0.1781    1.0061 C   0  0  0  0  0  0  0  0  0  0  0  0
   -5.1867   -0.6343    0.1528 C   0  0  0  0  0  0  0  0  0  0  0  0
   -5.9684   -1.7478    0.3469 O   0  0  0  0  0  0  0  0  0  0  0  0
   -5.6894   -2.5325    1.5022 C   0  0  0  0  0  0  0  0  0  0  0  0
   -5.4673    0.0856   -1.0166 C   0  0  0  0  0  0  0  0  0  0  0  0
   -6.4752   -0.3495   -1.8405 O   0  0  0  0  0  0  0  0  0  0  0  0
   -4.7438    1.2335   -1.3417 C   0  0  0  0  0  0  0  0  0  0  0  0
   -5.0107    1.9771   -2.4608 O   0  0  0  0  0  0  0  0  0  0  0  0
   -4.5035    1.3214   -3.6268 C   0  0  0  0  0  0  0  0  0  0  0  0
   -3.7597    1.7011   -0.4743 C   0  0  0  0  0  0  0  0  0  0  0  0
    0.0636    1.8359    2.5931 S   0  0  0  0  0  0  0  0  0  0  0  0
    4.2250    1.3279    0.2890 C   0  0  0  0  0  0  0  0  0  0  0  0
    5.2219    0.7234   -0.4816 C   0  0  0  0  0  0  0  0  0  0  0  0
    8.2047   -1.2661    0.5653 H   0  0  0  0  0  0  0  0  0  0  0  0
    8.8752   -1.4037   -1.0702 H   0  0  0  0  0  0  0  0  0  0  0  0
    8.2934    0.1616   -0.4782 H   0  0  0  0  0  0  0  0  0  0  0  0
    6.6529   -0.9014   -2.0648 H   0  0  0  0  0  0  0  0  0  0  0  0
    6.5756   -2.3226   -1.0442 H   0  0  0  0  0  0  0  0  0  0  0  0
    5.3459   -2.2972    1.0974 H   0  0  0  0  0  0  0  0  0  0  0  0
    3.5863   -1.2168    2.4515 H   0  0  0  0  0  0  0  0  0  0  0  0
    1.5278   -0.0177   -0.0277 H   0  0  0  0  0  0  0  0  0  0  0  0
   -2.8011    2.0523    2.4499 H   0  0  0  0  0  0  0  0  0  0  0  0
   -3.9309   -0.7101    1.9181 H   0  0  0  0  0  0  0  0  0  0  0  0
   -5.8816   -1.9646    2.4192 H   0  0  0  0  0  0  0  0  0  0  0  0
   -4.6640   -2.9202    1.4804 H   0  0  0  0  0  0  0  0  0  0  0  0
   -6.3682   -3.3928    1.4946 H   0  0  0  0  0  0  0  0  0  0  0  0
   -6.8470   -1.1339   -1.3940 H   0  0  0  0  0  0  0  0  0  0  0  0
   -4.9491    0.3327   -3.7810 H   0  0  0  0  0  0  0  0  0  0  0  0
   -3.4104    1.2426   -3.5781 H   0  0  0  0  0  0  0  0  0  0  0  0
   -4.7600    1.9355   -4.4946 H   0  0  0  0  0  0  0  0  0  0  0  0
   -3.2195    2.6080   -0.7256 H   0  0  0  0  0  0  0  0  0  0  0  0
    3.9280    2.3537    0.0795 H   0  0  0  0  0  0  0  0  0  0  0  0
    5.6879    1.2894   -1.2873 H   0  0  0  0  0  0  0  0  0  0  0  0
  1  2  1  0
  2  3  1  0
  3  4  2  0
  4  5  1  0
  5  6  2  0
  6  7  1  0
  7  8  2  3
  8  9  1  0
  9 10  1  0
 10 11  2  0
 10 12  1  0
 12 13  2  3
 13 14  1  0
 14 15  2  0
 15 16  1  0
 16 17  1  0
 17 18  1  0
 16 19  2  0
 19 20  1  0
 19 21  1  0
 21 22  1  0
 22 23  1  0
 21 24  2  0
 12 25  1  0
  6 26  1  0
 26 27  2  0
 27  3  1  0
 25  8  1  0
 24 14  1  0
  1 28  1  0
  1 29  1  0
  1 30  1  0
  2 31  1  0
  2 32  1  0
  4 33  1  0
  5 34  1  0
  9 35  1  0
 13 36  1  0
 15 37  1  0
 18 38  1  0
 18 39  1  0
 18 40  1  0
 20 41  1  0
 23 42  1  0
 23 43  1  0
 23 44  1  0
 24 45  1  0
 26 46  1  0
 27 47  1  0
M  END
$$$$
