
     RDKit          3D

 37 40  0  0  0  0  0  0  0  0999 V2000
   -3.0874    1.9122    2.0476 C   0  0  0  0  0  0  0  0  0  0  0  0
   -3.7455    0.9387    1.0863 C   0  0  0  0  0  0  0  0  0  0  0  0
   -2.8970    0.8096   -0.0524 O   0  0  0  0  0  0  0  0  0  0  0  0
   -3.2575   -0.1014   -1.0131 C   0  0  0  0  0  0  0  0  0  0  0  0
   -4.4637   -0.8088   -1.0271 C   0  0  0  0  0  0  0  0  0  0  0  0
   -4.7438   -1.7089   -2.0594 C   0  0  0  0  0  0  0  0  0  0  0  0
   -3.8255   -1.9073   -3.0871 C   0  0  0  0  0  0  0  0  0  0  0  0
   -2.6210   -1.2060   -3.0866 C   0  0  0  0  0  0  0  0  0  0  0  0
   -2.3288   -0.3050   -2.0535 C   0  0  0  0  0  0  0  0  0  0  0  0
   -1.0446    0.4082   -2.0953 C   0  0  0  0  0  0  0  0  0  0  0  0
    0.0159    0.1293   -1.3250 C   0  0  0  0  0  0  0  0  0  0  0  0
    0.1496   -1.1491   -0.1296 S   0  0  0  0  0  0  0  0  0  0  0  0
    1.7415   -0.6284    0.2348 C   0  0  0  0  0  0  0  0  0  0  0  0
    2.6765   -1.0111    1.0556 N   0  0  0  0  0  0  0  0  0  0  0  0
    3.6866   -0.1044    0.7610 C   0  0  0  0  0  0  0  0  0  0  0  0
    5.0663   -0.1356    1.4963 C   0  0  0  0  0  0  0  0  0  0  0  0
    5.4248   -1.0323    2.4848 C   0  0  0  0  0  0  0  0  0  0  0  0
    6.7478   -0.7068    2.8709 C   0  0  0  0  0  0  0  0  0  0  0  0
    7.1161    0.3670    2.0960 C   0  0  0  0  0  0  0  0  0  0  0  0
    6.1063    0.7206    1.2610 O   0  0  0  0  0  0  0  0  0  0  0  0
    3.3907    0.7951   -0.1993 N   0  0  0  0  0  0  0  0  0  0  0  0
    2.1365    0.4258   -0.5064 N   0  0  0  0  0  0  0  0  0  0  0  0
    1.2606    0.9491   -1.4329 C   0  0  0  0  0  0  0  0  0  0  0  0
    1.5151    1.8877   -2.1654 O   0  0  0  0  0  0  0  0  0  0  0  0
   -2.0984    1.5489    2.3466 H   0  0  0  0  0  0  0  0  0  0  0  0
   -3.6993    2.0496    2.9434 H   0  0  0  0  0  0  0  0  0  0  0  0
   -2.9376    2.8854    1.5685 H   0  0  0  0  0  0  0  0  0  0  0  0
   -4.7222    1.3353    0.7870 H   0  0  0  0  0  0  0  0  0  0  0  0
   -3.8668   -0.0292    1.5863 H   0  0  0  0  0  0  0  0  0  0  0  0
   -5.2123   -0.6800   -0.2526 H   0  0  0  0  0  0  0  0  0  0  0  0
   -5.6847   -2.2543   -2.0614 H   0  0  0  0  0  0  0  0  0  0  0  0
   -4.0479   -2.6068   -3.8891 H   0  0  0  0  0  0  0  0  0  0  0  0
   -1.9122   -1.3692   -3.8953 H   0  0  0  0  0  0  0  0  0  0  0  0
   -1.0070    1.2304   -2.8079 H   0  0  0  0  0  0  0  0  0  0  0  0
    4.7984   -1.8236    2.8738 H   0  0  0  0  0  0  0  0  0  0  0  0
    7.3568   -1.1933    3.6196 H   0  0  0  0  0  0  0  0  0  0  0  0
    8.0139    0.9647    2.0199 H   0  0  0  0  0  0  0  0  0  0  0  0
  1  2  1  0
  2  3  1  0
  3  4  1  0
  4  5  2  0
  5  6  1  0
  6  7  2  0
  7  8  1  0
  8  9  2  0
  9 10  1  0
 10 11  2  3
 11 12  1  0
 12 13  1  0
 13 14  2  0
 14 15  1  0
 15 16  1  0
 16 17  2  0
 17 18  1  0
 18 19  2  0
 19 20  1  0
 15 21  2  0
 21 22  1  0
 22 23  1  0
 23 24  2  0
  9  4  1  0
 23 11  1  0
 22 13  1  0
 20 16  1  0
  1 25  1  0
  1 26  1  0
  1 27  1  0
  2 28  1  0
  2 29  1  0
  5 30  1  0
  6 31  1  0
  7 32  1  0
  8 33  1  0
 10 34  1  0
 17 35  1  0
 18 36  1  0
 19 37  1  0
M  END
$$$$
