
     RDKit          3D

 36 37  0  0  0  0  0  0  0  0999 V2000
   -3.5168   -2.7245    1.1549 C   0  0  0  0  0  0  0  0  0  0  0  0
   -3.7408   -1.6998    0.0602 C   0  0  0  0  0  0  0  0  0  0  0  0
   -2.7515   -0.6714    0.2041 O   0  0  0  0  0  0  0  0  0  0  0  0
   -2.8156    0.2947   -0.7494 C   0  0  0  0  0  0  0  0  0  0  0  0
   -3.6674    0.3717   -1.6214 O   0  0  0  0  0  0  0  0  0  0  0  0
   -1.7459    1.3115   -0.5549 C   0  0  0  0  0  0  0  0  0  0  0  0
   -1.9368    2.5488   -1.1943 C   0  0  0  0  0  0  0  0  0  0  0  0
   -0.9998    3.5745   -1.0582 C   0  0  0  0  0  0  0  0  0  0  0  0
    0.1388    3.3760   -0.2829 C   0  0  0  0  0  0  0  0  0  0  0  0
    0.3461    2.1499    0.3498 C   0  0  0  0  0  0  0  0  0  0  0  0
   -0.5870    1.1143    0.2190 C   0  0  0  0  0  0  0  0  0  0  0  0
   -0.2577   -0.1381    0.8372 N   0  0  0  0  0  0  0  0  0  0  0  0
    0.5760   -1.2652   -0.1281 S   0  0  0  0  0  6  0  0  0  0  0  0
    0.2014   -1.0905   -1.5127 O   0  0  0  0  0  0  0  0  0  0  0  0
    0.3765   -2.5442    0.5256 O   0  0  0  0  0  0  0  0  0  0  0  0
    2.2640   -0.8241    0.1154 C   0  0  0  0  0  0  0  0  0  0  0  0
    2.9687   -1.3620    1.2001 C   0  0  0  0  0  0  0  0  0  0  0  0
    4.3167   -1.0440    1.3768 C   0  0  0  0  0  0  0  0  0  0  0  0
    4.9600   -0.2008    0.4700 C   0  0  0  0  0  0  0  0  0  0  0  0
    4.2556    0.3231   -0.6146 C   0  0  0  0  0  0  0  0  0  0  0  0
    2.9103    0.0053   -0.7913 C   0  0  0  0  0  0  0  0  0  0  0  0
    2.2688    0.5472   -1.8336 F   0  0  0  0  0  0  0  0  0  0  0  0
   -3.5864   -2.2557    2.1420 H   0  0  0  0  0  0  0  0  0  0  0  0
   -4.2542   -3.5296    1.0926 H   0  0  0  0  0  0  0  0  0  0  0  0
   -2.5141   -3.1572    1.0784 H   0  0  0  0  0  0  0  0  0  0  0  0
   -4.7413   -1.2644    0.1594 H   0  0  0  0  0  0  0  0  0  0  0  0
   -3.6392   -2.1777   -0.9206 H   0  0  0  0  0  0  0  0  0  0  0  0
   -2.8215    2.7179   -1.8068 H   0  0  0  0  0  0  0  0  0  0  0  0
   -1.1594    4.5257   -1.5610 H   0  0  0  0  0  0  0  0  0  0  0  0
    0.8709    4.1731   -0.1773 H   0  0  0  0  0  0  0  0  0  0  0  0
    1.2412    2.0105    0.9507 H   0  0  0  0  0  0  0  0  0  0  0  0
   -1.0631   -0.6287    1.2416 H   0  0  0  0  0  0  0  0  0  0  0  0
    2.4774   -2.0290    1.9061 H   0  0  0  0  0  0  0  0  0  0  0  0
    4.8675   -1.4595    2.2182 H   0  0  0  0  0  0  0  0  0  0  0  0
    6.0111    0.0440    0.6054 H   0  0  0  0  0  0  0  0  0  0  0  0
    4.7475    0.9781   -1.3280 H   0  0  0  0  0  0  0  0  0  0  0  0
  1  2  1  0
  2  3  1  0
  3  4  1  0
  4  5  2  0
  4  6  1  0
  6  7  2  0
  7  8  1  0
  8  9  2  0
  9 10  1  0
 10 11  2  0
 11 12  1  0
 12 13  1  0
 13 14  2  0
 13 15  2  0
 13 16  1  0
 16 17  2  0
 17 18  1  0
 18 19  2  0
 19 20  1  0
 20 21  2  0
 21 22  1  0
 11  6  1  0
 21 16  1  0
  1 23  1  0
  1 24  1  0
  1 25  1  0
  2 26  1  0
  2 27  1  0
  7 28  1  0
  8 29  1  0
  9 30  1  0
 10 31  1  0
 12 32  1  0
 17 33  1  0
 18 34  1  0
 19 35  1  0
 20 36  1  0
M  END
$$$$
