
     RDKit          3D

 56 61  0  0  0  0  0  0  0  0999 V2000
   -5.0050   -3.0715    1.2669 C   0  0  0  0  0  0  0  0  0  0  0  0
   -3.9283   -2.0769    1.5809 C   0  0  0  0  0  0  0  0  0  0  0  0
   -4.0409   -1.1868    2.6659 C   0  0  0  0  0  0  0  0  0  0  0  0
   -5.4334   -1.1985    3.6946 Cl  0  0  0  0  0  0  0  0  0  0  0  0
   -3.0312   -0.2495    2.9622 C   0  0  0  0  0  0  0  0  0  0  0  0
   -1.8771   -0.1706    2.1825 C   0  0  0  0  0  0  0  0  0  0  0  0
   -1.7572   -1.0381    1.1079 C   0  0  0  0  0  0  0  0  0  0  0  0
   -2.7680   -1.9698    0.8231 C   0  0  0  0  0  0  0  0  0  0  0  0
   -2.4112   -2.7192   -0.2964 N   0  0  0  0  0  0  0  0  0  0  0  0
   -1.1742   -2.3273   -0.8152 C   0  0  0  0  0  0  0  0  0  0  0  0
   -0.6558   -2.8166   -1.8086 O   0  0  0  0  0  0  0  0  0  0  0  0
   -0.6471   -1.1961    0.1057 C   0  0  0  0  0  0  0  0  0  0  0  0
    0.6850   -1.5386    0.7078 N   0  0  0  0  0  0  0  0  0  0  0  0
    1.7527   -0.7342   -0.0001 C   0  0  2  0  0  0  0  0  0  0  0  0
    2.8295   -0.1882    0.9564 C   0  0  0  0  0  0  0  0  0  0  0  0
    3.6168   -1.2569    1.6799 C   0  0  0  0  0  0  0  0  0  0  0  0
    4.4867   -2.1002    0.9748 C   0  0  0  0  0  0  0  0  0  0  0  0
    5.2144   -3.0860    1.6432 C   0  0  0  0  0  0  0  0  0  0  0  0
    5.0831   -3.2368    3.0220 C   0  0  0  0  0  0  0  0  0  0  0  0
    4.2251   -2.4012    3.7341 C   0  0  0  0  0  0  0  0  0  0  0  0
    3.4959   -1.4149    3.0675 C   0  0  0  0  0  0  0  0  0  0  0  0
    0.9614    0.3347   -0.6546 C   0  0  0  0  0  0  0  0  0  0  0  0
   -0.4048    0.0761   -0.5856 C   0  0  0  0  0  0  0  0  0  0  0  0
   -1.0776    1.0648   -1.2519 C   0  0  0  0  0  0  0  0  0  0  0  0
   -2.3800    1.1354   -1.5222 O   0  0  0  0  0  0  0  0  0  0  0  0
   -0.1125    1.9876   -1.6970 N   0  0  0  0  0  0  0  0  0  0  0  0
   -0.3770    3.1830   -2.4265 C   0  0  0  0  0  0  0  0  0  0  0  0
    0.4686    3.5667   -3.4758 C   0  0  0  0  0  0  0  0  0  0  0  0
    0.2044    4.7371   -4.1891 C   0  0  0  0  0  0  0  0  0  0  0  0
   -0.8972    5.5253   -3.8577 C   0  0  0  0  0  0  0  0  0  0  0  0
   -1.7406    5.1453   -2.8144 C   0  0  0  0  0  0  0  0  0  0  0  0
   -1.4858    3.9745   -2.0983 C   0  0  0  0  0  0  0  0  0  0  0  0
    1.1567    1.5257   -1.2992 C   0  0  0  0  0  0  0  0  0  0  0  0
    2.3001    2.1858   -1.4756 O   0  0  0  0  0  0  0  0  0  0  0  0
   -5.1696   -3.7368    2.1209 H   0  0  0  0  0  0  0  0  0  0  0  0
   -4.7541   -3.7062    0.4128 H   0  0  0  0  0  0  0  0  0  0  0  0
   -5.9389   -2.5549    1.0225 H   0  0  0  0  0  0  0  0  0  0  0  0
   -3.1494    0.4266    3.8064 H   0  0  0  0  0  0  0  0  0  0  0  0
   -1.1054    0.5590    2.4067 H   0  0  0  0  0  0  0  0  0  0  0  0
   -2.9564   -3.4479   -0.7287 H   0  0  0  0  0  0  0  0  0  0  0  0
    0.6702   -1.2301    1.6758 H   0  0  0  0  0  0  0  0  0  0  0  0
    2.2025   -1.3761   -0.7672 H   0  0  0  0  0  0  0  0  0  0  0  0
    2.3698    0.4903    1.6887 H   0  0  0  0  0  0  0  0  0  0  0  0
    3.5425    0.4331    0.3978 H   0  0  0  0  0  0  0  0  0  0  0  0
    4.6021   -1.9962   -0.1019 H   0  0  0  0  0  0  0  0  0  0  0  0
    5.8821   -3.7378    1.0861 H   0  0  0  0  0  0  0  0  0  0  0  0
    5.6486   -4.0060    3.5408 H   0  0  0  0  0  0  0  0  0  0  0  0
    4.1228   -2.5185    4.8096 H   0  0  0  0  0  0  0  0  0  0  0  0
    2.8327   -0.7720    3.6409 H   0  0  0  0  0  0  0  0  0  0  0  0
   -2.5092    1.6855   -2.3159 H   0  0  0  0  0  0  0  0  0  0  0  0
    1.3072    2.9452   -3.7858 H   0  0  0  0  0  0  0  0  0  0  0  0
    0.8516    5.0293   -5.0131 H   0  0  0  0  0  0  0  0  0  0  0  0
   -1.0999    6.4367   -4.4154 H   0  0  0  0  0  0  0  0  0  0  0  0
   -2.5935    5.7676   -2.5532 H   0  0  0  0  0  0  0  0  0  0  0  0
   -2.1364    3.7222   -1.2627 H   0  0  0  0  0  0  0  0  0  0  0  0
    2.1054    3.1227   -1.6557 H   0  0  0  0  0  0  0  0  0  0  0  0
  1  2  1  0
  2  3  2  0
  3  4  1  0
  3  5  1  0
  5  6  2  0
  6  7  1  0
  7  8  2  0
  8  9  1  0
  9 10  1  0
 10 11  2  0
 10 12  1  0
 12 13  1  0
 13 14  1  0
 14 15  1  0
 15 16  1  0
 16 17  2  0
 17 18  1  0
 18 19  2  0
 19 20  1  0
 20 21  2  0
 14 22  1  0
 22 23  1  0
 23 24  2  0
 24 25  1  0
 24 26  1  0
 26 27  1  0
 27 28  2  0
 28 29  1  0
 29 30  2  0
 30 31  1  0
 31 32  2  0
 26 33  1  0
 33 34  1  0
  8  2  1  0
 23 12  1  0
 32 27  1  0
 12  7  1  0
 21 16  1  0
 33 22  2  0
  1 35  1  0
  1 36  1  0
  1 37  1  0
  5 38  1  0
  6 39  1  0
  9 40  1  0
 13 41  1  0
 14 42  1  6
 15 43  1  0
 15 44  1  0
 17 45  1  0
 18 46  1  0
 19 47  1  0
 20 48  1  0
 21 49  1  0
 25 50  1  0
 28 51  1  0
 29 52  1  0
 30 53  1  0
 31 54  1  0
 32 55  1  0
 34 56  1  0
M  END
$$$$
