
     RDKit          3D

 61 65  0  0  0  0  0  0  0  0999 V2000
   -8.1530    3.5703   -1.0928 C   0  0  0  0  0  0  0  0  0  0  0  0
   -7.1457    2.4827   -0.8635 C   0  0  0  0  0  0  0  0  0  0  0  0
   -5.7813    2.7741   -0.7973 C   0  0  0  0  0  0  0  0  0  0  0  0
   -4.8433    1.7506   -0.6137 C   0  0  0  0  0  0  0  0  0  0  0  0
   -5.2372    0.4054   -0.4959 C   0  0  0  0  0  0  0  0  0  0  0  0
   -4.2634   -0.6889   -0.2933 C   0  0  0  0  0  0  0  0  0  0  0  0
   -3.0706   -0.5218    0.3897 C   0  0  0  0  0  0  0  0  0  0  0  0
   -2.2214   -1.6222    0.5280 C   0  0  0  0  0  0  0  0  0  0  0  0
   -0.9501   -1.4119    1.2590 C   0  0  0  0  0  0  0  0  0  0  0  0
   -0.7522   -2.0471    2.2852 O   0  0  0  0  0  0  0  0  0  0  0  0
   -0.1154   -0.4869    0.6600 N   0  0  0  0  0  0  0  0  0  0  0  0
    1.1330   -0.0329    1.1326 C   0  0  0  0  0  0  0  0  0  0  0  0
    1.6882   -0.4183    2.3565 C   0  0  0  0  0  0  0  0  0  0  0  0
    2.9284    0.0835    2.7653 C   0  0  0  0  0  0  0  0  0  0  0  0
    3.6221    0.9701    1.9391 C   0  0  0  0  0  0  0  0  0  0  0  0
    5.1804    1.6356    2.4811 S   0  0  0  0  0  6  0  0  0  0  0  0
    5.4160    2.8702    1.7641 O   0  0  0  0  0  0  0  0  0  0  0  0
    5.1734    1.6072    3.9287 O   0  0  0  0  0  0  0  0  0  0  0  0
    6.3004    0.4668    1.9826 N   0  0  0  0  0  0  0  0  0  0  0  0
    6.3105    0.2357    0.5473 C   0  0  0  0  0  0  0  0  0  0  0  0
    5.6973   -0.8194   -0.0496 O   0  0  0  0  0  0  0  0  0  0  0  0
    5.8801   -0.7459   -1.4188 N   0  0  0  0  0  0  0  0  0  0  0  0
    6.6380    0.3388   -1.6252 C   0  0  0  0  0  0  0  0  0  0  0  0
    7.0368    0.7214   -3.0030 C   0  0  0  0  0  0  0  0  0  0  0  0
    6.9580    0.9947   -0.4027 C   0  0  0  0  0  0  0  0  0  0  0  0
    7.7838    2.2100   -0.2183 C   0  0  0  0  0  0  0  0  0  0  0  0
    3.0725    1.3817    0.7240 C   0  0  0  0  0  0  0  0  0  0  0  0
    1.8340    0.8723    0.3226 C   0  0  0  0  0  0  0  0  0  0  0  0
   -2.5680   -2.8852    0.0077 C   0  0  0  0  0  0  0  0  0  0  0  0
   -1.7703   -4.0531    0.1093 C   0  0  0  0  0  0  0  0  0  0  0  0
   -2.1918   -5.2604   -0.4445 C   0  0  0  0  0  0  0  0  0  0  0  0
   -3.4093   -5.3184   -1.1070 C   0  0  0  0  0  0  0  0  0  0  0  0
   -4.1959   -4.1687   -1.2102 C   0  0  0  0  0  0  0  0  0  0  0  0
   -3.7993   -2.9539   -0.6663 C   0  0  0  0  0  0  0  0  0  0  0  0
   -4.6113   -1.8922   -0.8133 N   0  0  0  0  0  0  0  0  0  0  0  0
   -6.6135    0.1313   -0.5896 C   0  0  0  0  0  0  0  0  0  0  0  0
   -7.5546    1.1505   -0.7726 C   0  0  0  0  0  0  0  0  0  0  0  0
   -9.0701    3.3738   -0.5292 H   0  0  0  0  0  0  0  0  0  0  0  0
   -8.3967    3.6372   -2.1570 H   0  0  0  0  0  0  0  0  0  0  0  0
   -7.7693    4.5397   -0.7600 H   0  0  0  0  0  0  0  0  0  0  0  0
   -5.4353    3.8011   -0.8920 H   0  0  0  0  0  0  0  0  0  0  0  0
   -3.7926    2.0264   -0.5851 H   0  0  0  0  0  0  0  0  0  0  0  0
   -2.8118    0.4293    0.8435 H   0  0  0  0  0  0  0  0  0  0  0  0
   -0.4068   -0.1225   -0.2391 H   0  0  0  0  0  0  0  0  0  0  0  0
    1.1733   -1.1005    3.0266 H   0  0  0  0  0  0  0  0  0  0  0  0
    3.3300   -0.2164    3.7308 H   0  0  0  0  0  0  0  0  0  0  0  0
    6.1827   -0.3858    2.5324 H   0  0  0  0  0  0  0  0  0  0  0  0
    6.6474    1.7165   -3.2468 H   0  0  0  0  0  0  0  0  0  0  0  0
    6.6503    0.0156   -3.7465 H   0  0  0  0  0  0  0  0  0  0  0  0
    8.1279    0.7450   -3.0941 H   0  0  0  0  0  0  0  0  0  0  0  0
    7.2142    3.1027   -0.4986 H   0  0  0  0  0  0  0  0  0  0  0  0
    8.6824    2.1688   -0.8445 H   0  0  0  0  0  0  0  0  0  0  0  0
    8.1125    2.3211    0.8198 H   0  0  0  0  0  0  0  0  0  0  0  0
    3.5971    2.0882    0.0842 H   0  0  0  0  0  0  0  0  0  0  0  0
    1.4267    1.1962   -0.6328 H   0  0  0  0  0  0  0  0  0  0  0  0
   -0.8162   -4.0312    0.6337 H   0  0  0  0  0  0  0  0  0  0  0  0
   -1.5727   -6.1495   -0.3525 H   0  0  0  0  0  0  0  0  0  0  0  0
   -3.7541   -6.2529   -1.5420 H   0  0  0  0  0  0  0  0  0  0  0  0
   -5.1499   -4.2227   -1.7311 H   0  0  0  0  0  0  0  0  0  0  0  0
   -6.9654   -0.8973   -0.5178 H   0  0  0  0  0  0  0  0  0  0  0  0
   -8.6091    0.8913   -0.8437 H   0  0  0  0  0  0  0  0  0  0  0  0
  1  2  1  0
  2  3  2  0
  3  4  1  0
  4  5  2  0
  5  6  1  0
  6  7  2  0
  7  8  1  0
  8  9  1  0
  9 10  2  0
  9 11  1  0
 11 12  1  0
 12 13  2  0
 13 14  1  0
 14 15  2  0
 15 16  1  0
 16 17  2  0
 16 18  2  0
 16 19  1  0
 19 20  1  0
 20 21  1  0
 21 22  1  0
 22 23  2  0
 23 24  1  0
 23 25  1  0
 25 26  1  0
 15 27  1  0
 27 28  2  0
  8 29  2  0
 29 30  1  0
 30 31  2  0
 31 32  1  0
 32 33  2  0
 33 34  1  0
 34 35  2  0
  5 36  1  0
 36 37  2  0
 37  2  1  0
 35  6  1  0
 28 12  1  0
 34 29  1  0
 25 20  2  0
  1 38  1  0
  1 39  1  0
  1 40  1  0
  3 41  1  0
  4 42  1  0
  7 43  1  0
 11 44  1  0
 13 45  1  0
 14 46  1  0
 19 47  1  0
 24 48  1  0
 24 49  1  0
 24 50  1  0
 26 51  1  0
 26 52  1  0
 26 53  1  0
 27 54  1  0
 28 55  1  0
 30 56  1  0
 31 57  1  0
 32 58  1  0
 33 59  1  0
 36 60  1  0
 37 61  1  0
M  END
$$$$
