
     RDKit          3D

 56 58  0  0  0  0  0  0  0  0999 V2000
    9.7834    1.7661   -0.7106 C   0  0  0  0  0  0  0  0  0  0  0  0
    9.2913    0.3375   -0.8682 C   0  0  0  0  0  0  0  0  0  0  0  0
    8.4005   -0.0090    0.1908 O   0  0  0  0  0  0  0  0  0  0  0  0
    7.0702    0.2695    0.0608 C   0  0  0  0  0  0  0  0  0  0  0  0
    6.4496    0.8850   -1.0230 C   0  0  0  0  0  0  0  0  0  0  0  0
    5.0651    1.1043   -1.0115 C   0  0  0  0  0  0  0  0  0  0  0  0
    4.2824    0.7192    0.0841 C   0  0  0  0  0  0  0  0  0  0  0  0
    2.8993    0.9880    0.0146 N   0  0  0  0  0  0  0  0  0  0  0  0
    1.9357    0.7008    0.9677 C   0  0  0  0  0  0  0  0  0  0  0  0
    2.1128    0.1211    2.0345 O   0  0  0  0  0  0  0  0  0  0  0  0
    0.5557    1.1631    0.5303 C   0  0  0  0  0  0  0  0  0  0  0  0
   -0.4742    1.0716    1.6515 C   0  0  0  0  0  0  0  0  0  0  0  0
   -0.7326   -0.3378    1.9949 N   0  0  0  0  0  0  0  0  0  0  0  0
   -2.0862   -0.6798    2.9336 S   0  0  0  0  0  6  0  0  0  0  0  0
   -1.8102   -1.9213    3.6207 O   0  0  0  0  0  0  0  0  0  0  0  0
   -2.4839    0.5164    3.6403 O   0  0  0  0  0  0  0  0  0  0  0  0
   -3.2989   -1.0274    1.6830 C   0  0  0  0  0  0  0  0  0  0  0  0
   -3.4628   -2.3325    1.2216 C   0  0  0  0  0  0  0  0  0  0  0  0
   -4.4466   -2.6120    0.2668 C   0  0  0  0  0  0  0  0  0  0  0  0
   -5.2770   -1.5955   -0.2357 C   0  0  0  0  0  0  0  0  0  0  0  0
   -5.0918   -0.2973    0.2396 C   0  0  0  0  0  0  0  0  0  0  0  0
   -4.1162   -0.0052    1.2047 C   0  0  0  0  0  0  0  0  0  0  0  0
   -5.9336    0.7881   -0.2851 C   0  0  0  0  0  0  0  0  0  0  0  0
   -5.7589    1.9309    0.1325 O   0  0  0  0  0  0  0  0  0  0  0  0
   -6.8788    0.4422   -1.2380 N   0  0  0  0  0  0  0  0  0  0  0  0
   -7.7338    1.4987   -1.7483 C   0  0  0  0  0  0  0  0  0  0  0  0
   -7.1298   -0.8507   -1.6805 C   0  0  0  0  0  0  0  0  0  0  0  0
   -8.0469   -1.0935   -2.4689 O   0  0  0  0  0  0  0  0  0  0  0  0
   -6.2964   -1.8532   -1.1907 N   0  0  0  0  0  0  0  0  0  0  0  0
   -6.5139   -3.2159   -1.6613 C   0  0  0  0  0  0  0  0  0  0  0  0
    4.9083    0.1083    1.1686 C   0  0  0  0  0  0  0  0  0  0  0  0
    6.2902   -0.1144    1.1524 C   0  0  0  0  0  0  0  0  0  0  0  0
   10.5367    2.0021   -1.4693 H   0  0  0  0  0  0  0  0  0  0  0  0
   10.2257    1.9082    0.2818 H   0  0  0  0  0  0  0  0  0  0  0  0
    8.9622    2.4841   -0.7988 H   0  0  0  0  0  0  0  0  0  0  0  0
    8.8639    0.1484   -1.8588 H   0  0  0  0  0  0  0  0  0  0  0  0
   10.1516   -0.3361   -0.7816 H   0  0  0  0  0  0  0  0  0  0  0  0
    7.0061    1.2141   -1.8934 H   0  0  0  0  0  0  0  0  0  0  0  0
    4.6144    1.5848   -1.8777 H   0  0  0  0  0  0  0  0  0  0  0  0
    2.5827    1.4421   -0.8334 H   0  0  0  0  0  0  0  0  0  0  0  0
    0.2442    0.5553   -0.3268 H   0  0  0  0  0  0  0  0  0  0  0  0
    0.6306    2.2075    0.2056 H   0  0  0  0  0  0  0  0  0  0  0  0
   -1.4002    1.5441    1.3071 H   0  0  0  0  0  0  0  0  0  0  0  0
   -0.1174    1.6015    2.5415 H   0  0  0  0  0  0  0  0  0  0  0  0
    0.0904   -0.8427    2.3476 H   0  0  0  0  0  0  0  0  0  0  0  0
   -2.8368   -3.1381    1.6018 H   0  0  0  0  0  0  0  0  0  0  0  0
   -4.5418   -3.6435   -0.0602 H   0  0  0  0  0  0  0  0  0  0  0  0
   -4.0032    1.0112    1.5782 H   0  0  0  0  0  0  0  0  0  0  0  0
   -8.0006    1.3136   -2.7929 H   0  0  0  0  0  0  0  0  0  0  0  0
   -8.6487    1.5188   -1.1477 H   0  0  0  0  0  0  0  0  0  0  0  0
   -7.2448    2.4754   -1.6840 H   0  0  0  0  0  0  0  0  0  0  0  0
   -7.3218   -3.2786   -2.3944 H   0  0  0  0  0  0  0  0  0  0  0  0
   -6.7828   -3.8547   -0.8144 H   0  0  0  0  0  0  0  0  0  0  0  0
   -5.6021   -3.5825   -2.1422 H   0  0  0  0  0  0  0  0  0  0  0  0
    4.3581   -0.2095    2.0487 H   0  0  0  0  0  0  0  0  0  0  0  0
    6.7614   -0.5908    2.0090 H   0  0  0  0  0  0  0  0  0  0  0  0
  1  2  1  0
  2  3  1  0
  3  4  1  0
  4  5  2  0
  5  6  1  0
  6  7  2  0
  7  8  1  0
  8  9  1  0
  9 10  2  0
  9 11  1  0
 11 12  1  0
 12 13  1  0
 13 14  1  0
 14 15  2  0
 14 16  2  0
 14 17  1  0
 17 18  2  0
 18 19  1  0
 19 20  2  0
 20 21  1  0
 21 22  2  0
 21 23  1  0
 23 24  2  0
 23 25  1  0
 25 26  1  0
 25 27  1  0
 27 28  2  0
 27 29  1  0
 29 30  1  0
  7 31  1  0
 31 32  2  0
 32  4  1  0
 22 17  1  0
 29 20  1  0
  1 33  1  0
  1 34  1  0
  1 35  1  0
  2 36  1  0
  2 37  1  0
  5 38  1  0
  6 39  1  0
  8 40  1  0
 11 41  1  0
 11 42  1  0
 12 43  1  0
 12 44  1  0
 13 45  1  0
 18 46  1  0
 19 47  1  0
 22 48  1  0
 26 49  1  0
 26 50  1  0
 26 51  1  0
 30 52  1  0
 30 53  1  0
 30 54  1  0
 31 55  1  0
 32 56  1  0
M  END
$$$$
