
     RDKit          3D

 57 59  0  0  0  0  0  0  0  0999 V2000
   11.5054   -0.2945   -1.9401 C   0  0  0  0  0  0  0  0  0  0  0  0
   10.4848    0.5804   -2.4056 O   0  0  0  0  0  0  0  0  0  0  0  0
    9.2413    0.4202   -1.8612 C   0  0  0  0  0  0  0  0  0  0  0  0
    8.2746    1.3078   -2.3385 C   0  0  0  0  0  0  0  0  0  0  0  0
    6.9568    1.2589   -1.8685 C   0  0  0  0  0  0  0  0  0  0  0  0
    6.5930    0.3168   -0.9089 C   0  0  0  0  0  0  0  0  0  0  0  0
    5.3518    0.1460   -0.3652 O   0  0  0  0  0  0  0  0  0  0  0  0
    4.3272    1.0993   -0.6658 C   0  0  0  0  0  0  0  0  0  0  0  0
    3.5586    0.7246   -1.9356 C   0  0  0  0  0  0  0  0  0  0  0  0
    2.5248   -0.7660   -1.7214 S   0  0  0  0  0  0  0  0  0  0  0  0
    1.1748   -0.1105   -0.8635 C   0  0  0  0  0  0  0  0  0  0  0  0
    1.0246    1.1341   -0.4769 N   0  0  0  0  0  0  0  0  0  0  0  0
   -0.1981    1.2357    0.1363 N   0  0  0  0  0  0  0  0  0  0  0  0
   -0.7800    0.0519    0.0980 C   0  0  0  0  0  0  0  0  0  0  0  0
   -2.1370   -0.2846    0.6172 C   0  0  0  0  0  0  0  0  0  0  0  0
   -3.0249    0.9578    0.7366 C   0  0  0  0  0  0  0  0  0  0  0  0
   -4.3378    0.6738    1.2986 N   0  0  0  0  0  0  0  0  0  0  0  0
   -5.2776   -0.0497    0.5906 C   0  0  0  0  0  0  0  0  0  0  0  0
   -5.0431   -0.5962   -0.4808 O   0  0  0  0  0  0  0  0  0  0  0  0
   -6.6422   -0.1147    1.1821 C   0  0  0  0  0  0  0  0  0  0  0  0
   -6.8558   -0.0475    2.5646 C   0  0  0  0  0  0  0  0  0  0  0  0
   -8.1566   -0.1160    3.0814 C   0  0  0  0  0  0  0  0  0  0  0  0
   -9.2482   -0.2586    2.2223 C   0  0  0  0  0  0  0  0  0  0  0  0
  -10.5612   -0.3337    2.5955 O   0  0  0  0  0  0  0  0  0  0  0  0
  -10.8379   -0.3412    3.9903 C   0  0  0  0  0  0  0  0  0  0  0  0
   -9.0293   -0.3367    0.8441 C   0  0  0  0  0  0  0  0  0  0  0  0
   -7.7345   -0.2722    0.3234 C   0  0  0  0  0  0  0  0  0  0  0  0
    0.0795   -0.8424   -0.4985 N   0  0  0  0  0  0  0  0  0  0  0  0
   -0.1314   -2.2520   -0.7076 C   0  0  0  0  0  0  0  0  0  0  0  0
    7.5597   -0.5747   -0.4365 C   0  0  0  0  0  0  0  0  0  0  0  0
    8.8776   -0.5255   -0.9049 C   0  0  0  0  0  0  0  0  0  0  0  0
   11.2641   -1.3401   -2.1625 H   0  0  0  0  0  0  0  0  0  0  0  0
   11.6903   -0.1498   -0.8697 H   0  0  0  0  0  0  0  0  0  0  0  0
   12.4281   -0.0444   -2.4736 H   0  0  0  0  0  0  0  0  0  0  0  0
    8.5494    2.0469   -3.0873 H   0  0  0  0  0  0  0  0  0  0  0  0
    6.2483    1.9659   -2.2845 H   0  0  0  0  0  0  0  0  0  0  0  0
    4.7371    2.1144   -0.7383 H   0  0  0  0  0  0  0  0  0  0  0  0
    3.6575    1.1258    0.2010 H   0  0  0  0  0  0  0  0  0  0  0  0
    2.9308    1.5596   -2.2628 H   0  0  0  0  0  0  0  0  0  0  0  0
    4.2538    0.5008   -2.7500 H   0  0  0  0  0  0  0  0  0  0  0  0
   -2.6131   -1.0159   -0.0439 H   0  0  0  0  0  0  0  0  0  0  0  0
   -2.0348   -0.7605    1.6005 H   0  0  0  0  0  0  0  0  0  0  0  0
   -3.1675    1.4322   -0.2429 H   0  0  0  0  0  0  0  0  0  0  0  0
   -2.5583    1.6958    1.4003 H   0  0  0  0  0  0  0  0  0  0  0  0
   -4.6717    1.3138    2.0063 H   0  0  0  0  0  0  0  0  0  0  0  0
   -6.0220    0.0312    3.2571 H   0  0  0  0  0  0  0  0  0  0  0  0
   -8.2817   -0.0602    4.1585 H   0  0  0  0  0  0  0  0  0  0  0  0
  -10.3714   -1.2024    4.4810 H   0  0  0  0  0  0  0  0  0  0  0  0
  -11.9209   -0.4334    4.1154 H   0  0  0  0  0  0  0  0  0  0  0  0
  -10.5267    0.5981    4.4597 H   0  0  0  0  0  0  0  0  0  0  0  0
   -9.8745   -0.4532    0.1687 H   0  0  0  0  0  0  0  0  0  0  0  0
   -7.5830   -0.3413   -0.7522 H   0  0  0  0  0  0  0  0  0  0  0  0
   -0.3121   -2.4216   -1.7713 H   0  0  0  0  0  0  0  0  0  0  0  0
    0.7548   -2.7983   -0.3728 H   0  0  0  0  0  0  0  0  0  0  0  0
   -0.9882   -2.5991   -0.1264 H   0  0  0  0  0  0  0  0  0  0  0  0
    7.2843   -1.3168    0.3094 H   0  0  0  0  0  0  0  0  0  0  0  0
    9.5885   -1.2379   -0.5008 H   0  0  0  0  0  0  0  0  0  0  0  0
  1  2  1  0
  2  3  1  0
  3  4  2  0
  4  5  1  0
  5  6  2  0
  6  7  1  0
  7  8  1  0
  8  9  1  0
  9 10  1  0
 10 11  1  0
 11 12  2  0
 12 13  1  0
 13 14  2  0
 14 15  1  0
 15 16  1  0
 16 17  1  0
 17 18  1  0
 18 19  2  0
 18 20  1  0
 20 21  2  0
 21 22  1  0
 22 23  2  0
 23 24  1  0
 24 25  1  0
 23 26  1  0
 26 27  2  0
 14 28  1  0
 28 29  1  0
  6 30  1  0
 30 31  2  0
 31  3  1  0
 28 11  1  0
 27 20  1  0
  1 32  1  0
  1 33  1  0
  1 34  1  0
  4 35  1  0
  5 36  1  0
  8 37  1  0
  8 38  1  0
  9 39  1  0
  9 40  1  0
 15 41  1  0
 15 42  1  0
 16 43  1  0
 16 44  1  0
 17 45  1  0
 21 46  1  0
 22 47  1  0
 25 48  1  0
 25 49  1  0
 25 50  1  0
 26 51  1  0
 27 52  1  0
 29 53  1  0
 29 54  1  0
 29 55  1  0
 30 56  1  0
 31 57  1  0
M  END
$$$$
