
     RDKit          3D

 57 60  0  0  0  0  0  0  0  0999 V2000
    9.5487   -0.0418    2.8327 C   0  0  0  0  0  0  0  0  0  0  0  0
    8.3906    0.6597    2.1510 C   0  0  0  0  0  0  0  0  0  0  0  0
    7.1970   -0.0710    2.4408 O   0  0  0  0  0  0  0  0  0  0  0  0
    6.1153    0.3408    1.7160 C   0  0  0  0  0  0  0  0  0  0  0  0
    5.3418   -0.6543    1.1241 C   0  0  0  0  0  0  0  0  0  0  0  0
    4.2123   -0.3161    0.3704 C   0  0  0  0  0  0  0  0  0  0  0  0
    3.8333    1.0180    0.2245 C   0  0  0  0  0  0  0  0  0  0  0  0
    2.7354    1.4566   -0.5475 N   0  0  0  0  0  0  0  0  0  0  0  0
    1.8769    0.6845   -1.3274 C   0  0  0  0  0  0  0  0  0  0  0  0
    1.8869   -0.5425   -1.3984 O   0  0  0  0  0  0  0  0  0  0  0  0
    0.9669    1.5577   -2.1863 C   0  0  0  0  0  0  0  0  0  0  0  0
   -0.5512    0.7132   -2.7053 S   0  0  0  0  0  0  0  0  0  0  0  0
   -1.5140    0.8457   -1.2674 C   0  0  0  0  0  0  0  0  0  0  0  0
   -1.0808    1.3277   -0.1246 N   0  0  0  0  0  0  0  0  0  0  0  0
   -2.1480    1.4165    0.7223 N   0  0  0  0  0  0  0  0  0  0  0  0
   -3.2206    0.9642    0.0912 C   0  0  0  0  0  0  0  0  0  0  0  0
   -4.5429    0.7361    0.7503 C   0  0  0  0  0  0  0  0  0  0  0  0
   -4.9507   -0.7066    0.7973 C   0  0  0  0  0  0  0  0  0  0  0  0
   -6.0350   -1.3209    0.1966 C   0  0  0  0  0  0  0  0  0  0  0  0
   -5.9858   -2.6933    0.5069 C   0  0  0  0  0  0  0  0  0  0  0  0
   -4.8880   -2.8885    1.3071 C   0  0  0  0  0  0  0  0  0  0  0  0
   -4.2696   -1.6809    1.4915 N   0  0  0  0  0  0  0  0  0  0  0  0
   -3.0799   -1.4990    2.2932 C   0  0  0  0  0  0  0  0  0  0  0  0
   -2.8782    0.6147   -1.2082 N   0  0  0  0  0  0  0  0  0  0  0  0
   -3.7395    0.1354   -2.2312 C   0  0  0  0  0  0  0  0  0  0  0  0
   -4.9493    0.7945   -2.4954 C   0  0  0  0  0  0  0  0  0  0  0  0
   -5.7964    0.3142   -3.4954 C   0  0  0  0  0  0  0  0  0  0  0  0
   -5.4383   -0.8186   -4.2139 C   0  0  0  0  0  0  0  0  0  0  0  0
   -6.2604   -1.2812   -5.1664 F   0  0  0  0  0  0  0  0  0  0  0  0
   -4.2410   -1.4793   -3.9599 C   0  0  0  0  0  0  0  0  0  0  0  0
   -3.3835   -1.0022   -2.9694 C   0  0  0  0  0  0  0  0  0  0  0  0
    4.5923    2.0067    0.8629 C   0  0  0  0  0  0  0  0  0  0  0  0
    5.7288    1.6707    1.6049 C   0  0  0  0  0  0  0  0  0  0  0  0
   10.4941    0.4602    2.6159 H   0  0  0  0  0  0  0  0  0  0  0  0
    9.4003   -0.0642    3.9165 H   0  0  0  0  0  0  0  0  0  0  0  0
    9.6185   -1.0808    2.5062 H   0  0  0  0  0  0  0  0  0  0  0  0
    8.5663    0.6866    1.0702 H   0  0  0  0  0  0  0  0  0  0  0  0
    8.3211    1.6819    2.5372 H   0  0  0  0  0  0  0  0  0  0  0  0
    5.6242   -1.6960    1.2317 H   0  0  0  0  0  0  0  0  0  0  0  0
    3.6397   -1.1260   -0.0732 H   0  0  0  0  0  0  0  0  0  0  0  0
    2.5727    2.4544   -0.5405 H   0  0  0  0  0  0  0  0  0  0  0  0
    1.5339    1.8242   -3.0866 H   0  0  0  0  0  0  0  0  0  0  0  0
    0.7150    2.4922   -1.6702 H   0  0  0  0  0  0  0  0  0  0  0  0
   -4.5013    1.1214    1.7792 H   0  0  0  0  0  0  0  0  0  0  0  0
   -5.3165    1.3310    0.2536 H   0  0  0  0  0  0  0  0  0  0  0  0
   -6.7769   -0.8309   -0.4168 H   0  0  0  0  0  0  0  0  0  0  0  0
   -6.6771   -3.4577    0.1849 H   0  0  0  0  0  0  0  0  0  0  0  0
   -4.5026   -3.7893    1.7573 H   0  0  0  0  0  0  0  0  0  0  0  0
   -2.9479   -2.3689    2.9447 H   0  0  0  0  0  0  0  0  0  0  0  0
   -3.1968   -0.6050    2.9119 H   0  0  0  0  0  0  0  0  0  0  0  0
   -2.2248   -1.4064    1.6180 H   0  0  0  0  0  0  0  0  0  0  0  0
   -5.2326    1.7013   -1.9711 H   0  0  0  0  0  0  0  0  0  0  0  0
   -6.7311    0.8183   -3.7202 H   0  0  0  0  0  0  0  0  0  0  0  0
   -3.9857   -2.3661   -4.5271 H   0  0  0  0  0  0  0  0  0  0  0  0
   -2.4664   -1.5531   -2.7622 H   0  0  0  0  0  0  0  0  0  0  0  0
    4.3206    3.0547    0.7800 H   0  0  0  0  0  0  0  0  0  0  0  0
    6.2803    2.4577    2.1022 H   0  0  0  0  0  0  0  0  0  0  0  0
  1  2  1  0
  2  3  1  0
  3  4  1  0
  4  5  2  0
  5  6  1  0
  6  7  2  0
  7  8  1  0
  8  9  1  0
  9 10  2  0
  9 11  1  0
 11 12  1  0
 12 13  1  0
 13 14  2  0
 14 15  1  0
 15 16  2  0
 16 17  1  0
 17 18  1  0
 18 19  2  0
 19 20  1  0
 20 21  2  0
 21 22  1  0
 22 23  1  0
 16 24  1  0
 24 25  1  0
 25 26  2  0
 26 27  1  0
 27 28  2  0
 28 29  1  0
 28 30  1  0
 30 31  2  0
  7 32  1  0
 32 33  2  0
 33  4  1  0
 24 13  1  0
 31 25  1  0
 22 18  1  0
  1 34  1  0
  1 35  1  0
  1 36  1  0
  2 37  1  0
  2 38  1  0
  5 39  1  0
  6 40  1  0
  8 41  1  0
 11 42  1  0
 11 43  1  0
 17 44  1  0
 17 45  1  0
 19 46  1  0
 20 47  1  0
 21 48  1  0
 23 49  1  0
 23 50  1  0
 23 51  1  0
 26 52  1  0
 27 53  1  0
 30 54  1  0
 31 55  1  0
 32 56  1  0
 33 57  1  0
M  END
$$$$
