
     RDKit          3D

 37 38  0  0  0  0  0  0  0  0999 V2000
   -5.2677   -0.2424   -2.2247 C   0  0  0  0  0  0  0  0  0  0  0  0
   -4.7227   -0.3272   -0.9157 O   0  0  0  0  0  0  0  0  0  0  0  0
   -3.4429    0.1321   -0.7268 C   0  0  0  0  0  0  0  0  0  0  0  0
   -2.6428    0.6780   -1.7359 C   0  0  0  0  0  0  0  0  0  0  0  0
   -1.3485    1.1163   -1.4480 C   0  0  0  0  0  0  0  0  0  0  0  0
   -0.8391    1.0010   -0.1522 C   0  0  0  0  0  0  0  0  0  0  0  0
    0.5490    1.4703    0.1040 C   0  0  0  0  0  0  0  0  0  0  0  0
    1.0208    2.3849   -0.5609 O   0  0  0  0  0  0  0  0  0  0  0  0
    1.2492    0.7926    1.0797 N   0  0  0  0  0  0  0  0  0  0  0  0
    2.6486    1.0635    1.3209 C   0  0  0  0  0  0  0  0  0  0  0  0
    3.5197    0.0806    0.5795 C   0  0  0  0  0  0  0  0  0  0  0  0
    4.0291   -1.0550    1.2225 C   0  0  0  0  0  0  0  0  0  0  0  0
    4.8149   -1.9720    0.5196 C   0  0  0  0  0  0  0  0  0  0  0  0
    5.0950   -1.7692   -0.8350 C   0  0  0  0  0  0  0  0  0  0  0  0
    6.0713   -2.9473   -1.6379 Cl  0  0  0  0  0  0  0  0  0  0  0  0
    4.5848   -0.6436   -1.4892 C   0  0  0  0  0  0  0  0  0  0  0  0
    4.8815   -0.3310   -3.1622 Cl  0  0  0  0  0  0  0  0  0  0  0  0
    3.8001    0.2740   -0.7829 C   0  0  0  0  0  0  0  0  0  0  0  0
   -1.6391    0.4739    0.8697 C   0  0  0  0  0  0  0  0  0  0  0  0
   -2.9398    0.0385    0.5887 C   0  0  0  0  0  0  0  0  0  0  0  0
   -3.7933   -0.4985    1.5212 O   0  0  0  0  0  0  0  0  0  0  0  0
   -3.4001   -0.4542    2.8851 C   0  0  0  0  0  0  0  0  0  0  0  0
   -6.2826   -0.6503   -2.1914 H   0  0  0  0  0  0  0  0  0  0  0  0
   -4.6905   -0.8460   -2.9329 H   0  0  0  0  0  0  0  0  0  0  0  0
   -5.3390    0.7986   -2.5564 H   0  0  0  0  0  0  0  0  0  0  0  0
   -2.9955    0.7791   -2.7569 H   0  0  0  0  0  0  0  0  0  0  0  0
   -0.7358    1.5431   -2.2403 H   0  0  0  0  0  0  0  0  0  0  0  0
    0.8887   -0.0912    1.4108 H   0  0  0  0  0  0  0  0  0  0  0  0
    2.9029    2.0898    1.0332 H   0  0  0  0  0  0  0  0  0  0  0  0
    2.8132    0.9795    2.4008 H   0  0  0  0  0  0  0  0  0  0  0  0
    3.8205   -1.2342    2.2755 H   0  0  0  0  0  0  0  0  0  0  0  0
    5.2064   -2.8465    1.0346 H   0  0  0  0  0  0  0  0  0  0  0  0
    3.3957    1.1473   -1.2951 H   0  0  0  0  0  0  0  0  0  0  0  0
   -1.2452    0.4306    1.8780 H   0  0  0  0  0  0  0  0  0  0  0  0
   -2.5273   -1.0909    3.0624 H   0  0  0  0  0  0  0  0  0  0  0  0
   -3.2132    0.5742    3.2118 H   0  0  0  0  0  0  0  0  0  0  0  0
   -4.2261   -0.8486    3.4847 H   0  0  0  0  0  0  0  0  0  0  0  0
  1  2  1  0
  2  3  1  0
  3  4  2  0
  4  5  1  0
  5  6  2  0
  6  7  1  0
  7  8  2  0
  7  9  1  0
  9 10  1  0
 10 11  1  0
 11 12  2  0
 12 13  1  0
 13 14  2  0
 14 15  1  0
 14 16  1  0
 16 17  1  0
 16 18  2  0
  6 19  1  0
 19 20  2  0
 20 21  1  0
 21 22  1  0
 20  3  1  0
 18 11  1  0
  1 23  1  0
  1 24  1  0
  1 25  1  0
  4 26  1  0
  5 27  1  0
  9 28  1  0
 10 29  1  0
 10 30  1  0
 12 31  1  0
 13 32  1  0
 18 33  1  0
 19 34  1  0
 22 35  1  0
 22 36  1  0
 22 37  1  0
M  END
$$$$
