
     RDKit          3D

 33 35  0  0  0  0  0  0  0  0999 V2000
   -0.0603    2.3674   -0.9481 O   0  0  0  0  0  0  0  0  0  0  0  0
   -0.0416    1.2293   -0.4945 C   0  0  0  0  0  0  0  0  0  0  0  0
   -1.2744    0.5319   -0.0007 C   0  0  0  0  0  0  0  0  0  0  0  0
   -2.4326    0.9419   -0.5480 C   0  0  0  0  0  0  0  0  0  0  0  0
   -3.7184    0.4511   -0.1966 C   0  0  0  0  0  0  0  0  0  0  0  0
   -4.2897    0.1802    1.0430 C   0  0  0  0  0  0  0  0  0  0  0  0
   -5.6172   -0.2608    0.8287 C   0  0  0  0  0  0  0  0  0  0  0  0
   -5.8074   -0.2217   -0.5277 C   0  0  0  0  0  0  0  0  0  0  0  0
   -4.6859    0.2136   -1.1490 O   0  0  0  0  0  0  0  0  0  0  0  0
   -1.0419   -0.5226    1.0464 C   0  0  0  0  0  0  0  0  0  0  0  0
    0.0695   -1.5194    0.6944 C   0  0  0  0  0  0  0  0  0  0  0  0
    0.9919   -1.0549   -0.4286 C   0  0  0  0  0  0  0  0  0  0  0  0
    1.2174    0.4264   -0.3756 C   0  0  0  0  0  0  0  0  0  0  0  0
    2.3591    1.1297   -0.2794 C   0  0  0  0  0  0  0  0  0  0  0  0
    3.6566    0.5659   -0.1330 C   0  0  0  0  0  0  0  0  0  0  0  0
    4.8837    1.1940   -0.3264 C   0  0  0  0  0  0  0  0  0  0  0  0
    5.9075    0.2593   -0.0454 C   0  0  0  0  0  0  0  0  0  0  0  0
    5.2654   -0.8953    0.3175 C   0  0  0  0  0  0  0  0  0  0  0  0
    3.9232   -0.7220    0.2751 O   0  0  0  0  0  0  0  0  0  0  0  0
   -2.4235    1.6857   -1.3434 H   0  0  0  0  0  0  0  0  0  0  0  0
   -3.8009    0.3038    1.9995 H   0  0  0  0  0  0  0  0  0  0  0  0
   -6.3456   -0.5556    1.5705 H   0  0  0  0  0  0  0  0  0  0  0  0
   -6.6414   -0.4513   -1.1760 H   0  0  0  0  0  0  0  0  0  0  0  0
   -0.7737   -0.0124    1.9813 H   0  0  0  0  0  0  0  0  0  0  0  0
   -1.9443   -1.0990    1.2688 H   0  0  0  0  0  0  0  0  0  0  0  0
   -0.3761   -2.4802    0.4071 H   0  0  0  0  0  0  0  0  0  0  0  0
    0.6593   -1.7205    1.5980 H   0  0  0  0  0  0  0  0  0  0  0  0
    1.9095   -1.6454   -0.4103 H   0  0  0  0  0  0  0  0  0  0  0  0
    0.5234   -1.2916   -1.3941 H   0  0  0  0  0  0  0  0  0  0  0  0
    2.3160    2.2177   -0.3102 H   0  0  0  0  0  0  0  0  0  0  0  0
    5.0151    2.2205   -0.6420 H   0  0  0  0  0  0  0  0  0  0  0  0
    6.9761    0.4110   -0.0983 H   0  0  0  0  0  0  0  0  0  0  0  0
    5.6012   -1.8769    0.6211 H   0  0  0  0  0  0  0  0  0  0  0  0
  1  2  2  0
  2  3  1  0
  3  4  2  3
  4  5  1  0
  5  6  2  0
  6  7  1  0
  7  8  2  0
  8  9  1  0
  3 10  1  0
 10 11  1  0
 11 12  1  0
 12 13  1  0
 13 14  2  3
 14 15  1  0
 15 16  2  0
 16 17  1  0
 17 18  2  0
 18 19  1  0
 13  2  1  0
 19 15  1  0
  9  5  1  0
  4 20  1  0
  6 21  1  0
  7 22  1  0
  8 23  1  0
 10 24  1  0
 10 25  1  0
 11 26  1  0
 11 27  1  0
 12 28  1  0
 12 29  1  0
 14 30  1  0
 16 31  1  0
 17 32  1  0
 18 33  1  0
M  END
$$$$
