
     RDKit          3D

 53 54  0  0  0  0  0  0  0  0999 V2000
   -3.7934    2.1792   -0.8431 C   0  0  0  0  0  0  0  0  0  0  0  0
   -4.9526    1.1989   -0.8210 C   0  0  0  0  0  0  0  0  0  0  0  0
   -4.5518   -0.1486   -0.3753 N   0  0  0  0  0  0  0  0  0  0  0  0
   -3.7741   -0.9659   -1.3225 C   0  0  0  0  0  0  0  0  0  0  0  0
   -4.6909   -1.9603   -2.0150 C   0  0  0  0  0  0  0  0  0  0  0  0
   -4.6428   -0.5909    1.2482 S   0  0  0  0  0  6  0  0  0  0  0  0
   -4.4889   -2.0273    1.3463 O   0  0  0  0  0  0  0  0  0  0  0  0
   -5.7785    0.0822    1.8419 O   0  0  0  0  0  0  0  0  0  0  0  0
   -3.1749    0.1211    1.9652 C   0  0  0  0  0  0  0  0  0  0  0  0
   -3.2711    1.2883    2.7309 C   0  0  0  0  0  0  0  0  0  0  0  0
   -2.1278    1.8168    3.3304 C   0  0  0  0  0  0  0  0  0  0  0  0
   -0.8976    1.1723    3.1780 C   0  0  0  0  0  0  0  0  0  0  0  0
   -0.8029   -0.0104    2.4291 C   0  0  0  0  0  0  0  0  0  0  0  0
    0.5299   -0.6593    2.3053 C   0  0  0  0  0  0  0  0  0  0  0  0
    1.5213   -0.3093    2.9275 O   0  0  0  0  0  0  0  0  0  0  0  0
    0.4912   -1.6542    1.3867 O   0  0  0  0  0  0  0  0  0  0  0  0
    1.7326   -2.3257    1.1694 C   0  0  0  0  0  0  0  0  0  0  0  0
    2.7181   -1.4879    0.3530 C   0  0  0  0  0  0  0  0  0  0  0  0
    2.7579   -1.5096   -0.8768 O   0  0  0  0  0  0  0  0  0  0  0  0
    3.5641   -0.6962    1.1055 N   0  0  0  0  0  0  0  0  0  0  0  0
    4.3938    0.3030    0.4569 C   0  0  0  0  0  0  0  0  0  0  0  0
    5.4938   -0.2989   -0.4300 C   0  0  0  0  0  0  0  0  0  0  0  0
    5.6950    0.4765   -1.6365 N   0  0  0  0  0  0  0  0  0  0  0  0
    5.0821    0.2392   -2.8446 C   0  0  0  0  0  0  0  0  0  0  0  0
    4.1926   -0.7785   -3.0233 O   0  0  0  0  0  0  0  0  0  0  0  0
    5.4351    1.0841   -3.8179 C   0  0  0  0  0  0  0  0  0  0  0  0
    6.5599    2.2783   -3.2528 S   0  0  0  0  0  0  0  0  0  0  0  0
    6.5350    1.5828   -1.6235 C   0  0  0  0  0  0  0  0  0  0  0  0
    7.1548    2.0399   -0.6771 O   0  0  0  0  0  0  0  0  0  0  0  0
   -1.9514   -0.5447    1.8305 C   0  0  0  0  0  0  0  0  0  0  0  0
   -2.9549    1.8105   -1.4419 H   0  0  0  0  0  0  0  0  0  0  0  0
   -3.4200    2.3853    0.1618 H   0  0  0  0  0  0  0  0  0  0  0  0
   -4.1170    3.1330   -1.2743 H   0  0  0  0  0  0  0  0  0  0  0  0
   -5.7566    1.5899   -0.1879 H   0  0  0  0  0  0  0  0  0  0  0  0
   -5.3826    1.1187   -1.8271 H   0  0  0  0  0  0  0  0  0  0  0  0
   -3.2942   -0.3339   -2.0774 H   0  0  0  0  0  0  0  0  0  0  0  0
   -2.9645   -1.4960   -0.8112 H   0  0  0  0  0  0  0  0  0  0  0  0
   -5.1606   -2.6371   -1.2940 H   0  0  0  0  0  0  0  0  0  0  0  0
   -4.1265   -2.5650   -2.7299 H   0  0  0  0  0  0  0  0  0  0  0  0
   -5.4921   -1.4473   -2.5588 H   0  0  0  0  0  0  0  0  0  0  0  0
   -4.2292    1.7875    2.8669 H   0  0  0  0  0  0  0  0  0  0  0  0
   -2.1953    2.7274    3.9226 H   0  0  0  0  0  0  0  0  0  0  0  0
   -0.0135    1.5951    3.6550 H   0  0  0  0  0  0  0  0  0  0  0  0
    2.1804   -2.6403    2.1198 H   0  0  0  0  0  0  0  0  0  0  0  0
    1.5239   -3.2409    0.6046 H   0  0  0  0  0  0  0  0  0  0  0  0
    3.2332   -0.4794    2.0491 H   0  0  0  0  0  0  0  0  0  0  0  0
    4.8429    0.9178    1.2453 H   0  0  0  0  0  0  0  0  0  0  0  0
    3.7242    0.9499   -0.1218 H   0  0  0  0  0  0  0  0  0  0  0  0
    5.3058   -1.3432   -0.7037 H   0  0  0  0  0  0  0  0  0  0  0  0
    6.4326   -0.3078    0.1406 H   0  0  0  0  0  0  0  0  0  0  0  0
    3.7507   -0.9915   -2.1729 H   0  0  0  0  0  0  0  0  0  0  0  0
    5.0605    1.0516   -4.8309 H   0  0  0  0  0  0  0  0  0  0  0  0
   -1.9053   -1.4798    1.2770 H   0  0  0  0  0  0  0  0  0  0  0  0
  1  2  1  0
  2  3  1  0
  3  4  1  0
  4  5  1  0
  3  6  1  0
  6  7  2  0
  6  8  2  0
  6  9  1  0
  9 10  2  0
 10 11  1  0
 11 12  2  0
 12 13  1  0
 13 14  1  0
 14 15  2  0
 14 16  1  0
 16 17  1  0
 17 18  1  0
 18 19  2  0
 18 20  1  0
 20 21  1  0
 21 22  1  0
 22 23  1  0
 23 24  1  0
 24 25  1  0
 24 26  2  0
 26 27  1  0
 27 28  1  0
 28 29  2  0
 13 30  2  0
 30  9  1  0
 28 23  1  0
  1 31  1  0
  1 32  1  0
  1 33  1  0
  2 34  1  0
  2 35  1  0
  4 36  1  0
  4 37  1  0
  5 38  1  0
  5 39  1  0
  5 40  1  0
 10 41  1  0
 11 42  1  0
 12 43  1  0
 17 44  1  0
 17 45  1  0
 20 46  1  0
 21 47  1  0
 21 48  1  0
 22 49  1  0
 22 50  1  0
 25 51  1  0
 26 52  1  0
 30 53  1  0
M  END
$$$$
