
     RDKit          3D

 43 45  0  0  0  0  0  0  0  0999 V2000
    6.3383    0.3816    2.6504 C   0  0  0  0  0  0  0  0  0  0  0  0
    5.5505    0.2357    1.3804 C   0  0  0  0  0  0  0  0  0  0  0  0
    6.2125    0.1929    0.1485 C   0  0  0  0  0  0  0  0  0  0  0  0
    5.4924    0.0619   -1.0438 C   0  0  0  0  0  0  0  0  0  0  0  0
    6.2029    0.0410   -2.3657 C   0  0  0  0  0  0  0  0  0  0  0  0
    4.0926    0.0103   -0.9923 C   0  0  0  0  0  0  0  0  0  0  0  0
    3.4108    0.0664    0.2310 C   0  0  0  0  0  0  0  0  0  0  0  0
    2.0007    0.0136    0.1837 N   0  0  0  0  0  0  0  0  0  0  0  0
    1.1225    0.0070    1.2528 C   0  0  0  0  0  0  0  0  0  0  0  0
    1.4054   -0.0078    2.4449 O   0  0  0  0  0  0  0  0  0  0  0  0
   -0.3186   -0.0279    0.8750 C   0  0  0  0  0  0  0  0  0  0  0  0
   -1.1993   -0.7702    1.6658 C   0  0  0  0  0  0  0  0  0  0  0  0
   -2.5568   -0.8320    1.3359 C   0  0  0  0  0  0  0  0  0  0  0  0
   -3.0548   -0.1414    0.2242 C   0  0  0  0  0  0  0  0  0  0  0  0
   -4.4328   -0.2552   -0.0341 N   0  0  0  0  0  0  0  0  0  0  0  0
   -5.1786    0.3652   -1.0203 C   0  0  0  0  0  0  0  0  0  0  0  0
   -4.7388    1.1402   -1.8632 O   0  0  0  0  0  0  0  0  0  0  0  0
   -6.5859    0.0100   -0.9604 C   0  0  0  0  0  0  0  0  0  0  0  0
   -7.6651    0.4335   -1.7138 C   0  0  0  0  0  0  0  0  0  0  0  0
   -8.8020   -0.2493   -1.2194 C   0  0  0  0  0  0  0  0  0  0  0  0
   -8.3516   -1.0529   -0.1981 C   0  0  0  0  0  0  0  0  0  0  0  0
   -7.0122   -0.9044   -0.0271 O   0  0  0  0  0  0  0  0  0  0  0  0
   -2.1732    0.6151   -0.5519 C   0  0  0  0  0  0  0  0  0  0  0  0
   -0.8114    0.6767   -0.2283 C   0  0  0  0  0  0  0  0  0  0  0  0
    4.1488    0.1816    1.4094 C   0  0  0  0  0  0  0  0  0  0  0  0
    5.7172    0.1892    3.5318 H   0  0  0  0  0  0  0  0  0  0  0  0
    6.7428    1.3956    2.7285 H   0  0  0  0  0  0  0  0  0  0  0  0
    7.1649   -0.3364    2.6690 H   0  0  0  0  0  0  0  0  0  0  0  0
    7.2985    0.2578    0.1218 H   0  0  0  0  0  0  0  0  0  0  0  0
    5.7005   -0.6334   -3.0659 H   0  0  0  0  0  0  0  0  0  0  0  0
    7.2324   -0.3156   -2.2532 H   0  0  0  0  0  0  0  0  0  0  0  0
    6.2245    1.0485   -2.7941 H   0  0  0  0  0  0  0  0  0  0  0  0
    3.5378   -0.0681   -1.9242 H   0  0  0  0  0  0  0  0  0  0  0  0
    1.6011   -0.0892   -0.7399 H   0  0  0  0  0  0  0  0  0  0  0  0
   -0.8293   -1.3051    2.5384 H   0  0  0  0  0  0  0  0  0  0  0  0
   -3.2161   -1.4239    1.9662 H   0  0  0  0  0  0  0  0  0  0  0  0
   -4.9739   -0.8413    0.5916 H   0  0  0  0  0  0  0  0  0  0  0  0
   -7.6215    1.1428   -2.5283 H   0  0  0  0  0  0  0  0  0  0  0  0
   -9.8207   -0.1756   -1.5720 H   0  0  0  0  0  0  0  0  0  0  0  0
   -8.8339   -1.7565    0.4678 H   0  0  0  0  0  0  0  0  0  0  0  0
   -2.5131    1.1772   -1.4169 H   0  0  0  0  0  0  0  0  0  0  0  0
   -0.1604    1.3038   -0.8327 H   0  0  0  0  0  0  0  0  0  0  0  0
    3.6526    0.2389    2.3737 H   0  0  0  0  0  0  0  0  0  0  0  0
  1  2  1  0
  2  3  2  0
  3  4  1  0
  4  5  1  0
  4  6  2  0
  6  7  1  0
  7  8  1  0
  8  9  1  0
  9 10  2  0
  9 11  1  0
 11 12  2  0
 12 13  1  0
 13 14  2  0
 14 15  1  0
 15 16  1  0
 16 17  2  0
 16 18  1  0
 18 19  2  0
 19 20  1  0
 20 21  2  0
 21 22  1  0
 14 23  1  0
 23 24  2  0
  7 25  2  0
 25  2  1  0
 24 11  1  0
 22 18  1  0
  1 26  1  0
  1 27  1  0
  1 28  1  0
  3 29  1  0
  5 30  1  0
  5 31  1  0
  5 32  1  0
  6 33  1  0
  8 34  1  0
 12 35  1  0
 13 36  1  0
 15 37  1  0
 19 38  1  0
 20 39  1  0
 21 40  1  0
 23 41  1  0
 24 42  1  0
 25 43  1  0
M  END
$$$$
