
     RDKit          3D

 59 62  0  0  0  0  0  0  0  0999 V2000
   -3.5991   -0.4491    0.7736 C   0  0  0  0  0  0  0  0  0  0  0  0
   -2.7053   -0.4028   -0.3450 O   0  0  0  0  0  0  0  0  0  0  0  0
   -3.3695    0.0319   -1.4670 C   0  0  0  0  0  0  0  0  0  0  0  0
   -3.8915   -0.9409   -2.3411 C   0  0  0  0  0  0  0  0  0  0  0  0
   -3.7440   -2.4109   -2.0631 C   0  0  0  0  0  0  0  0  0  0  0  0
   -4.6019   -0.5222   -3.4746 C   0  0  0  0  0  0  0  0  0  0  0  0
   -4.7497    0.8361   -3.7498 C   0  0  0  0  0  0  0  0  0  0  0  0
   -5.7084    1.3792   -5.2864 Br  0  0  0  0  0  0  0  0  0  0  0  0
   -4.1882    1.7956   -2.9116 C   0  0  0  0  0  0  0  0  0  0  0  0
   -3.4747    1.4038   -1.7678 C   0  0  0  0  0  0  0  0  0  0  0  0
   -2.8644    2.4975   -0.9451 C   0  0  0  0  0  0  0  0  0  0  0  0
   -3.3280    3.6291   -1.0460 O   0  0  0  0  0  0  0  0  0  0  0  0
   -1.7985    2.1292   -0.1594 N   0  0  0  0  0  0  0  0  0  0  0  0
   -1.0290    2.9145    0.7240 C   0  0  0  0  0  0  0  0  0  0  0  0
   -1.2464    4.2746    0.9462 C   0  0  0  0  0  0  0  0  0  0  0  0
   -0.4488    4.9702    1.8563 C   0  0  0  0  0  0  0  0  0  0  0  0
    0.5685    4.3120    2.5427 C   0  0  0  0  0  0  0  0  0  0  0  0
    0.7954    2.9518    2.3233 C   0  0  0  0  0  0  0  0  0  0  0  0
    0.0024    2.2317    1.4193 C   0  0  0  0  0  0  0  0  0  0  0  0
    0.2198    0.8650    1.1407 N   0  0  0  0  0  0  0  0  0  0  0  0
    0.3346   -0.0328    2.3076 C   0  0  0  0  0  0  0  0  0  0  0  0
    0.7551   -1.4410    1.8598 C   0  0  0  0  0  0  0  0  0  0  0  0
    2.0506   -1.4347    1.1718 N   0  0  0  0  0  0  0  0  0  0  0  0
    2.7190   -2.6451    1.0312 C   0  0  0  0  0  0  0  0  0  0  0  0
    2.2391   -3.7203    1.3826 O   0  0  0  0  0  0  0  0  0  0  0  0
    4.0745   -2.6511    0.4362 C   0  0  0  0  0  0  0  0  0  0  0  0
    5.0940   -1.8515    0.9653 C   0  0  0  0  0  0  0  0  0  0  0  0
    6.3677   -1.8896    0.3967 C   0  0  0  0  0  0  0  0  0  0  0  0
    6.6236   -2.7337   -0.6853 C   0  0  0  0  0  0  0  0  0  0  0  0
    5.6122   -3.5496   -1.1956 C   0  0  0  0  0  0  0  0  0  0  0  0
    4.3371   -3.5158   -0.6307 C   0  0  0  0  0  0  0  0  0  0  0  0
    2.4199   -0.1793    0.4962 C   0  0  0  0  0  0  0  0  0  0  0  0
    1.1962    0.6423    0.0461 C   0  0  0  0  0  0  0  0  0  0  0  0
   -3.0256   -0.7845    1.6426 H   0  0  0  0  0  0  0  0  0  0  0  0
   -4.4094   -1.1656    0.6038 H   0  0  0  0  0  0  0  0  0  0  0  0
   -4.0111    0.5402    1.0001 H   0  0  0  0  0  0  0  0  0  0  0  0
   -3.8617   -2.9986   -2.9797 H   0  0  0  0  0  0  0  0  0  0  0  0
   -2.7491   -2.6377   -1.6662 H   0  0  0  0  0  0  0  0  0  0  0  0
   -4.5025   -2.7363   -1.3448 H   0  0  0  0  0  0  0  0  0  0  0  0
   -5.0364   -1.2602   -4.1461 H   0  0  0  0  0  0  0  0  0  0  0  0
   -4.2939    2.8528   -3.1480 H   0  0  0  0  0  0  0  0  0  0  0  0
   -1.5180    1.1488   -0.1524 H   0  0  0  0  0  0  0  0  0  0  0  0
   -2.0319    4.8158    0.4290 H   0  0  0  0  0  0  0  0  0  0  0  0
   -0.6251    6.0295    2.0257 H   0  0  0  0  0  0  0  0  0  0  0  0
    1.1904    4.8602    3.2455 H   0  0  0  0  0  0  0  0  0  0  0  0
    1.6119    2.4716    2.8527 H   0  0  0  0  0  0  0  0  0  0  0  0
   -0.6340   -0.0876    2.8175 H   0  0  0  0  0  0  0  0  0  0  0  0
    1.0751    0.3343    3.0275 H   0  0  0  0  0  0  0  0  0  0  0  0
    0.8088   -2.1126    2.7240 H   0  0  0  0  0  0  0  0  0  0  0  0
    0.0187   -1.8550    1.1599 H   0  0  0  0  0  0  0  0  0  0  0  0
    4.9051   -1.2142    1.8247 H   0  0  0  0  0  0  0  0  0  0  0  0
    7.1646   -1.2714    0.8029 H   0  0  0  0  0  0  0  0  0  0  0  0
    7.6185   -2.7669   -1.1235 H   0  0  0  0  0  0  0  0  0  0  0  0
    5.8199   -4.2188   -2.0269 H   0  0  0  0  0  0  0  0  0  0  0  0
    3.5519   -4.1624   -1.0152 H   0  0  0  0  0  0  0  0  0  0  0  0
    3.0073    0.4032    1.2155 H   0  0  0  0  0  0  0  0  0  0  0  0
    3.0511   -0.3859   -0.3731 H   0  0  0  0  0  0  0  0  0  0  0  0
    0.6744    0.0884   -0.7444 H   0  0  0  0  0  0  0  0  0  0  0  0
    1.5388    1.5836   -0.4023 H   0  0  0  0  0  0  0  0  0  0  0  0
  1  2  1  0
  2  3  1  0
  3  4  2  0
  4  5  1  0
  4  6  1  0
  6  7  2  0
  7  8  1  0
  7  9  1  0
  9 10  2  0
 10 11  1  0
 11 12  2  0
 11 13  1  0
 13 14  1  0
 14 15  2  0
 15 16  1  0
 16 17  2  0
 17 18  1  0
 18 19  2  0
 19 20  1  0
 20 21  1  0
 21 22  1  0
 22 23  1  0
 23 24  1  0
 24 25  2  0
 24 26  1  0
 26 27  2  0
 27 28  1  0
 28 29  2  0
 29 30  1  0
 30 31  2  0
 23 32  1  0
 32 33  1  0
 10  3  1  0
 19 14  1  0
 33 20  1  0
 31 26  1  0
  1 34  1  0
  1 35  1  0
  1 36  1  0
  5 37  1  0
  5 38  1  0
  5 39  1  0
  6 40  1  0
  9 41  1  0
 13 42  1  0
 15 43  1  0
 16 44  1  0
 17 45  1  0
 18 46  1  0
 21 47  1  0
 21 48  1  0
 22 49  1  0
 22 50  1  0
 27 51  1  0
 28 52  1  0
 29 53  1  0
 30 54  1  0
 31 55  1  0
 32 56  1  0
 32 57  1  0
 33 58  1  0
 33 59  1  0
M  END
$$$$
