
     RDKit          3D

 49 53  0  0  0  0  0  0  0  0999 V2000
    6.4373   -1.6672    1.9427 C   0  0  0  0  0  0  0  0  0  0  0  0
    5.0095   -1.3709    2.2749 C   0  0  0  0  0  0  0  0  0  0  0  0
    4.4512   -1.6487    3.8621 S   0  0  0  0  0  0  0  0  0  0  0  0
    2.8836   -1.1259    3.4787 C   0  0  0  0  0  0  0  0  0  0  0  0
    1.9347   -1.1312    4.4300 N   0  0  0  0  0  0  0  0  0  0  0  0
    0.7565   -0.7036    3.9852 C   0  0  0  0  0  0  0  0  0  0  0  0
    0.4625   -0.2859    2.7497 N   0  0  0  0  0  0  0  0  0  0  0  0
    1.4448   -0.2905    1.8222 C   0  0  0  0  0  0  0  0  0  0  0  0
    1.0368    0.2322    0.1813 S   0  0  0  0  0  0  0  0  0  0  0  0
   -0.3319    1.4208    0.5153 C   0  0  0  0  0  0  0  0  0  0  0  0
    0.2310    2.7100    1.1084 C   0  0  0  0  0  0  0  0  0  0  0  0
   -1.0289    1.7057   -0.8305 C   0  0  0  0  0  0  0  0  0  0  0  0
   -0.7159    2.6617   -1.5431 O   0  0  0  0  0  0  0  0  0  0  0  0
   -1.9921    0.7447   -1.1820 N   0  0  0  0  0  0  0  0  0  0  0  0
   -3.2229    0.6741   -0.4329 C   0  0  0  0  0  0  0  0  0  0  0  0
   -3.5635    1.7337    0.4402 C   0  0  0  0  0  0  0  0  0  0  0  0
   -4.7384    1.7237    1.1978 C   0  0  0  0  0  0  0  0  0  0  0  0
   -5.6144    0.6554    1.0955 C   0  0  0  0  0  0  0  0  0  0  0  0
   -5.3163   -0.3887    0.2251 C   0  0  0  0  0  0  0  0  0  0  0  0
   -4.1376   -0.3817   -0.5452 C   0  0  0  0  0  0  0  0  0  0  0  0
   -3.8947   -1.7728   -1.6068 S   0  0  0  0  0  0  0  0  0  0  0  0
   -2.6404   -1.1455   -2.6891 C   0  0  0  0  0  0  0  0  0  0  0  0
   -2.4342   -1.8809   -3.8728 C   0  0  0  0  0  0  0  0  0  0  0  0
   -1.4196   -1.5431   -4.7616 C   0  0  0  0  0  0  0  0  0  0  0  0
   -0.5912   -0.4741   -4.4653 C   0  0  0  0  0  0  0  0  0  0  0  0
   -0.7902    0.2588   -3.2901 C   0  0  0  0  0  0  0  0  0  0  0  0
   -1.8301   -0.0399   -2.3823 C   0  0  0  0  0  0  0  0  0  0  0  0
    2.7424   -0.7298    2.1548 C   0  0  0  0  0  0  0  0  0  0  0  0
    4.0114   -0.8758    1.4433 C   0  0  0  0  0  0  0  0  0  0  0  0
    4.2330   -0.5410   -0.0013 C   0  0  0  0  0  0  0  0  0  0  0  0
    6.9465   -0.7535    1.6187 H   0  0  0  0  0  0  0  0  0  0  0  0
    6.4922   -2.4006    1.1311 H   0  0  0  0  0  0  0  0  0  0  0  0
    6.9918   -2.0736    2.7950 H   0  0  0  0  0  0  0  0  0  0  0  0
   -0.0559   -0.6914    4.7050 H   0  0  0  0  0  0  0  0  0  0  0  0
   -1.0469    0.9743    1.2102 H   0  0  0  0  0  0  0  0  0  0  0  0
   -0.5696    3.4460    1.2440 H   0  0  0  0  0  0  0  0  0  0  0  0
    0.9823    3.1705    0.4565 H   0  0  0  0  0  0  0  0  0  0  0  0
    0.6867    2.5413    2.0894 H   0  0  0  0  0  0  0  0  0  0  0  0
   -2.9376    2.6190    0.5279 H   0  0  0  0  0  0  0  0  0  0  0  0
   -4.9692    2.5579    1.8560 H   0  0  0  0  0  0  0  0  0  0  0  0
   -6.5317    0.6372    1.6783 H   0  0  0  0  0  0  0  0  0  0  0  0
   -6.0187   -1.2170    0.1453 H   0  0  0  0  0  0  0  0  0  0  0  0
   -3.0637   -2.7387   -4.1032 H   0  0  0  0  0  0  0  0  0  0  0  0
   -1.2720   -2.1192   -5.6709 H   0  0  0  0  0  0  0  0  0  0  0  0
    0.2134   -0.2000   -5.1434 H   0  0  0  0  0  0  0  0  0  0  0  0
   -0.1060    1.0862   -3.1222 H   0  0  0  0  0  0  0  0  0  0  0  0
    3.5959   -1.1598   -0.6405 H   0  0  0  0  0  0  0  0  0  0  0  0
    5.2678   -0.7191   -0.3101 H   0  0  0  0  0  0  0  0  0  0  0  0
    4.0218    0.5167   -0.1866 H   0  0  0  0  0  0  0  0  0  0  0  0
  1  2  1  0
  2  3  1  0
  3  4  1  0
  4  5  2  0
  5  6  1  0
  6  7  2  0
  7  8  1  0
  8  9  1  0
  9 10  1  0
 10 11  1  0
 10 12  1  0
 12 13  2  0
 12 14  1  0
 14 15  1  0
 15 16  2  0
 16 17  1  0
 17 18  2  0
 18 19  1  0
 19 20  2  0
 20 21  1  0
 21 22  1  0
 22 23  2  0
 23 24  1  0
 24 25  2  0
 25 26  1  0
 26 27  2  0
  8 28  2  0
 28 29  1  0
 29 30  1  0
 29  2  2  0
 28  4  1  0
 27 14  1  0
 20 15  1  0
 27 22  1  0
  1 31  1  0
  1 32  1  0
  1 33  1  0
  6 34  1  0
 10 35  1  0
 11 36  1  0
 11 37  1  0
 11 38  1  0
 16 39  1  0
 17 40  1  0
 18 41  1  0
 19 42  1  0
 23 43  1  0
 24 44  1  0
 25 45  1  0
 26 46  1  0
 30 47  1  0
 30 48  1  0
 30 49  1  0
M  END
$$$$
