
     RDKit          3D

 40 42  0  0  0  0  0  0  0  0999 V2000
    2.3982    5.3070    0.4767 C   0  0  0  0  0  0  0  0  0  0  0  0
    2.0055    3.8412    0.4111 C   0  0  0  0  0  0  0  0  0  0  0  0
    0.2909    3.6882   -0.1871 S   0  0  0  0  0  0  0  0  0  0  0  0
    0.0953    1.9107   -0.1833 C   0  0  0  0  0  0  0  0  0  0  0  0
   -1.0965    1.3804   -0.6255 C   0  0  0  0  0  0  0  0  0  0  0  0
   -1.2254    0.0058   -0.6067 C   0  0  0  0  0  0  0  0  0  0  0  0
   -2.4185   -0.5903   -1.0654 N   0  0  0  0  0  0  0  0  0  0  0  0
   -3.6119   -0.1853   -0.2871 C   0  0  0  0  0  0  0  0  0  0  0  0
   -4.8725   -0.8201   -0.8986 C   0  0  0  0  0  0  0  0  0  0  0  0
   -4.7650   -2.2501   -0.9712 O   0  0  0  0  0  0  0  0  0  0  0  0
   -3.6314   -2.6193   -1.7742 C   0  0  0  0  0  0  0  0  0  0  0  0
   -2.3250   -2.0639   -1.1868 C   0  0  0  0  0  0  0  0  0  0  0  0
   -0.2077   -0.7692   -0.1983 N   0  0  0  0  0  0  0  0  0  0  0  0
    0.9238   -0.1720    0.2211 C   0  0  0  0  0  0  0  0  0  0  0  0
    2.0298   -1.0376    0.6818 C   0  0  0  0  0  0  0  0  0  0  0  0
    1.9088   -2.4412    0.6976 C   0  0  0  0  0  0  0  0  0  0  0  0
    2.9539   -3.2626    1.1334 C   0  0  0  0  0  0  0  0  0  0  0  0
    4.1497   -2.6978    1.5655 C   0  0  0  0  0  0  0  0  0  0  0  0
    4.3007   -1.3148    1.5621 C   0  0  0  0  0  0  0  0  0  0  0  0
    3.2530   -0.4970    1.1255 C   0  0  0  0  0  0  0  0  0  0  0  0
    1.1131    1.1558    0.2511 N   0  0  0  0  0  0  0  0  0  0  0  0
    1.7559    5.8653    1.1663 H   0  0  0  0  0  0  0  0  0  0  0  0
    3.4285    5.4001    0.8361 H   0  0  0  0  0  0  0  0  0  0  0  0
    2.3479    5.7817   -0.5092 H   0  0  0  0  0  0  0  0  0  0  0  0
    2.6815    3.3126   -0.2686 H   0  0  0  0  0  0  0  0  0  0  0  0
    2.0891    3.3965    1.4080 H   0  0  0  0  0  0  0  0  0  0  0  0
   -1.8886    2.0162   -0.9972 H   0  0  0  0  0  0  0  0  0  0  0  0
   -3.5024   -0.5251    0.7512 H   0  0  0  0  0  0  0  0  0  0  0  0
   -3.7448    0.9019   -0.2833 H   0  0  0  0  0  0  0  0  0  0  0  0
   -5.0616   -0.4264   -1.9046 H   0  0  0  0  0  0  0  0  0  0  0  0
   -5.7437   -0.5847   -0.2792 H   0  0  0  0  0  0  0  0  0  0  0  0
   -3.7883   -2.2603   -2.7984 H   0  0  0  0  0  0  0  0  0  0  0  0
   -3.5898   -3.7126   -1.8054 H   0  0  0  0  0  0  0  0  0  0  0  0
   -2.1641   -2.5128   -0.1975 H   0  0  0  0  0  0  0  0  0  0  0  0
   -1.4968   -2.3474   -1.8474 H   0  0  0  0  0  0  0  0  0  0  0  0
    0.9840   -2.9104    0.3652 H   0  0  0  0  0  0  0  0  0  0  0  0
    2.8296   -4.3424    1.1338 H   0  0  0  0  0  0  0  0  0  0  0  0
    4.9626   -3.3345    1.9044 H   0  0  0  0  0  0  0  0  0  0  0  0
    5.2325   -0.8676    1.8984 H   0  0  0  0  0  0  0  0  0  0  0  0
    3.3996    0.5819    1.1337 H   0  0  0  0  0  0  0  0  0  0  0  0
  1  2  1  0
  2  3  1  0
  3  4  1  0
  4  5  2  0
  5  6  1  0
  6  7  1  0
  7  8  1  0
  8  9  1  0
  9 10  1  0
 10 11  1  0
 11 12  1  0
  6 13  2  0
 13 14  1  0
 14 15  1  0
 15 16  2  0
 16 17  1  0
 17 18  2  0
 18 19  1  0
 19 20  2  0
 14 21  2  0
 21  4  1  0
 12  7  1  0
 20 15  1  0
  1 22  1  0
  1 23  1  0
  1 24  1  0
  2 25  1  0
  2 26  1  0
  5 27  1  0
  8 28  1  0
  8 29  1  0
  9 30  1  0
  9 31  1  0
 11 32  1  0
 11 33  1  0
 12 34  1  0
 12 35  1  0
 16 36  1  0
 17 37  1  0
 18 38  1  0
 19 39  1  0
 20 40  1  0
M  END
$$$$
