
     RDKit          3D

 25 26  0  0  0  0  0  0  0  0999 V2000
   -3.0981    2.2376   -0.9473 O   0  0  0  0  0  0  0  0  0  0  0  0
   -2.6226    1.1763   -0.5813 C   0  0  0  0  0  0  0  0  0  0  0  0
   -2.9584    0.4314    0.6774 C   0  0  0  0  0  0  0  0  0  0  0  0
   -1.8711   -0.6392    0.7255 C   0  0  0  0  0  0  0  0  0  0  0  0
   -1.4993   -0.8295   -0.6806 N   0  0  0  0  0  0  0  0  0  0  0  0
   -0.1609   -1.4011   -0.8926 C   0  0  0  0  0  0  0  0  0  0  0  0
    1.0177   -0.6200   -0.3438 C   0  0  0  0  0  0  0  0  0  0  0  0
    1.5110    0.5095   -1.0152 C   0  0  0  0  0  0  0  0  0  0  0  0
    2.5965    1.2247   -0.5029 C   0  0  0  0  0  0  0  0  0  0  0  0
    3.1999    0.8127    0.6825 C   0  0  0  0  0  0  0  0  0  0  0  0
    4.5370    1.6926    1.3131 Cl  0  0  0  0  0  0  0  0  0  0  0  0
    2.7285   -0.3090    1.3598 C   0  0  0  0  0  0  0  0  0  0  0  0
    1.6424   -1.0234    0.8480 C   0  0  0  0  0  0  0  0  0  0  0  0
   -1.7159    0.4074   -1.2809 N   0  0  0  0  0  0  0  0  0  0  0  0
   -3.9552   -0.0079    0.5729 H   0  0  0  0  0  0  0  0  0  0  0  0
   -2.9158    1.0946    1.5447 H   0  0  0  0  0  0  0  0  0  0  0  0
   -2.2362   -1.5657    1.1794 H   0  0  0  0  0  0  0  0  0  0  0  0
   -1.0449   -0.2592    1.3366 H   0  0  0  0  0  0  0  0  0  0  0  0
   -0.1483   -2.4157   -0.4728 H   0  0  0  0  0  0  0  0  0  0  0  0
   -0.0038   -1.5478   -1.9699 H   0  0  0  0  0  0  0  0  0  0  0  0
    1.0524    0.8419   -1.9434 H   0  0  0  0  0  0  0  0  0  0  0  0
    2.9639    2.0996   -1.0325 H   0  0  0  0  0  0  0  0  0  0  0  0
    3.2002   -0.6319    2.2840 H   0  0  0  0  0  0  0  0  0  0  0  0
    1.2844   -1.8976    1.3882 H   0  0  0  0  0  0  0  0  0  0  0  0
   -1.5034    0.6197   -2.2490 H   0  0  0  0  0  0  0  0  0  0  0  0
  1  2  2  0
  2  3  1  0
  3  4  1  0
  4  5  1  0
  5  6  1  0
  6  7  1  0
  7  8  2  0
  8  9  1  0
  9 10  2  0
 10 11  1  0
 10 12  1  0
 12 13  2  0
  5 14  1  0
 14  2  1  0
 13  7  1  0
  3 15  1  0
  3 16  1  0
  4 17  1  0
  4 18  1  0
  6 19  1  0
  6 20  1  0
  8 21  1  0
  9 22  1  0
 12 23  1  0
 13 24  1  0
 14 25  1  0
M  END
$$$$
