
     RDKit          3D

 33 34  0  0  0  0  0  0  0  0999 V2000
   -2.0173    0.0832   -1.9425 N   0  0  0  0  0  0  0  0  0  0  0  0
   -2.0198    0.2835   -0.6589 C   0  0  0  0  0  0  0  0  0  0  0  0
   -0.8936    0.7263    0.0152 N   0  0  0  0  0  0  0  0  0  0  0  0
    0.2868    0.4777   -0.7148 O   0  0  0  0  0  0  0  0  0  0  0  0
    0.9039   -0.6771   -0.3080 C   0  0  0  0  0  0  0  0  0  0  0  0
    0.5829   -1.3139    0.6922 O   0  0  0  0  0  0  0  0  0  0  0  0
    2.0410   -1.0255   -1.2311 C   0  0  0  0  0  0  0  0  0  0  0  0
    3.3109   -0.2928   -0.8867 C   0  0  0  0  0  0  0  0  0  0  0  0
    3.6544    0.8890   -1.5572 C   0  0  0  0  0  0  0  0  0  0  0  0
    4.8209    1.5775   -1.2213 C   0  0  0  0  0  0  0  0  0  0  0  0
    5.6504    1.0954   -0.2105 C   0  0  0  0  0  0  0  0  0  0  0  0
    5.3133   -0.0744    0.4678 C   0  0  0  0  0  0  0  0  0  0  0  0
    4.1475   -0.7650    0.1341 C   0  0  0  0  0  0  0  0  0  0  0  0
   -3.2593    0.0680    0.1469 C   0  0  0  0  0  0  0  0  0  0  0  0
   -3.6234    1.0791    1.0509 C   0  0  0  0  0  0  0  0  0  0  0  0
   -4.7700    0.9439    1.8353 C   0  0  0  0  0  0  0  0  0  0  0  0
   -5.5577   -0.1996    1.7240 C   0  0  0  0  0  0  0  0  0  0  0  0
   -5.2004   -1.2092    0.8284 C   0  0  0  0  0  0  0  0  0  0  0  0
   -4.0527   -1.0810    0.0376 C   0  0  0  0  0  0  0  0  0  0  0  0
   -3.6675   -2.3932   -1.0164 Cl  0  0  0  0  0  0  0  0  0  0  0  0
   -2.9345   -0.2411   -2.2675 H   0  0  0  0  0  0  0  0  0  0  0  0
   -0.8139    0.3863    0.9760 H   0  0  0  0  0  0  0  0  0  0  0  0
    1.7380   -0.8277   -2.2667 H   0  0  0  0  0  0  0  0  0  0  0  0
    2.2044   -2.1092   -1.1825 H   0  0  0  0  0  0  0  0  0  0  0  0
    3.0149    1.2833   -2.3448 H   0  0  0  0  0  0  0  0  0  0  0  0
    5.0814    2.4923   -1.7476 H   0  0  0  0  0  0  0  0  0  0  0  0
    6.5582    1.6329    0.0504 H   0  0  0  0  0  0  0  0  0  0  0  0
    5.9578   -0.4483    1.2592 H   0  0  0  0  0  0  0  0  0  0  0  0
    3.8946   -1.6733    0.6780 H   0  0  0  0  0  0  0  0  0  0  0  0
   -3.0278    1.9863    1.1339 H   0  0  0  0  0  0  0  0  0  0  0  0
   -5.0510    1.7332    2.5293 H   0  0  0  0  0  0  0  0  0  0  0  0
   -6.4515   -0.3067    2.3347 H   0  0  0  0  0  0  0  0  0  0  0  0
   -5.8209   -2.0998    0.7550 H   0  0  0  0  0  0  0  0  0  0  0  0
  1  2  2  3
  2  3  1  0
  3  4  1  0
  4  5  1  0
  5  6  2  0
  5  7  1  0
  7  8  1  0
  8  9  2  0
  9 10  1  0
 10 11  2  0
 11 12  1  0
 12 13  2  0
  2 14  1  0
 14 15  2  0
 15 16  1  0
 16 17  2  0
 17 18  1  0
 18 19  2  0
 19 20  1  0
 13  8  1  0
 19 14  1  0
  1 21  1  0
  3 22  1  0
  7 23  1  0
  7 24  1  0
  9 25  1  0
 10 26  1  0
 11 27  1  0
 12 28  1  0
 13 29  1  0
 15 30  1  0
 16 31  1  0
 17 32  1  0
 18 33  1  0
M  END
$$$$
