
     RDKit          3D

 93 97  0  0  0  0  0  0  0  0999 V2000
   -5.6138    3.7255   -1.6872 C   0  0  0  0  0  0  0  0  0  0  0  0
   -5.6962    2.4591   -0.8550 C   0  0  0  0  0  0  0  0  0  0  0  0
   -5.2516    1.2067   -1.6091 C   0  0  0  0  0  0  0  0  0  0  0  0
   -3.7593    1.1393   -1.8445 C   0  0  0  0  0  0  0  0  0  0  0  0
   -2.9501    1.9830   -1.4911 O   0  0  0  0  0  0  0  0  0  0  0  0
   -3.4631   -0.0182   -2.5001 O   0  0  0  0  0  0  0  0  0  0  0  0
   -2.0909   -0.2101   -2.8721 C   0  0  0  0  0  0  0  0  0  0  0  0
   -1.6508   -1.6291   -2.5081 C   0  0  1  0  0  0  0  0  0  0  0  0
   -0.2493   -1.9620   -3.0654 C   0  0  0  0  0  0  0  0  0  0  0  0
    0.7150   -1.8710   -1.8594 C   0  0  2  0  0  0  0  0  0  0  0  0
    0.9052   -0.4856   -1.5378 O   0  0  0  0  0  0  0  0  0  0  0  0
    1.6398    0.2653   -2.3963 C   0  0  0  0  0  0  0  0  0  0  0  0
    2.1604   -0.1177   -3.4335 O   0  0  0  0  0  0  0  0  0  0  0  0
    1.7904    1.6522   -1.9226 C   0  0  0  0  0  0  0  0  0  0  0  0
    1.0404    2.2061   -0.9553 C   0  0  0  0  0  0  0  0  0  0  0  0
    1.2131    3.5900   -0.4913 C   0  0  0  0  0  0  0  0  0  0  0  0
    0.9579    3.8889    0.8543 C   0  0  0  0  0  0  0  0  0  0  0  0
    1.0911    5.1961    1.3295 C   0  0  0  0  0  0  0  0  0  0  0  0
    1.4675    6.2194    0.4640 C   0  0  0  0  0  0  0  0  0  0  0  0
    1.7035    5.9390   -0.8802 C   0  0  0  0  0  0  0  0  0  0  0  0
    1.5715    4.6337   -1.3591 C   0  0  0  0  0  0  0  0  0  0  0  0
    1.9806   -2.7573   -2.0489 C   0  0  0  0  0  0  0  0  0  0  0  0
    1.8669   -3.8783   -2.5654 O   0  0  0  0  0  0  0  0  0  0  0  0
    3.3785   -2.3086   -1.6626 C   0  0  0  0  0  0  0  0  0  0  0  0
    4.3800   -2.8051   -2.6917 C   0  0  0  0  0  0  0  0  0  0  0  0
    3.8451   -1.6097   -0.6022 C   0  0  0  0  0  0  0  0  0  0  0  0
    3.2236   -1.0064    0.5964 C   0  0  0  0  0  0  0  0  0  0  0  0
    3.2255   -1.7225    1.9445 C   0  0  2  0  0  0  0  0  0  0  0  0
    2.0714   -1.6447    2.9247 C   0  0  0  0  0  0  0  0  0  0  0  0
    1.2166   -2.9257    3.0333 C   0  0  0  0  0  0  0  0  0  0  0  0
    0.4914   -3.3577    1.7725 C   0  0  2  0  0  0  0  0  0  0  0  0
   -0.4384   -4.5222    1.8946 C   0  0  0  0  0  0  0  0  0  0  0  0
    1.4074   -3.4538    0.6999 O   0  0  0  0  0  0  0  0  0  0  0  0
    0.3980   -2.4284    0.5655 C   0  0  1  0  0  0  0  0  0  0  0  0
   -0.1974   -2.5658   -0.7913 C   0  0  1  0  0  0  0  0  0  0  0  0
   -1.5832   -1.9373   -0.9890 C   0  0  1  0  0  0  0  0  0  0  0  0
   -1.7292   -0.7445   -0.1896 O   0  0  0  0  0  0  0  0  0  0  0  0
   -2.4290   -0.9002    0.9779 C   0  0  0  0  0  0  0  0  0  0  0  0
   -2.9346   -1.9529    1.3623 O   0  0  0  0  0  0  0  0  0  0  0  0
   -2.4440    0.3976    1.7527 C   0  0  0  0  0  0  0  0  0  0  0  0
   -3.4068    0.3730    2.9469 C   0  0  0  0  0  0  0  0  0  0  0  0
   -4.8671    0.4656    2.5252 C   0  0  0  0  0  0  0  0  0  0  0  0
    4.1217   -0.5113    1.7371 C   0  0  0  0  0  0  0  0  0  0  0  0
    3.7587    0.8286    2.3395 C   0  0  0  0  0  0  0  0  0  0  0  0
    5.6111   -0.7712    1.7713 C   0  0  0  0  0  0  0  0  0  0  0  0
   -5.9715    4.5848   -1.1113 H   0  0  0  0  0  0  0  0  0  0  0  0
   -4.5827    3.9309   -1.9874 H   0  0  0  0  0  0  0  0  0  0  0  0
   -6.2171    3.6498   -2.5934 H   0  0  0  0  0  0  0  0  0  0  0  0
   -5.0997    2.5872    0.0503 H   0  0  0  0  0  0  0  0  0  0  0  0
   -6.7370    2.3186   -0.5344 H   0  0  0  0  0  0  0  0  0  0  0  0
   -5.7641    1.1453   -2.5747 H   0  0  0  0  0  0  0  0  0  0  0  0
   -5.5204    0.3288   -1.0107 H   0  0  0  0  0  0  0  0  0  0  0  0
   -1.4217    0.5379   -2.4333 H   0  0  0  0  0  0  0  0  0  0  0  0
   -2.0492   -0.0897   -3.9632 H   0  0  0  0  0  0  0  0  0  0  0  0
   -2.3653   -2.3308   -2.9625 H   0  0  0  0  0  0  0  0  0  0  0  0
   -0.2702   -2.9807   -3.4771 H   0  0  0  0  0  0  0  0  0  0  0  0
    0.0187   -1.3013   -3.8957 H   0  0  0  0  0  0  0  0  0  0  0  0
    2.5667    2.2035   -2.4409 H   0  0  0  0  0  0  0  0  0  0  0  0
    0.2540    1.6362   -0.4635 H   0  0  0  0  0  0  0  0  0  0  0  0
    0.6566    3.1060    1.5450 H   0  0  0  0  0  0  0  0  0  0  0  0
    0.9051    5.4108    2.3806 H   0  0  0  0  0  0  0  0  0  0  0  0
    1.5745    7.2348    0.8356 H   0  0  0  0  0  0  0  0  0  0  0  0
    1.9868    6.7386   -1.5585 H   0  0  0  0  0  0  0  0  0  0  0  0
    1.7408    4.4519   -2.4190 H   0  0  0  0  0  0  0  0  0  0  0  0
    4.0050   -2.6171   -3.7073 H   0  0  0  0  0  0  0  0  0  0  0  0
    5.3520   -2.3055   -2.6115 H   0  0  0  0  0  0  0  0  0  0  0  0
    4.5486   -3.8800   -2.5685 H   0  0  0  0  0  0  0  0  0  0  0  0
    4.9243   -1.4484   -0.6316 H   0  0  0  0  0  0  0  0  0  0  0  0
    2.4023   -0.3415    0.3681 H   0  0  0  0  0  0  0  0  0  0  0  0
    3.7127   -2.6923    1.9977 H   0  0  0  0  0  0  0  0  0  0  0  0
    2.4987   -1.4547    3.9201 H   0  0  0  0  0  0  0  0  0  0  0  0
    1.4203   -0.7892    2.7084 H   0  0  0  0  0  0  0  0  0  0  0  0
    0.4750   -2.7712    3.8256 H   0  0  0  0  0  0  0  0  0  0  0  0
    1.8572   -3.7517    3.3614 H   0  0  0  0  0  0  0  0  0  0  0  0
   -1.2750   -4.2658    2.5520 H   0  0  0  0  0  0  0  0  0  0  0  0
    0.0807   -5.3858    2.3273 H   0  0  0  0  0  0  0  0  0  0  0  0
   -0.8475   -4.8319    0.9275 H   0  0  0  0  0  0  0  0  0  0  0  0
    0.5993   -1.3914    0.7877 H   0  0  0  0  0  0  0  0  0  0  0  0
   -0.2899   -3.6312   -1.0488 H   0  0  0  0  0  0  0  0  0  0  0  0
   -2.3672   -2.6699   -0.7515 H   0  0  0  0  0  0  0  0  0  0  0  0
   -2.7037    1.2228    1.0872 H   0  0  0  0  0  0  0  0  0  0  0  0
   -1.4204    0.5558    2.1250 H   0  0  0  0  0  0  0  0  0  0  0  0
   -3.1745    1.2250    3.5979 H   0  0  0  0  0  0  0  0  0  0  0  0
   -3.2664   -0.5367    3.5475 H   0  0  0  0  0  0  0  0  0  0  0  0
   -5.0613    1.4096    2.0130 H   0  0  0  0  0  0  0  0  0  0  0  0
   -5.1522   -0.3466    1.8497 H   0  0  0  0  0  0  0  0  0  0  0  0
   -5.5168    0.4189    3.4091 H   0  0  0  0  0  0  0  0  0  0  0  0
    2.7009    1.0815    2.2050 H   0  0  0  0  0  0  0  0  0  0  0  0
    3.9755    0.8379    3.4115 H   0  0  0  0  0  0  0  0  0  0  0  0
    4.3475    1.6222    1.8673 H   0  0  0  0  0  0  0  0  0  0  0  0
    5.8628   -1.8017    1.4998 H   0  0  0  0  0  0  0  0  0  0  0  0
    6.0038   -0.5977    2.7792 H   0  0  0  0  0  0  0  0  0  0  0  0
    6.1263   -0.0977    1.0819 H   0  0  0  0  0  0  0  0  0  0  0  0
  1  2  1  0
  2  3  1  0
  3  4  1  0
  4  5  2  0
  4  6  1  0
  6  7  1  0
  7  8  1  0
  8  9  1  0
  9 10  1  0
 10 11  1  1
 11 12  1  0
 12 13  2  0
 12 14  1  0
 14 15  2  0
 15 16  1  0
 16 17  2  0
 17 18  1  0
 18 19  2  0
 19 20  1  0
 20 21  2  0
 10 22  1  0
 22 23  2  0
 22 24  1  0
 24 25  1  0
 24 26  2  3
 26 27  1  0
 27 28  1  0
 28 29  1  0
 29 30  1  0
 30 31  1  0
 31 32  1  1
 31 33  1  0
 33 34  1  0
 34 35  1  0
 35 36  1  0
 36 37  1  0
 37 38  1  0
 38 39  2  0
 38 40  1  0
 40 41  1  0
 41 42  1  0
 28 43  1  0
 43 44  1  0
 43 45  1  0
 36  8  1  0
 35 10  1  0
 21 16  1  0
 43 27  1  0
 34 31  1  0
  1 46  1  0
  1 47  1  0
  1 48  1  0
  2 49  1  0
  2 50  1  0
  3 51  1  0
  3 52  1  0
  7 53  1  0
  7 54  1  0
  8 55  1  6
  9 56  1  0
  9 57  1  0
 14 58  1  0
 15 59  1  0
 17 60  1  0
 18 61  1  0
 19 62  1  0
 20 63  1  0
 21 64  1  0
 25 65  1  0
 25 66  1  0
 25 67  1  0
 26 68  1  0
 27 69  1  0
 28 70  1  6
 29 71  1  0
 29 72  1  0
 30 73  1  0
 30 74  1  0
 32 75  1  0
 32 76  1  0
 32 77  1  0
 34 78  1  1
 35 79  1  6
 36 80  1  1
 40 81  1  0
 40 82  1  0
 41 83  1  0
 41 84  1  0
 42 85  1  0
 42 86  1  0
 42 87  1  0
 44 88  1  0
 44 89  1  0
 44 90  1  0
 45 91  1  0
 45 92  1  0
 45 93  1  0
M  END
$$$$
