
     RDKit          3D

 74 75  0  0  0  0  0  0  0  0999 V2000
   -1.5201    5.9792   -0.5757 C   0  0  0  0  0  0  0  0  0  0  0  0
   -0.8299    4.8268   -0.1120 O   0  0  0  0  0  0  0  0  0  0  0  0
   -1.4925    4.0157    0.7726 C   0  0  0  0  0  0  0  0  0  0  0  0
   -2.6691    4.3642    1.4329 C   0  0  0  0  0  0  0  0  0  0  0  0
   -3.2817    3.4567    2.2940 C   0  0  0  0  0  0  0  0  0  0  0  0
   -2.7334    2.1877    2.4947 C   0  0  0  0  0  0  0  0  0  0  0  0
   -1.5512    1.7941    1.8503 C   0  0  0  0  0  0  0  0  0  0  0  0
   -0.9163    0.4102    2.0263 C   0  0  0  0  0  0  0  0  0  0  0  0
   -1.2708   -0.4560    3.2731 C   0  0  0  0  0  0  0  0  0  0  0  0
   -1.9488   -0.0685    4.2192 O   0  0  0  0  0  0  0  0  0  0  0  0
   -0.6314   -1.6915    3.2731 N   0  0  0  0  0  0  0  0  0  0  0  0
   -0.6546   -2.6559    4.3802 C   0  0  0  0  0  0  0  0  0  0  0  0
   -2.0928   -3.0833    4.7214 C   0  0  0  0  0  0  0  0  0  0  0  0
    0.1195   -3.9092    3.9305 C   0  0  0  0  0  0  0  0  0  0  0  0
    0.0301   -2.0737    5.6251 C   0  0  0  0  0  0  0  0  0  0  0  0
   -0.8621   -0.4019    0.7587 N   0  0  0  0  0  0  0  0  0  0  0  0
    0.4371   -0.7060    0.3536 C   0  0  0  0  0  0  0  0  0  0  0  0
    1.3447   -0.7922    1.1900 O   0  0  0  0  0  0  0  0  0  0  0  0
    0.7568   -0.9685   -1.1008 C   0  0  0  0  0  0  0  0  0  0  0  0
    2.1194   -0.3811   -1.4625 C   0  0  0  0  0  0  0  0  0  0  0  0
    2.5313   -0.7396   -2.8755 C   0  0  0  0  0  0  0  0  0  0  0  0
    1.9173   -1.5560   -3.5530 O   0  0  0  0  0  0  0  0  0  0  0  0
    3.6626   -0.0590   -3.2659 N   0  0  0  0  0  0  0  0  0  0  0  0
    4.3323   -0.2440   -4.4548 C   0  0  0  0  0  0  0  0  0  0  0  0
    4.0811   -1.1633   -5.4977 C   0  0  0  0  0  0  0  0  0  0  0  0
    5.0791   -0.9320   -6.4096 C   0  0  0  0  0  0  0  0  0  0  0  0
    5.4425   -1.5266   -7.7079 C   0  0  0  0  0  0  0  0  0  0  0  0
    5.8695    0.0760   -5.9576 O   0  0  0  0  0  0  0  0  0  0  0  0
    5.4032    0.5091   -4.7293 N   0  0  0  0  0  0  0  0  0  0  0  0
   -2.1392   -0.8192    0.0510 C   0  0  0  0  0  0  0  0  0  0  0  0
   -3.3328   -1.0043    1.0233 C   0  0  0  0  0  0  0  0  0  0  0  0
   -1.9971   -2.2078   -0.6222 C   0  0  0  0  0  0  0  0  0  0  0  0
   -2.5676    0.2172   -1.0051 C   0  0  0  0  0  0  0  0  0  0  0  0
   -0.9229    2.7500    1.0167 C   0  0  0  0  0  0  0  0  0  0  0  0
    0.2409    2.3883    0.3704 O   0  0  0  0  0  0  0  0  0  0  0  0
    1.3693    3.0129    0.9875 C   0  0  0  0  0  0  0  0  0  0  0  0
   -1.6308    6.7170    0.2249 H   0  0  0  0  0  0  0  0  0  0  0  0
   -0.9159    6.4353   -1.3662 H   0  0  0  0  0  0  0  0  0  0  0  0
   -2.4891    5.7167   -1.0118 H   0  0  0  0  0  0  0  0  0  0  0  0
   -3.1342    5.3360    1.3051 H   0  0  0  0  0  0  0  0  0  0  0  0
   -4.1971    3.7346    2.8119 H   0  0  0  0  0  0  0  0  0  0  0  0
   -3.2619    1.5164    3.1674 H   0  0  0  0  0  0  0  0  0  0  0  0
    0.1157    0.6865    2.2938 H   0  0  0  0  0  0  0  0  0  0  0  0
    0.1576   -1.7460    2.6309 H   0  0  0  0  0  0  0  0  0  0  0  0
   -2.6905   -2.2528    5.1104 H   0  0  0  0  0  0  0  0  0  0  0  0
   -2.0972   -3.8690    5.4853 H   0  0  0  0  0  0  0  0  0  0  0  0
   -2.6089   -3.4735    3.8375 H   0  0  0  0  0  0  0  0  0  0  0  0
    1.1583   -3.6612    3.6790 H   0  0  0  0  0  0  0  0  0  0  0  0
    0.1336   -4.6786    4.7120 H   0  0  0  0  0  0  0  0  0  0  0  0
   -0.3348   -4.3501    3.0341 H   0  0  0  0  0  0  0  0  0  0  0  0
    1.0432   -1.7268    5.3945 H   0  0  0  0  0  0  0  0  0  0  0  0
   -0.5224   -1.2189    6.0283 H   0  0  0  0  0  0  0  0  0  0  0  0
    0.1036   -2.8209    6.4239 H   0  0  0  0  0  0  0  0  0  0  0  0
    0.0155   -0.5299   -1.7645 H   0  0  0  0  0  0  0  0  0  0  0  0
    0.7666   -2.0534   -1.2494 H   0  0  0  0  0  0  0  0  0  0  0  0
    2.8974   -0.7558   -0.7874 H   0  0  0  0  0  0  0  0  0  0  0  0
    2.0875    0.7100   -1.3659 H   0  0  0  0  0  0  0  0  0  0  0  0
    4.0755    0.6419   -2.6669 H   0  0  0  0  0  0  0  0  0  0  0  0
    3.2975   -1.9017   -5.5715 H   0  0  0  0  0  0  0  0  0  0  0  0
    5.8060   -0.7629   -8.4030 H   0  0  0  0  0  0  0  0  0  0  0  0
    6.2315   -2.2741   -7.5752 H   0  0  0  0  0  0  0  0  0  0  0  0
    4.5792   -2.0177   -8.1673 H   0  0  0  0  0  0  0  0  0  0  0  0
   -4.2246   -1.3547    0.4877 H   0  0  0  0  0  0  0  0  0  0  0  0
   -3.6286   -0.0772    1.5134 H   0  0  0  0  0  0  0  0  0  0  0  0
   -3.1125   -1.7510    1.7936 H   0  0  0  0  0  0  0  0  0  0  0  0
   -1.5255   -2.9272    0.0564 H   0  0  0  0  0  0  0  0  0  0  0  0
   -2.9734   -2.6174   -0.9094 H   0  0  0  0  0  0  0  0  0  0  0  0
   -1.4229   -2.1750   -1.5492 H   0  0  0  0  0  0  0  0  0  0  0  0
   -1.7857    0.4288   -1.7357 H   0  0  0  0  0  0  0  0  0  0  0  0
   -3.4486   -0.1294   -1.5555 H   0  0  0  0  0  0  0  0  0  0  0  0
   -2.8414    1.1710   -0.5452 H   0  0  0  0  0  0  0  0  0  0  0  0
    2.2621    2.4641    0.6745 H   0  0  0  0  0  0  0  0  0  0  0  0
    1.4770    4.0481    0.6522 H   0  0  0  0  0  0  0  0  0  0  0  0
    1.3158    2.9703    2.0816 H   0  0  0  0  0  0  0  0  0  0  0  0
  1  2  1  0
  2  3  1  0
  3  4  2  0
  4  5  1  0
  5  6  2  0
  6  7  1  0
  7  8  1  0
  8  9  1  0
  9 10  2  0
  9 11  1  0
 11 12  1  0
 12 13  1  0
 12 14  1  0
 12 15  1  0
  8 16  1  0
 16 17  1  0
 17 18  2  0
 17 19  1  0
 19 20  1  0
 20 21  1  0
 21 22  2  0
 21 23  1  0
 23 24  1  0
 24 25  1  0
 25 26  2  0
 26 27  1  0
 26 28  1  0
 28 29  1  0
 16 30  1  0
 30 31  1  0
 30 32  1  0
 30 33  1  0
  7 34  2  0
 34 35  1  0
 35 36  1  0
 34  3  1  0
 29 24  2  0
  1 37  1  0
  1 38  1  0
  1 39  1  0
  4 40  1  0
  5 41  1  0
  6 42  1  0
  8 43  1  0
 11 44  1  0
 13 45  1  0
 13 46  1  0
 13 47  1  0
 14 48  1  0
 14 49  1  0
 14 50  1  0
 15 51  1  0
 15 52  1  0
 15 53  1  0
 19 54  1  0
 19 55  1  0
 20 56  1  0
 20 57  1  0
 23 58  1  0
 25 59  1  0
 27 60  1  0
 27 61  1  0
 27 62  1  0
 31 63  1  0
 31 64  1  0
 31 65  1  0
 32 66  1  0
 32 67  1  0
 32 68  1  0
 33 69  1  0
 33 70  1  0
 33 71  1  0
 36 72  1  0
 36 73  1  0
 36 74  1  0
M  END
$$$$
