
     RDKit          3D

 31 31  0  0  0  0  0  0  0  0999 V2000
    5.3752    0.2017    1.2874 C   0  0  0  0  0  0  0  0  0  0  0  0
    4.3043    0.3439    0.3663 O   0  0  0  0  0  0  0  0  0  0  0  0
    3.0909   -0.1907    0.8894 C   0  0  0  0  0  0  0  0  0  0  0  0
    2.0502   -0.0280   -0.0763 O   0  0  0  0  0  0  0  0  0  0  0  0
    0.8256   -0.4372    0.3938 C   0  0  0  0  0  0  0  0  0  0  0  0
   -0.3247   -0.0409   -0.1740 C   0  0  0  0  0  0  0  0  0  0  0  0
   -0.2806    0.8077   -1.2577 N   0  0  0  0  0  0  0  0  0  0  0  0
   -1.3349    1.3367   -1.9759 C   0  0  0  0  0  0  0  0  0  0  0  0
   -0.8733    2.2259   -3.1031 C   0  0  0  0  0  0  0  0  0  0  0  0
   -2.5294    1.1678   -1.7587 O   0  0  0  0  0  0  0  0  0  0  0  0
   -1.5863   -0.5376    0.3910 C   0  0  0  0  0  0  0  0  0  0  0  0
   -2.1271   -1.7536   -0.0473 C   0  0  0  0  0  0  0  0  0  0  0  0
   -3.3019   -2.2484    0.5224 C   0  0  0  0  0  0  0  0  0  0  0  0
   -3.9410   -1.5340    1.5351 C   0  0  0  0  0  0  0  0  0  0  0  0
   -3.4092   -0.3234    1.9780 C   0  0  0  0  0  0  0  0  0  0  0  0
   -2.2342    0.1732    1.4099 C   0  0  0  0  0  0  0  0  0  0  0  0
    6.2762    0.6266    0.8369 H   0  0  0  0  0  0  0  0  0  0  0  0
    5.5585   -0.8554    1.5031 H   0  0  0  0  0  0  0  0  0  0  0  0
    5.1598    0.7433    2.2136 H   0  0  0  0  0  0  0  0  0  0  0  0
    2.8285    0.3479    1.8088 H   0  0  0  0  0  0  0  0  0  0  0  0
    3.2289   -1.2585    1.1001 H   0  0  0  0  0  0  0  0  0  0  0  0
    0.8577   -1.1137    1.2390 H   0  0  0  0  0  0  0  0  0  0  0  0
    0.6603    1.0609   -1.5458 H   0  0  0  0  0  0  0  0  0  0  0  0
   -0.7441    3.2448   -2.7292 H   0  0  0  0  0  0  0  0  0  0  0  0
    0.0696    1.8688   -3.5273 H   0  0  0  0  0  0  0  0  0  0  0  0
   -1.6243    2.2212   -3.8984 H   0  0  0  0  0  0  0  0  0  0  0  0
   -1.6417   -2.3125   -0.8434 H   0  0  0  0  0  0  0  0  0  0  0  0
   -3.7231   -3.1855    0.1687 H   0  0  0  0  0  0  0  0  0  0  0  0
   -4.8608   -1.9148    1.9710 H   0  0  0  0  0  0  0  0  0  0  0  0
   -3.9146    0.2400    2.7575 H   0  0  0  0  0  0  0  0  0  0  0  0
   -1.8343    1.1240    1.7527 H   0  0  0  0  0  0  0  0  0  0  0  0
  1  2  1  0
  2  3  1  0
  3  4  1  0
  4  5  1  0
  5  6  2  3
  6  7  1  0
  7  8  1  0
  8  9  1  0
  8 10  2  0
  6 11  1  0
 11 12  2  0
 12 13  1  0
 13 14  2  0
 14 15  1  0
 15 16  2  0
 16 11  1  0
  1 17  1  0
  1 18  1  0
  1 19  1  0
  3 20  1  0
  3 21  1  0
  5 22  1  0
  7 23  1  0
  9 24  1  0
  9 25  1  0
  9 26  1  0
 12 27  1  0
 13 28  1  0
 14 29  1  0
 15 30  1  0
 16 31  1  0
M  END
$$$$
