
     RDKit          3D

 48 51  0  0  0  0  0  0  0  0999 V2000
    0.1206    1.7211   -1.2733 C   0  0  0  0  0  0  0  0  0  0  0  0
   -0.3336    0.2906   -1.5147 C   0  0  0  0  0  0  0  0  0  0  0  0
   -0.5845   -0.4334   -0.2884 N   0  0  0  0  0  0  0  0  0  0  0  0
   -1.8246   -0.7060    0.2445 C   0  0  0  0  0  0  0  0  0  0  0  0
   -3.3248   -0.4725   -0.5832 S   0  0  0  0  0  0  0  0  0  0  0  0
   -4.4940   -0.7251    0.7896 C   0  0  0  0  0  0  0  0  0  0  0  0
   -5.9195   -0.4277    0.3827 C   0  0  0  0  0  0  0  0  0  0  0  0
   -6.3108    0.8886    0.0550 C   0  0  0  0  0  0  0  0  0  0  0  0
   -7.6311    1.1678   -0.3017 C   0  0  0  0  0  0  0  0  0  0  0  0
   -8.5643    0.1385   -0.3240 C   0  0  0  0  0  0  0  0  0  0  0  0
   -9.8316    0.4048   -0.6641 F   0  0  0  0  0  0  0  0  0  0  0  0
   -8.2028   -1.1693    0.0045 C   0  0  0  0  0  0  0  0  0  0  0  0
   -6.8830   -1.4497    0.3633 C   0  0  0  0  0  0  0  0  0  0  0  0
   -1.7017   -1.1223    1.4791 N   0  0  0  0  0  0  0  0  0  0  0  0
   -0.3706   -1.1251    1.7803 N   0  0  0  0  0  0  0  0  0  0  0  0
    0.3136   -0.7685    0.7076 C   0  0  0  0  0  0  0  0  0  0  0  0
    1.8740   -0.7148    0.7871 C   0  0  0  0  0  0  0  0  0  0  0  0
    2.5677   -0.8453    2.0028 C   0  0  0  0  0  0  0  0  0  0  0  0
    3.8844   -0.7373    1.8521 N   0  0  0  0  0  0  0  0  0  0  0  0
    4.0516   -0.4167    0.5409 N   0  0  0  0  0  0  0  0  0  0  0  0
    5.3123    0.1035    0.1179 C   0  0  0  0  0  0  0  0  0  0  0  0
    6.4456   -0.1244    0.9180 C   0  0  0  0  0  0  0  0  0  0  0  0
    7.6892    0.3863    0.5511 C   0  0  0  0  0  0  0  0  0  0  0  0
    7.8077    1.1565   -0.6026 C   0  0  0  0  0  0  0  0  0  0  0  0
    6.6852    1.4138   -1.3907 C   0  0  0  0  0  0  0  0  0  0  0  0
    5.4388    0.8962   -1.0299 C   0  0  0  0  0  0  0  0  0  0  0  0
    2.8789   -0.6396   -0.1629 C   0  0  0  0  0  0  0  0  0  0  0  0
    2.8939   -0.9044   -1.6037 C   0  0  0  0  0  0  0  0  0  0  0  0
    2.6332    0.2178   -2.3192 F   0  0  0  0  0  0  0  0  0  0  0  0
    1.9463   -1.8141   -1.9528 F   0  0  0  0  0  0  0  0  0  0  0  0
    4.0678   -1.4059   -2.0549 F   0  0  0  0  0  0  0  0  0  0  0  0
   -0.5924    2.2663   -0.6410 H   0  0  0  0  0  0  0  0  0  0  0  0
    0.2100    2.2605   -2.2258 H   0  0  0  0  0  0  0  0  0  0  0  0
    1.0970    1.7602   -0.7763 H   0  0  0  0  0  0  0  0  0  0  0  0
    0.3842   -0.2749   -2.1051 H   0  0  0  0  0  0  0  0  0  0  0  0
   -1.2447    0.3095   -2.1194 H   0  0  0  0  0  0  0  0  0  0  0  0
   -4.2291   -0.0683    1.6290 H   0  0  0  0  0  0  0  0  0  0  0  0
   -4.4112   -1.7609    1.1289 H   0  0  0  0  0  0  0  0  0  0  0  0
   -5.5852    1.6998    0.0705 H   0  0  0  0  0  0  0  0  0  0  0  0
   -7.9355    2.1784   -0.5546 H   0  0  0  0  0  0  0  0  0  0  0  0
   -8.9542   -1.9566   -0.0081 H   0  0  0  0  0  0  0  0  0  0  0  0
   -6.6120   -2.4685    0.6367 H   0  0  0  0  0  0  0  0  0  0  0  0
    2.1580   -1.0086    2.9924 H   0  0  0  0  0  0  0  0  0  0  0  0
    6.3815   -0.7053    1.8356 H   0  0  0  0  0  0  0  0  0  0  0  0
    8.5603    0.1944    1.1715 H   0  0  0  0  0  0  0  0  0  0  0  0
    8.7718    1.5663   -0.8819 H   0  0  0  0  0  0  0  0  0  0  0  0
    6.7777    2.0467   -2.2712 H   0  0  0  0  0  0  0  0  0  0  0  0
    4.5901    1.1781   -1.6435 H   0  0  0  0  0  0  0  0  0  0  0  0
  1  2  1  0
  2  3  1  0
  3  4  1  0
  4  5  1  0
  5  6  1  0
  6  7  1  0
  7  8  2  0
  8  9  1  0
  9 10  2  0
 10 11  1  0
 10 12  1  0
 12 13  2  0
  4 14  2  0
 14 15  1  0
 15 16  2  0
 16 17  1  0
 17 18  1  0
 18 19  2  0
 19 20  1  0
 20 21  1  0
 21 22  2  0
 22 23  1  0
 23 24  2  0
 24 25  1  0
 25 26  2  0
 20 27  1  0
 27 28  1  0
 28 29  1  0
 28 30  1  0
 28 31  1  0
 16  3  1  0
 27 17  2  0
 13  7  1  0
 26 21  1  0
  1 32  1  0
  1 33  1  0
  1 34  1  0
  2 35  1  0
  2 36  1  0
  6 37  1  0
  6 38  1  0
  8 39  1  0
  9 40  1  0
 12 41  1  0
 13 42  1  0
 18 43  1  0
 22 44  1  0
 23 45  1  0
 24 46  1  0
 25 47  1  0
 26 48  1  0
M  END
$$$$
