
     RDKit          3D

 58 61  0  0  0  0  0  0  0  0999 V2000
   -3.2865    6.3138    2.4389 C   0  0  0  0  0  0  0  0  0  0  0  0
   -2.5316    5.2579    1.8585 O   0  0  0  0  0  0  0  0  0  0  0  0
   -3.1807    4.0708    1.6539 C   0  0  0  0  0  0  0  0  0  0  0  0
   -4.5109    3.8059    1.9495 C   0  0  0  0  0  0  0  0  0  0  0  0
   -5.0609    2.5446    1.6935 C   0  0  0  0  0  0  0  0  0  0  0  0
   -4.2506    1.5409    1.1287 C   0  0  0  0  0  0  0  0  0  0  0  0
   -4.7211   -0.0639    0.7366 S   0  0  0  0  0  0  0  0  0  0  0  0
   -3.1651   -0.4704    0.1571 C   0  0  0  0  0  0  0  0  0  0  0  0
   -2.9513   -1.8230   -0.3753 C   0  0  0  0  0  0  0  0  0  0  0  0
   -3.0115   -2.0144   -1.7655 C   0  0  0  0  0  0  0  0  0  0  0  0
   -2.8064   -3.2777   -2.3167 C   0  0  0  0  0  0  0  0  0  0  0  0
   -2.5364   -4.3592   -1.4837 C   0  0  0  0  0  0  0  0  0  0  0  0
   -2.4680   -4.1823   -0.0986 C   0  0  0  0  0  0  0  0  0  0  0  0
   -2.6731   -2.9186    0.4683 C   0  0  0  0  0  0  0  0  0  0  0  0
   -2.6024   -2.6529    1.8132 O   0  0  0  0  0  0  0  0  0  0  0  0
   -2.4451   -3.7567    2.6934 C   0  0  0  0  0  0  0  0  0  0  0  0
   -2.2883    0.5983    0.2485 C   0  0  0  0  0  0  0  0  0  0  0  0
   -0.9055    0.4942   -0.2040 C   0  0  0  0  0  0  0  0  0  0  0  0
    0.0146   -0.2889    0.5006 C   0  0  0  0  0  0  0  0  0  0  0  0
    1.3413   -0.3863    0.0662 C   0  0  0  0  0  0  0  0  0  0  0  0
    1.7582    0.3033   -1.0730 C   0  0  0  0  0  0  0  0  0  0  0  0
    3.0192    0.2949   -1.6026 O   0  0  0  0  0  0  0  0  0  0  0  0
    4.0084   -0.4773   -0.9134 C   0  0  0  0  0  0  0  0  0  0  0  0
    5.3333   -0.3462   -1.6827 C   0  0  0  0  0  0  0  0  0  0  0  0
    6.4330   -1.1687   -1.1409 N   0  0  0  0  0  0  0  0  0  0  0  0
    6.8861   -0.6795    0.1630 C   0  0  0  0  0  0  0  0  0  0  0  0
    7.5572   -1.1752   -2.0816 C   0  0  0  0  0  0  0  0  0  0  0  0
    0.8380    1.0892   -1.7722 C   0  0  0  0  0  0  0  0  0  0  0  0
   -0.4875    1.1881   -1.3425 C   0  0  0  0  0  0  0  0  0  0  0  0
   -2.9108    1.7741    0.8158 C   0  0  0  0  0  0  0  0  0  0  0  0
   -2.3860    3.0640    1.0927 C   0  0  0  0  0  0  0  0  0  0  0  0
   -3.6369    6.0445    3.4408 H   0  0  0  0  0  0  0  0  0  0  0  0
   -2.6263    7.1807    2.5393 H   0  0  0  0  0  0  0  0  0  0  0  0
   -4.1210    6.6041    1.7921 H   0  0  0  0  0  0  0  0  0  0  0  0
   -5.1604    4.5583    2.3849 H   0  0  0  0  0  0  0  0  0  0  0  0
   -6.1022    2.3431    1.9295 H   0  0  0  0  0  0  0  0  0  0  0  0
   -3.2176   -1.1727   -2.4230 H   0  0  0  0  0  0  0  0  0  0  0  0
   -2.8539   -3.4152   -3.3937 H   0  0  0  0  0  0  0  0  0  0  0  0
   -2.3726   -5.3449   -1.9124 H   0  0  0  0  0  0  0  0  0  0  0  0
   -2.2445   -5.0523    0.5095 H   0  0  0  0  0  0  0  0  0  0  0  0
   -3.2659   -4.4731    2.5836 H   0  0  0  0  0  0  0  0  0  0  0  0
   -1.4737   -4.2401    2.5472 H   0  0  0  0  0  0  0  0  0  0  0  0
   -2.4737   -3.3734    3.7179 H   0  0  0  0  0  0  0  0  0  0  0  0
   -0.2972   -0.8308    1.3911 H   0  0  0  0  0  0  0  0  0  0  0  0
    2.0179   -1.0102    0.6401 H   0  0  0  0  0  0  0  0  0  0  0  0
    4.1238   -0.0911    0.1052 H   0  0  0  0  0  0  0  0  0  0  0  0
    3.7084   -1.5320   -0.8874 H   0  0  0  0  0  0  0  0  0  0  0  0
    5.1300   -0.6509   -2.7187 H   0  0  0  0  0  0  0  0  0  0  0  0
    5.6212    0.7125   -1.7402 H   0  0  0  0  0  0  0  0  0  0  0  0
    6.0963   -0.7680    0.9153 H   0  0  0  0  0  0  0  0  0  0  0  0
    7.2136    0.3656    0.1221 H   0  0  0  0  0  0  0  0  0  0  0  0
    7.7220   -1.2857    0.5312 H   0  0  0  0  0  0  0  0  0  0  0  0
    7.9607   -0.1703   -2.2511 H   0  0  0  0  0  0  0  0  0  0  0  0
    8.3662   -1.8148   -1.7110 H   0  0  0  0  0  0  0  0  0  0  0  0
    7.2498   -1.5922   -3.0472 H   0  0  0  0  0  0  0  0  0  0  0  0
    1.1562    1.6292   -2.6604 H   0  0  0  0  0  0  0  0  0  0  0  0
   -1.1870    1.8038   -1.9025 H   0  0  0  0  0  0  0  0  0  0  0  0
   -1.3429    3.2768    0.8688 H   0  0  0  0  0  0  0  0  0  0  0  0
  1  2  1  0
  2  3  1  0
  3  4  2  0
  4  5  1  0
  5  6  2  0
  6  7  1  0
  7  8  1  0
  8  9  1  0
  9 10  2  0
 10 11  1  0
 11 12  2  0
 12 13  1  0
 13 14  2  0
 14 15  1  0
 15 16  1  0
  8 17  2  0
 17 18  1  0
 18 19  2  0
 19 20  1  0
 20 21  2  0
 21 22  1  0
 22 23  1  0
 23 24  1  0
 24 25  1  0
 25 26  1  0
 25 27  1  0
 21 28  1  0
 28 29  2  0
 17 30  1  0
 30 31  2  0
 31  3  1  0
 30  6  1  0
 14  9  1  0
 29 18  1  0
  1 32  1  0
  1 33  1  0
  1 34  1  0
  4 35  1  0
  5 36  1  0
 10 37  1  0
 11 38  1  0
 12 39  1  0
 13 40  1  0
 16 41  1  0
 16 42  1  0
 16 43  1  0
 19 44  1  0
 20 45  1  0
 23 46  1  0
 23 47  1  0
 24 48  1  0
 24 49  1  0
 26 50  1  0
 26 51  1  0
 26 52  1  0
 27 53  1  0
 27 54  1  0
 27 55  1  0
 28 56  1  0
 29 57  1  0
 31 58  1  0
M  END
$$$$
