
     RDKit          3D

 31 32  0  0  0  0  0  0  0  0999 V2000
    2.7811   -1.6299    3.2580 C   0  0  0  0  0  0  0  0  0  0  0  0
    3.4592   -2.6402    1.9121 S   0  0  0  0  0  0  0  0  0  0  0  0
    2.4961   -2.0149    0.5464 C   0  0  0  0  0  0  0  0  0  0  0  0
    1.7417   -2.9104   -0.2189 C   0  0  0  0  0  0  0  0  0  0  0  0
    0.9661   -2.4495   -1.2846 C   0  0  0  0  0  0  0  0  0  0  0  0
    0.9494   -1.0911   -1.5964 C   0  0  0  0  0  0  0  0  0  0  0  0
    1.7230   -0.2005   -0.8559 C   0  0  0  0  0  0  0  0  0  0  0  0
    1.6670    1.1937   -1.1597 N   0  0  0  0  0  0  0  0  0  0  0  0
    0.5224    2.0960   -0.2820 S   0  0  0  0  0  6  0  0  0  0  0  0
    0.6889    3.4803   -0.6747 O   0  0  0  0  0  0  0  0  0  0  0  0
    0.5908    1.7104    1.1143 O   0  0  0  0  0  0  0  0  0  0  0  0
   -1.0991    1.6945   -0.7822 C   0  0  0  0  0  0  0  0  0  0  0  0
   -2.2393    1.8339   -0.0129 C   0  0  0  0  0  0  0  0  0  0  0  0
   -3.2596    1.4180   -0.8167 N   0  0  0  0  0  0  0  0  0  0  0  0
   -4.6588    1.3756   -0.4753 C   0  0  0  0  0  0  0  0  0  0  0  0
   -2.7284    1.0481   -2.0196 C   0  0  0  0  0  0  0  0  0  0  0  0
   -1.4230    1.1996   -2.0378 N   0  0  0  0  0  0  0  0  0  0  0  0
    2.4937   -0.6565    0.2151 C   0  0  0  0  0  0  0  0  0  0  0  0
    3.0534   -0.5788    3.1332 H   0  0  0  0  0  0  0  0  0  0  0  0
    1.6923   -1.7232    3.2972 H   0  0  0  0  0  0  0  0  0  0  0  0
    3.1936   -1.9804    4.2079 H   0  0  0  0  0  0  0  0  0  0  0  0
    1.7446   -3.9727    0.0153 H   0  0  0  0  0  0  0  0  0  0  0  0
    0.3738   -3.1481   -1.8698 H   0  0  0  0  0  0  0  0  0  0  0  0
    0.3426   -0.7343   -2.4253 H   0  0  0  0  0  0  0  0  0  0  0  0
    2.5638    1.6718   -1.0865 H   0  0  0  0  0  0  0  0  0  0  0  0
   -2.3818    2.1860    0.9998 H   0  0  0  0  0  0  0  0  0  0  0  0
   -5.2037    2.0212   -1.1688 H   0  0  0  0  0  0  0  0  0  0  0  0
   -4.7964    1.7300    0.5494 H   0  0  0  0  0  0  0  0  0  0  0  0
   -5.0044    0.3424   -0.5613 H   0  0  0  0  0  0  0  0  0  0  0  0
   -3.3317    0.6811   -2.8404 H   0  0  0  0  0  0  0  0  0  0  0  0
    3.0825    0.0480    0.7949 H   0  0  0  0  0  0  0  0  0  0  0  0
  1  2  1  0
  2  3  1  0
  3  4  2  0
  4  5  1  0
  5  6  2  0
  6  7  1  0
  7  8  1  0
  8  9  1  0
  9 10  2  0
  9 11  2  0
  9 12  1  0
 12 13  2  0
 13 14  1  0
 14 15  1  0
 14 16  1  0
 16 17  2  0
  7 18  2  0
 18  3  1  0
 17 12  1  0
  1 19  1  0
  1 20  1  0
  1 21  1  0
  4 22  1  0
  5 23  1  0
  6 24  1  0
  8 25  1  0
 13 26  1  0
 15 27  1  0
 15 28  1  0
 15 29  1  0
 16 30  1  0
 18 31  1  0
M  END
$$$$
