
     RDKit          3D

 33 35  0  0  0  0  0  0  0  0999 V2000
    2.6655   -2.4490    1.1842 O   0  0  0  0  0  0  0  0  0  0  0  0
    3.4732   -1.5106    0.5966 C   0  0  0  0  0  0  0  0  0  0  0  0
    4.8598   -1.6751    0.6412 C   0  0  0  0  0  0  0  0  0  0  0  0
    5.6883   -0.7290    0.0397 C   0  0  0  0  0  0  0  0  0  0  0  0
    5.1315    0.3712   -0.6084 C   0  0  0  0  0  0  0  0  0  0  0  0
    3.7435    0.5323   -0.6501 C   0  0  0  0  0  0  0  0  0  0  0  0
    2.8926   -0.3982   -0.0342 C   0  0  0  0  0  0  0  0  0  0  0  0
    1.4270   -0.2542   -0.0984 C   0  0  0  0  0  0  0  0  0  0  0  0
    0.7729    0.9175   -0.0228 C   0  0  0  0  0  0  0  0  0  0  0  0
   -0.6915    1.0482   -0.0754 C   0  0  0  0  0  0  0  0  0  0  0  0
   -1.2801    2.3005    0.0551 C   0  0  0  0  0  0  0  0  0  0  0  0
   -2.6681    2.4004   -0.0023 C   0  0  0  0  0  0  0  0  0  0  0  0
   -3.4395    1.2486   -0.1886 C   0  0  0  0  0  0  0  0  0  0  0  0
   -4.8457    1.2866   -0.2544 C   0  0  0  0  0  0  0  0  0  0  0  0
   -5.5776    0.1124   -0.4411 C   0  0  0  0  0  0  0  0  0  0  0  0
   -4.9129   -1.1035   -0.5624 C   0  0  0  0  0  0  0  0  0  0  0  0
   -3.5232   -1.1264   -0.4953 C   0  0  0  0  0  0  0  0  0  0  0  0
   -2.8888   -2.3401   -0.6159 O   0  0  0  0  0  0  0  0  0  0  0  0
   -2.7596    0.0227   -0.3113 C   0  0  0  0  0  0  0  0  0  0  0  0
   -1.4153   -0.0810   -0.2583 N   0  0  0  0  0  0  0  0  0  0  0  0
    3.2204   -3.1341    1.5892 H   0  0  0  0  0  0  0  0  0  0  0  0
    5.3083   -2.5316    1.1346 H   0  0  0  0  0  0  0  0  0  0  0  0
    6.7678   -0.8531    0.0689 H   0  0  0  0  0  0  0  0  0  0  0  0
    5.7759    1.1026   -1.0897 H   0  0  0  0  0  0  0  0  0  0  0  0
    3.3347    1.3867   -1.1837 H   0  0  0  0  0  0  0  0  0  0  0  0
    0.8758   -1.1886   -0.1828 H   0  0  0  0  0  0  0  0  0  0  0  0
    1.3242    1.8440    0.1014 H   0  0  0  0  0  0  0  0  0  0  0  0
   -0.6793    3.1920    0.2009 H   0  0  0  0  0  0  0  0  0  0  0  0
   -3.1387    3.3747    0.0994 H   0  0  0  0  0  0  0  0  0  0  0  0
   -5.3765    2.2314   -0.1602 H   0  0  0  0  0  0  0  0  0  0  0  0
   -6.6629    0.1463   -0.4912 H   0  0  0  0  0  0  0  0  0  0  0  0
   -5.4652   -2.0271   -0.7073 H   0  0  0  0  0  0  0  0  0  0  0  0
   -1.9365   -2.1163   -0.5320 H   0  0  0  0  0  0  0  0  0  0  0  0
  1  2  1  0
  2  3  2  0
  3  4  1  0
  4  5  2  0
  5  6  1  0
  6  7  2  0
  7  8  1  0
  8  9  2  0
  9 10  1  0
 10 11  2  0
 11 12  1  0
 12 13  2  0
 13 14  1  0
 14 15  2  0
 15 16  1  0
 16 17  2  0
 17 18  1  0
 17 19  1  0
 19 20  2  0
  7  2  1  0
 20 10  1  0
 19 13  1  0
  1 21  1  0
  3 22  1  0
  4 23  1  0
  5 24  1  0
  6 25  1  0
  8 26  1  0
  9 27  1  0
 11 28  1  0
 12 29  1  0
 14 30  1  0
 15 31  1  0
 16 32  1  0
 18 33  1  0
M  END
$$$$
