
     RDKit          3D

 40 42  0  0  0  0  0  0  0  0999 V2000
    4.7079    0.7402    0.8388 N   0  0  0  0  0  0  0  0  0  0  0  0
    3.7857   -0.3456    0.5323 C   0  0  0  0  0  0  0  0  0  0  0  0
    2.5823    0.1833   -0.2489 C   0  0  0  0  0  0  0  0  0  0  0  0
    1.6192   -0.9506   -0.6064 C   0  0  0  0  0  0  0  0  0  0  0  0
    0.3951   -0.5130   -1.4303 C   0  0  0  0  0  0  0  0  0  0  0  0
   -0.6139    0.2227   -0.6278 N   0  0  0  0  0  0  0  0  0  0  0  0
   -0.6505    1.6473   -0.7449 C   0  0  0  0  0  0  0  0  0  0  0  0
    0.2932    2.3805   -1.5027 C   0  0  0  0  0  0  0  0  0  0  0  0
    0.2624    3.7773   -1.6221 C   0  0  0  0  0  0  0  0  0  0  0  0
   -0.7216    4.5051   -0.9811 C   0  0  0  0  0  0  0  0  0  0  0  0
   -1.6651    3.8286   -0.2211 C   0  0  0  0  0  0  0  0  0  0  0  0
   -1.6359    2.4223   -0.0976 C   0  0  0  0  0  0  0  0  0  0  0  0
   -2.9238    1.7485    0.9186 S   0  0  0  0  0  0  0  0  0  0  0  0
   -2.5774    0.0114    0.8795 C   0  0  0  0  0  0  0  0  0  0  0  0
   -3.4617   -0.7807    1.6416 C   0  0  0  0  0  0  0  0  0  0  0  0
   -3.3254   -2.1621    1.7043 C   0  0  0  0  0  0  0  0  0  0  0  0
   -2.2928   -2.7778    1.0063 C   0  0  0  0  0  0  0  0  0  0  0  0
   -2.1226   -4.2765    1.0345 C   0  0  0  0  0  0  0  0  0  0  0  0
   -2.6874   -4.8809   -0.0466 F   0  0  0  0  0  0  0  0  0  0  0  0
   -2.6814   -4.8646    2.1284 F   0  0  0  0  0  0  0  0  0  0  0  0
   -0.8148   -4.6599    1.0342 F   0  0  0  0  0  0  0  0  0  0  0  0
   -1.4191   -1.9788    0.2385 C   0  0  0  0  0  0  0  0  0  0  0  0
   -1.5217   -0.5679    0.1488 C   0  0  0  0  0  0  0  0  0  0  0  0
    5.0658    1.1475   -0.0236 H   0  0  0  0  0  0  0  0  0  0  0  0
    5.5150    0.3700    1.3389 H   0  0  0  0  0  0  0  0  0  0  0  0
    3.4523   -0.8069    1.4682 H   0  0  0  0  0  0  0  0  0  0  0  0
    4.3099   -1.1121   -0.0490 H   0  0  0  0  0  0  0  0  0  0  0  0
    2.0648    0.9369    0.3555 H   0  0  0  0  0  0  0  0  0  0  0  0
    2.9286    0.6709   -1.1680 H   0  0  0  0  0  0  0  0  0  0  0  0
    2.1674   -1.6968   -1.1958 H   0  0  0  0  0  0  0  0  0  0  0  0
    1.3101   -1.4517    0.3173 H   0  0  0  0  0  0  0  0  0  0  0  0
   -0.0686   -1.3974   -1.8864 H   0  0  0  0  0  0  0  0  0  0  0  0
    0.7194    0.0266   -2.3247 H   0  0  0  0  0  0  0  0  0  0  0  0
    1.1124    1.9023   -2.0250 H   0  0  0  0  0  0  0  0  0  0  0  0
    1.0180    4.2865   -2.2151 H   0  0  0  0  0  0  0  0  0  0  0  0
   -0.7546    5.5873   -1.0644 H   0  0  0  0  0  0  0  0  0  0  0  0
   -2.4353    4.4074    0.2858 H   0  0  0  0  0  0  0  0  0  0  0  0
   -4.2743   -0.3130    2.1964 H   0  0  0  0  0  0  0  0  0  0  0  0
   -4.0250   -2.7461    2.2992 H   0  0  0  0  0  0  0  0  0  0  0  0
   -0.6365   -2.5201   -0.2858 H   0  0  0  0  0  0  0  0  0  0  0  0
  1  2  1  0
  2  3  1  0
  3  4  1  0
  4  5  1  0
  5  6  1  0
  6  7  1  0
  7  8  2  0
  8  9  1  0
  9 10  2  0
 10 11  1  0
 11 12  2  0
 12 13  1  0
 13 14  1  0
 14 15  2  0
 15 16  1  0
 16 17  2  0
 17 18  1  0
 18 19  1  0
 18 20  1  0
 18 21  1  0
 17 22  1  0
 22 23  2  0
 23  6  1  0
 12  7  1  0
 23 14  1  0
  1 24  1  0
  1 25  1  0
  2 26  1  0
  2 27  1  0
  3 28  1  0
  3 29  1  0
  4 30  1  0
  4 31  1  0
  5 32  1  0
  5 33  1  0
  8 34  1  0
  9 35  1  0
 10 36  1  0
 11 37  1  0
 15 38  1  0
 16 39  1  0
 22 40  1  0
M  END
$$$$
