
     RDKit          3D

 58 62  0  0  0  0  0  0  0  0999 V2000
    8.2688    2.8660    1.4055 C   0  0  0  0  0  0  0  0  0  0  0  0
    7.8028    1.5264    1.3040 O   0  0  0  0  0  0  0  0  0  0  0  0
    6.5150    1.3535    0.8755 C   0  0  0  0  0  0  0  0  0  0  0  0
    5.6218    2.3671    0.5290 C   0  0  0  0  0  0  0  0  0  0  0  0
    4.3266    2.0491    0.1061 C   0  0  0  0  0  0  0  0  0  0  0  0
    3.9104    0.7147    0.0209 C   0  0  0  0  0  0  0  0  0  0  0  0
    2.5040    0.3818   -0.4130 C   0  0  0  0  0  0  0  0  0  0  0  0
    1.5170    0.4468    0.7562 C   0  0  0  0  0  0  0  0  0  0  0  0
    0.1537    0.1100    0.3008 N   0  0  0  0  0  0  0  0  0  0  0  0
   -0.6523    1.1354   -0.2146 C   0  0  0  0  0  0  0  0  0  0  0  0
   -0.1944    2.3560   -0.2688 N   0  0  0  0  0  0  0  0  0  0  0  0
   -2.0474    0.8150   -0.7059 C   0  0  0  0  0  0  0  0  0  0  0  0
   -2.9544    1.8655   -1.2558 C   0  0  0  0  0  0  0  0  0  0  0  0
   -2.7863    3.0471   -0.9645 O   0  0  0  0  0  0  0  0  0  0  0  0
   -3.9260    1.4449   -2.1288 N   0  0  0  0  0  0  0  0  0  0  0  0
   -4.9429    2.3450   -2.6255 C   0  0  0  0  0  0  0  0  0  0  0  0
   -6.1676    2.1433   -1.8151 C   0  0  0  0  0  0  0  0  0  0  0  0
   -6.6797    2.7768   -0.7016 C   0  0  0  0  0  0  0  0  0  0  0  0
   -7.8851    2.1077   -0.3812 C   0  0  0  0  0  0  0  0  0  0  0  0
   -8.0291    1.1082   -1.3148 C   0  0  0  0  0  0  0  0  0  0  0  0
   -6.9895    1.1189   -2.1890 O   0  0  0  0  0  0  0  0  0  0  0  0
   -2.4322   -0.4649   -0.5565 C   0  0  0  0  0  0  0  0  0  0  0  0
   -1.5489   -1.5062   -0.0493 C   0  0  0  0  0  0  0  0  0  0  0  0
   -2.0357   -2.9140    0.0061 C   0  0  0  0  0  0  0  0  0  0  0  0
   -3.1747   -3.1811   -0.3846 O   0  0  0  0  0  0  0  0  0  0  0  0
   -1.1432   -3.8482    0.4993 N   0  0  0  0  0  0  0  0  0  0  0  0
   -1.5265   -5.1822    0.5912 C   0  0  0  0  0  0  0  0  0  0  0  0
   -0.6949   -6.1240    1.0533 C   0  0  0  0  0  0  0  0  0  0  0  0
    0.6341   -5.7639    1.4690 C   0  0  0  0  0  0  0  0  0  0  0  0
    1.0450   -4.4925    1.3958 C   0  0  0  0  0  0  0  0  0  0  0  0
    0.1212   -3.4414    0.8821 C   0  0  0  0  0  0  0  0  0  0  0  0
    0.5461   -2.2211    0.8214 N   0  0  0  0  0  0  0  0  0  0  0  0
   -0.2906   -1.2301    0.3602 C   0  0  0  0  0  0  0  0  0  0  0  0
    4.8071   -0.2986    0.3743 C   0  0  0  0  0  0  0  0  0  0  0  0
    6.0997    0.0223    0.7956 C   0  0  0  0  0  0  0  0  0  0  0  0
    8.2663    3.3601    0.4284 H   0  0  0  0  0  0  0  0  0  0  0  0
    7.6849    3.4333    2.1380 H   0  0  0  0  0  0  0  0  0  0  0  0
    9.3041    2.8338    1.7592 H   0  0  0  0  0  0  0  0  0  0  0  0
    5.8964    3.4152    0.5773 H   0  0  0  0  0  0  0  0  0  0  0  0
    3.6393    2.8525   -0.1553 H   0  0  0  0  0  0  0  0  0  0  0  0
    2.2024    1.0704   -1.2124 H   0  0  0  0  0  0  0  0  0  0  0  0
    2.4884   -0.6167   -0.8685 H   0  0  0  0  0  0  0  0  0  0  0  0
    1.5341    1.4413    1.2207 H   0  0  0  0  0  0  0  0  0  0  0  0
    1.8369   -0.2297    1.5595 H   0  0  0  0  0  0  0  0  0  0  0  0
   -0.9243    2.9981   -0.6243 H   0  0  0  0  0  0  0  0  0  0  0  0
   -4.0508    0.4684   -2.3513 H   0  0  0  0  0  0  0  0  0  0  0  0
   -4.6051    3.3847   -2.5742 H   0  0  0  0  0  0  0  0  0  0  0  0
   -5.1254    2.0916   -3.6747 H   0  0  0  0  0  0  0  0  0  0  0  0
   -6.2284    3.6139   -0.1856 H   0  0  0  0  0  0  0  0  0  0  0  0
   -8.5635    2.3235    0.4323 H   0  0  0  0  0  0  0  0  0  0  0  0
   -8.7746    0.3435   -1.4843 H   0  0  0  0  0  0  0  0  0  0  0  0
   -3.4392   -0.7850   -0.8075 H   0  0  0  0  0  0  0  0  0  0  0  0
   -2.5353   -5.4313    0.2707 H   0  0  0  0  0  0  0  0  0  0  0  0
   -1.0026   -7.1625    1.1220 H   0  0  0  0  0  0  0  0  0  0  0  0
    1.2909   -6.5437    1.8412 H   0  0  0  0  0  0  0  0  0  0  0  0
    2.0364   -4.1796    1.6993 H   0  0  0  0  0  0  0  0  0  0  0  0
    4.5072   -1.3427    0.3256 H   0  0  0  0  0  0  0  0  0  0  0  0
    6.7902   -0.7726    1.0660 H   0  0  0  0  0  0  0  0  0  0  0  0
  1  2  1  0
  2  3  1  0
  3  4  2  0
  4  5  1  0
  5  6  2  0
  6  7  1  0
  7  8  1  0
  8  9  1  0
  9 10  1  0
 10 11  2  3
 10 12  1  0
 12 13  1  0
 13 14  2  0
 13 15  1  0
 15 16  1  0
 16 17  1  0
 17 18  2  0
 18 19  1  0
 19 20  2  0
 20 21  1  0
 12 22  2  0
 22 23  1  0
 23 24  1  0
 24 25  2  0
 24 26  1  0
 26 27  1  0
 27 28  2  0
 28 29  1  0
 29 30  2  0
 30 31  1  0
 31 32  2  0
 32 33  1  0
  6 34  1  0
 34 35  2  0
 35  3  1  0
 33  9  1  0
 21 17  1  0
 33 23  2  0
 31 26  1  0
  1 36  1  0
  1 37  1  0
  1 38  1  0
  4 39  1  0
  5 40  1  0
  7 41  1  0
  7 42  1  0
  8 43  1  0
  8 44  1  0
 11 45  1  0
 15 46  1  0
 16 47  1  0
 16 48  1  0
 18 49  1  0
 19 50  1  0
 20 51  1  0
 22 52  1  0
 27 53  1  0
 28 54  1  0
 29 55  1  0
 30 56  1  0
 34 57  1  0
 35 58  1  0
M  END
$$$$
