
     RDKit          3D

 53 56  0  0  0  0  0  0  0  0999 V2000
   -8.3574   -0.7186   -2.6993 C   0  0  0  0  0  0  0  0  0  0  0  0
   -7.0964   -0.4701   -2.0884 O   0  0  0  0  0  0  0  0  0  0  0  0
   -7.0925   -0.2762   -0.7339 C   0  0  0  0  0  0  0  0  0  0  0  0
   -8.2097   -0.3011    0.1007 C   0  0  0  0  0  0  0  0  0  0  0  0
   -8.0624   -0.0863    1.4724 C   0  0  0  0  0  0  0  0  0  0  0  0
   -6.7989    0.1538    2.0128 C   0  0  0  0  0  0  0  0  0  0  0  0
   -5.6688    0.1814    1.1859 C   0  0  0  0  0  0  0  0  0  0  0  0
   -4.3352    0.4428    1.8113 C   0  0  0  0  0  0  0  0  0  0  0  0
   -4.2778    0.6281    3.0261 O   0  0  0  0  0  0  0  0  0  0  0  0
   -3.1057    0.4670    0.9056 C   0  0  0  0  0  0  0  0  0  0  0  0
   -1.9292    0.7228    1.6632 O   0  0  0  0  0  0  0  0  0  0  0  0
   -0.7438    0.7662    0.9871 C   0  0  0  0  0  0  0  0  0  0  0  0
   -0.5702    0.5992   -0.3851 C   0  0  0  0  0  0  0  0  0  0  0  0
    0.7133    0.6686   -0.9518 C   0  0  0  0  0  0  0  0  0  0  0  0
    1.8482    0.9071   -0.1630 C   0  0  0  0  0  0  0  0  0  0  0  0
    3.2251    0.9796   -0.6955 C   0  0  0  0  0  0  0  0  0  0  0  0
    3.3874    0.7871   -2.1821 C   0  0  0  0  0  0  0  0  0  0  0  0
    4.2513    1.1933    0.1608 C   0  0  0  0  0  0  0  0  0  0  0  0
    5.7162    1.2729   -0.2248 C   0  0  0  0  0  0  0  0  0  0  0  0
    6.4448   -0.0491   -0.0897 C   0  0  0  0  0  0  0  0  0  0  0  0
    6.5378   -0.9356   -1.1724 C   0  0  0  0  0  0  0  0  0  0  0  0
    7.1964   -2.1597   -1.0358 C   0  0  0  0  0  0  0  0  0  0  0  0
    7.7685   -2.5132    0.1840 C   0  0  0  0  0  0  0  0  0  0  0  0
    7.6842   -1.6425    1.2675 C   0  0  0  0  0  0  0  0  0  0  0  0
    7.0269   -0.4184    1.1320 C   0  0  0  0  0  0  0  0  0  0  0  0
    4.0088    1.4320    1.6147 C   0  0  0  0  0  0  0  0  0  0  0  0
    4.9141    1.7336    2.3864 O   0  0  0  0  0  0  0  0  0  0  0  0
    2.7097    1.3178    2.0743 O   0  0  0  0  0  0  0  0  0  0  0  0
    1.6428    1.0693    1.2017 C   0  0  0  0  0  0  0  0  0  0  0  0
    0.3741    1.0032    1.7823 C   0  0  0  0  0  0  0  0  0  0  0  0
   -5.8257   -0.0351   -0.1886 C   0  0  0  0  0  0  0  0  0  0  0  0
   -9.0328    0.1336   -2.5705 H   0  0  0  0  0  0  0  0  0  0  0  0
   -8.1883   -0.8503   -3.7724 H   0  0  0  0  0  0  0  0  0  0  0  0
   -8.8059   -1.6415   -2.3169 H   0  0  0  0  0  0  0  0  0  0  0  0
   -9.2086   -0.4845   -0.2817 H   0  0  0  0  0  0  0  0  0  0  0  0
   -8.9335   -0.1056    2.1234 H   0  0  0  0  0  0  0  0  0  0  0  0
   -6.7012    0.3195    3.0849 H   0  0  0  0  0  0  0  0  0  0  0  0
   -3.2463    1.2687    0.1715 H   0  0  0  0  0  0  0  0  0  0  0  0
   -3.0229   -0.5152    0.4263 H   0  0  0  0  0  0  0  0  0  0  0  0
   -1.4067    0.4118   -1.0502 H   0  0  0  0  0  0  0  0  0  0  0  0
    0.7934    0.5266   -2.0264 H   0  0  0  0  0  0  0  0  0  0  0  0
    4.4145    0.8904   -2.5336 H   0  0  0  0  0  0  0  0  0  0  0  0
    2.8048    1.5343   -2.7326 H   0  0  0  0  0  0  0  0  0  0  0  0
    3.0530   -0.2132   -2.4790 H   0  0  0  0  0  0  0  0  0  0  0  0
    5.8404    1.6481   -1.2470 H   0  0  0  0  0  0  0  0  0  0  0  0
    6.2366    2.0330    0.3734 H   0  0  0  0  0  0  0  0  0  0  0  0
    6.1040   -0.6816   -2.1353 H   0  0  0  0  0  0  0  0  0  0  0  0
    7.2632   -2.8380   -1.8823 H   0  0  0  0  0  0  0  0  0  0  0  0
    8.2800   -3.4659    0.2908 H   0  0  0  0  0  0  0  0  0  0  0  0
    8.1285   -1.9145    2.2215 H   0  0  0  0  0  0  0  0  0  0  0  0
    6.9729    0.2474    1.9920 H   0  0  0  0  0  0  0  0  0  0  0  0
    0.2590    1.1371    2.8550 H   0  0  0  0  0  0  0  0  0  0  0  0
   -4.9801   -0.0231   -0.8694 H   0  0  0  0  0  0  0  0  0  0  0  0
  1  2  1  0
  2  3  1  0
  3  4  2  0
  4  5  1  0
  5  6  2  0
  6  7  1  0
  7  8  1  0
  8  9  2  0
  8 10  1  0
 10 11  1  0
 11 12  1  0
 12 13  2  0
 13 14  1  0
 14 15  2  0
 15 16  1  0
 16 17  1  0
 16 18  2  0
 18 19  1  0
 19 20  1  0
 20 21  2  0
 21 22  1  0
 22 23  2  0
 23 24  1  0
 24 25  2  0
 18 26  1  0
 26 27  2  0
 26 28  1  0
 28 29  1  0
 29 30  2  0
  7 31  2  0
 31  3  1  0
 30 12  1  0
 29 15  1  0
 25 20  1  0
  1 32  1  0
  1 33  1  0
  1 34  1  0
  4 35  1  0
  5 36  1  0
  6 37  1  0
 10 38  1  0
 10 39  1  0
 13 40  1  0
 14 41  1  0
 17 42  1  0
 17 43  1  0
 17 44  1  0
 19 45  1  0
 19 46  1  0
 21 47  1  0
 22 48  1  0
 23 49  1  0
 24 50  1  0
 25 51  1  0
 30 52  1  0
 31 53  1  0
M  END
$$$$
