
     RDKit          3D

 40 41  0  0  0  0  0  0  0  0999 V2000
   -4.1053    4.2418   -0.4739 C   0  0  0  0  0  0  0  0  0  0  0  0
   -4.1107    2.9582   -1.0868 O   0  0  0  0  0  0  0  0  0  0  0  0
   -3.3132    1.9999   -0.5262 C   0  0  0  0  0  0  0  0  0  0  0  0
   -2.5322    2.1493    0.6206 C   0  0  0  0  0  0  0  0  0  0  0  0
   -1.7518    1.0837    1.0864 C   0  0  0  0  0  0  0  0  0  0  0  0
   -1.7476   -0.1416    0.4072 C   0  0  0  0  0  0  0  0  0  0  0  0
   -0.9049   -1.2887    0.8367 C   0  0  0  0  0  0  0  0  0  0  0  0
   -0.8014   -2.3325    0.2091 O   0  0  0  0  0  0  0  0  0  0  0  0
   -0.2508   -1.0013    1.9890 O   0  0  0  0  0  0  0  0  0  0  0  0
    0.6581   -2.0093    2.4366 C   0  0  0  0  0  0  0  0  0  0  0  0
    1.9581   -1.9752    1.6345 C   0  0  0  0  0  0  0  0  0  0  0  0
    2.9215   -1.2853    1.9647 O   0  0  0  0  0  0  0  0  0  0  0  0
    1.9349   -2.7078    0.4723 N   0  0  0  0  0  0  0  0  0  0  0  0
    3.0431   -2.7519   -0.4662 C   0  0  0  0  0  0  0  0  0  0  0  0
    3.5580   -1.3853   -0.9507 C   0  0  0  0  0  0  0  0  0  0  0  0
    2.5034   -0.4834   -1.3771 N   0  0  0  0  0  0  0  0  0  0  0  0
    2.1112    0.6616   -0.7230 C   0  0  0  0  0  0  0  0  0  0  0  0
    2.6357    1.0269    0.4821 O   0  0  0  0  0  0  0  0  0  0  0  0
    1.1765    1.3725   -1.3606 C   0  0  0  0  0  0  0  0  0  0  0  0
    0.7031    0.6163   -2.8478 S   0  0  0  0  0  0  0  0  0  0  0  0
    1.8513   -0.7069   -2.5838 C   0  0  0  0  0  0  0  0  0  0  0  0
    2.0129   -1.6344   -3.3607 O   0  0  0  0  0  0  0  0  0  0  0  0
   -2.5351   -0.2907   -0.7394 C   0  0  0  0  0  0  0  0  0  0  0  0
   -3.3128    0.7754   -1.1982 C   0  0  0  0  0  0  0  0  0  0  0  0
   -3.1008    4.6782   -0.4764 H   0  0  0  0  0  0  0  0  0  0  0  0
   -4.5121    4.1930    0.5415 H   0  0  0  0  0  0  0  0  0  0  0  0
   -4.7537    4.8973   -1.0630 H   0  0  0  0  0  0  0  0  0  0  0  0
   -2.5037    3.0814    1.1759 H   0  0  0  0  0  0  0  0  0  0  0  0
   -1.1427    1.2335    1.9750 H   0  0  0  0  0  0  0  0  0  0  0  0
    0.8987   -1.8051    3.4853 H   0  0  0  0  0  0  0  0  0  0  0  0
    0.2021   -3.0060    2.4018 H   0  0  0  0  0  0  0  0  0  0  0  0
    1.0156   -2.9929    0.1266 H   0  0  0  0  0  0  0  0  0  0  0  0
    2.7004   -3.3493   -1.3181 H   0  0  0  0  0  0  0  0  0  0  0  0
    3.8632   -3.2983    0.0129 H   0  0  0  0  0  0  0  0  0  0  0  0
    4.2194   -1.5573   -1.8093 H   0  0  0  0  0  0  0  0  0  0  0  0
    4.1819   -0.9091   -0.1884 H   0  0  0  0  0  0  0  0  0  0  0  0
    2.9435    0.2237    0.9515 H   0  0  0  0  0  0  0  0  0  0  0  0
    0.7476    2.2979   -1.0033 H   0  0  0  0  0  0  0  0  0  0  0  0
   -2.5426   -1.2299   -1.2896 H   0  0  0  0  0  0  0  0  0  0  0  0
   -3.9188    0.6515   -2.0940 H   0  0  0  0  0  0  0  0  0  0  0  0
  1  2  1  0
  2  3  1  0
  3  4  2  0
  4  5  1  0
  5  6  2  0
  6  7  1  0
  7  8  2  0
  7  9  1  0
  9 10  1  0
 10 11  1  0
 11 12  2  0
 11 13  1  0
 13 14  1  0
 14 15  1  0
 15 16  1  0
 16 17  1  0
 17 18  1  0
 17 19  2  0
 19 20  1  0
 20 21  1  0
 21 22  2  0
  6 23  1  0
 23 24  2  0
 24  3  1  0
 21 16  1  0
  1 25  1  0
  1 26  1  0
  1 27  1  0
  4 28  1  0
  5 29  1  0
 10 30  1  0
 10 31  1  0
 13 32  1  0
 14 33  1  0
 14 34  1  0
 15 35  1  0
 15 36  1  0
 18 37  1  0
 19 38  1  0
 23 39  1  0
 24 40  1  0
M  END
$$$$
