
     RDKit          3D

 36 38  0  0  0  0  0  0  0  0999 V2000
   -5.7484    0.4295    0.0509 C   0  0  0  0  0  0  0  0  0  0  0  0
   -4.2704    0.6946   -0.0071 C   0  0  0  0  0  0  0  0  0  0  0  0
   -3.7990    2.0079   -0.1820 C   0  0  0  0  0  0  0  0  0  0  0  0
   -2.4320    2.2687   -0.2714 C   0  0  0  0  0  0  0  0  0  0  0  0
   -1.5506    1.2012   -0.1918 C   0  0  0  0  0  0  0  0  0  0  0  0
   -1.9915   -0.1292   -0.0295 C   0  0  0  0  0  0  0  0  0  0  0  0
   -3.3590   -0.3752    0.0557 C   0  0  0  0  0  0  0  0  0  0  0  0
   -0.9441   -1.0763    0.0295 N   0  0  0  0  0  0  0  0  0  0  0  0
   -1.2776   -2.4903   -0.0030 C   0  0  0  0  0  0  0  0  0  0  0  0
    0.3045   -0.4779   -0.1517 C   0  0  0  0  0  0  0  0  0  0  0  0
    1.4951   -1.1053   -0.1973 C   0  0  0  0  0  0  0  0  0  0  0  0
    2.7932   -0.4515   -0.3878 C   0  0  0  0  0  0  0  0  0  0  0  0
    3.3146   -0.3256   -1.6810 C   0  0  0  0  0  0  0  0  0  0  0  0
    4.5344    0.3069   -1.8801 C   0  0  0  0  0  0  0  0  0  0  0  0
    5.2192    0.8109   -0.7862 C   0  0  0  0  0  0  0  0  0  0  0  0
    4.6753    0.6688    0.4842 C   0  0  0  0  0  0  0  0  0  0  0  0
    3.4909    0.0393    0.6739 N   0  0  0  0  0  4  0  0  0  0  0  0
    2.9642   -0.0762    2.0494 C   0  0  0  0  0  0  0  0  0  0  0  0
    0.2294    1.3045   -0.3064 S   0  0  0  0  0  0  0  0  0  0  0  0
   -6.1346    0.2470   -0.9566 H   0  0  0  0  0  0  0  0  0  0  0  0
   -6.2814    1.2813    0.4862 H   0  0  0  0  0  0  0  0  0  0  0  0
   -5.9639   -0.4424    0.6773 H   0  0  0  0  0  0  0  0  0  0  0  0
   -4.5033    2.8355   -0.2519 H   0  0  0  0  0  0  0  0  0  0  0  0
   -2.0753    3.2844   -0.4081 H   0  0  0  0  0  0  0  0  0  0  0  0
   -3.7417   -1.3842    0.1723 H   0  0  0  0  0  0  0  0  0  0  0  0
   -1.9817   -2.7489    0.7957 H   0  0  0  0  0  0  0  0  0  0  0  0
   -0.3995   -3.1244    0.1502 H   0  0  0  0  0  0  0  0  0  0  0  0
   -1.7176   -2.7619   -0.9689 H   0  0  0  0  0  0  0  0  0  0  0  0
    1.5540   -2.1849   -0.1083 H   0  0  0  0  0  0  0  0  0  0  0  0
    2.7635   -0.7088   -2.5387 H   0  0  0  0  0  0  0  0  0  0  0  0
    4.9416    0.4140   -2.8846 H   0  0  0  0  0  0  0  0  0  0  0  0
    6.1721    1.3185   -0.9224 H   0  0  0  0  0  0  0  0  0  0  0  0
    5.1863    1.0615    1.3593 H   0  0  0  0  0  0  0  0  0  0  0  0
    2.1345    0.6254    2.1576 H   0  0  0  0  0  0  0  0  0  0  0  0
    3.7505    0.1711    2.7676 H   0  0  0  0  0  0  0  0  0  0  0  0
    2.6481   -1.1081    2.2219 H   0  0  0  0  0  0  0  0  0  0  0  0
  1  2  1  0
  2  3  2  0
  3  4  1  0
  4  5  2  0
  5  6  1  0
  6  7  2  0
  6  8  1  0
  8  9  1  0
  8 10  1  0
 10 11  2  3
 11 12  1  0
 12 13  2  0
 13 14  1  0
 14 15  2  0
 15 16  1  0
 16 17  2  0
 17 18  1  0
 10 19  1  0
  7  2  1  0
 17 12  1  0
 19  5  1  0
  1 20  1  0
  1 21  1  0
  1 22  1  0
  3 23  1  0
  4 24  1  0
  7 25  1  0
  9 26  1  0
  9 27  1  0
  9 28  1  0
 11 29  1  0
 13 30  1  0
 14 31  1  0
 15 32  1  0
 16 33  1  0
 18 34  1  0
 18 35  1  0
 18 36  1  0
M  CHG  1  17   1
M  END
$$$$
