
     RDKit          3D

 52 55  0  0  0  0  0  0  0  0999 V2000
   -5.6681    1.1590   -2.2958 C   0  0  0  0  0  0  0  0  0  0  0  0
   -4.1782    0.9020   -2.1739 C   0  0  0  0  0  0  0  0  0  0  0  0
   -3.9572    0.1510   -0.9762 O   0  0  0  0  0  0  0  0  0  0  0  0
   -2.6520   -0.1029   -0.6866 C   0  0  0  0  0  0  0  0  0  0  0  0
   -1.7148    0.2796   -1.3809 O   0  0  0  0  0  0  0  0  0  0  0  0
   -2.4621   -0.8768    0.5440 C   0  0  0  0  0  0  0  0  0  0  0  0
   -3.4817   -1.4920    1.3680 C   0  0  0  0  0  0  0  0  0  0  0  0
   -4.9224   -1.5087    1.1699 C   0  0  0  0  0  0  0  0  0  0  0  0
   -5.5060   -2.4797    0.3482 C   0  0  0  0  0  0  0  0  0  0  0  0
   -6.8879   -2.4881    0.1521 C   0  0  0  0  0  0  0  0  0  0  0  0
   -7.6874   -1.5293    0.7747 C   0  0  0  0  0  0  0  0  0  0  0  0
   -7.1084   -0.5612    1.5957 C   0  0  0  0  0  0  0  0  0  0  0  0
   -5.7272   -0.5499    1.7956 C   0  0  0  0  0  0  0  0  0  0  0  0
   -2.9443   -2.1503    2.4553 C   0  0  0  0  0  0  0  0  0  0  0  0
   -1.2488   -2.0300    2.5032 S   0  0  0  0  0  0  0  0  0  0  0  0
   -1.1975   -1.1124    1.0754 C   0  0  0  0  0  0  0  0  0  0  0  0
    0.0084   -0.6705    0.5520 N   0  0  0  0  0  0  0  0  0  0  0  0
    1.2829   -0.8577    1.0580 C   0  0  0  0  0  0  0  0  0  0  0  0
    1.5964   -1.4806    2.0658 O   0  0  0  0  0  0  0  0  0  0  0  0
    2.3124   -0.2017    0.2402 C   0  0  0  0  0  0  0  0  0  0  0  0
    3.7086   -0.1702    0.4796 C   0  0  0  0  0  0  0  0  0  0  0  0
    4.2374    0.5764   -0.5472 C   0  0  0  0  0  0  0  0  0  0  0  0
    5.5759    1.0279   -0.9366 C   0  0  0  0  0  0  0  0  0  0  0  0
    5.8096    1.4145   -2.2709 C   0  0  0  0  0  0  0  0  0  0  0  0
    7.0673    1.8468   -2.6921 C   0  0  0  0  0  0  0  0  0  0  0  0
    8.1182    1.8966   -1.7861 C   0  0  0  0  0  0  0  0  0  0  0  0
    7.9127    1.5206   -0.4583 C   0  0  0  0  0  0  0  0  0  0  0  0
    6.6499    1.0935   -0.0202 C   0  0  0  0  0  0  0  0  0  0  0  0
    6.3888    0.7241    1.2757 O   0  0  0  0  0  0  0  0  0  0  0  0
    7.3841    0.9910    2.2571 C   0  0  0  0  0  0  0  0  0  0  0  0
    3.2108    0.9605   -1.3637 O   0  0  0  0  0  0  0  0  0  0  0  0
    2.0097    0.4787   -0.8788 N   0  0  0  0  0  0  0  0  0  0  0  0
   -5.8925    1.7421   -3.1934 H   0  0  0  0  0  0  0  0  0  0  0  0
   -6.2195    0.2134   -2.3407 H   0  0  0  0  0  0  0  0  0  0  0  0
   -6.0373    1.7020   -1.4193 H   0  0  0  0  0  0  0  0  0  0  0  0
   -3.8271    0.3261   -3.0372 H   0  0  0  0  0  0  0  0  0  0  0  0
   -3.6401    1.8557   -2.1224 H   0  0  0  0  0  0  0  0  0  0  0  0
   -4.8905   -3.2296   -0.1428 H   0  0  0  0  0  0  0  0  0  0  0  0
   -7.3413   -3.2421   -0.4862 H   0  0  0  0  0  0  0  0  0  0  0  0
   -8.7636   -1.5367    0.6207 H   0  0  0  0  0  0  0  0  0  0  0  0
   -7.7326    0.1861    2.0791 H   0  0  0  0  0  0  0  0  0  0  0  0
   -5.2842    0.2108    2.4341 H   0  0  0  0  0  0  0  0  0  0  0  0
   -3.4677   -2.6987    3.2279 H   0  0  0  0  0  0  0  0  0  0  0  0
   -0.0457   -0.1269   -0.3131 H   0  0  0  0  0  0  0  0  0  0  0  0
    4.2382   -0.6314    1.2997 H   0  0  0  0  0  0  0  0  0  0  0  0
    5.0061    1.3770   -3.0048 H   0  0  0  0  0  0  0  0  0  0  0  0
    7.2221    2.1409   -3.7269 H   0  0  0  0  0  0  0  0  0  0  0  0
    9.1013    2.2284   -2.1108 H   0  0  0  0  0  0  0  0  0  0  0  0
    8.7642    1.5703    0.2128 H   0  0  0  0  0  0  0  0  0  0  0  0
    6.9628    0.7400    3.2348 H   0  0  0  0  0  0  0  0  0  0  0  0
    7.6525    2.0529    2.2749 H   0  0  0  0  0  0  0  0  0  0  0  0
    8.2657    0.3598    2.1035 H   0  0  0  0  0  0  0  0  0  0  0  0
  1  2  1  0
  2  3  1  0
  3  4  1  0
  4  5  2  0
  4  6  1  0
  6  7  1  0
  7  8  1  0
  8  9  2  0
  9 10  1  0
 10 11  2  0
 11 12  1  0
 12 13  2  0
  7 14  2  0
 14 15  1  0
 15 16  1  0
 16 17  1  0
 17 18  1  0
 18 19  2  0
 18 20  1  0
 20 21  1  0
 21 22  2  0
 22 23  1  0
 23 24  2  0
 24 25  1  0
 25 26  2  0
 26 27  1  0
 27 28  2  0
 28 29  1  0
 29 30  1  0
 22 31  1  0
 31 32  1  0
 16  6  2  0
 32 20  2  0
 13  8  1  0
 28 23  1  0
  1 33  1  0
  1 34  1  0
  1 35  1  0
  2 36  1  0
  2 37  1  0
  9 38  1  0
 10 39  1  0
 11 40  1  0
 12 41  1  0
 13 42  1  0
 14 43  1  0
 17 44  1  0
 21 45  1  0
 24 46  1  0
 25 47  1  0
 26 48  1  0
 27 49  1  0
 30 50  1  0
 30 51  1  0
 30 52  1  0
M  END
$$$$
