
     RDKit          3D

 56 61  0  0  0  0  0  0  0  0999 V2000
   -5.0075   -2.5900    1.8692 C   0  0  0  0  0  0  0  0  0  0  0  0
   -3.5869   -2.1150    1.9247 C   0  0  0  0  0  0  0  0  0  0  0  0
   -2.9729   -1.7680    3.1437 C   0  0  0  0  0  0  0  0  0  0  0  0
   -3.8330   -1.8737    4.6426 Cl  0  0  0  0  0  0  0  0  0  0  0  0
   -1.6370   -1.3235    3.1996 C   0  0  0  0  0  0  0  0  0  0  0  0
   -0.8726   -1.2098    2.0387 C   0  0  0  0  0  0  0  0  0  0  0  0
   -1.4676   -1.5446    0.8321 C   0  0  0  0  0  0  0  0  0  0  0  0
   -2.7970   -1.9915    0.7878 C   0  0  0  0  0  0  0  0  0  0  0  0
   -3.1513   -2.2731   -0.5304 N   0  0  0  0  0  0  0  0  0  0  0  0
   -2.1014   -2.0231   -1.4188 C   0  0  0  0  0  0  0  0  0  0  0  0
   -2.1703   -2.1782   -2.6298 O   0  0  0  0  0  0  0  0  0  0  0  0
   -0.9035   -1.5372   -0.5630 C   0  0  0  0  0  0  0  0  0  0  0  0
    0.3079   -2.4134   -0.7410 N   0  0  0  0  0  0  0  0  0  0  0  0
    1.3507   -1.6343   -1.5118 C   0  0  2  0  0  0  0  0  0  0  0  0
    2.7931   -1.8486   -1.0055 C   0  0  0  0  0  0  0  0  0  0  0  0
    3.0215   -1.6483    0.4805 C   0  0  0  0  0  0  0  0  0  0  0  0
    3.2346   -0.3680    1.0073 C   0  0  0  0  0  0  0  0  0  0  0  0
    3.4181   -0.1861    2.3790 C   0  0  0  0  0  0  0  0  0  0  0  0
    3.3951   -1.2826    3.2383 C   0  0  0  0  0  0  0  0  0  0  0  0
    3.1944   -2.5625    2.7260 C   0  0  0  0  0  0  0  0  0  0  0  0
    3.0122   -2.7458    1.3546 C   0  0  0  0  0  0  0  0  0  0  0  0
    0.8474   -0.2438   -1.4481 C   0  0  0  0  0  0  0  0  0  0  0  0
   -0.4305   -0.1890   -0.9005 C   0  0  0  0  0  0  0  0  0  0  0  0
   -0.8683    1.1078   -0.9232 C   0  0  0  0  0  0  0  0  0  0  0  0
   -2.0729    1.5755   -0.5989 O   0  0  0  0  0  0  0  0  0  0  0  0
    0.1789    1.8830   -1.4541 N   0  0  0  0  0  0  0  0  0  0  0  0
    0.1548    3.2953   -1.6409 C   0  0  0  0  0  0  0  0  0  0  0  0
   -0.4181    4.1206   -0.6640 C   0  0  0  0  0  0  0  0  0  0  0  0
   -0.4389    5.5039   -0.8483 C   0  0  0  0  0  0  0  0  0  0  0  0
    0.1042    6.0643   -2.0040 C   0  0  0  0  0  0  0  0  0  0  0  0
    0.6702    5.2445   -2.9798 C   0  0  0  0  0  0  0  0  0  0  0  0
    0.6985    3.8604   -2.8020 C   0  0  0  0  0  0  0  0  0  0  0  0
    1.2471    1.0239   -1.7744 C   0  0  0  0  0  0  0  0  0  0  0  0
    2.4323    1.4176   -2.2387 O   0  0  0  0  0  0  0  0  0  0  0  0
   -5.1228   -3.5113    2.4495 H   0  0  0  0  0  0  0  0  0  0  0  0
   -5.6807   -1.8230    2.2659 H   0  0  0  0  0  0  0  0  0  0  0  0
   -5.3374   -2.8087    0.8500 H   0  0  0  0  0  0  0  0  0  0  0  0
   -1.1895   -1.0623    4.1562 H   0  0  0  0  0  0  0  0  0  0  0  0
    0.1554   -0.8620    2.0835 H   0  0  0  0  0  0  0  0  0  0  0  0
   -4.0480   -2.5999   -0.8530 H   0  0  0  0  0  0  0  0  0  0  0  0
    0.6820   -2.5557    0.1943 H   0  0  0  0  0  0  0  0  0  0  0  0
    1.2995   -1.9680   -2.5563 H   0  0  0  0  0  0  0  0  0  0  0  0
    3.4823   -1.1928   -1.5539 H   0  0  0  0  0  0  0  0  0  0  0  0
    3.1019   -2.8710   -1.2632 H   0  0  0  0  0  0  0  0  0  0  0  0
    3.2624    0.4978    0.3501 H   0  0  0  0  0  0  0  0  0  0  0  0
    3.5832    0.8122    2.7756 H   0  0  0  0  0  0  0  0  0  0  0  0
    3.5415   -1.1407    4.3057 H   0  0  0  0  0  0  0  0  0  0  0  0
    3.1839   -3.4200    3.3941 H   0  0  0  0  0  0  0  0  0  0  0  0
    2.8594   -3.7529    0.9710 H   0  0  0  0  0  0  0  0  0  0  0  0
   -2.2242    2.4155   -1.0684 H   0  0  0  0  0  0  0  0  0  0  0  0
   -0.8130    3.7109    0.2642 H   0  0  0  0  0  0  0  0  0  0  0  0
   -0.8720    6.1475   -0.0859 H   0  0  0  0  0  0  0  0  0  0  0  0
    0.0839    7.1424   -2.1458 H   0  0  0  0  0  0  0  0  0  0  0  0
    1.0789    5.6845   -3.8867 H   0  0  0  0  0  0  0  0  0  0  0  0
    1.1019    3.2397   -3.6005 H   0  0  0  0  0  0  0  0  0  0  0  0
    2.5400    2.3715   -2.0770 H   0  0  0  0  0  0  0  0  0  0  0  0
  1  2  1  0
  2  3  2  0
  3  4  1  0
  3  5  1  0
  5  6  2  0
  6  7  1  0
  7  8  2  0
  8  9  1  0
  9 10  1  0
 10 11  2  0
 10 12  1  0
 12 13  1  0
 13 14  1  0
 14 15  1  0
 15 16  1  0
 16 17  2  0
 17 18  1  0
 18 19  2  0
 19 20  1  0
 20 21  2  0
 14 22  1  0
 22 23  1  0
 23 24  2  0
 24 25  1  0
 24 26  1  0
 26 27  1  0
 27 28  2  0
 28 29  1  0
 29 30  2  0
 30 31  1  0
 31 32  2  0
 26 33  1  0
 33 34  1  0
  8  2  1  0
 23 12  1  0
 32 27  1  0
 12  7  1  0
 21 16  1  0
 33 22  2  0
  1 35  1  0
  1 36  1  0
  1 37  1  0
  5 38  1  0
  6 39  1  0
  9 40  1  0
 13 41  1  0
 14 42  1  6
 15 43  1  0
 15 44  1  0
 17 45  1  0
 18 46  1  0
 19 47  1  0
 20 48  1  0
 21 49  1  0
 25 50  1  0
 28 51  1  0
 29 52  1  0
 30 53  1  0
 31 54  1  0
 32 55  1  0
 34 56  1  0
M  END
$$$$
