
     RDKit          3D

 58 59  0  0  0  0  0  0  0  0999 V2000
    7.1565   -1.6401   -3.7979 C   0  0  0  0  0  0  0  0  0  0  0  0
    7.5738   -1.3164   -2.3726 C   0  0  0  0  0  0  0  0  0  0  0  0
    6.5122   -1.7523   -1.3662 C   0  0  0  0  0  0  0  0  0  0  0  0
    6.9338   -1.4332    0.0670 C   0  0  0  0  0  0  0  0  0  0  0  0
    5.9463   -1.8839    0.9947 O   0  0  0  0  0  0  0  0  0  0  0  0
    4.9297   -1.0386    1.3380 C   0  0  0  0  0  0  0  0  0  0  0  0
    4.0951   -1.5209    2.3513 C   0  0  0  0  0  0  0  0  0  0  0  0
    3.0067   -0.7695    2.8050 C   0  0  0  0  0  0  0  0  0  0  0  0
    2.7380    0.4780    2.2340 C   0  0  0  0  0  0  0  0  0  0  0  0
    1.5923    1.3209    2.6742 C   0  0  0  0  0  0  0  0  0  0  0  0
    1.6185    2.5362    2.5161 O   0  0  0  0  0  0  0  0  0  0  0  0
    0.5085    0.6531    3.2071 N   0  0  0  0  0  0  0  0  0  0  0  0
   -0.7254    1.3785    3.4793 C   0  0  0  0  0  0  0  0  0  0  0  0
   -1.6674    1.4908    2.2826 C   0  0  0  0  0  0  0  0  0  0  0  0
   -2.7316    2.0998    2.3088 O   0  0  0  0  0  0  0  0  0  0  0  0
   -1.2136    0.7911    1.2026 O   0  0  0  0  0  0  0  0  0  0  0  0
   -2.1058    0.8022    0.0839 C   0  0  0  0  0  0  0  0  0  0  0  0
   -3.3231   -0.0917    0.3275 C   0  0  0  0  0  0  0  0  0  0  0  0
   -3.2795   -1.0249    1.1394 O   0  0  0  0  0  0  0  0  0  0  0  0
   -4.5889    0.2079   -0.4197 C   0  0  0  0  0  0  0  0  0  0  0  0
   -5.7920   -0.0493    0.1423 C   0  0  0  0  0  0  0  0  0  0  0  0
   -5.9084   -0.6073    1.4123 N   0  0  0  0  0  0  0  0  0  0  0  0
   -6.9519    0.2570   -0.5657 N   0  0  0  0  0  0  0  0  0  0  0  0
   -8.2549    0.0146    0.0528 C   0  0  0  0  0  0  0  0  0  0  0  0
   -6.9561    0.8327   -1.8345 C   0  0  0  0  0  0  0  0  0  0  0  0
   -7.9950    1.0434   -2.4630 O   0  0  0  0  0  0  0  0  0  0  0  0
   -5.7168    1.1475   -2.3626 N   0  0  0  0  0  0  0  0  0  0  0  0
   -5.6795    1.7352   -3.6896 C   0  0  0  0  0  0  0  0  0  0  0  0
   -4.5269    0.7800   -1.7802 C   0  0  0  0  0  0  0  0  0  0  0  0
   -3.4396    0.8839   -2.3480 O   0  0  0  0  0  0  0  0  0  0  0  0
    3.5779    0.9679    1.2273 C   0  0  0  0  0  0  0  0  0  0  0  0
    4.6656    0.2102    0.7770 C   0  0  0  0  0  0  0  0  0  0  0  0
    7.9300   -1.3183   -4.5021 H   0  0  0  0  0  0  0  0  0  0  0  0
    7.0057   -2.7165   -3.9274 H   0  0  0  0  0  0  0  0  0  0  0  0
    6.2248   -1.1284   -4.0599 H   0  0  0  0  0  0  0  0  0  0  0  0
    8.5236   -1.8176   -2.1536 H   0  0  0  0  0  0  0  0  0  0  0  0
    7.7479   -0.2377   -2.2853 H   0  0  0  0  0  0  0  0  0  0  0  0
    5.5571   -1.2666   -1.5968 H   0  0  0  0  0  0  0  0  0  0  0  0
    6.3256   -2.8302   -1.4545 H   0  0  0  0  0  0  0  0  0  0  0  0
    7.8477   -1.9935    0.2980 H   0  0  0  0  0  0  0  0  0  0  0  0
    7.1893   -0.3771    0.2117 H   0  0  0  0  0  0  0  0  0  0  0  0
    4.3030   -2.4904    2.7990 H   0  0  0  0  0  0  0  0  0  0  0  0
    2.4012   -1.1622    3.6163 H   0  0  0  0  0  0  0  0  0  0  0  0
    0.4140   -0.3318    2.9943 H   0  0  0  0  0  0  0  0  0  0  0  0
   -0.4880    2.3877    3.8294 H   0  0  0  0  0  0  0  0  0  0  0  0
   -1.2468    0.8240    4.2651 H   0  0  0  0  0  0  0  0  0  0  0  0
   -1.5476    0.3957   -0.7648 H   0  0  0  0  0  0  0  0  0  0  0  0
   -2.4011    1.8315   -0.1469 H   0  0  0  0  0  0  0  0  0  0  0  0
   -6.6300   -1.3191    1.4610 H   0  0  0  0  0  0  0  0  0  0  0  0
   -5.0199   -1.0022    1.7476 H   0  0  0  0  0  0  0  0  0  0  0  0
   -9.0809    0.4223   -0.5368 H   0  0  0  0  0  0  0  0  0  0  0  0
   -8.4084   -1.0651    0.1480 H   0  0  0  0  0  0  0  0  0  0  0  0
   -8.2887    0.4889    1.0392 H   0  0  0  0  0  0  0  0  0  0  0  0
   -5.7559    0.9284   -4.4258 H   0  0  0  0  0  0  0  0  0  0  0  0
   -4.7452    2.2798   -3.8548 H   0  0  0  0  0  0  0  0  0  0  0  0
   -6.5168    2.4254   -3.8321 H   0  0  0  0  0  0  0  0  0  0  0  0
    3.3843    1.9432    0.7838 H   0  0  0  0  0  0  0  0  0  0  0  0
    5.2769    0.6269   -0.0160 H   0  0  0  0  0  0  0  0  0  0  0  0
  1  2  1  0
  2  3  1  0
  3  4  1  0
  4  5  1  0
  5  6  1  0
  6  7  2  0
  7  8  1  0
  8  9  2  0
  9 10  1  0
 10 11  2  0
 10 12  1  0
 12 13  1  0
 13 14  1  0
 14 15  2  0
 14 16  1  0
 16 17  1  0
 17 18  1  0
 18 19  2  0
 18 20  1  0
 20 21  2  0
 21 22  1  0
 21 23  1  0
 23 24  1  0
 23 25  1  0
 25 26  2  0
 25 27  1  0
 27 28  1  0
 27 29  1  0
 29 30  2  0
  9 31  1  0
 31 32  2  0
 32  6  1  0
 29 20  1  0
  1 33  1  0
  1 34  1  0
  1 35  1  0
  2 36  1  0
  2 37  1  0
  3 38  1  0
  3 39  1  0
  4 40  1  0
  4 41  1  0
  7 42  1  0
  8 43  1  0
 12 44  1  0
 13 45  1  0
 13 46  1  0
 17 47  1  0
 17 48  1  0
 22 49  1  0
 22 50  1  0
 24 51  1  0
 24 52  1  0
 24 53  1  0
 28 54  1  0
 28 55  1  0
 28 56  1  0
 31 57  1  0
 32 58  1  0
M  END
$$$$
