
     RDKit          3D

 25 26  0  0  0  0  0  0  0  0999 V2000
    5.6269   -0.7155   -0.7724 O   0  0  0  0  0  0  0  0  0  0  0  0
    4.8647    0.2602   -0.7385 N   0  0  0  0  0  4  0  0  0  0  0  0
    5.1966    1.4227   -1.0096 O   0  0  0  0  0  1  0  0  0  0  0  0
    3.4810    0.0260   -0.3552 C   0  0  0  0  0  0  0  0  0  0  0  0
    2.5659    1.0728   -0.2788 C   0  0  0  0  0  0  0  0  0  0  0  0
    1.2520    0.7846    0.0957 C   0  0  0  0  0  0  0  0  0  0  0  0
    0.8827   -0.5314    0.3703 C   0  0  0  0  0  0  0  0  0  0  0  0
   -0.4049   -0.8812    0.7763 N   0  0  0  0  0  0  0  0  0  0  0  0
   -1.6700   -0.3975    0.3961 C   0  0  0  0  0  0  0  0  0  0  0  0
   -2.7729   -0.7258    1.1989 C   0  0  0  0  0  0  0  0  0  0  0  0
   -4.0544   -0.2604    0.8931 C   0  0  0  0  0  0  0  0  0  0  0  0
   -4.2525    0.5438   -0.2251 C   0  0  0  0  0  0  0  0  0  0  0  0
   -3.1704    0.8790   -1.0344 C   0  0  0  0  0  0  0  0  0  0  0  0
   -1.8887    0.4127   -0.7235 C   0  0  0  0  0  0  0  0  0  0  0  0
    1.7789   -1.5432    0.3178 N   0  0  0  0  0  0  0  0  0  0  0  0
    3.0540   -1.2539   -0.0490 C   0  0  0  0  0  0  0  0  0  0  0  0
    2.8513    2.0999   -0.4915 H   0  0  0  0  0  0  0  0  0  0  0  0
    0.5331    1.5917    0.1981 H   0  0  0  0  0  0  0  0  0  0  0  0
   -0.4160   -1.8771    0.9788 H   0  0  0  0  0  0  0  0  0  0  0  0
   -2.6352   -1.3421    2.0845 H   0  0  0  0  0  0  0  0  0  0  0  0
   -4.8941   -0.5242    1.5307 H   0  0  0  0  0  0  0  0  0  0  0  0
   -5.2481    0.9064   -0.4670 H   0  0  0  0  0  0  0  0  0  0  0  0
   -3.3221    1.4992   -1.9141 H   0  0  0  0  0  0  0  0  0  0  0  0
   -1.0746    0.6684   -1.3947 H   0  0  0  0  0  0  0  0  0  0  0  0
    3.7170   -2.1151   -0.0806 H   0  0  0  0  0  0  0  0  0  0  0  0
  1  2  2  0
  2  3  1  0
  2  4  1  0
  4  5  2  0
  5  6  1  0
  6  7  2  0
  7  8  1  0
  8  9  1  0
  9 10  2  0
 10 11  1  0
 11 12  2  0
 12 13  1  0
 13 14  2  0
  7 15  1  0
 15 16  2  0
 16  4  1  0
 14  9  1  0
  5 17  1  0
  6 18  1  0
  8 19  1  0
 10 20  1  0
 11 21  1  0
 12 22  1  0
 13 23  1  0
 14 24  1  0
 16 25  1  0
M  CHG  2   2   1   3  -1
M  END
$$$$
