
     RDKit          3D

 55 58  0  0  0  0  0  0  0  0999 V2000
    4.3544    2.1886   -0.4245 O   0  0  0  0  0  0  0  0  0  0  0  0
    3.3068    1.5389   -0.4707 C   0  0  0  0  0  0  0  0  0  0  0  0
    1.9361    2.1937   -0.3897 C   0  0  0  0  0  0  0  0  0  0  0  0
    0.7497    1.1538    0.5294 S   0  0  0  0  0  0  0  0  0  0  0  0
   -0.7231    2.0029    0.2169 C   0  0  0  0  0  0  0  0  0  0  0  0
   -0.8163    3.1949   -0.3179 N   0  0  0  0  0  0  0  0  0  0  0  0
   -2.1505    3.5035   -0.4100 N   0  0  0  0  0  0  0  0  0  0  0  0
   -2.8502    2.5069    0.1032 C   0  0  0  0  0  0  0  0  0  0  0  0
   -4.3066    2.4558    0.1900 C   0  0  0  0  0  0  0  0  0  0  0  0
   -5.0584    2.5153   -0.9923 C   0  0  0  0  0  0  0  0  0  0  0  0
   -6.4542    2.4738   -0.9515 C   0  0  0  0  0  0  0  0  0  0  0  0
   -7.1140    2.3835    0.2730 C   0  0  0  0  0  0  0  0  0  0  0  0
   -6.3813    2.3478    1.4595 C   0  0  0  0  0  0  0  0  0  0  0  0
   -4.9863    2.3901    1.4128 C   0  0  0  0  0  0  0  0  0  0  0  0
   -4.2800    2.3755    2.5870 O   0  0  0  0  0  0  0  0  0  0  0  0
   -1.9728    1.5058    0.4787 N   0  0  0  0  0  0  0  0  0  0  0  0
   -2.3219    0.1934    0.9953 C   0  0  0  0  0  0  0  0  0  0  0  0
   -2.9170   -0.7022   -0.0683 C   0  0  0  0  0  0  0  0  0  0  0  0
   -4.2416   -1.1527    0.0504 C   0  0  0  0  0  0  0  0  0  0  0  0
   -4.7980   -1.9857   -0.9232 C   0  0  0  0  0  0  0  0  0  0  0  0
   -4.0406   -2.3796   -2.0226 C   0  0  0  0  0  0  0  0  0  0  0  0
   -2.7210   -1.9468   -2.1514 C   0  0  0  0  0  0  0  0  0  0  0  0
   -2.1620   -1.1142   -1.1786 C   0  0  0  0  0  0  0  0  0  0  0  0
    3.2825    0.1718   -0.7043 N   0  0  0  0  0  0  0  0  0  0  0  0
    4.4843   -0.5341   -0.5251 N   0  0  0  0  0  0  0  0  0  0  0  0
    4.4797   -1.5629    0.3975 C   0  0  0  0  0  0  0  0  0  0  0  0
    3.4328   -1.9815    0.8943 O   0  0  0  0  0  0  0  0  0  0  0  0
    5.7992   -2.1605    0.7632 C   0  0  0  0  0  0  0  0  0  0  0  0
    5.7780   -3.2889    1.6007 C   0  0  0  0  0  0  0  0  0  0  0  0
    6.9636   -3.9272    1.9686 C   0  0  0  0  0  0  0  0  0  0  0  0
    8.1867   -3.4447    1.5039 C   0  0  0  0  0  0  0  0  0  0  0  0
    8.2279   -2.3186    0.6808 C   0  0  0  0  0  0  0  0  0  0  0  0
    7.0405   -1.6768    0.3133 C   0  0  0  0  0  0  0  0  0  0  0  0
    7.1153   -0.5654   -0.4874 O   0  0  0  0  0  0  0  0  0  0  0  0
    1.5847    2.3595   -1.4135 H   0  0  0  0  0  0  0  0  0  0  0  0
    2.0374    3.1544    0.1241 H   0  0  0  0  0  0  0  0  0  0  0  0
   -4.5529    2.5928   -1.9577 H   0  0  0  0  0  0  0  0  0  0  0  0
   -7.0221    2.5128   -1.8778 H   0  0  0  0  0  0  0  0  0  0  0  0
   -8.2007    2.3501    0.3024 H   0  0  0  0  0  0  0  0  0  0  0  0
   -6.9098    2.2838    2.4073 H   0  0  0  0  0  0  0  0  0  0  0  0
   -4.8500    2.7384    3.2870 H   0  0  0  0  0  0  0  0  0  0  0  0
   -1.4355   -0.2919    1.4182 H   0  0  0  0  0  0  0  0  0  0  0  0
   -3.0088    0.3286    1.8347 H   0  0  0  0  0  0  0  0  0  0  0  0
   -4.8530   -0.8549    0.9003 H   0  0  0  0  0  0  0  0  0  0  0  0
   -5.8281   -2.3235   -0.8217 H   0  0  0  0  0  0  0  0  0  0  0  0
   -4.4751   -3.0277   -2.7798 H   0  0  0  0  0  0  0  0  0  0  0  0
   -2.1269   -2.2567   -3.0085 H   0  0  0  0  0  0  0  0  0  0  0  0
   -1.1321   -0.7921   -1.2985 H   0  0  0  0  0  0  0  0  0  0  0  0
    2.4604   -0.3375   -0.3689 H   0  0  0  0  0  0  0  0  0  0  0  0
    5.3570   -0.0394   -0.7324 H   0  0  0  0  0  0  0  0  0  0  0  0
    4.8289   -3.6807    1.9661 H   0  0  0  0  0  0  0  0  0  0  0  0
    6.9292   -4.8069    2.6055 H   0  0  0  0  0  0  0  0  0  0  0  0
    9.1098   -3.9444    1.7856 H   0  0  0  0  0  0  0  0  0  0  0  0
    9.1939   -1.9617    0.3322 H   0  0  0  0  0  0  0  0  0  0  0  0
    8.0520   -0.3571   -0.6565 H   0  0  0  0  0  0  0  0  0  0  0  0
  1  2  2  0
  2  3  1  0
  3  4  1  0
  4  5  1  0
  5  6  2  0
  6  7  1  0
  7  8  2  0
  8  9  1  0
  9 10  2  0
 10 11  1  0
 11 12  2  0
 12 13  1  0
 13 14  2  0
 14 15  1  0
  8 16  1  0
 16 17  1  0
 17 18  1  0
 18 19  2  0
 19 20  1  0
 20 21  2  0
 21 22  1  0
 22 23  2  0
  2 24  1  0
 24 25  1  0
 25 26  1  0
 26 27  2  0
 26 28  1  0
 28 29  2  0
 29 30  1  0
 30 31  2  0
 31 32  1  0
 32 33  2  0
 33 34  1  0
 16  5  1  0
 23 18  1  0
 33 28  1  0
 14  9  1  0
  3 35  1  0
  3 36  1  0
 10 37  1  0
 11 38  1  0
 12 39  1  0
 13 40  1  0
 15 41  1  0
 17 42  1  0
 17 43  1  0
 19 44  1  0
 20 45  1  0
 21 46  1  0
 22 47  1  0
 23 48  1  0
 24 49  1  0
 25 50  1  0
 29 51  1  0
 30 52  1  0
 31 53  1  0
 32 54  1  0
 34 55  1  0
M  END
$$$$
