
     RDKit          3D

 71 72  0  0  0  0  0  0  0  0999 V2000
   -3.3486   -4.4098    2.5778 C   0  0  0  0  0  0  0  0  0  0  0  0
   -3.0644   -3.0184    2.5137 O   0  0  0  0  0  0  0  0  0  0  0  0
   -2.1262   -2.6027    1.6062 C   0  0  0  0  0  0  0  0  0  0  0  0
   -1.4256   -3.4502    0.7490 C   0  0  0  0  0  0  0  0  0  0  0  0
   -0.5038   -2.9256   -0.1559 C   0  0  0  0  0  0  0  0  0  0  0  0
   -0.2943   -1.5482   -0.2347 C   0  0  0  0  0  0  0  0  0  0  0  0
   -1.0040   -0.6582    0.5839 C   0  0  0  0  0  0  0  0  0  0  0  0
   -0.7818    0.8584    0.5263 C   0  0  0  0  0  0  0  0  0  0  0  0
   -2.0702    1.7399    0.4725 C   0  0  0  0  0  0  0  0  0  0  0  0
   -2.0617    2.8860    0.9274 O   0  0  0  0  0  0  0  0  0  0  0  0
   -3.1503    1.2146   -0.2173 N   0  0  0  0  0  0  0  0  0  0  0  0
   -4.4591    1.8731   -0.3417 C   0  0  0  0  0  0  0  0  0  0  0  0
   -5.1050    2.0721    1.0379 C   0  0  0  0  0  0  0  0  0  0  0  0
   -4.3388    3.2197   -1.0733 C   0  0  0  0  0  0  0  0  0  0  0  0
   -5.3686    0.9558   -1.1806 C   0  0  0  0  0  0  0  0  0  0  0  0
    0.2264    1.3012   -0.4891 N   0  0  0  0  0  0  0  0  0  0  0  0
    1.5448    1.6041   -0.1453 C   0  0  0  0  0  0  0  0  0  0  0  0
    2.3222    2.1659   -0.9190 O   0  0  0  0  0  0  0  0  0  0  0  0
    2.0230    1.2227    1.2502 C   0  0  0  0  0  0  0  0  0  0  0  0
    3.5465    1.2670    1.3452 C   0  0  0  0  0  0  0  0  0  0  0  0
    4.1876    0.1249    0.5727 C   0  0  0  0  0  0  0  0  0  0  0  0
    3.5591   -0.8758    0.2412 O   0  0  0  0  0  0  0  0  0  0  0  0
    5.5316    0.3341    0.3671 N   0  0  0  0  0  0  0  0  0  0  0  0
    6.3872   -0.5404   -0.2637 C   0  0  0  0  0  0  0  0  0  0  0  0
    6.1215   -1.8029   -0.8376 C   0  0  0  0  0  0  0  0  0  0  0  0
    7.3377   -2.2315   -1.3074 C   0  0  0  0  0  0  0  0  0  0  0  0
    7.8053   -3.4433   -1.9998 C   0  0  0  0  0  0  0  0  0  0  0  0
    8.2752   -1.2857   -1.0410 O   0  0  0  0  0  0  0  0  0  0  0  0
    7.6820   -0.2241   -0.3835 N   0  0  0  0  0  0  0  0  0  0  0  0
   -0.2541    1.6167   -1.8589 C   0  0  0  0  0  0  0  0  0  0  0  0
   -0.3655    3.1242   -2.1073 C   0  0  0  0  0  0  0  0  0  0  0  0
    0.5712    0.9605   -2.9764 C   0  0  0  0  0  0  0  0  0  0  0  0
   -1.8796   -1.2158    1.5419 C   0  0  0  0  0  0  0  0  0  0  0  0
   -2.5366   -0.3371    2.3718 O   0  0  0  0  0  0  0  0  0  0  0  0
   -2.1670   -0.5125    3.7410 C   0  0  0  0  0  0  0  0  0  0  0  0
   -2.4646   -4.9798    2.8811 H   0  0  0  0  0  0  0  0  0  0  0  0
   -3.7505   -4.7755    1.6272 H   0  0  0  0  0  0  0  0  0  0  0  0
   -4.1169   -4.5581    3.3426 H   0  0  0  0  0  0  0  0  0  0  0  0
   -1.5633   -4.5260    0.7628 H   0  0  0  0  0  0  0  0  0  0  0  0
    0.0616   -3.5929   -0.8030 H   0  0  0  0  0  0  0  0  0  0  0  0
    0.4586   -1.1915   -0.9319 H   0  0  0  0  0  0  0  0  0  0  0  0
   -0.3744    1.0975    1.5157 H   0  0  0  0  0  0  0  0  0  0  0  0
   -3.1511    0.2072   -0.3252 H   0  0  0  0  0  0  0  0  0  0  0  0
   -6.1143    2.4890    0.9461 H   0  0  0  0  0  0  0  0  0  0  0  0
   -4.5252    2.7562    1.6660 H   0  0  0  0  0  0  0  0  0  0  0  0
   -5.1813    1.1210    1.5776 H   0  0  0  0  0  0  0  0  0  0  0  0
   -3.7623    3.9529   -0.5007 H   0  0  0  0  0  0  0  0  0  0  0  0
   -5.3260    3.6586   -1.2572 H   0  0  0  0  0  0  0  0  0  0  0  0
   -3.8393    3.0960   -2.0412 H   0  0  0  0  0  0  0  0  0  0  0  0
   -6.3626    1.3956   -1.3208 H   0  0  0  0  0  0  0  0  0  0  0  0
   -5.4999   -0.0200   -0.6971 H   0  0  0  0  0  0  0  0  0  0  0  0
   -4.9375    0.7708   -2.1722 H   0  0  0  0  0  0  0  0  0  0  0  0
    1.6653    0.2243    1.5173 H   0  0  0  0  0  0  0  0  0  0  0  0
    1.6088    1.9505    1.9561 H   0  0  0  0  0  0  0  0  0  0  0  0
    3.8449    1.1569    2.3950 H   0  0  0  0  0  0  0  0  0  0  0  0
    3.9367    2.2259    0.9848 H   0  0  0  0  0  0  0  0  0  0  0  0
    5.9716    1.1936    0.6656 H   0  0  0  0  0  0  0  0  0  0  0  0
    5.1824   -2.3318   -0.8959 H   0  0  0  0  0  0  0  0  0  0  0  0
    8.4254   -4.0484   -1.3317 H   0  0  0  0  0  0  0  0  0  0  0  0
    8.4001   -3.1814   -2.8800 H   0  0  0  0  0  0  0  0  0  0  0  0
    6.9622   -4.0576   -2.3317 H   0  0  0  0  0  0  0  0  0  0  0  0
   -1.2539    1.1832   -1.9605 H   0  0  0  0  0  0  0  0  0  0  0  0
   -0.9799    3.6147   -1.3476 H   0  0  0  0  0  0  0  0  0  0  0  0
    0.6126    3.6150   -2.1015 H   0  0  0  0  0  0  0  0  0  0  0  0
   -0.8262    3.3189   -3.0818 H   0  0  0  0  0  0  0  0  0  0  0  0
    1.5838    1.3660   -3.0504 H   0  0  0  0  0  0  0  0  0  0  0  0
    0.0886    1.1268   -3.9462 H   0  0  0  0  0  0  0  0  0  0  0  0
    0.6526   -0.1193   -2.8345 H   0  0  0  0  0  0  0  0  0  0  0  0
   -2.8635   -1.1929    4.2398 H   0  0  0  0  0  0  0  0  0  0  0  0
   -1.1360   -0.8665    3.8572 H   0  0  0  0  0  0  0  0  0  0  0  0
   -2.2425    0.4626    4.2312 H   0  0  0  0  0  0  0  0  0  0  0  0
  1  2  1  0
  2  3  1  0
  3  4  2  0
  4  5  1  0
  5  6  2  0
  6  7  1  0
  7  8  1  0
  8  9  1  0
  9 10  2  0
  9 11  1  0
 11 12  1  0
 12 13  1  0
 12 14  1  0
 12 15  1  0
  8 16  1  0
 16 17  1  0
 17 18  2  0
 17 19  1  0
 19 20  1  0
 20 21  1  0
 21 22  2  0
 21 23  1  0
 23 24  1  0
 24 25  1  0
 25 26  2  0
 26 27  1  0
 26 28  1  0
 28 29  1  0
 16 30  1  0
 30 31  1  0
 30 32  1  0
  7 33  2  0
 33 34  1  0
 34 35  1  0
 33  3  1  0
 29 24  2  0
  1 36  1  0
  1 37  1  0
  1 38  1  0
  4 39  1  0
  5 40  1  0
  6 41  1  0
  8 42  1  0
 11 43  1  0
 13 44  1  0
 13 45  1  0
 13 46  1  0
 14 47  1  0
 14 48  1  0
 14 49  1  0
 15 50  1  0
 15 51  1  0
 15 52  1  0
 19 53  1  0
 19 54  1  0
 20 55  1  0
 20 56  1  0
 23 57  1  0
 25 58  1  0
 27 59  1  0
 27 60  1  0
 27 61  1  0
 30 62  1  0
 31 63  1  0
 31 64  1  0
 31 65  1  0
 32 66  1  0
 32 67  1  0
 32 68  1  0
 35 69  1  0
 35 70  1  0
 35 71  1  0
M  END
$$$$
