
     RDKit          3D

 58 60  0  0  0  0  0  0  0  0999 V2000
   -1.8573   -3.1562    1.8587 C   0  0  0  0  0  0  0  0  0  0  0  0
   -2.7202   -2.0416    1.3211 C   0  0  0  0  0  0  0  0  0  0  0  0
   -3.8423   -2.3906    0.5460 C   0  0  0  0  0  0  0  0  0  0  0  0
   -4.6691   -1.4083    0.0048 C   0  0  0  0  0  0  0  0  0  0  0  0
   -4.3761   -0.0647    0.2386 C   0  0  0  0  0  0  0  0  0  0  0  0
   -5.4196    1.2028   -0.4573 S   0  0  0  0  0  6  0  0  0  0  0  0
   -5.4477    2.3123    0.4692 O   0  0  0  0  0  0  0  0  0  0  0  0
   -6.6468    0.5613   -0.8854 O   0  0  0  0  0  0  0  0  0  0  0  0
   -4.5826    1.6858   -1.8493 N   0  0  0  0  0  0  0  0  0  0  0  0
   -3.3713    2.5387   -1.6701 C   0  0  0  0  0  0  0  0  0  0  0  0
   -2.6567    2.7195   -3.0151 C   0  0  0  0  0  0  0  0  0  0  0  0
   -2.1821    1.4800   -3.5704 O   0  0  0  0  0  0  0  0  0  0  0  0
   -2.9970    0.3513   -3.2220 C   0  0  0  0  0  0  0  0  0  0  0  0
   -4.4652    0.7120   -2.9717 C   0  0  0  0  0  0  0  0  0  0  0  0
   -3.2888    0.3001    1.0396 C   0  0  0  0  0  0  0  0  0  0  0  0
   -2.4322   -0.6767    1.5595 C   0  0  0  0  0  0  0  0  0  0  0  0
   -1.2707   -0.3471    2.2929 N   0  0  0  0  0  0  0  0  0  0  0  0
   -0.7531    0.9130    2.5600 C   0  0  0  0  0  0  0  0  0  0  0  0
   -1.2733    1.9917    2.2957 O   0  0  0  0  0  0  0  0  0  0  0  0
    0.5867    0.8401    3.3019 C   0  0  0  0  0  0  0  0  0  0  0  0
    1.3614   -0.3160    2.9590 O   0  0  0  0  0  0  0  0  0  0  0  0
    2.0001   -0.2196    1.7547 C   0  0  0  0  0  0  0  0  0  0  0  0
    1.8871    0.7201    0.9761 O   0  0  0  0  0  0  0  0  0  0  0  0
    2.7875   -1.4901    1.4644 C   0  0  0  0  0  0  0  0  0  0  0  0
    3.7702   -1.2405    0.4211 N   0  0  0  0  0  0  0  0  0  0  0  0
    5.0627   -0.8888    0.7582 C   0  0  0  0  0  0  0  0  0  0  0  0
    5.4804   -0.9333    1.9096 O   0  0  0  0  0  0  0  0  0  0  0  0
    5.9361   -0.3973   -0.3459 C   0  0  0  0  0  0  0  0  0  0  0  0
    5.6824   -0.6924   -1.6924 C   0  0  0  0  0  0  0  0  0  0  0  0
    6.5287   -0.1951   -2.6891 C   0  0  0  0  0  0  0  0  0  0  0  0
    7.6340    0.5858   -2.3472 C   0  0  0  0  0  0  0  0  0  0  0  0
    7.9001    0.8667   -1.0088 C   0  0  0  0  0  0  0  0  0  0  0  0
    7.0575    0.3739   -0.0102 C   0  0  0  0  0  0  0  0  0  0  0  0
   -2.2856   -4.1407    1.6374 H   0  0  0  0  0  0  0  0  0  0  0  0
   -1.7706   -3.0805    2.9479 H   0  0  0  0  0  0  0  0  0  0  0  0
   -0.8599   -3.1172    1.4042 H   0  0  0  0  0  0  0  0  0  0  0  0
   -4.0760   -3.4378    0.3561 H   0  0  0  0  0  0  0  0  0  0  0  0
   -5.5331   -1.6973   -0.5899 H   0  0  0  0  0  0  0  0  0  0  0  0
   -3.6727    3.5177   -1.2817 H   0  0  0  0  0  0  0  0  0  0  0  0
   -2.6789    2.0673   -0.9686 H   0  0  0  0  0  0  0  0  0  0  0  0
   -1.7888    3.3791   -2.8999 H   0  0  0  0  0  0  0  0  0  0  0  0
   -3.3265    3.1822   -3.7497 H   0  0  0  0  0  0  0  0  0  0  0  0
   -2.9161   -0.3710   -4.0419 H   0  0  0  0  0  0  0  0  0  0  0  0
   -2.5591   -0.1159   -2.3330 H   0  0  0  0  0  0  0  0  0  0  0  0
   -4.8914    1.1886   -3.8623 H   0  0  0  0  0  0  0  0  0  0  0  0
   -5.0434   -0.1976   -2.7815 H   0  0  0  0  0  0  0  0  0  0  0  0
   -3.1264    1.3565    1.2331 H   0  0  0  0  0  0  0  0  0  0  0  0
   -0.7090   -1.1167    2.6321 H   0  0  0  0  0  0  0  0  0  0  0  0
    0.3714    0.7903    4.3742 H   0  0  0  0  0  0  0  0  0  0  0  0
    1.1607    1.7564    3.1196 H   0  0  0  0  0  0  0  0  0  0  0  0
    2.0949   -2.2502    1.0932 H   0  0  0  0  0  0  0  0  0  0  0  0
    3.2785   -1.8401    2.3767 H   0  0  0  0  0  0  0  0  0  0  0  0
    3.4025   -0.8692   -0.4469 H   0  0  0  0  0  0  0  0  0  0  0  0
    4.8473   -1.3210   -1.9880 H   0  0  0  0  0  0  0  0  0  0  0  0
    6.3294   -0.4210   -3.7338 H   0  0  0  0  0  0  0  0  0  0  0  0
    8.2912    0.9727   -3.1258 H   0  0  0  0  0  0  0  0  0  0  0  0
    8.7640    1.4696   -0.7405 H   0  0  0  0  0  0  0  0  0  0  0  0
    7.2750    0.5990    1.0320 H   0  0  0  0  0  0  0  0  0  0  0  0
  1  2  1  0
  2  3  2  0
  3  4  1  0
  4  5  2  0
  5  6  1  0
  6  7  2  0
  6  8  2  0
  6  9  1  0
  9 10  1  0
 10 11  1  0
 11 12  1  0
 12 13  1  0
 13 14  1  0
  5 15  1  0
 15 16  2  0
 16 17  1  0
 17 18  1  0
 18 19  2  0
 18 20  1  0
 20 21  1  0
 21 22  1  0
 22 23  2  0
 22 24  1  0
 24 25  1  0
 25 26  1  0
 26 27  2  0
 26 28  1  0
 28 29  2  0
 29 30  1  0
 30 31  2  0
 31 32  1  0
 32 33  2  0
 16  2  1  0
 33 28  1  0
 14  9  1  0
  1 34  1  0
  1 35  1  0
  1 36  1  0
  3 37  1  0
  4 38  1  0
 10 39  1  0
 10 40  1  0
 11 41  1  0
 11 42  1  0
 13 43  1  0
 13 44  1  0
 14 45  1  0
 14 46  1  0
 15 47  1  0
 17 48  1  0
 20 49  1  0
 20 50  1  0
 24 51  1  0
 24 52  1  0
 25 53  1  0
 29 54  1  0
 30 55  1  0
 31 56  1  0
 32 57  1  0
 33 58  1  0
M  END
$$$$
