
     RDKit          3D

 37 39  0  0  0  0  0  0  0  0999 V2000
   -6.8195    2.4008    0.9978 C   0  0  0  0  0  0  0  0  0  0  0  0
   -6.2724    2.1340   -0.3956 C   0  0  0  0  0  0  0  0  0  0  0  0
   -5.2763    1.0230   -0.3892 C   0  0  0  0  0  0  0  0  0  0  0  0
   -5.5804   -0.2551   -0.4807 N   0  0  0  0  0  0  0  0  0  0  0  0
   -4.4565   -1.0611   -0.4470 N   0  0  0  0  0  0  0  0  0  0  0  0
   -3.3578   -0.3579   -0.3333 C   0  0  0  0  0  0  0  0  0  0  0  0
   -2.0546   -0.7539   -0.2649 N   0  0  0  0  0  0  0  0  0  0  0  0
   -1.6733   -2.0744   -0.3098 C   0  0  0  0  0  0  0  0  0  0  0  0
   -2.4116   -3.0490   -0.4132 O   0  0  0  0  0  0  0  0  0  0  0  0
   -0.1567   -2.2568   -0.2152 C   0  0  0  0  0  0  0  0  0  0  0  0
    0.5059   -0.9978   -0.1013 O   0  0  0  0  0  0  0  0  0  0  0  0
    1.8708   -1.0246   -0.0086 C   0  0  0  0  0  0  0  0  0  0  0  0
    2.6697   -2.1658   -0.0154 C   0  0  0  0  0  0  0  0  0  0  0  0
    4.0603   -2.0494    0.0869 C   0  0  0  0  0  0  0  0  0  0  0  0
    4.6736   -0.7924    0.1974 C   0  0  0  0  0  0  0  0  0  0  0  0
    6.0680   -0.6621    0.3007 C   0  0  0  0  0  0  0  0  0  0  0  0
    6.6600    0.5971    0.4099 C   0  0  0  0  0  0  0  0  0  0  0  0
    5.8664    1.7404    0.4172 C   0  0  0  0  0  0  0  0  0  0  0  0
    4.4789    1.6270    0.3153 C   0  0  0  0  0  0  0  0  0  0  0  0
    3.8678    0.3670    0.2048 C   0  0  0  0  0  0  0  0  0  0  0  0
    2.4731    0.2327    0.1012 C   0  0  0  0  0  0  0  0  0  0  0  0
   -3.5883    1.3324   -0.2578 S   0  0  0  0  0  0  0  0  0  0  0  0
   -7.3013    1.5084    1.4118 H   0  0  0  0  0  0  0  0  0  0  0  0
   -7.5624    3.2040    0.9660 H   0  0  0  0  0  0  0  0  0  0  0  0
   -6.0231    2.7021    1.6868 H   0  0  0  0  0  0  0  0  0  0  0  0
   -5.8300    3.0520   -0.7995 H   0  0  0  0  0  0  0  0  0  0  0  0
   -7.1003    1.8653   -1.0624 H   0  0  0  0  0  0  0  0  0  0  0  0
   -1.3396   -0.0438   -0.1773 H   0  0  0  0  0  0  0  0  0  0  0  0
    0.1624   -2.7702   -1.1296 H   0  0  0  0  0  0  0  0  0  0  0  0
    0.0381   -2.8679    0.6736 H   0  0  0  0  0  0  0  0  0  0  0  0
    2.2521   -3.1639   -0.0984 H   0  0  0  0  0  0  0  0  0  0  0  0
    4.6646   -2.9544    0.0794 H   0  0  0  0  0  0  0  0  0  0  0  0
    6.7052   -1.5437    0.2968 H   0  0  0  0  0  0  0  0  0  0  0  0
    7.7406    0.6841    0.4892 H   0  0  0  0  0  0  0  0  0  0  0  0
    6.3264    2.7215    0.5022 H   0  0  0  0  0  0  0  0  0  0  0  0
    3.8763    2.5324    0.3229 H   0  0  0  0  0  0  0  0  0  0  0  0
    1.8440    1.1199    0.1060 H   0  0  0  0  0  0  0  0  0  0  0  0
  1  2  1  0
  2  3  1  0
  3  4  2  0
  4  5  1  0
  5  6  2  0
  6  7  1  0
  7  8  1  0
  8  9  2  0
  8 10  1  0
 10 11  1  0
 11 12  1  0
 12 13  2  0
 13 14  1  0
 14 15  2  0
 15 16  1  0
 16 17  2  0
 17 18  1  0
 18 19  2  0
 19 20  1  0
 20 21  2  0
  6 22  1  0
 22  3  1  0
 21 12  1  0
 20 15  1  0
  1 23  1  0
  1 24  1  0
  1 25  1  0
  2 26  1  0
  2 27  1  0
  7 28  1  0
 10 29  1  0
 10 30  1  0
 13 31  1  0
 14 32  1  0
 16 33  1  0
 17 34  1  0
 18 35  1  0
 19 36  1  0
 21 37  1  0
M  END
$$$$
