
     RDKit          3D

 92 94  0  0  0  0  0  0  0  0999 V2000
   -3.1899   -4.5549   -0.1117 C   0  0  0  0  0  0  0  0  0  0  0  0
   -2.4556   -3.3952    0.4890 C   0  0  0  0  0  0  0  0  0  0  0  0
   -1.8412   -3.4433    1.5446 O   0  0  0  0  0  0  0  0  0  0  0  0
   -2.6008   -2.3002   -0.3024 O   0  0  0  0  0  0  0  0  0  0  0  0
   -1.9561   -1.0812    0.1498 C   0  0  1  0  0  0  0  0  0  0  0  0
   -1.3894   -0.3487   -1.1050 C   0  0  2  0  0  0  0  0  0  0  0  0
   -2.3939   -0.2871   -2.1510 O   0  0  0  0  0  0  0  0  0  0  0  0
   -3.0443    0.8858   -2.3629 C   0  0  0  0  0  0  0  0  0  0  0  0
   -4.0276    0.7280   -3.4818 C   0  0  0  0  0  0  0  0  0  0  0  0
   -2.8520    1.9338   -1.7637 O   0  0  0  0  0  0  0  0  0  0  0  0
   -0.1524   -1.0119   -1.7278 C   0  0  0  0  0  0  0  0  0  0  0  0
   -0.4053   -2.1802   -2.6519 C   0  0  0  0  0  0  0  0  0  0  0  0
    1.1190   -0.5889   -1.5390 C   0  0  0  0  0  0  0  0  0  0  0  0
    1.5985    0.4868   -0.5655 C   0  0  1  0  0  0  0  0  0  0  0  0
    3.1155    0.3762   -0.2405 C   0  0  1  0  0  0  0  0  0  0  0  0
    3.5893   -0.9683   -0.1265 O   0  0  0  0  0  0  0  0  0  0  0  0
    3.2303   -1.6029    1.0211 C   0  0  0  0  0  0  0  0  0  0  0  0
    2.5749   -1.1116    1.9275 O   0  0  0  0  0  0  0  0  0  0  0  0
    3.7417   -2.9993    1.0319 C   0  0  0  0  0  0  0  0  0  0  0  0
    3.4513   -3.7994    2.1458 C   0  0  0  0  0  0  0  0  0  0  0  0
    3.9068   -5.1175    2.2054 C   0  0  0  0  0  0  0  0  0  0  0  0
    4.6512   -5.6441    1.1501 C   0  0  0  0  0  0  0  0  0  0  0  0
    4.9459   -4.8546    0.0382 C   0  0  0  0  0  0  0  0  0  0  0  0
    4.4929   -3.5343   -0.0243 C   0  0  0  0  0  0  0  0  0  0  0  0
    3.8314    1.1824   -1.3501 C   0  0  1  0  0  0  0  0  0  0  0  0
    4.6294    0.3597   -2.3541 C   0  0  0  0  0  0  0  0  0  0  0  0
    2.7233    2.0118   -2.0279 C   0  0  0  0  0  0  0  0  0  0  0  0
    1.5099    1.9547   -1.0720 C   0  0  1  0  0  0  0  0  0  0  0  0
    0.3296    2.2192   -1.8294 O   0  0  0  0  0  0  0  0  0  0  0  0
    1.6199    3.0325    0.0728 C   0  0  1  0  0  0  0  0  0  0  0  0
    1.1512    4.3157   -0.4221 O   0  0  0  0  0  0  0  0  0  0  0  0
    2.0834    5.2336   -0.7800 C   0  0  0  0  0  0  0  0  0  0  0  0
    1.4124    6.4854   -1.2554 C   0  0  0  0  0  0  0  0  0  0  0  0
    3.2950    5.0868   -0.7089 O   0  0  0  0  0  0  0  0  0  0  0  0
    0.8907    2.7316    1.4223 C   0  0  1  0  0  0  0  0  0  0  0  0
    0.9652    3.9448    2.3648 C   0  0  0  0  0  0  0  0  0  0  0  0
   -0.5596    2.2765    1.3638 C   0  0  0  0  0  0  0  0  0  0  0  0
   -0.9689    1.1401    1.9638 C   0  0  0  0  0  0  0  0  0  0  0  0
   -2.3898    0.6084    2.1476 C   0  0  0  0  0  0  0  0  0  0  0  0
   -3.3560    1.7683    2.4942 C   0  0  0  0  0  0  0  0  0  0  0  0
   -2.3577   -0.3166    3.3932 C   0  0  0  0  0  0  0  0  0  0  0  0
   -2.9739   -0.1668    0.9061 C   0  0  2  0  0  0  0  0  0  0  0  0
   -4.1206   -0.9372    1.3640 O   0  0  0  0  0  0  0  0  0  0  0  0
   -5.1882   -1.0139    0.5244 C   0  0  0  0  0  0  0  0  0  0  0  0
   -6.2795   -1.8142    1.1663 C   0  0  0  0  0  0  0  0  0  0  0  0
   -5.2654   -0.5142   -0.5892 O   0  0  0  0  0  0  0  0  0  0  0  0
   -4.2659   -4.4232    0.0284 H   0  0  0  0  0  0  0  0  0  0  0  0
   -2.8706   -5.4801    0.3771 H   0  0  0  0  0  0  0  0  0  0  0  0
   -2.9529   -4.6379   -1.1774 H   0  0  0  0  0  0  0  0  0  0  0  0
   -1.1134   -1.3296    0.8063 H   0  0  0  0  0  0  0  0  0  0  0  0
   -1.1207    0.6608   -0.8039 H   0  0  0  0  0  0  0  0  0  0  0  0
   -4.6236   -0.1767   -3.3349 H   0  0  0  0  0  0  0  0  0  0  0  0
   -3.4955    0.6816   -4.4352 H   0  0  0  0  0  0  0  0  0  0  0  0
   -4.7093    1.5847   -3.4877 H   0  0  0  0  0  0  0  0  0  0  0  0
   -0.9075   -2.9933   -2.1214 H   0  0  0  0  0  0  0  0  0  0  0  0
    0.5244   -2.5937   -3.0595 H   0  0  0  0  0  0  0  0  0  0  0  0
   -1.0236   -1.8815   -3.5047 H   0  0  0  0  0  0  0  0  0  0  0  0
    1.9097   -1.1108   -2.0772 H   0  0  0  0  0  0  0  0  0  0  0  0
    1.0351    0.3189    0.3513 H   0  0  0  0  0  0  0  0  0  0  0  0
    3.3264    0.8936    0.7070 H   0  0  0  0  0  0  0  0  0  0  0  0
    2.8685   -3.3982    2.9752 H   0  0  0  0  0  0  0  0  0  0  0  0
    3.6791   -5.7319    3.0727 H   0  0  0  0  0  0  0  0  0  0  0  0
    5.0027   -6.6721    1.1944 H   0  0  0  0  0  0  0  0  0  0  0  0
    5.5266   -5.2703   -0.7834 H   0  0  0  0  0  0  0  0  0  0  0  0
    4.7343   -2.9383   -0.9001 H   0  0  0  0  0  0  0  0  0  0  0  0
    4.5330    1.8734   -0.8639 H   0  0  0  0  0  0  0  0  0  0  0  0
    3.9999   -0.3667   -2.8762 H   0  0  0  0  0  0  0  0  0  0  0  0
    5.0825    1.0123   -3.1085 H   0  0  0  0  0  0  0  0  0  0  0  0
    5.4383   -0.1858   -1.8576 H   0  0  0  0  0  0  0  0  0  0  0  0
    2.4580    1.5825   -3.0034 H   0  0  0  0  0  0  0  0  0  0  0  0
    3.0531    3.0322   -2.2395 H   0  0  0  0  0  0  0  0  0  0  0  0
    0.2769    1.5873   -2.5661 H   0  0  0  0  0  0  0  0  0  0  0  0
    2.6781    3.1245    0.3518 H   0  0  0  0  0  0  0  0  0  0  0  0
    2.1534    7.1380   -1.7280 H   0  0  0  0  0  0  0  0  0  0  0  0
    0.6519    6.2411   -2.0020 H   0  0  0  0  0  0  0  0  0  0  0  0
    0.9631    7.0075   -0.4070 H   0  0  0  0  0  0  0  0  0  0  0  0
    1.4750    1.9395    1.9114 H   0  0  0  0  0  0  0  0  0  0  0  0
    0.3512    4.7790    2.0057 H   0  0  0  0  0  0  0  0  0  0  0  0
    1.9973    4.2989    2.4646 H   0  0  0  0  0  0  0  0  0  0  0  0
    0.6099    3.6811    3.3681 H   0  0  0  0  0  0  0  0  0  0  0  0
   -1.2664    2.9370    0.8620 H   0  0  0  0  0  0  0  0  0  0  0  0
   -0.1958    0.5252    2.4349 H   0  0  0  0  0  0  0  0  0  0  0  0
   -2.9982    2.3452    3.3555 H   0  0  0  0  0  0  0  0  0  0  0  0
   -3.4725    2.4629    1.6548 H   0  0  0  0  0  0  0  0  0  0  0  0
   -4.3545    1.3924    2.7442 H   0  0  0  0  0  0  0  0  0  0  0  0
   -1.7539   -1.2121    3.2112 H   0  0  0  0  0  0  0  0  0  0  0  0
   -3.3600   -0.6457    3.6879 H   0  0  0  0  0  0  0  0  0  0  0  0
   -1.9274    0.1996    4.2605 H   0  0  0  0  0  0  0  0  0  0  0  0
   -3.3439    0.5996    0.2232 H   0  0  0  0  0  0  0  0  0  0  0  0
   -6.6040   -1.3264    2.0889 H   0  0  0  0  0  0  0  0  0  0  0  0
   -7.1335   -1.8723    0.4855 H   0  0  0  0  0  0  0  0  0  0  0  0
   -5.9263   -2.8275    1.3714 H   0  0  0  0  0  0  0  0  0  0  0  0
  1  2  1  0
  2  3  2  0
  2  4  1  0
  4  5  1  0
  5  6  1  0
  6  7  1  0
  7  8  1  0
  8  9  1  0
  8 10  2  0
  6 11  1  0
 11 12  1  0
 11 13  2  0
 13 14  1  0
 14 15  1  0
 15 16  1  0
 16 17  1  0
 17 18  2  0
 17 19  1  0
 19 20  2  0
 20 21  1  0
 21 22  2  0
 22 23  1  0
 23 24  2  0
 15 25  1  0
 25 26  1  0
 25 27  1  0
 27 28  1  0
 28 29  1  6
 28 30  1  0
 30 31  1  0
 31 32  1  0
 32 33  1  0
 32 34  2  0
 30 35  1  0
 35 36  1  0
 35 37  1  0
 37 38  2  0
 38 39  1  0
 39 40  1  0
 39 41  1  0
 39 42  1  0
 42 43  1  0
 43 44  1  0
 44 45  1  0
 44 46  2  0
 42  5  1  0
 28 14  1  0
 24 19  1  0
  1 47  1  0
  1 48  1  0
  1 49  1  0
  5 50  1  1
  6 51  1  1
  9 52  1  0
  9 53  1  0
  9 54  1  0
 12 55  1  0
 12 56  1  0
 12 57  1  0
 13 58  1  0
 14 59  1  1
 15 60  1  1
 20 61  1  0
 21 62  1  0
 22 63  1  0
 23 64  1  0
 24 65  1  0
 25 66  1  1
 26 67  1  0
 26 68  1  0
 26 69  1  0
 27 70  1  0
 27 71  1  0
 29 72  1  0
 30 73  1  1
 33 74  1  0
 33 75  1  0
 33 76  1  0
 35 77  1  1
 36 78  1  0
 36 79  1  0
 36 80  1  0
 37 81  1  0
 38 82  1  0
 40 83  1  0
 40 84  1  0
 40 85  1  0
 41 86  1  0
 41 87  1  0
 41 88  1  0
 42 89  1  6
 45 90  1  0
 45 91  1  0
 45 92  1  0
M  END
$$$$
