
     RDKit          3D

 51 54  0  0  0  0  0  0  0  0999 V2000
   -7.0332   -1.4258   -1.3295 C   0  0  0  0  0  0  0  0  0  0  0  0
   -6.5153   -1.2185    0.0855 C   0  0  0  0  0  0  0  0  0  0  0  0
   -5.7932    0.0553    0.2104 N   0  0  0  0  0  0  0  0  0  0  0  0
   -6.6072    1.2393    0.5254 C   0  0  0  0  0  0  0  0  0  0  0  0
   -6.7150    2.1827   -0.6654 C   0  0  0  0  0  0  0  0  0  0  0  0
   -4.4093    0.1243    0.0794 C   0  0  0  0  0  0  0  0  0  0  0  0
   -3.6559   -0.9243   -0.4859 C   0  0  0  0  0  0  0  0  0  0  0  0
   -2.2584   -0.8688   -0.6251 C   0  0  0  0  0  0  0  0  0  0  0  0
   -1.5617    0.2528   -0.1966 C   0  0  0  0  0  0  0  0  0  0  0  0
   -0.1213    0.3772   -0.3230 C   0  0  0  0  0  0  0  0  0  0  0  0
    0.5139    1.4837    0.1005 C   0  0  0  0  0  0  0  0  0  0  0  0
    1.9337    1.5432   -0.0577 C   0  0  0  0  0  0  0  0  0  0  0  0
    2.7659    0.5285    0.1147 N   0  0  0  0  0  0  0  0  0  0  0  0
    4.0811    0.8937   -0.1393 C   0  0  0  0  0  0  0  0  0  0  0  0
    5.1712   -0.0673    0.0215 C   0  0  0  0  0  0  0  0  0  0  0  0
    4.8753   -1.4336    0.1168 C   0  0  0  0  0  0  0  0  0  0  0  0
    5.8949   -2.3787    0.2692 C   0  0  0  0  0  0  0  0  0  0  0  0
    7.2301   -1.9807    0.3352 C   0  0  0  0  0  0  0  0  0  0  0  0
    8.1260   -3.0023    0.4846 O   0  0  0  0  0  0  0  0  0  0  0  0
    9.4997   -2.6459    0.5731 C   0  0  0  0  0  0  0  0  0  0  0  0
    7.5370   -0.6239    0.2495 C   0  0  0  0  0  0  0  0  0  0  0  0
    6.5152    0.3251    0.0955 C   0  0  0  0  0  0  0  0  0  0  0  0
    4.2336    2.1952   -0.5683 C   0  0  0  0  0  0  0  0  0  0  0  0
    2.7143    2.9781   -0.6408 S   0  0  0  0  0  0  0  0  0  0  0  0
   -0.2374    2.5874    0.7584 C   0  0  0  0  0  0  0  0  0  0  0  0
    0.3053    3.5761    1.2403 O   0  0  0  0  0  0  0  0  0  0  0  0
   -1.6242    2.4507    0.8198 O   0  0  0  0  0  0  0  0  0  0  0  0
   -2.2809    1.2941    0.3607 C   0  0  0  0  0  0  0  0  0  0  0  0
   -3.6716    1.2431    0.4998 C   0  0  0  0  0  0  0  0  0  0  0  0
   -6.2257   -1.3910   -2.0669 H   0  0  0  0  0  0  0  0  0  0  0  0
   -7.5279   -2.3988   -1.4111 H   0  0  0  0  0  0  0  0  0  0  0  0
   -7.7638   -0.6563   -1.5978 H   0  0  0  0  0  0  0  0  0  0  0  0
   -5.8971   -2.0683    0.3972 H   0  0  0  0  0  0  0  0  0  0  0  0
   -7.3672   -1.2317    0.7771 H   0  0  0  0  0  0  0  0  0  0  0  0
   -6.2215    1.7630    1.4071 H   0  0  0  0  0  0  0  0  0  0  0  0
   -7.6247    0.9347    0.8009 H   0  0  0  0  0  0  0  0  0  0  0  0
   -7.3631    3.0289   -0.4162 H   0  0  0  0  0  0  0  0  0  0  0  0
   -7.1421    1.6748   -1.5355 H   0  0  0  0  0  0  0  0  0  0  0  0
   -5.7412    2.5836   -0.9611 H   0  0  0  0  0  0  0  0  0  0  0  0
   -4.1442   -1.8203   -0.8584 H   0  0  0  0  0  0  0  0  0  0  0  0
   -1.7394   -1.7115   -1.0751 H   0  0  0  0  0  0  0  0  0  0  0  0
    0.4212   -0.4467   -0.7797 H   0  0  0  0  0  0  0  0  0  0  0  0
    3.8434   -1.7764    0.0726 H   0  0  0  0  0  0  0  0  0  0  0  0
    5.6420   -3.4338    0.3395 H   0  0  0  0  0  0  0  0  0  0  0  0
    9.6890   -2.0173    1.4495 H   0  0  0  0  0  0  0  0  0  0  0  0
   10.0771   -3.5676    0.6937 H   0  0  0  0  0  0  0  0  0  0  0  0
    9.8405   -2.1574   -0.3457 H   0  0  0  0  0  0  0  0  0  0  0  0
    8.5596   -0.2654    0.3027 H   0  0  0  0  0  0  0  0  0  0  0  0
    6.7977    1.3732    0.0490 H   0  0  0  0  0  0  0  0  0  0  0  0
    5.1300    2.7246   -0.8539 H   0  0  0  0  0  0  0  0  0  0  0  0
   -4.1552    2.0989    0.9581 H   0  0  0  0  0  0  0  0  0  0  0  0
  1  2  1  0
  2  3  1  0
  3  4  1  0
  4  5  1  0
  3  6  1  0
  6  7  2  0
  7  8  1  0
  8  9  2  0
  9 10  1  0
 10 11  2  0
 11 12  1  0
 12 13  2  0
 13 14  1  0
 14 15  1  0
 15 16  2  0
 16 17  1  0
 17 18  2  0
 18 19  1  0
 19 20  1  0
 18 21  1  0
 21 22  2  0
 14 23  2  0
 23 24  1  0
 11 25  1  0
 25 26  2  0
 25 27  1  0
 27 28  1  0
 28 29  2  0
 29  6  1  0
 28  9  1  0
 24 12  1  0
 22 15  1  0
  1 30  1  0
  1 31  1  0
  1 32  1  0
  2 33  1  0
  2 34  1  0
  4 35  1  0
  4 36  1  0
  5 37  1  0
  5 38  1  0
  5 39  1  0
  7 40  1  0
  8 41  1  0
 10 42  1  0
 16 43  1  0
 17 44  1  0
 20 45  1  0
 20 46  1  0
 20 47  1  0
 21 48  1  0
 22 49  1  0
 23 50  1  0
 29 51  1  0
M  END
$$$$
