
     RDKit          3D

 49 52  0  0  0  0  0  0  0  0999 V2000
   -1.3744    3.2702    3.0103 O   0  0  0  0  0  0  0  0  0  0  0  0
   -1.9056    2.4645    2.2691 C   0  0  0  0  0  0  0  0  0  0  0  0
   -2.4085    1.3068    2.7286 O   0  0  0  0  0  0  0  0  0  0  0  0
   -2.1708    2.6603    0.8269 C   0  0  0  0  0  0  0  0  0  0  0  0
   -2.6552    3.9432    0.5000 C   0  0  0  0  0  0  0  0  0  0  0  0
   -3.1053    4.2273   -0.7844 C   0  0  0  0  0  0  0  0  0  0  0  0
   -3.1059    3.2204   -1.7396 C   0  0  0  0  0  0  0  0  0  0  0  0
   -2.6083    1.9469   -1.4197 C   0  0  0  0  0  0  0  0  0  0  0  0
   -2.6803    0.8875   -2.4523 C   0  0  0  0  0  0  0  0  0  0  0  0
   -3.0428    1.1488   -3.5947 O   0  0  0  0  0  0  0  0  0  0  0  0
   -2.3253   -0.4941   -2.0746 C   0  0  0  0  0  0  0  0  0  0  0  0
   -2.5687   -1.5416   -2.9733 C   0  0  0  0  0  0  0  0  0  0  0  0
   -2.2291   -2.8454   -2.6245 C   0  0  0  0  0  0  0  0  0  0  0  0
   -1.6538   -3.0976   -1.3826 C   0  0  0  0  0  0  0  0  0  0  0  0
   -1.4065   -2.0458   -0.4927 C   0  0  0  0  0  0  0  0  0  0  0  0
   -1.7216   -0.7183   -0.8281 C   0  0  0  0  0  0  0  0  0  0  0  0
   -1.4724    0.3705    0.0459 N   0  0  0  0  0  0  0  0  0  0  0  0
   -0.1724    0.3117    0.7853 C   0  0  0  0  0  0  0  0  0  0  0  0
    1.0556    0.2879   -0.1605 C   0  0  0  0  0  0  0  0  0  0  0  0
    1.1546    1.5300   -0.8766 O   0  0  0  0  0  0  0  0  0  0  0  0
    2.3675    0.0958    0.6335 C   0  0  0  0  0  0  0  0  0  0  0  0
    2.4263   -1.1698    1.3926 N   0  0  0  0  0  0  0  0  0  0  0  0
    3.5691   -1.1758    2.3229 C   0  0  0  0  0  0  0  0  0  0  0  0
    4.7747   -1.6110    1.5049 C   0  0  0  0  0  0  0  0  0  0  0  0
    4.1947   -2.4041    0.3430 C   0  0  0  0  0  0  0  0  0  0  0  0
    2.6848   -2.3319    0.5250 C   0  0  0  0  0  0  0  0  0  0  0  0
   -2.0583    1.6480   -0.1535 C   0  0  0  0  0  0  0  0  0  0  0  0
   -2.2303    1.3247    3.6914 H   0  0  0  0  0  0  0  0  0  0  0  0
   -2.7098    4.7173    1.2649 H   0  0  0  0  0  0  0  0  0  0  0  0
   -3.4881    5.2153   -1.0278 H   0  0  0  0  0  0  0  0  0  0  0  0
   -3.5004    3.4215   -2.7344 H   0  0  0  0  0  0  0  0  0  0  0  0
   -3.0252   -1.3398   -3.9400 H   0  0  0  0  0  0  0  0  0  0  0  0
   -2.4217   -3.6620   -3.3158 H   0  0  0  0  0  0  0  0  0  0  0  0
   -1.4025   -4.1168   -1.0981 H   0  0  0  0  0  0  0  0  0  0  0  0
   -0.9816   -2.2924    0.4767 H   0  0  0  0  0  0  0  0  0  0  0  0
   -0.0439    1.1777    1.4382 H   0  0  0  0  0  0  0  0  0  0  0  0
   -0.1790   -0.5557    1.4536 H   0  0  0  0  0  0  0  0  0  0  0  0
    0.9694   -0.4978   -0.9161 H   0  0  0  0  0  0  0  0  0  0  0  0
    0.3530    1.5951   -1.4256 H   0  0  0  0  0  0  0  0  0  0  0  0
    2.4474    0.9411    1.3312 H   0  0  0  0  0  0  0  0  0  0  0  0
    3.2213    0.2059   -0.0482 H   0  0  0  0  0  0  0  0  0  0  0  0
    3.7284   -0.2181    2.8302 H   0  0  0  0  0  0  0  0  0  0  0  0
    3.3722   -1.9173    3.1077 H   0  0  0  0  0  0  0  0  0  0  0  0
    5.4706   -2.2112    2.0996 H   0  0  0  0  0  0  0  0  0  0  0  0
    5.3215   -0.7402    1.1252 H   0  0  0  0  0  0  0  0  0  0  0  0
    4.5469   -3.4407    0.3468 H   0  0  0  0  0  0  0  0  0  0  0  0
    4.4971   -1.9496   -0.6073 H   0  0  0  0  0  0  0  0  0  0  0  0
    2.3390   -3.2329    1.0478 H   0  0  0  0  0  0  0  0  0  0  0  0
    2.1536   -2.3081   -0.4310 H   0  0  0  0  0  0  0  0  0  0  0  0
  1  2  2  0
  2  3  1  0
  2  4  1  0
  4  5  2  0
  5  6  1  0
  6  7  2  0
  7  8  1  0
  8  9  1  0
  9 10  2  0
  9 11  1  0
 11 12  2  0
 12 13  1  0
 13 14  2  0
 14 15  1  0
 15 16  2  0
 16 17  1  0
 17 18  1  0
 18 19  1  0
 19 20  1  0
 19 21  1  0
 21 22  1  0
 22 23  1  0
 23 24  1  0
 24 25  1  0
 25 26  1  0
 17 27  1  0
 27  4  1  0
 27  8  2  0
 16 11  1  0
 26 22  1  0
  3 28  1  0
  5 29  1  0
  6 30  1  0
  7 31  1  0
 12 32  1  0
 13 33  1  0
 14 34  1  0
 15 35  1  0
 18 36  1  0
 18 37  1  0
 19 38  1  0
 20 39  1  0
 21 40  1  0
 21 41  1  0
 23 42  1  0
 23 43  1  0
 24 44  1  0
 24 45  1  0
 25 46  1  0
 25 47  1  0
 26 48  1  0
 26 49  1  0
M  END
$$$$
