
     RDKit          3D

 33 34  0  0  0  0  0  0  0  0999 V2000
   -6.2034    0.8112   -0.1767 C   0  0  0  0  0  0  0  0  0  0  0  0
   -4.7601    0.7783   -0.6464 C   0  0  0  0  0  0  0  0  0  0  0  0
   -4.0648   -0.1906    0.1360 O   0  0  0  0  0  0  0  0  0  0  0  0
   -2.7373   -0.3757   -0.1329 C   0  0  0  0  0  0  0  0  0  0  0  0
   -1.9930    0.2993   -1.1017 C   0  0  0  0  0  0  0  0  0  0  0  0
   -0.6322    0.0125   -1.2734 C   0  0  0  0  0  0  0  0  0  0  0  0
   -0.0062   -0.9488   -0.4702 C   0  0  0  0  0  0  0  0  0  0  0  0
    1.4366   -1.2879   -0.6191 C   0  0  0  0  0  0  0  0  0  0  0  0
    1.8468   -2.3945   -0.2878 O   0  0  0  0  0  0  0  0  0  0  0  0
    2.2508   -0.2881   -1.1061 N   0  0  0  0  0  0  0  0  0  0  0  0
    3.6882   -0.4445   -1.1282 C   0  0  0  0  0  0  0  0  0  0  0  0
    4.2418    0.1375    0.1184 C   0  0  0  0  0  0  0  0  0  0  0  0
    4.5304   -0.3892    1.3603 C   0  0  0  0  0  0  0  0  0  0  0  0
    5.0292    0.6801    2.1413 C   0  0  0  0  0  0  0  0  0  0  0  0
    5.0089    1.7899    1.3295 C   0  0  0  0  0  0  0  0  0  0  0  0
    4.5281    1.4725    0.0995 O   0  0  0  0  0  0  0  0  0  0  0  0
   -0.7569   -1.6359    0.4885 C   0  0  0  0  0  0  0  0  0  0  0  0
   -2.1129   -1.3445    0.6568 C   0  0  0  0  0  0  0  0  0  0  0  0
   -6.6679   -0.1741   -0.2891 H   0  0  0  0  0  0  0  0  0  0  0  0
   -6.2572    1.0696    0.8861 H   0  0  0  0  0  0  0  0  0  0  0  0
   -6.7828    1.5421   -0.7478 H   0  0  0  0  0  0  0  0  0  0  0  0
   -4.7351    0.5003   -1.7064 H   0  0  0  0  0  0  0  0  0  0  0  0
   -4.3157    1.7704   -0.5063 H   0  0  0  0  0  0  0  0  0  0  0  0
   -2.4413    1.0483   -1.7462 H   0  0  0  0  0  0  0  0  0  0  0  0
   -0.0853    0.5300   -2.0565 H   0  0  0  0  0  0  0  0  0  0  0  0
    1.9118    0.6635   -1.0951 H   0  0  0  0  0  0  0  0  0  0  0  0
    4.0634    0.0927   -2.0049 H   0  0  0  0  0  0  0  0  0  0  0  0
    3.9620   -1.4998   -1.2251 H   0  0  0  0  0  0  0  0  0  0  0  0
    4.3865   -1.4195    1.6580 H   0  0  0  0  0  0  0  0  0  0  0  0
    5.3587    0.6476    3.1701 H   0  0  0  0  0  0  0  0  0  0  0  0
    5.2863    2.8252    1.4699 H   0  0  0  0  0  0  0  0  0  0  0  0
   -0.2894   -2.3975    1.1092 H   0  0  0  0  0  0  0  0  0  0  0  0
   -2.6881   -1.8806    1.4082 H   0  0  0  0  0  0  0  0  0  0  0  0
  1  2  1  0
  2  3  1  0
  3  4  1  0
  4  5  2  0
  5  6  1  0
  6  7  2  0
  7  8  1  0
  8  9  2  0
  8 10  1  0
 10 11  1  0
 11 12  1  0
 12 13  2  0
 13 14  1  0
 14 15  2  0
 15 16  1  0
  7 17  1  0
 17 18  2  0
 18  4  1  0
 16 12  1  0
  1 19  1  0
  1 20  1  0
  1 21  1  0
  2 22  1  0
  2 23  1  0
  5 24  1  0
  6 25  1  0
 10 26  1  0
 11 27  1  0
 11 28  1  0
 13 29  1  0
 14 30  1  0
 15 31  1  0
 17 32  1  0
 18 33  1  0
M  END
$$$$
