
     RDKit          3D

 40 41  0  0  0  0  0  0  0  0999 V2000
    6.3995   -0.5050   -5.0845 C   0  0  0  0  0  0  0  0  0  0  0  0
    5.6925   -0.2021   -3.7735 C   0  0  0  0  0  0  0  0  0  0  0  0
    4.1759   -0.1839   -3.9464 C   0  0  0  0  0  0  0  0  0  0  0  0
    3.4446    0.1180   -2.6459 C   0  0  0  0  0  0  0  0  0  0  0  0
    4.0375    0.3173   -1.5927 O   0  0  0  0  0  0  0  0  0  0  0  0
    2.0705    0.1297   -2.8327 N   0  0  0  0  0  0  0  0  0  0  0  0
    1.0735    0.3738   -1.8666 C   0  0  0  0  0  0  0  0  0  0  0  0
   -0.2581    0.3247   -2.2968 C   0  0  0  0  0  0  0  0  0  0  0  0
   -1.3072    0.5550   -1.4005 C   0  0  0  0  0  0  0  0  0  0  0  0
   -1.0397    0.8310   -0.0555 C   0  0  0  0  0  0  0  0  0  0  0  0
   -2.1901    1.0704    0.8590 C   0  0  0  0  0  0  0  0  0  0  0  0
   -3.2936    1.3794    0.4146 O   0  0  0  0  0  0  0  0  0  0  0  0
   -1.9569    0.8942    2.2104 N   0  0  0  0  0  0  0  0  0  0  0  0
   -3.0866    0.8836    3.0502 N   0  0  0  0  0  0  0  0  0  0  0  0
   -3.1481   -0.0778    4.0465 C   0  0  0  0  0  0  0  0  0  0  0  0
   -2.1498   -0.7417    4.3362 O   0  0  0  0  0  0  0  0  0  0  0  0
   -4.4385   -0.2514    4.6978 C   0  0  0  0  0  0  0  0  0  0  0  0
   -4.7361   -1.1419    5.7145 C   0  0  0  0  0  0  0  0  0  0  0  0
   -6.0955   -1.0653    6.1336 C   0  0  0  0  0  0  0  0  0  0  0  0
   -6.7976   -0.1180    5.4239 C   0  0  0  0  0  0  0  0  0  0  0  0
   -5.8195    0.6685    4.2636 S   0  0  0  0  0  0  0  0  0  0  0  0
    0.2890    0.8951    0.3760 C   0  0  0  0  0  0  0  0  0  0  0  0
    1.3367    0.6637   -0.5263 C   0  0  0  0  0  0  0  0  0  0  0  0
    7.4840   -0.5131   -4.9372 H   0  0  0  0  0  0  0  0  0  0  0  0
    6.1023   -1.4842   -5.4734 H   0  0  0  0  0  0  0  0  0  0  0  0
    6.1649    0.2510   -5.8405 H   0  0  0  0  0  0  0  0  0  0  0  0
    6.0371    0.7665   -3.3922 H   0  0  0  0  0  0  0  0  0  0  0  0
    5.9750   -0.9550   -3.0280 H   0  0  0  0  0  0  0  0  0  0  0  0
    3.8330   -1.1585   -4.3141 H   0  0  0  0  0  0  0  0  0  0  0  0
    3.8958    0.5793   -4.6822 H   0  0  0  0  0  0  0  0  0  0  0  0
    1.7413   -0.0614   -3.7709 H   0  0  0  0  0  0  0  0  0  0  0  0
   -0.5033    0.1093   -3.3338 H   0  0  0  0  0  0  0  0  0  0  0  0
   -2.3351    0.5157   -1.7571 H   0  0  0  0  0  0  0  0  0  0  0  0
   -1.1720    0.3344    2.5432 H   0  0  0  0  0  0  0  0  0  0  0  0
   -3.9459    1.2539    2.6444 H   0  0  0  0  0  0  0  0  0  0  0  0
   -4.0010   -1.8190    6.1362 H   0  0  0  0  0  0  0  0  0  0  0  0
   -6.5344   -1.6739    6.9150 H   0  0  0  0  0  0  0  0  0  0  0  0
   -7.8398    0.1513    5.5301 H   0  0  0  0  0  0  0  0  0  0  0  0
    0.5434    1.1466    1.4020 H   0  0  0  0  0  0  0  0  0  0  0  0
    2.3523    0.7269   -0.1462 H   0  0  0  0  0  0  0  0  0  0  0  0
  1  2  1  0
  2  3  1  0
  3  4  1  0
  4  5  2  0
  4  6  1  0
  6  7  1  0
  7  8  2  0
  8  9  1  0
  9 10  2  0
 10 11  1  0
 11 12  2  0
 11 13  1  0
 13 14  1  0
 14 15  1  0
 15 16  2  0
 15 17  1  0
 17 18  2  0
 18 19  1  0
 19 20  2  0
 20 21  1  0
 10 22  1  0
 22 23  2  0
 23  7  1  0
 21 17  1  0
  1 24  1  0
  1 25  1  0
  1 26  1  0
  2 27  1  0
  2 28  1  0
  3 29  1  0
  3 30  1  0
  6 31  1  0
  8 32  1  0
  9 33  1  0
 13 34  1  0
 14 35  1  0
 18 36  1  0
 19 37  1  0
 20 38  1  0
 22 39  1  0
 23 40  1  0
M  END
$$$$
