
     RDKit          3D

 37 38  0  0  0  0  0  0  0  0999 V2000
   -5.9015   -1.2500   -0.8267 C   0  0  0  0  0  0  0  0  0  0  0  0
   -5.0635   -0.1033   -1.1755 N   0  0  0  0  0  0  0  0  0  0  0  0
   -5.4746    0.6384   -2.3669 C   0  0  0  0  0  0  0  0  0  0  0  0
   -3.7180   -0.0970   -0.7963 C   0  0  0  0  0  0  0  0  0  0  0  0
   -2.8025    0.8413   -1.3026 C   0  0  0  0  0  0  0  0  0  0  0  0
   -1.4538    0.8660   -0.9115 C   0  0  0  0  0  0  0  0  0  0  0  0
   -0.9633   -0.0572    0.0108 C   0  0  0  0  0  0  0  0  0  0  0  0
    0.4303   -0.0483    0.4773 C   0  0  0  0  0  0  0  0  0  0  0  0
    1.4799    0.1837   -0.3278 C   0  0  0  0  0  0  0  0  0  0  0  0
    2.8739    0.1949    0.1299 C   0  0  0  0  0  0  0  0  0  0  0  0
    3.3607   -0.7194    1.0632 C   0  0  0  0  0  0  0  0  0  0  0  0
    4.6988   -0.6766    1.4388 C   0  0  0  0  0  0  0  0  0  0  0  0
    5.5373    0.2346    0.8976 N   0  0  0  0  0  4  0  0  0  0  0  0
    6.9473    0.2691    1.3215 C   0  0  0  0  0  0  0  0  0  0  0  0
    5.0908    1.1264   -0.0145 C   0  0  0  0  0  0  0  0  0  0  0  0
    3.7610    1.1182   -0.4208 C   0  0  0  0  0  0  0  0  0  0  0  0
   -1.8568   -0.9796    0.5526 C   0  0  0  0  0  0  0  0  0  0  0  0
   -3.2029   -0.9955    0.1534 C   0  0  0  0  0  0  0  0  0  0  0  0
   -5.5140   -2.1709   -1.2761 H   0  0  0  0  0  0  0  0  0  0  0  0
   -5.9740   -1.3719    0.2594 H   0  0  0  0  0  0  0  0  0  0  0  0
   -6.9293   -1.1157   -1.1822 H   0  0  0  0  0  0  0  0  0  0  0  0
   -6.5500    0.5350   -2.5505 H   0  0  0  0  0  0  0  0  0  0  0  0
   -4.9512    0.2730   -3.2573 H   0  0  0  0  0  0  0  0  0  0  0  0
   -5.2930    1.7118   -2.2472 H   0  0  0  0  0  0  0  0  0  0  0  0
   -3.1182    1.5972   -2.0155 H   0  0  0  0  0  0  0  0  0  0  0  0
   -0.8101    1.6339   -1.3317 H   0  0  0  0  0  0  0  0  0  0  0  0
    0.5580   -0.2518    1.5376 H   0  0  0  0  0  0  0  0  0  0  0  0
    1.3238    0.3856   -1.3865 H   0  0  0  0  0  0  0  0  0  0  0  0
    2.7096   -1.4753    1.4977 H   0  0  0  0  0  0  0  0  0  0  0  0
    5.1076   -1.3694    2.1691 H   0  0  0  0  0  0  0  0  0  0  0  0
    7.0136    0.9386    2.1826 H   0  0  0  0  0  0  0  0  0  0  0  0
    7.5617    0.6353    0.4950 H   0  0  0  0  0  0  0  0  0  0  0  0
    7.2660   -0.7419    1.5881 H   0  0  0  0  0  0  0  0  0  0  0  0
    5.8040    1.8424   -0.4133 H   0  0  0  0  0  0  0  0  0  0  0  0
    3.4218    1.8434   -1.1585 H   0  0  0  0  0  0  0  0  0  0  0  0
   -1.5275   -1.7056    1.2921 H   0  0  0  0  0  0  0  0  0  0  0  0
   -3.8419   -1.7391    0.6205 H   0  0  0  0  0  0  0  0  0  0  0  0
  1  2  1  0
  2  3  1  0
  2  4  1  0
  4  5  2  0
  5  6  1  0
  6  7  2  0
  7  8  1  0
  8  9  2  3
  9 10  1  0
 10 11  2  0
 11 12  1  0
 12 13  2  0
 13 14  1  0
 13 15  1  0
 15 16  2  0
  7 17  1  0
 17 18  2  0
 18  4  1  0
 16 10  1  0
  1 19  1  0
  1 20  1  0
  1 21  1  0
  3 22  1  0
  3 23  1  0
  3 24  1  0
  5 25  1  0
  6 26  1  0
  8 27  1  0
  9 28  1  0
 11 29  1  0
 12 30  1  0
 14 31  1  0
 14 32  1  0
 14 33  1  0
 15 34  1  0
 16 35  1  0
 17 36  1  0
 18 37  1  0
M  CHG  1  13   1
M  END
$$$$
