
     RDKit          3D

 67 72  0  0  0  0  0  0  0  0999 V2000
    3.2916   -0.6713   -2.3541 O   0  0  0  0  0  0  0  0  0  0  0  0
    2.7943   -0.1635   -1.3437 C   0  0  0  0  0  0  0  0  0  0  0  0
    3.7049    0.3773   -0.2356 C   0  0  0  0  0  0  0  0  0  0  0  0
    4.0756   -0.7884    0.7020 C   0  0  0  0  0  0  0  0  0  0  0  0
    5.1441   -0.4249    1.7072 C   0  0  0  0  0  0  0  0  0  0  0  0
    4.7950   -0.0560    3.0136 C   0  0  0  0  0  0  0  0  0  0  0  0
    5.7811    0.2999    3.9344 C   0  0  0  0  0  0  0  0  0  0  0  0
    7.1230    0.2907    3.5588 C   0  0  0  0  0  0  0  0  0  0  0  0
    7.4803   -0.0742    2.2621 C   0  0  0  0  0  0  0  0  0  0  0  0
    6.4961   -0.4296    1.3387 C   0  0  0  0  0  0  0  0  0  0  0  0
    3.0906    1.4923    0.4757 N   0  0  0  0  0  0  0  0  0  0  0  0
    1.7639    1.3017    0.8427 C   0  0  0  0  0  0  0  0  0  0  0  0
    1.4177    1.9205    1.9809 N   0  0  0  0  0  0  0  0  0  0  0  0
    0.1316    1.8499    2.3130 C   0  0  0  0  0  0  0  0  0  0  0  0
   -0.8292    1.2680    1.5924 N   0  0  0  0  0  0  0  0  0  0  0  0
   -0.4667    0.6703    0.4338 C   0  0  0  0  0  0  0  0  0  0  0  0
   -1.5289    0.2730   -0.4118 N   0  0  0  0  0  0  0  0  0  0  0  0
   -1.8016    1.3855   -1.3723 C   0  0  0  0  0  0  0  0  0  0  0  0
   -3.2191    1.2967   -1.9822 C   0  0  0  0  0  0  0  0  0  0  0  0
   -4.2545    1.3532   -0.9345 N   0  0  0  0  0  0  0  0  0  0  0  0
   -5.5215    1.8477   -1.1912 C   0  0  0  0  0  0  0  0  0  0  0  0
   -6.3553    2.3246   -0.1663 C   0  0  0  0  0  0  0  0  0  0  0  0
   -7.6393    2.8230   -0.4228 C   0  0  0  0  0  0  0  0  0  0  0  0
   -8.1277    2.8551   -1.7227 C   0  0  0  0  0  0  0  0  0  0  0  0
   -7.3303    2.3902   -2.7606 C   0  0  0  0  0  0  0  0  0  0  0  0
   -6.0473    1.8958   -2.4933 C   0  0  0  0  0  0  0  0  0  0  0  0
   -3.8465    0.9083    0.4125 C   0  0  0  0  0  0  0  0  0  0  0  0
   -2.7439   -0.1700    0.3254 C   0  0  0  0  0  0  0  0  0  0  0  0
    0.8786    0.5746    0.0351 C   0  0  0  0  0  0  0  0  0  0  0  0
    1.4142   -0.1684   -1.0864 N   0  0  0  0  0  0  0  0  0  0  0  0
    0.6413   -1.1482   -1.8429 C   0  0  0  0  0  0  0  0  0  0  0  0
    0.7825   -2.5494   -1.2706 C   0  0  0  0  0  0  0  0  0  0  0  0
    0.0070   -2.9665   -0.1798 C   0  0  0  0  0  0  0  0  0  0  0  0
    0.1635   -4.2456    0.3603 C   0  0  0  0  0  0  0  0  0  0  0  0
    1.1010   -5.1174   -0.1870 C   0  0  0  0  0  0  0  0  0  0  0  0
    1.3159   -6.8463    0.5460 Br  0  0  0  0  0  0  0  0  0  0  0  0
    1.8821   -4.7229   -1.2697 C   0  0  0  0  0  0  0  0  0  0  0  0
    1.7230   -3.4438   -1.8078 C   0  0  0  0  0  0  0  0  0  0  0  0
    4.6060    0.7655   -0.7265 H   0  0  0  0  0  0  0  0  0  0  0  0
    4.4339   -1.6423    0.1108 H   0  0  0  0  0  0  0  0  0  0  0  0
    3.1906   -1.1650    1.2317 H   0  0  0  0  0  0  0  0  0  0  0  0
    3.7511   -0.0390    3.3216 H   0  0  0  0  0  0  0  0  0  0  0  0
    5.5018    0.5854    4.9455 H   0  0  0  0  0  0  0  0  0  0  0  0
    7.8906    0.5670    4.2768 H   0  0  0  0  0  0  0  0  0  0  0  0
    8.5273   -0.0827    1.9698 H   0  0  0  0  0  0  0  0  0  0  0  0
    6.7929   -0.7124    0.3308 H   0  0  0  0  0  0  0  0  0  0  0  0
    3.6157    1.8756    1.2570 H   0  0  0  0  0  0  0  0  0  0  0  0
   -0.1662    2.3251    3.2411 H   0  0  0  0  0  0  0  0  0  0  0  0
   -1.7067    2.3624   -0.8762 H   0  0  0  0  0  0  0  0  0  0  0  0
   -1.0647    1.3571   -2.1835 H   0  0  0  0  0  0  0  0  0  0  0  0
   -3.3262    2.1337   -2.6825 H   0  0  0  0  0  0  0  0  0  0  0  0
   -3.3251    0.3615   -2.5445 H   0  0  0  0  0  0  0  0  0  0  0  0
   -6.0100    2.3418    0.8633 H   0  0  0  0  0  0  0  0  0  0  0  0
   -8.2507    3.1879    0.3982 H   0  0  0  0  0  0  0  0  0  0  0  0
   -9.1234    3.2390   -1.9253 H   0  0  0  0  0  0  0  0  0  0  0  0
   -7.7028    2.4022   -3.7810 H   0  0  0  0  0  0  0  0  0  0  0  0
   -5.4719    1.5204   -3.3345 H   0  0  0  0  0  0  0  0  0  0  0  0
   -3.4973    1.7723    0.9891 H   0  0  0  0  0  0  0  0  0  0  0  0
   -4.6940    0.4609    0.9452 H   0  0  0  0  0  0  0  0  0  0  0  0
   -2.5052   -0.5575    1.3242 H   0  0  0  0  0  0  0  0  0  0  0  0
   -3.1473   -1.0278   -0.2294 H   0  0  0  0  0  0  0  0  0  0  0  0
   -0.4084   -0.8971   -1.9617 H   0  0  0  0  0  0  0  0  0  0  0  0
    1.0127   -1.1578   -2.8767 H   0  0  0  0  0  0  0  0  0  0  0  0
   -0.7270   -2.2984    0.2606 H   0  0  0  0  0  0  0  0  0  0  0  0
   -0.4479   -4.5483    1.2061 H   0  0  0  0  0  0  0  0  0  0  0  0
    2.6178   -5.3968   -1.7003 H   0  0  0  0  0  0  0  0  0  0  0  0
    2.3473   -3.1442   -2.6490 H   0  0  0  0  0  0  0  0  0  0  0  0
  1  2  2  0
  2  3  1  0
  3  4  1  0
  4  5  1  0
  5  6  2  0
  6  7  1  0
  7  8  2  0
  8  9  1  0
  9 10  2  0
  3 11  1  0
 11 12  1  0
 12 13  2  0
 13 14  1  0
 14 15  2  0
 15 16  1  0
 16 17  1  0
 17 18  1  0
 18 19  1  0
 19 20  1  0
 20 21  1  0
 21 22  2  0
 22 23  1  0
 23 24  2  0
 24 25  1  0
 25 26  2  0
 20 27  1  0
 27 28  1  0
 16 29  2  0
 29 30  1  0
 30 31  1  0
 31 32  1  0
 32 33  2  0
 33 34  1  0
 34 35  2  0
 35 36  1  0
 35 37  1  0
 37 38  2  0
 30  2  1  0
 38 32  1  0
 10  5  1  0
 29 12  1  0
 28 17  1  0
 26 21  1  0
  3 39  1  0
  4 40  1  0
  4 41  1  0
  6 42  1  0
  7 43  1  0
  8 44  1  0
  9 45  1  0
 10 46  1  0
 11 47  1  0
 14 48  1  0
 18 49  1  0
 18 50  1  0
 19 51  1  0
 19 52  1  0
 22 53  1  0
 23 54  1  0
 24 55  1  0
 25 56  1  0
 26 57  1  0
 27 58  1  0
 27 59  1  0
 28 60  1  0
 28 61  1  0
 31 62  1  0
 31 63  1  0
 33 64  1  0
 34 65  1  0
 37 66  1  0
 38 67  1  0
M  END
$$$$
