
     RDKit          3D

 39 39  0  0  0  0  0  0  0  0999 V2000
   -3.1015    3.9364    0.9138 C   0  0  0  0  0  0  0  0  0  0  0  0
   -3.4252    2.7223    0.0985 C   0  0  0  0  0  0  0  0  0  0  0  0
   -4.4555    2.0729    0.2027 O   0  0  0  0  0  0  0  0  0  0  0  0
   -2.4005    2.4491   -0.7542 O   0  0  0  0  0  0  0  0  0  0  0  0
   -2.5873    1.3201   -1.6226 C   0  0  0  0  0  0  0  0  0  0  0  0
   -2.1700    0.0186   -0.9374 C   0  0  0  0  0  0  0  0  0  0  0  0
   -0.6727   -0.0038   -0.5711 C   0  0  0  0  0  0  0  0  0  0  0  0
    0.1134   -0.1062   -1.8171 N   0  0  0  0  0  0  0  0  0  0  0  0
    1.6414    0.5748   -1.8242 S   0  0  0  0  0  6  0  0  0  0  0  0
    2.2044    0.2851   -3.1228 O   0  0  0  0  0  0  0  0  0  0  0  0
    1.5487    1.9256   -1.3239 O   0  0  0  0  0  0  0  0  0  0  0  0
    2.4601   -0.3007   -0.7396 O   0  0  0  0  0  0  0  0  0  0  0  0
    3.8707   -0.1066   -0.6737 C   0  0  0  0  0  0  0  0  0  0  0  0
    4.4635   -0.6972    0.6123 C   0  0  0  0  0  0  0  0  0  0  0  0
    3.7930    0.1257    2.0547 Cl  0  0  0  0  0  0  0  0  0  0  0  0
    6.2423   -0.4640    0.6076 Cl  0  0  0  0  0  0  0  0  0  0  0  0
    4.1247   -2.4514    0.7252 Cl  0  0  0  0  0  0  0  0  0  0  0  0
   -0.3622   -1.1524    0.3756 C   0  0  0  0  0  0  0  0  0  0  0  0
    0.1950   -0.8826    1.6356 C   0  0  0  0  0  0  0  0  0  0  0  0
    0.5140   -1.9216    2.5114 C   0  0  0  0  0  0  0  0  0  0  0  0
    0.2795   -3.2431    2.1412 C   0  0  0  0  0  0  0  0  0  0  0  0
   -0.2776   -3.5277    0.8970 C   0  0  0  0  0  0  0  0  0  0  0  0
   -0.5976   -2.4905    0.0188 C   0  0  0  0  0  0  0  0  0  0  0  0
   -2.9370    4.7927    0.2550 H   0  0  0  0  0  0  0  0  0  0  0  0
   -2.2167    3.7457    1.5262 H   0  0  0  0  0  0  0  0  0  0  0  0
   -3.9428    4.1638    1.5748 H   0  0  0  0  0  0  0  0  0  0  0  0
   -1.9830    1.4987   -2.5182 H   0  0  0  0  0  0  0  0  0  0  0  0
   -3.6296    1.2621   -1.9589 H   0  0  0  0  0  0  0  0  0  0  0  0
   -2.4184   -0.8198   -1.6002 H   0  0  0  0  0  0  0  0  0  0  0  0
   -2.7636   -0.1054   -0.0228 H   0  0  0  0  0  0  0  0  0  0  0  0
   -0.4420    0.9421   -0.0671 H   0  0  0  0  0  0  0  0  0  0  0  0
    0.1380   -1.0353   -2.2315 H   0  0  0  0  0  0  0  0  0  0  0  0
    4.0942    0.9669   -0.7281 H   0  0  0  0  0  0  0  0  0  0  0  0
    4.3195   -0.5839   -1.5536 H   0  0  0  0  0  0  0  0  0  0  0  0
    0.3947    0.1417    1.9455 H   0  0  0  0  0  0  0  0  0  0  0  0
    0.9515   -1.6988    3.4816 H   0  0  0  0  0  0  0  0  0  0  0  0
    0.5318   -4.0513    2.8229 H   0  0  0  0  0  0  0  0  0  0  0  0
   -0.4627   -4.5601    0.6108 H   0  0  0  0  0  0  0  0  0  0  0  0
   -1.0344   -2.7419   -0.9446 H   0  0  0  0  0  0  0  0  0  0  0  0
  1  2  1  0
  2  3  2  0
  2  4  1  0
  4  5  1  0
  5  6  1  0
  6  7  1  0
  7  8  1  0
  8  9  1  0
  9 10  2  0
  9 11  2  0
  9 12  1  0
 12 13  1  0
 13 14  1  0
 14 15  1  0
 14 16  1  0
 14 17  1  0
  7 18  1  0
 18 19  2  0
 19 20  1  0
 20 21  2  0
 21 22  1  0
 22 23  2  0
 23 18  1  0
  1 24  1  0
  1 25  1  0
  1 26  1  0
  5 27  1  0
  5 28  1  0
  6 29  1  0
  6 30  1  0
  7 31  1  0
  8 32  1  0
 13 33  1  0
 13 34  1  0
 19 35  1  0
 20 36  1  0
 21 37  1  0
 22 38  1  0
 23 39  1  0
M  END
$$$$
