
     RDKit          3D

 36 37  0  0  0  0  0  0  0  0999 V2000
   -1.2446   -1.3223    3.0796 O   0  0  0  0  0  0  0  0  0  0  0  0
   -0.2374   -1.3034    2.3793 C   0  0  0  0  0  0  0  0  0  0  0  0
    1.1525   -0.9699    2.9271 C   0  0  0  0  0  0  0  0  0  0  0  0
    2.0351   -0.4487    1.9257 O   0  0  0  0  0  0  0  0  0  0  0  0
    1.7754    0.8339    1.5670 C   0  0  0  0  0  0  0  0  0  0  0  0
    0.8838    1.5467    1.9905 O   0  0  0  0  0  0  0  0  0  0  0  0
    2.6530    1.1968    0.4439 C   0  0  0  0  0  0  0  0  0  0  0  0
    2.0287    1.5008   -0.7745 C   0  0  0  0  0  0  0  0  0  0  0  0
    2.7990    1.8342   -1.8881 C   0  0  0  0  0  0  0  0  0  0  0  0
    4.1887    1.8754   -1.7853 C   0  0  0  0  0  0  0  0  0  0  0  0
    4.8116    1.5904   -0.5675 C   0  0  0  0  0  0  0  0  0  0  0  0
    4.0460    1.2529    0.5537 C   0  0  0  0  0  0  0  0  0  0  0  0
    4.9652    0.9361    2.1837 Br  0  0  0  0  0  0  0  0  0  0  0  0
   -0.2449   -1.6180    1.0345 N   0  0  0  0  0  0  0  0  0  0  0  0
   -1.4829   -1.7125    0.2860 C   0  0  0  0  0  0  0  0  0  0  0  0
   -2.1610   -0.3468    0.1068 C   0  0  0  0  0  0  0  0  0  0  0  0
   -2.9425   -0.2817   -1.1139 N   0  0  0  0  0  0  0  0  0  0  0  0
   -4.2493   -0.6872   -1.2070 C   0  0  0  0  0  0  0  0  0  0  0  0
   -4.8755   -1.1491   -0.0906 O   0  0  0  0  0  0  0  0  0  0  0  0
   -4.7751   -0.5875   -2.4332 C   0  0  0  0  0  0  0  0  0  0  0  0
   -3.6093    0.0235   -3.5699 S   0  0  0  0  0  0  0  0  0  0  0  0
   -2.3662    0.1197   -2.3079 C   0  0  0  0  0  0  0  0  0  0  0  0
   -1.2133    0.4656   -2.5114 O   0  0  0  0  0  0  0  0  0  0  0  0
    1.0624   -0.2652    3.7615 H   0  0  0  0  0  0  0  0  0  0  0  0
    1.5940   -1.8957    3.3093 H   0  0  0  0  0  0  0  0  0  0  0  0
    0.9435    1.4759   -0.8639 H   0  0  0  0  0  0  0  0  0  0  0  0
    2.3119    2.0625   -2.8342 H   0  0  0  0  0  0  0  0  0  0  0  0
    4.7886    2.1387   -2.6538 H   0  0  0  0  0  0  0  0  0  0  0  0
    5.8963    1.6421   -0.5032 H   0  0  0  0  0  0  0  0  0  0  0  0
    0.6151   -1.4698    0.5186 H   0  0  0  0  0  0  0  0  0  0  0  0
   -2.1596   -2.4037    0.8008 H   0  0  0  0  0  0  0  0  0  0  0  0
   -1.2228   -2.1559   -0.6813 H   0  0  0  0  0  0  0  0  0  0  0  0
   -2.7911   -0.1037    0.9703 H   0  0  0  0  0  0  0  0  0  0  0  0
   -1.3962    0.4384    0.0518 H   0  0  0  0  0  0  0  0  0  0  0  0
   -5.7978   -1.3590   -0.3146 H   0  0  0  0  0  0  0  0  0  0  0  0
   -5.7812   -0.8532   -2.7221 H   0  0  0  0  0  0  0  0  0  0  0  0
  1  2  2  0
  2  3  1  0
  3  4  1  0
  4  5  1  0
  5  6  2  0
  5  7  1  0
  7  8  2  0
  8  9  1  0
  9 10  2  0
 10 11  1  0
 11 12  2  0
 12 13  1  0
  2 14  1  0
 14 15  1  0
 15 16  1  0
 16 17  1  0
 17 18  1  0
 18 19  1  0
 18 20  2  0
 20 21  1  0
 21 22  1  0
 22 23  2  0
 12  7  1  0
 22 17  1  0
  3 24  1  0
  3 25  1  0
  8 26  1  0
  9 27  1  0
 10 28  1  0
 11 29  1  0
 14 30  1  0
 15 31  1  0
 15 32  1  0
 16 33  1  0
 16 34  1  0
 19 35  1  0
 20 36  1  0
M  END
$$$$
