
     RDKit          3D

 74 79  0  0  0  0  0  0  0  0999 V2000
    9.1877   -2.7443   -3.0363 C   0  0  0  0  0  0  0  0  0  0  0  0
    8.0466   -3.2709   -2.3714 O   0  0  0  0  0  0  0  0  0  0  0  0
    7.0699   -2.3773   -2.0246 C   0  0  0  0  0  0  0  0  0  0  0  0
    7.1350   -0.9927   -2.1658 C   0  0  0  0  0  0  0  0  0  0  0  0
    6.0491   -0.1943   -1.7772 C   0  0  0  0  0  0  0  0  0  0  0  0
    4.8692   -0.7510   -1.2448 C   0  0  0  0  0  0  0  0  0  0  0  0
    3.7267    0.1142   -0.8766 C   0  0  0  0  0  0  0  0  0  0  0  0
    2.4122   -0.3160   -0.9080 C   0  0  0  0  0  0  0  0  0  0  0  0
    1.4059    0.5854   -0.5572 C   0  0  0  0  0  0  0  0  0  0  0  0
    0.0302    0.0445   -0.5519 C   0  0  0  0  0  0  0  0  0  0  0  0
   -0.4183   -0.3861   -1.6054 O   0  0  0  0  0  0  0  0  0  0  0  0
   -0.5778    0.0563    0.6890 N   0  0  0  0  0  0  0  0  0  0  0  0
   -1.8397   -0.4798    1.0349 C   0  0  0  0  0  0  0  0  0  0  0  0
   -2.5474   -1.3027    0.1498 C   0  0  0  0  0  0  0  0  0  0  0  0
   -3.8024   -1.8127    0.4946 C   0  0  0  0  0  0  0  0  0  0  0  0
   -4.6507   -2.8856   -0.6465 S   0  0  0  0  0  6  0  0  0  0  0  0
   -5.6812   -3.5802    0.0971 O   0  0  0  0  0  0  0  0  0  0  0  0
   -3.6451   -3.6138   -1.3887 O   0  0  0  0  0  0  0  0  0  0  0  0
   -5.4159   -1.8131   -1.7004 N   0  0  0  0  0  0  0  0  0  0  0  0
   -4.5755   -1.0973   -2.6976 C   0  0  0  0  0  0  0  0  0  0  0  0
   -5.4585   -0.1636   -3.5330 C   0  0  0  0  0  0  0  0  0  0  0  0
   -6.0876    0.8638   -2.7494 O   0  0  0  0  0  0  0  0  0  0  0  0
   -6.3334    0.4801   -1.3889 C   0  0  0  0  0  0  0  0  0  0  0  0
   -6.5711   -1.0226   -1.2015 C   0  0  0  0  0  0  0  0  0  0  0  0
   -4.3549   -1.5483    1.7423 C   0  0  0  0  0  0  0  0  0  0  0  0
   -3.6449   -0.7500    2.6371 C   0  0  0  0  0  0  0  0  0  0  0  0
   -2.3856   -0.2047    2.3132 C   0  0  0  0  0  0  0  0  0  0  0  0
   -1.7863    0.5651    3.3162 N   0  0  0  0  0  0  0  0  0  0  0  0
   -0.6673   -0.0683    4.0371 C   0  0  0  0  0  0  0  0  0  0  0  0
   -0.3791    0.7295    5.3209 C   0  0  0  0  0  0  0  0  0  0  0  0
   -0.1249    2.1135    5.0270 O   0  0  0  0  0  0  0  0  0  0  0  0
   -1.2758    2.7080    4.3997 C   0  0  0  0  0  0  0  0  0  0  0  0
   -1.6118    2.0050    3.0725 C   0  0  0  0  0  0  0  0  0  0  0  0
    1.7006    1.9231   -0.2276 C   0  0  0  0  0  0  0  0  0  0  0  0
    0.7372    2.9270    0.0490 C   0  0  0  0  0  0  0  0  0  0  0  0
    1.1271    4.2227    0.3908 C   0  0  0  0  0  0  0  0  0  0  0  0
    2.4780    4.5360    0.4456 C   0  0  0  0  0  0  0  0  0  0  0  0
    3.4273    3.5559    0.1408 C   0  0  0  0  0  0  0  0  0  0  0  0
    3.0650    2.2597   -0.2048 C   0  0  0  0  0  0  0  0  0  0  0  0
    4.0387    1.3835   -0.5087 N   0  0  0  0  0  0  0  0  0  0  0  0
    4.8377   -2.1484   -1.0921 C   0  0  0  0  0  0  0  0  0  0  0  0
    5.9221   -2.9481   -1.4780 C   0  0  0  0  0  0  0  0  0  0  0  0
    9.7586   -2.0886   -2.3706 H   0  0  0  0  0  0  0  0  0  0  0  0
    8.9094   -2.2224   -3.9585 H   0  0  0  0  0  0  0  0  0  0  0  0
    9.8328   -3.5843   -3.3125 H   0  0  0  0  0  0  0  0  0  0  0  0
    8.0108   -0.4959   -2.5714 H   0  0  0  0  0  0  0  0  0  0  0  0
    6.1260    0.8867   -1.9043 H   0  0  0  0  0  0  0  0  0  0  0  0
    2.1497   -1.3259   -1.2120 H   0  0  0  0  0  0  0  0  0  0  0  0
   -0.0866    0.5100    1.4459 H   0  0  0  0  0  0  0  0  0  0  0  0
   -2.1285   -1.5848   -0.8116 H   0  0  0  0  0  0  0  0  0  0  0  0
   -4.0928   -1.8243   -3.3580 H   0  0  0  0  0  0  0  0  0  0  0  0
   -3.8140   -0.5034   -2.1857 H   0  0  0  0  0  0  0  0  0  0  0  0
   -6.2498   -0.7307   -4.0419 H   0  0  0  0  0  0  0  0  0  0  0  0
   -4.8567    0.3338   -4.3019 H   0  0  0  0  0  0  0  0  0  0  0  0
   -7.2130    1.0393   -1.0485 H   0  0  0  0  0  0  0  0  0  0  0  0
   -5.4782    0.8184   -0.7887 H   0  0  0  0  0  0  0  0  0  0  0  0
   -6.7848   -1.2289   -0.1474 H   0  0  0  0  0  0  0  0  0  0  0  0
   -7.4484   -1.3319   -1.7820 H   0  0  0  0  0  0  0  0  0  0  0  0
   -5.3154   -1.9665    2.0334 H   0  0  0  0  0  0  0  0  0  0  0  0
   -4.0744   -0.5458    3.6171 H   0  0  0  0  0  0  0  0  0  0  0  0
    0.2355   -0.0707    3.4132 H   0  0  0  0  0  0  0  0  0  0  0  0
   -0.9055   -1.1055    4.3018 H   0  0  0  0  0  0  0  0  0  0  0  0
    0.5077    0.3233    5.8164 H   0  0  0  0  0  0  0  0  0  0  0  0
   -1.2169    0.6683    6.0265 H   0  0  0  0  0  0  0  0  0  0  0  0
   -2.1225    2.6699    5.0941 H   0  0  0  0  0  0  0  0  0  0  0  0
   -1.0427    3.7607    4.2163 H   0  0  0  0  0  0  0  0  0  0  0  0
   -2.5199    2.4443    2.6454 H   0  0  0  0  0  0  0  0  0  0  0  0
   -0.7848    2.1751    2.3803 H   0  0  0  0  0  0  0  0  0  0  0  0
   -0.3285    2.7111   -0.0211 H   0  0  0  0  0  0  0  0  0  0  0  0
    0.3801    4.9855    0.6030 H   0  0  0  0  0  0  0  0  0  0  0  0
    2.8006    5.5416    0.7115 H   0  0  0  0  0  0  0  0  0  0  0  0
    4.4845    3.8137    0.1688 H   0  0  0  0  0  0  0  0  0  0  0  0
    3.9722   -2.6460   -0.6606 H   0  0  0  0  0  0  0  0  0  0  0  0
    5.8647   -4.0276   -1.3512 H   0  0  0  0  0  0  0  0  0  0  0  0
  1  2  1  0
  2  3  1  0
  3  4  2  0
  4  5  1  0
  5  6  2  0
  6  7  1  0
  7  8  2  0
  8  9  1  0
  9 10  1  0
 10 11  2  0
 10 12  1  0
 12 13  1  0
 13 14  2  0
 14 15  1  0
 15 16  1  0
 16 17  2  0
 16 18  2  0
 16 19  1  0
 19 20  1  0
 20 21  1  0
 21 22  1  0
 22 23  1  0
 23 24  1  0
 15 25  2  0
 25 26  1  0
 26 27  2  0
 27 28  1  0
 28 29  1  0
 29 30  1  0
 30 31  1  0
 31 32  1  0
 32 33  1  0
  9 34  2  0
 34 35  1  0
 35 36  2  0
 36 37  1  0
 37 38  2  0
 38 39  1  0
 39 40  2  0
  6 41  1  0
 41 42  2  0
 42  3  1  0
 40  7  1  0
 27 13  1  0
 33 28  1  0
 39 34  1  0
 24 19  1  0
  1 43  1  0
  1 44  1  0
  1 45  1  0
  4 46  1  0
  5 47  1  0
  8 48  1  0
 12 49  1  0
 14 50  1  0
 20 51  1  0
 20 52  1  0
 21 53  1  0
 21 54  1  0
 23 55  1  0
 23 56  1  0
 24 57  1  0
 24 58  1  0
 25 59  1  0
 26 60  1  0
 29 61  1  0
 29 62  1  0
 30 63  1  0
 30 64  1  0
 32 65  1  0
 32 66  1  0
 33 67  1  0
 33 68  1  0
 35 69  1  0
 36 70  1  0
 37 71  1  0
 38 72  1  0
 41 73  1  0
 42 74  1  0
M  END
$$$$
