
     RDKit          3D

 58 62  0  0  0  0  0  0  0  0999 V2000
    8.7926   -0.4967    1.7552 C   0  0  0  0  0  0  0  0  0  0  0  0
    7.7399   -0.0649    2.6083 O   0  0  0  0  0  0  0  0  0  0  0  0
    6.4936    0.0427    2.0545 C   0  0  0  0  0  0  0  0  0  0  0  0
    5.5042    0.4876    2.9364 C   0  0  0  0  0  0  0  0  0  0  0  0
    4.1825    0.6447    2.5088 C   0  0  0  0  0  0  0  0  0  0  0  0
    3.8264    0.3598    1.1919 C   0  0  0  0  0  0  0  0  0  0  0  0
    2.4801    0.5223    0.8134 N   0  0  0  0  0  0  0  0  0  0  0  0
    2.0918    0.2553   -0.4084 C   0  0  0  0  0  0  0  0  0  0  0  0
    0.7412    0.3843   -0.7378 N   0  0  0  0  0  0  0  0  0  0  0  0
    0.0444   -0.8520   -1.1670 C   0  0  0  0  0  0  0  0  0  0  0  0
   -1.4911   -0.7411   -1.0372 C   0  0  0  0  0  0  0  0  0  0  0  0
   -1.9610   -0.4474    0.3383 N   0  0  0  0  0  0  0  0  0  0  0  0
   -3.3212    0.1205    0.3425 C   0  0  0  0  0  0  0  0  0  0  0  0
   -4.3922   -0.8591   -0.1735 C   0  0  0  0  0  0  0  0  0  0  0  0
   -5.7803   -0.2472   -0.1381 C   0  0  0  0  0  0  0  0  0  0  0  0
   -6.4950   -0.2898    1.0729 C   0  0  0  0  0  0  0  0  0  0  0  0
   -7.7680    0.2694    1.1744 C   0  0  0  0  0  0  0  0  0  0  0  0
   -8.3477    0.8809    0.0689 C   0  0  0  0  0  0  0  0  0  0  0  0
   -7.6535    0.9346   -1.1396 C   0  0  0  0  0  0  0  0  0  0  0  0
   -6.3645    0.3799   -1.2636 C   0  0  0  0  0  0  0  0  0  0  0  0
   -5.6591    0.4570   -2.6011 C   0  0  0  0  0  0  0  0  0  0  0  0
   -6.3102    1.2267   -3.5200 F   0  0  0  0  0  0  0  0  0  0  0  0
   -5.5086   -0.7642   -3.1863 F   0  0  0  0  0  0  0  0  0  0  0  0
   -4.4053    0.9846   -2.5098 F   0  0  0  0  0  0  0  0  0  0  0  0
   -1.0023    0.4474    1.0371 C   0  0  0  0  0  0  0  0  0  0  0  0
   -0.1002    1.2688    0.0960 C   0  0  0  0  0  0  0  0  0  0  0  0
    3.0917   -0.1708   -1.3753 C   0  0  0  0  0  0  0  0  0  0  0  0
    3.0111   -0.4196   -2.7339 C   0  0  0  0  0  0  0  0  0  0  0  0
    4.2955   -0.8106   -3.1777 C   0  0  0  0  0  0  0  0  0  0  0  0
    5.1356   -0.7648   -2.0862 C   0  0  0  0  0  0  0  0  0  0  0  0
    4.4052   -0.3452   -0.9989 N   0  0  0  0  0  0  0  0  0  0  0  0
    4.8259   -0.0863    0.3166 C   0  0  0  0  0  0  0  0  0  0  0  0
    6.1549   -0.2472    0.7320 C   0  0  0  0  0  0  0  0  0  0  0  0
    9.7130   -0.5220    2.3465 H   0  0  0  0  0  0  0  0  0  0  0  0
    8.6083   -1.5100    1.3828 H   0  0  0  0  0  0  0  0  0  0  0  0
    8.9458    0.2070    0.9301 H   0  0  0  0  0  0  0  0  0  0  0  0
    5.7634    0.7142    3.9679 H   0  0  0  0  0  0  0  0  0  0  0  0
    3.4242    0.9890    3.2064 H   0  0  0  0  0  0  0  0  0  0  0  0
    0.2846   -1.0664   -2.2125 H   0  0  0  0  0  0  0  0  0  0  0  0
    0.3928   -1.7008   -0.5642 H   0  0  0  0  0  0  0  0  0  0  0  0
   -1.9296   -1.6894   -1.3680 H   0  0  0  0  0  0  0  0  0  0  0  0
   -1.8338    0.0365   -1.7335 H   0  0  0  0  0  0  0  0  0  0  0  0
   -3.3489    1.0566   -0.2299 H   0  0  0  0  0  0  0  0  0  0  0  0
   -3.5881    0.3828    1.3751 H   0  0  0  0  0  0  0  0  0  0  0  0
   -4.3886   -1.7685    0.4425 H   0  0  0  0  0  0  0  0  0  0  0  0
   -4.1662   -1.1987   -1.1888 H   0  0  0  0  0  0  0  0  0  0  0  0
   -6.0583   -0.7648    1.9505 H   0  0  0  0  0  0  0  0  0  0  0  0
   -8.3070    0.2258    2.1178 H   0  0  0  0  0  0  0  0  0  0  0  0
   -9.3414    1.3158    0.1460 H   0  0  0  0  0  0  0  0  0  0  0  0
   -8.1279    1.4165   -1.9944 H   0  0  0  0  0  0  0  0  0  0  0  0
   -1.5183    1.1242    1.7290 H   0  0  0  0  0  0  0  0  0  0  0  0
   -0.3667   -0.1908    1.6645 H   0  0  0  0  0  0  0  0  0  0  0  0
    0.5032    1.9756    0.6777 H   0  0  0  0  0  0  0  0  0  0  0  0
   -0.7185    1.8870   -0.5673 H   0  0  0  0  0  0  0  0  0  0  0  0
    2.1232   -0.3226   -3.3438 H   0  0  0  0  0  0  0  0  0  0  0  0
    4.5811   -1.0837   -4.1856 H   0  0  0  0  0  0  0  0  0  0  0  0
    6.1914   -0.9817   -2.0170 H   0  0  0  0  0  0  0  0  0  0  0  0
    6.9060   -0.5915    0.0333 H   0  0  0  0  0  0  0  0  0  0  0  0
  1  2  1  0
  2  3  1  0
  3  4  2  0
  4  5  1  0
  5  6  2  0
  6  7  1  0
  7  8  2  0
  8  9  1  0
  9 10  1  0
 10 11  1  0
 11 12  1  0
 12 13  1  0
 13 14  1  0
 14 15  1  0
 15 16  2  0
 16 17  1  0
 17 18  2  0
 18 19  1  0
 19 20  2  0
 20 21  1  0
 21 22  1  0
 21 23  1  0
 21 24  1  0
 12 25  1  0
 25 26  1  0
  8 27  1  0
 27 28  2  0
 28 29  1  0
 29 30  2  0
 30 31  1  0
 31 32  1  0
 32 33  2  0
 33  3  1  0
 32  6  1  0
 26  9  1  0
 31 27  1  0
 20 15  1  0
  1 34  1  0
  1 35  1  0
  1 36  1  0
  4 37  1  0
  5 38  1  0
 10 39  1  0
 10 40  1  0
 11 41  1  0
 11 42  1  0
 13 43  1  0
 13 44  1  0
 14 45  1  0
 14 46  1  0
 16 47  1  0
 17 48  1  0
 18 49  1  0
 19 50  1  0
 25 51  1  0
 25 52  1  0
 26 53  1  0
 26 54  1  0
 28 55  1  0
 29 56  1  0
 30 57  1  0
 33 58  1  0
M  END
$$$$
