
     RDKit          3D

 58 60  0  0  0  0  0  0  0  0999 V2000
    4.7920    4.2622    1.9303 C   0  0  0  0  0  0  0  0  0  0  0  0
    4.5235    3.2384    0.9072 C   0  0  0  0  0  0  0  0  0  0  0  0
    3.6600    2.1748    0.8145 C   0  0  0  0  0  0  0  0  0  0  0  0
    3.9594    1.5804   -0.4324 C   0  0  0  0  0  0  0  0  0  0  0  0
    3.4133    0.4644   -1.0289 N   0  0  0  0  0  0  0  0  0  0  0  0
    2.4071   -0.3064   -0.4931 C   0  0  0  0  0  0  0  0  0  0  0  0
    1.8416   -0.1053    0.5786 O   0  0  0  0  0  0  0  0  0  0  0  0
    2.0814   -1.5050   -1.3707 C   0  0  0  0  0  0  0  0  0  0  0  0
    0.8227   -2.2188   -0.8823 C   0  0  0  0  0  0  0  0  0  0  0  0
   -0.4239   -1.3940   -1.1704 C   0  0  0  0  0  0  0  0  0  0  0  0
   -0.3819   -0.4352   -1.9491 O   0  0  0  0  0  0  0  0  0  0  0  0
   -1.6159   -1.7791   -0.5670 N   0  0  0  0  0  0  0  0  0  0  0  0
   -2.7944   -0.9552   -0.8412 C   0  0  0  0  0  0  0  0  0  0  0  0
   -2.8228    0.2479    0.1050 C   0  0  0  0  0  0  0  0  0  0  0  0
   -3.4419    0.2267    1.1660 O   0  0  0  0  0  0  0  0  0  0  0  0
   -2.0330    1.3039   -0.3140 N   0  0  0  0  0  0  0  0  0  0  0  0
   -1.7916    2.4478    0.5328 C   0  0  0  0  0  0  0  0  0  0  0  0
   -3.0132    3.3505    0.6740 C   0  0  0  0  0  0  0  0  0  0  0  0
   -2.4283    4.6483    1.2071 C   0  0  0  0  0  0  0  0  0  0  0  0
   -1.0421    4.7569    0.5727 C   0  0  0  0  0  0  0  0  0  0  0  0
   -0.7440    3.3933   -0.0482 C   0  0  0  0  0  0  0  0  0  0  0  0
   -1.6844   -2.6292    0.6255 C   0  0  0  0  0  0  0  0  0  0  0  0
   -1.4774   -4.0982    0.3279 C   0  0  0  0  0  0  0  0  0  0  0  0
   -0.6510   -4.8716    1.1593 C   0  0  0  0  0  0  0  0  0  0  0  0
   -0.4632   -6.2311    0.9040 C   0  0  0  0  0  0  0  0  0  0  0  0
   -1.1111   -6.8235   -0.1729 C   0  0  0  0  0  0  0  0  0  0  0  0
   -0.9272   -8.1287   -0.4173 F   0  0  0  0  0  0  0  0  0  0  0  0
   -1.9482   -6.0830   -0.9987 C   0  0  0  0  0  0  0  0  0  0  0  0
   -2.1366   -4.7232   -0.7456 C   0  0  0  0  0  0  0  0  0  0  0  0
    4.9325    2.2509   -1.0599 N   0  0  0  0  0  0  0  0  0  0  0  0
    5.2851    3.2911   -0.2164 O   0  0  0  0  0  0  0  0  0  0  0  0
    4.0133    4.2656    2.6989 H   0  0  0  0  0  0  0  0  0  0  0  0
    5.7532    4.0646    2.4140 H   0  0  0  0  0  0  0  0  0  0  0  0
    4.8320    5.2608    1.4813 H   0  0  0  0  0  0  0  0  0  0  0  0
    2.9305    1.8686    1.5497 H   0  0  0  0  0  0  0  0  0  0  0  0
    3.7931    0.2584   -1.9417 H   0  0  0  0  0  0  0  0  0  0  0  0
    1.9770   -1.1800   -2.4139 H   0  0  0  0  0  0  0  0  0  0  0  0
    2.9314   -2.1956   -1.3125 H   0  0  0  0  0  0  0  0  0  0  0  0
    0.9157   -2.4292    0.1869 H   0  0  0  0  0  0  0  0  0  0  0  0
    0.7215   -3.1686   -1.4196 H   0  0  0  0  0  0  0  0  0  0  0  0
   -3.7021   -1.5523   -0.7077 H   0  0  0  0  0  0  0  0  0  0  0  0
   -2.7869   -0.6041   -1.8790 H   0  0  0  0  0  0  0  0  0  0  0  0
   -1.3453    1.0822   -1.0360 H   0  0  0  0  0  0  0  0  0  0  0  0
   -1.4722    2.0902    1.5198 H   0  0  0  0  0  0  0  0  0  0  0  0
   -3.7766    2.9373    1.3423 H   0  0  0  0  0  0  0  0  0  0  0  0
   -3.4836    3.5254   -0.3050 H   0  0  0  0  0  0  0  0  0  0  0  0
   -3.0598    5.5102    0.9726 H   0  0  0  0  0  0  0  0  0  0  0  0
   -2.3317    4.5932    2.2985 H   0  0  0  0  0  0  0  0  0  0  0  0
   -1.0204    5.5399   -0.1951 H   0  0  0  0  0  0  0  0  0  0  0  0
   -0.2944    5.0186    1.3289 H   0  0  0  0  0  0  0  0  0  0  0  0
    0.2761    3.0599    0.1640 H   0  0  0  0  0  0  0  0  0  0  0  0
   -0.8379    3.4599   -1.1387 H   0  0  0  0  0  0  0  0  0  0  0  0
   -0.9423   -2.2622    1.3433 H   0  0  0  0  0  0  0  0  0  0  0  0
   -2.6674   -2.5230    1.1005 H   0  0  0  0  0  0  0  0  0  0  0  0
   -0.1447   -4.4183    2.0102 H   0  0  0  0  0  0  0  0  0  0  0  0
    0.1814   -6.8314    1.5372 H   0  0  0  0  0  0  0  0  0  0  0  0
   -2.4489   -6.5690   -1.8302 H   0  0  0  0  0  0  0  0  0  0  0  0
   -2.7978   -4.1511   -1.3914 H   0  0  0  0  0  0  0  0  0  0  0  0
  1  2  1  0
  2  3  2  0
  3  4  1  0
  4  5  1  0
  5  6  1  0
  6  7  2  0
  6  8  1  0
  8  9  1  0
  9 10  1  0
 10 11  2  0
 10 12  1  0
 12 13  1  0
 13 14  1  0
 14 15  2  0
 14 16  1  0
 16 17  1  0
 17 18  1  0
 18 19  1  0
 19 20  1  0
 20 21  1  0
 12 22  1  0
 22 23  1  0
 23 24  2  0
 24 25  1  0
 25 26  2  0
 26 27  1  0
 26 28  1  0
 28 29  2  0
  4 30  2  0
 30 31  1  0
 31  2  1  0
 21 17  1  0
 29 23  1  0
  1 32  1  0
  1 33  1  0
  1 34  1  0
  3 35  1  0
  5 36  1  0
  8 37  1  0
  8 38  1  0
  9 39  1  0
  9 40  1  0
 13 41  1  0
 13 42  1  0
 16 43  1  0
 17 44  1  0
 18 45  1  0
 18 46  1  0
 19 47  1  0
 19 48  1  0
 20 49  1  0
 20 50  1  0
 21 51  1  0
 21 52  1  0
 22 53  1  0
 22 54  1  0
 24 55  1  0
 25 56  1  0
 28 57  1  0
 29 58  1  0
M  END
$$$$
