
     RDKit          3D

 37 38  0  0  0  0  0  0  0  0999 V2000
    4.1358    1.9278    1.8447 C   0  0  0  0  0  0  0  0  0  0  0  0
    4.4587    0.4593    1.6356 C   0  0  0  0  0  0  0  0  0  0  0  0
    3.4173   -0.2301    0.8993 N   0  0  0  0  0  0  0  0  0  0  0  0
    2.3980   -0.9686    1.4231 C   0  0  0  0  0  0  0  0  0  0  0  0
    1.6661   -1.4387    0.3499 C   0  0  0  0  0  0  0  0  0  0  0  0
    0.4496   -2.2913    0.3790 C   0  0  0  0  0  0  0  0  0  0  0  0
   -0.7050   -1.4220    0.3387 N   0  0  0  0  0  0  0  0  0  0  0  0
   -1.4634   -1.2893   -0.8028 C   0  0  0  0  0  0  0  0  0  0  0  0
   -1.2876   -1.9512   -1.8189 O   0  0  0  0  0  0  0  0  0  0  0  0
   -2.5284   -0.2485   -0.7747 C   0  0  0  0  0  0  0  0  0  0  0  0
   -2.9268    0.3255   -1.9913 C   0  0  0  0  0  0  0  0  0  0  0  0
   -3.9239    1.3032   -2.0241 C   0  0  0  0  0  0  0  0  0  0  0  0
   -4.5383    1.7115   -0.8406 C   0  0  0  0  0  0  0  0  0  0  0  0
   -4.1512    1.1280    0.3735 C   0  0  0  0  0  0  0  0  0  0  0  0
   -4.8013    1.5497    1.6204 N   0  0  0  0  0  4  0  0  0  0  0  0
   -5.7623    2.3267    1.5371 O   0  0  0  0  0  0  0  0  0  0  0  0
   -4.3441    1.1051    2.6831 O   0  0  0  0  0  1  0  0  0  0  0  0
   -3.1514    0.1447    0.4154 C   0  0  0  0  0  0  0  0  0  0  0  0
    2.3415   -0.9157   -0.7891 C   0  0  0  0  0  0  0  0  0  0  0  0
    1.9916   -1.0881   -2.2220 C   0  0  0  0  0  0  0  0  0  0  0  0
    3.4027   -0.1765   -0.4418 N   0  0  0  0  0  0  0  0  0  0  0  0
    4.9362    2.4166    2.4085 H   0  0  0  0  0  0  0  0  0  0  0  0
    3.2006    2.0502    2.4014 H   0  0  0  0  0  0  0  0  0  0  0  0
    4.0248    2.4487    0.8877 H   0  0  0  0  0  0  0  0  0  0  0  0
    5.3940    0.3411    1.0774 H   0  0  0  0  0  0  0  0  0  0  0  0
    4.5770   -0.0476    2.5995 H   0  0  0  0  0  0  0  0  0  0  0  0
    2.2797   -1.0997    2.4895 H   0  0  0  0  0  0  0  0  0  0  0  0
    0.3976   -2.8537    1.3172 H   0  0  0  0  0  0  0  0  0  0  0  0
    0.4404   -3.0075   -0.4481 H   0  0  0  0  0  0  0  0  0  0  0  0
   -0.7515   -0.7133    1.0563 H   0  0  0  0  0  0  0  0  0  0  0  0
   -2.4552    0.0102   -2.9217 H   0  0  0  0  0  0  0  0  0  0  0  0
   -4.2206    1.7427   -2.9743 H   0  0  0  0  0  0  0  0  0  0  0  0
   -5.3138    2.4744   -0.8814 H   0  0  0  0  0  0  0  0  0  0  0  0
   -2.8846   -0.3260    1.3578 H   0  0  0  0  0  0  0  0  0  0  0  0
    2.8375   -0.8395   -2.8715 H   0  0  0  0  0  0  0  0  0  0  0  0
    1.7054   -2.1234   -2.4315 H   0  0  0  0  0  0  0  0  0  0  0  0
    1.1551   -0.4346   -2.4883 H   0  0  0  0  0  0  0  0  0  0  0  0
  1  2  1  0
  2  3  1  0
  3  4  1  0
  4  5  2  0
  5  6  1  0
  6  7  1  0
  7  8  1  0
  8  9  2  0
  8 10  1  0
 10 11  2  0
 11 12  1  0
 12 13  2  0
 13 14  1  0
 14 15  1  0
 15 16  2  0
 15 17  1  0
 14 18  2  0
  5 19  1  0
 19 20  1  0
 19 21  2  0
 21  3  1  0
 18 10  1  0
  1 22  1  0
  1 23  1  0
  1 24  1  0
  2 25  1  0
  2 26  1  0
  4 27  1  0
  6 28  1  0
  6 29  1  0
  7 30  1  0
 11 31  1  0
 12 32  1  0
 13 33  1  0
 18 34  1  0
 20 35  1  0
 20 36  1  0
 20 37  1  0
M  CHG  2  15   1  17  -1
M  END
$$$$
