
     RDKit          3D

 53 54  0  0  0  0  0  0  0  0999 V2000
   -3.1500    0.6189   -1.8413 C   0  0  0  0  0  0  0  0  0  0  0  0
   -3.4058   -0.6351   -1.0213 C   0  0  0  0  0  0  0  0  0  0  0  0
   -4.4455   -0.3483   -0.0001 N   0  0  0  0  0  0  0  0  0  0  0  0
   -5.8269   -0.7063   -0.4222 C   0  0  0  0  0  0  0  0  0  0  0  0
   -6.1270   -2.1923   -0.3089 C   0  0  0  0  0  0  0  0  0  0  0  0
   -4.0511   -0.6811    1.6229 S   0  0  0  0  0  6  0  0  0  0  0  0
   -3.4743   -2.0070    1.6792 O   0  0  0  0  0  0  0  0  0  0  0  0
   -5.1754   -0.3109    2.4562 O   0  0  0  0  0  0  0  0  0  0  0  0
   -2.7619    0.5028    1.9410 C   0  0  0  0  0  0  0  0  0  0  0  0
   -3.1074    1.8471    2.1105 C   0  0  0  0  0  0  0  0  0  0  0  0
   -2.1107    2.7853    2.3722 C   0  0  0  0  0  0  0  0  0  0  0  0
   -0.7755    2.3803    2.4647 C   0  0  0  0  0  0  0  0  0  0  0  0
   -0.4299    1.0296    2.3005 C   0  0  0  0  0  0  0  0  0  0  0  0
    0.9777    0.5534    2.3747 C   0  0  0  0  0  0  0  0  0  0  0  0
    1.2987   -0.6197    2.2874 O   0  0  0  0  0  0  0  0  0  0  0  0
    1.8349    1.5982    2.5009 O   0  0  0  0  0  0  0  0  0  0  0  0
    3.2115    1.2191    2.5934 C   0  0  0  0  0  0  0  0  0  0  0  0
    3.8309    0.7655    1.2691 C   0  0  0  0  0  0  0  0  0  0  0  0
    4.8357    0.0570    1.2024 O   0  0  0  0  0  0  0  0  0  0  0  0
    3.2033    1.2469    0.1383 N   0  0  0  0  0  0  0  0  0  0  0  0
    3.6984    0.9132   -1.1818 C   0  0  0  0  0  0  0  0  0  0  0  0
    3.5387   -0.5784   -1.5137 C   0  0  0  0  0  0  0  0  0  0  0  0
    4.6383   -1.0698   -2.3158 N   0  0  0  0  0  0  0  0  0  0  0  0
    5.8008   -1.6107   -1.8186 C   0  0  0  0  0  0  0  0  0  0  0  0
    6.0378   -1.7307   -0.4805 O   0  0  0  0  0  0  0  0  0  0  0  0
    6.6723   -2.0009   -2.7539 C   0  0  0  0  0  0  0  0  0  0  0  0
    6.0819   -1.6741   -4.3534 S   0  0  0  0  0  0  0  0  0  0  0  0
    4.5929   -0.9728   -3.6999 C   0  0  0  0  0  0  0  0  0  0  0  0
    3.7091   -0.4830   -4.3849 O   0  0  0  0  0  0  0  0  0  0  0  0
   -1.4321    0.0844    2.0475 C   0  0  0  0  0  0  0  0  0  0  0  0
   -2.3755    0.4296   -2.5917 H   0  0  0  0  0  0  0  0  0  0  0  0
   -4.0562    0.9466   -2.3615 H   0  0  0  0  0  0  0  0  0  0  0  0
   -2.8127    1.4432   -1.2049 H   0  0  0  0  0  0  0  0  0  0  0  0
   -2.4654   -0.9492   -0.5581 H   0  0  0  0  0  0  0  0  0  0  0  0
   -3.7157   -1.4534   -1.6789 H   0  0  0  0  0  0  0  0  0  0  0  0
   -5.9760   -0.3852   -1.4599 H   0  0  0  0  0  0  0  0  0  0  0  0
   -6.5426   -0.1298    0.1746 H   0  0  0  0  0  0  0  0  0  0  0  0
   -7.1285   -2.4017   -0.6984 H   0  0  0  0  0  0  0  0  0  0  0  0
   -5.4139   -2.7941   -0.8789 H   0  0  0  0  0  0  0  0  0  0  0  0
   -6.0991   -2.5330    0.7295 H   0  0  0  0  0  0  0  0  0  0  0  0
   -4.1476    2.1622    2.0426 H   0  0  0  0  0  0  0  0  0  0  0  0
   -2.3738    3.8324    2.5095 H   0  0  0  0  0  0  0  0  0  0  0  0
   -0.0177    3.1317    2.6746 H   0  0  0  0  0  0  0  0  0  0  0  0
    3.3390    0.4305    3.3446 H   0  0  0  0  0  0  0  0  0  0  0  0
    3.7702    2.0975    2.9332 H   0  0  0  0  0  0  0  0  0  0  0  0
    2.4050    1.8626    0.2404 H   0  0  0  0  0  0  0  0  0  0  0  0
    3.1544    1.5266   -1.9080 H   0  0  0  0  0  0  0  0  0  0  0  0
    4.7520    1.2150   -1.2165 H   0  0  0  0  0  0  0  0  0  0  0  0
    3.4396   -1.2087   -0.6232 H   0  0  0  0  0  0  0  0  0  0  0  0
    2.6051   -0.7105   -2.0744 H   0  0  0  0  0  0  0  0  0  0  0  0
    5.5111   -1.0744    0.0222 H   0  0  0  0  0  0  0  0  0  0  0  0
    7.6351   -2.4503   -2.5562 H   0  0  0  0  0  0  0  0  0  0  0  0
   -1.1760   -0.9682    1.9310 H   0  0  0  0  0  0  0  0  0  0  0  0
  1  2  1  0
  2  3  1  0
  3  4  1  0
  4  5  1  0
  3  6  1  0
  6  7  2  0
  6  8  2  0
  6  9  1  0
  9 10  2  0
 10 11  1  0
 11 12  2  0
 12 13  1  0
 13 14  1  0
 14 15  2  0
 14 16  1  0
 16 17  1  0
 17 18  1  0
 18 19  2  0
 18 20  1  0
 20 21  1  0
 21 22  1  0
 22 23  1  0
 23 24  1  0
 24 25  1  0
 24 26  2  0
 26 27  1  0
 27 28  1  0
 28 29  2  0
 13 30  2  0
 30  9  1  0
 28 23  1  0
  1 31  1  0
  1 32  1  0
  1 33  1  0
  2 34  1  0
  2 35  1  0
  4 36  1  0
  4 37  1  0
  5 38  1  0
  5 39  1  0
  5 40  1  0
 10 41  1  0
 11 42  1  0
 12 43  1  0
 17 44  1  0
 17 45  1  0
 20 46  1  0
 21 47  1  0
 21 48  1  0
 22 49  1  0
 22 50  1  0
 25 51  1  0
 26 52  1  0
 30 53  1  0
M  END
$$$$
