
     RDKit          3D

 36 38  0  0  0  0  0  0  0  0999 V2000
   -5.1381   -0.7655   -0.9287 C   0  0  0  0  0  0  0  0  0  0  0  0
   -4.0253    0.1270   -0.4561 C   0  0  0  0  0  0  0  0  0  0  0  0
   -4.3251    1.3156    0.2337 C   0  0  0  0  0  0  0  0  0  0  0  0
   -3.3067    2.1405    0.7121 C   0  0  0  0  0  0  0  0  0  0  0  0
   -1.9915    1.7578    0.5001 C   0  0  0  0  0  0  0  0  0  0  0  0
   -1.6601    0.5699   -0.1834 C   0  0  0  0  0  0  0  0  0  0  0  0
   -2.6851   -0.2508   -0.6502 C   0  0  0  0  0  0  0  0  0  0  0  0
   -0.2541    0.3217   -0.2961 N   0  0  0  0  0  0  0  0  0  0  0  0
    0.1120   -0.2251   -1.6070 C   0  0  0  0  0  0  0  0  0  0  0  0
    0.4604    1.3529    0.3358 C   0  0  0  0  0  0  0  0  0  0  0  0
    1.7770    1.4205    0.6050 C   0  0  0  0  0  0  0  0  0  0  0  0
    2.7576    0.3691    0.3419 C   0  0  0  0  0  0  0  0  0  0  0  0
    3.7891    0.6228   -0.5716 C   0  0  0  0  0  0  0  0  0  0  0  0
    4.7257   -0.3618   -0.8570 C   0  0  0  0  0  0  0  0  0  0  0  0
    4.6262   -1.5902   -0.2246 C   0  0  0  0  0  0  0  0  0  0  0  0
    3.6028   -1.8058    0.6892 C   0  0  0  0  0  0  0  0  0  0  0  0
    2.6985   -0.8374    0.9740 N   0  0  0  0  0  4  0  0  0  0  0  0
    1.6660   -1.1314    1.9928 C   0  0  0  0  0  0  0  0  0  0  0  0
   -0.5441    2.6660    1.0037 S   0  0  0  0  0  0  0  0  0  0  0  0
   -5.4005   -1.4820   -0.1443 H   0  0  0  0  0  0  0  0  0  0  0  0
   -4.8413   -1.3160   -1.8275 H   0  0  0  0  0  0  0  0  0  0  0  0
   -6.0265   -0.1792   -1.1859 H   0  0  0  0  0  0  0  0  0  0  0  0
   -5.3621    1.6042    0.3998 H   0  0  0  0  0  0  0  0  0  0  0  0
   -3.5461    3.0607    1.2362 H   0  0  0  0  0  0  0  0  0  0  0  0
   -2.4697   -1.1888   -1.1515 H   0  0  0  0  0  0  0  0  0  0  0  0
   -0.3134   -1.2236   -1.7533 H   0  0  0  0  0  0  0  0  0  0  0  0
    1.1935   -0.3434   -1.7085 H   0  0  0  0  0  0  0  0  0  0  0  0
   -0.2223    0.4318   -2.4189 H   0  0  0  0  0  0  0  0  0  0  0  0
    2.1894    2.2963    1.1044 H   0  0  0  0  0  0  0  0  0  0  0  0
    3.8578    1.5871   -1.0738 H   0  0  0  0  0  0  0  0  0  0  0  0
    5.5255   -0.1711   -1.5715 H   0  0  0  0  0  0  0  0  0  0  0  0
    5.3476   -2.3767   -0.4374 H   0  0  0  0  0  0  0  0  0  0  0  0
    3.5026   -2.7572    1.2054 H   0  0  0  0  0  0  0  0  0  0  0  0
    0.7705   -1.4798    1.4751 H   0  0  0  0  0  0  0  0  0  0  0  0
    2.0352   -1.9166    2.6592 H   0  0  0  0  0  0  0  0  0  0  0  0
    1.4746   -0.2416    2.5960 H   0  0  0  0  0  0  0  0  0  0  0  0
  1  2  1  0
  2  3  2  0
  3  4  1  0
  4  5  2  0
  5  6  1  0
  6  7  2  0
  6  8  1  0
  8  9  1  0
  8 10  1  0
 10 11  2  3
 11 12  1  0
 12 13  2  0
 13 14  1  0
 14 15  2  0
 15 16  1  0
 16 17  2  0
 17 18  1  0
 10 19  1  0
  7  2  1  0
 17 12  1  0
 19  5  1  0
  1 20  1  0
  1 21  1  0
  1 22  1  0
  3 23  1  0
  4 24  1  0
  7 25  1  0
  9 26  1  0
  9 27  1  0
  9 28  1  0
 11 29  1  0
 13 30  1  0
 14 31  1  0
 15 32  1  0
 16 33  1  0
 18 34  1  0
 18 35  1  0
 18 36  1  0
M  CHG  1  17   1
M  END
$$$$
