
     RDKit          3D

 50 54  0  0  0  0  0  0  0  0999 V2000
   -4.5053   -0.3192   -1.9777 C   0  0  0  0  0  0  0  0  0  0  0  0
   -4.2591   -0.9885   -0.6618 C   0  0  0  0  0  0  0  0  0  0  0  0
   -5.1831   -1.7173   -0.0164 C   0  0  0  0  0  0  0  0  0  0  0  0
   -4.8929   -2.3292    1.2511 C   0  0  0  0  0  0  0  0  0  0  0  0
   -3.6870   -2.1711    1.8064 C   0  0  0  0  0  0  0  0  0  0  0  0
   -2.6892   -1.4260    1.1899 N   0  0  0  0  0  0  0  0  0  0  0  0
   -1.4550   -1.3100    1.8051 C   0  0  0  0  0  0  0  0  0  0  0  0
   -1.1561   -1.8508    2.8725 O   0  0  0  0  0  0  0  0  0  0  0  0
   -0.4433   -0.4764    1.0978 C   0  0  0  0  0  0  0  0  0  0  0  0
    0.8708   -0.2828    1.6907 C   0  0  0  0  0  0  0  0  0  0  0  0
    1.8127    0.4777    1.1088 C   0  0  0  0  0  0  0  0  0  0  0  0
    3.3787    0.5831    1.8201 S   0  0  0  0  0  6  0  0  0  0  0  0
    3.2886    0.4419    3.2627 O   0  0  0  0  0  0  0  0  0  0  0  0
    4.1178    1.6962    1.2487 O   0  0  0  0  0  0  0  0  0  0  0  0
    4.1600   -0.9010    1.2018 C   0  0  0  0  0  0  0  0  0  0  0  0
    4.6736   -0.9134   -0.1018 C   0  0  0  0  0  0  0  0  0  0  0  0
    5.2904   -2.0691   -0.5821 C   0  0  0  0  0  0  0  0  0  0  0  0
    5.3953   -3.1867    0.2412 C   0  0  0  0  0  0  0  0  0  0  0  0
    5.9880   -4.2935   -0.2245 F   0  0  0  0  0  0  0  0  0  0  0  0
    4.8986   -3.1726    1.5416 C   0  0  0  0  0  0  0  0  0  0  0  0
    4.2797   -2.0221    2.0322 C   0  0  0  0  0  0  0  0  0  0  0  0
    1.4566    1.1357   -0.1880 C   0  0  0  0  0  0  0  0  0  0  0  0
    2.2734    1.9520   -0.7889 N   0  0  0  0  0  0  0  0  0  0  0  0
    0.2067    0.8594   -0.7611 N   0  0  0  0  0  0  0  0  0  0  0  0
   -0.1695    1.5458   -2.0158 C   0  0  0  0  0  0  0  0  0  0  0  0
   -0.8589    2.8605   -1.8371 C   0  0  0  0  0  0  0  0  0  0  0  0
   -0.4656    4.0666   -1.2928 C   0  0  0  0  0  0  0  0  0  0  0  0
   -1.5705    4.9418   -1.4156 C   0  0  0  0  0  0  0  0  0  0  0  0
   -2.5651    4.2184   -2.0299 C   0  0  0  0  0  0  0  0  0  0  0  0
   -2.1430    2.9555   -2.2943 O   0  0  0  0  0  0  0  0  0  0  0  0
   -0.7631    0.0698   -0.0962 C   0  0  0  0  0  0  0  0  0  0  0  0
   -1.9999   -0.1273   -0.6583 N   0  0  0  0  0  0  0  0  0  0  0  0
   -2.9008   -0.8186   -0.0367 C   0  0  0  0  0  0  0  0  0  0  0  0
   -3.8109   -0.6941   -2.7368 H   0  0  0  0  0  0  0  0  0  0  0  0
   -4.3766    0.7645   -1.8887 H   0  0  0  0  0  0  0  0  0  0  0  0
   -5.5221   -0.5019   -2.3416 H   0  0  0  0  0  0  0  0  0  0  0  0
   -6.1768   -1.8626   -0.4299 H   0  0  0  0  0  0  0  0  0  0  0  0
   -5.6659   -2.9127    1.7409 H   0  0  0  0  0  0  0  0  0  0  0  0
   -3.4475   -2.6245    2.7654 H   0  0  0  0  0  0  0  0  0  0  0  0
    1.0653   -0.7972    2.6306 H   0  0  0  0  0  0  0  0  0  0  0  0
    4.6038   -0.0373   -0.7438 H   0  0  0  0  0  0  0  0  0  0  0  0
    5.6952   -2.1051   -1.5893 H   0  0  0  0  0  0  0  0  0  0  0  0
    5.0027   -4.0560    2.1647 H   0  0  0  0  0  0  0  0  0  0  0  0
    3.9031   -2.0101    3.0530 H   0  0  0  0  0  0  0  0  0  0  0  0
    3.1402    2.1266   -0.2523 H   0  0  0  0  0  0  0  0  0  0  0  0
   -0.8023    0.8847   -2.6233 H   0  0  0  0  0  0  0  0  0  0  0  0
    0.7150    1.7021   -2.6468 H   0  0  0  0  0  0  0  0  0  0  0  0
    0.5042    4.2771   -0.8621 H   0  0  0  0  0  0  0  0  0  0  0  0
   -1.6338    5.9726   -1.0974 H   0  0  0  0  0  0  0  0  0  0  0  0
   -3.5770    4.4453   -2.3345 H   0  0  0  0  0  0  0  0  0  0  0  0
  1  2  1  0
  2  3  2  0
  3  4  1  0
  4  5  2  0
  5  6  1  0
  6  7  1  0
  7  8  2  0
  7  9  1  0
  9 10  1  0
 10 11  2  0
 11 12  1  0
 12 13  2  0
 12 14  2  0
 12 15  1  0
 15 16  2  0
 16 17  1  0
 17 18  2  0
 18 19  1  0
 18 20  1  0
 20 21  2  0
 11 22  1  0
 22 23  2  3
 22 24  1  0
 24 25  1  0
 25 26  1  0
 26 27  2  0
 27 28  1  0
 28 29  2  0
 29 30  1  0
 24 31  1  0
 31 32  1  0
 32 33  2  0
 33  2  1  0
 33  6  1  0
 31  9  2  0
 21 15  1  0
 30 26  1  0
  1 34  1  0
  1 35  1  0
  1 36  1  0
  3 37  1  0
  4 38  1  0
  5 39  1  0
 10 40  1  0
 16 41  1  0
 17 42  1  0
 20 43  1  0
 21 44  1  0
 23 45  1  0
 25 46  1  0
 25 47  1  0
 27 48  1  0
 28 49  1  0
 29 50  1  0
M  END
$$$$
