
     RDKit          3D

 60 65  0  0  0  0  0  0  0  0999 V2000
   -4.5739   -4.6792    0.5795 O   0  0  0  0  0  0  0  0  0  0  0  0
   -4.0269   -3.6178    0.8543 C   0  0  0  0  0  0  0  0  0  0  0  0
   -2.7729   -3.2864    0.3563 N   0  0  0  0  0  0  0  0  0  0  0  0
   -2.1075   -2.0939    0.6351 C   0  0  0  0  0  0  0  0  0  0  0  0
   -0.7555   -1.9522   -0.0517 C   0  0  0  0  0  0  0  0  0  0  0  0
    0.1109   -0.8691    0.5979 C   0  0  0  0  0  0  0  0  0  0  0  0
    1.3915   -0.6264   -0.1908 C   0  0  0  0  0  0  0  0  0  0  0  0
    1.1404   -0.4362   -1.6483 N   0  0  0  0  0  0  0  0  0  0  0  0
    2.0636    0.7969   -2.3998 S   0  0  0  0  0  6  0  0  0  0  0  0
    1.8224    0.7364   -3.8255 O   0  0  0  0  0  0  0  0  0  0  0  0
    1.8389    2.0160   -1.6515 O   0  0  0  0  0  0  0  0  0  0  0  0
    3.7277    0.2489   -2.1212 C   0  0  0  0  0  0  0  0  0  0  0  0
    4.1880   -0.8879   -2.7958 C   0  0  0  0  0  0  0  0  0  0  0  0
    5.4963   -1.3266   -2.5889 C   0  0  0  0  0  0  0  0  0  0  0  0
    6.3334   -0.6264   -1.7204 C   0  0  0  0  0  0  0  0  0  0  0  0
    5.8585    0.4998   -1.0360 C   0  0  0  0  0  0  0  0  0  0  0  0
    4.5594    0.9541   -1.2482 C   0  0  0  0  0  0  0  0  0  0  0  0
    6.6187    1.2121   -0.1445 O   0  0  0  0  0  0  0  0  0  0  0  0
    7.7930    0.4878    0.2417 C   0  0  0  0  0  0  0  0  0  0  0  0
    8.4680   -0.1313   -0.9709 C   0  0  0  0  0  0  0  0  0  0  0  0
    7.6116   -1.1042   -1.5814 O   0  0  0  0  0  0  0  0  0  0  0  0
   -0.2925   -0.4084   -2.0286 C   0  0  0  0  0  0  0  0  0  0  0  0
   -0.9569   -1.6981   -1.5559 C   0  0  0  0  0  0  0  0  0  0  0  0
   -2.5951   -1.1451    1.3855 N   0  0  0  0  0  0  0  0  0  0  0  0
   -3.8198   -1.4444    1.8849 C   0  0  0  0  0  0  0  0  0  0  0  0
   -4.5644   -2.5820    1.6929 C   0  0  0  0  0  0  0  0  0  0  0  0
   -5.7389   -2.5077    2.3737 N   0  0  0  0  0  0  0  0  0  0  0  0
   -5.7583   -1.3320    3.0014 N   0  0  0  0  0  0  0  0  0  0  0  0
   -4.6122   -0.6775    2.6920 N   0  0  0  0  0  0  0  0  0  0  0  0
   -4.3276    0.6335    3.2386 C   0  0  0  0  0  0  0  0  0  0  0  0
   -4.8166    1.7264    2.3277 C   0  0  0  0  0  0  0  0  0  0  0  0
   -4.0572    2.1508    1.2259 C   0  0  0  0  0  0  0  0  0  0  0  0
   -4.5426    3.1476    0.3747 C   0  0  0  0  0  0  0  0  0  0  0  0
   -5.7891    3.7280    0.6126 C   0  0  0  0  0  0  0  0  0  0  0  0
   -6.5502    3.3143    1.7044 C   0  0  0  0  0  0  0  0  0  0  0  0
   -6.0610    2.3218    2.5490 C   0  0  0  0  0  0  0  0  0  0  0  0
   -6.8040    1.9454    3.5991 F   0  0  0  0  0  0  0  0  0  0  0  0
   -2.3578   -3.9882   -0.2389 H   0  0  0  0  0  0  0  0  0  0  0  0
   -0.2409   -2.9173    0.0619 H   0  0  0  0  0  0  0  0  0  0  0  0
   -0.4428    0.0765    0.6768 H   0  0  0  0  0  0  0  0  0  0  0  0
    0.3617   -1.1579    1.6264 H   0  0  0  0  0  0  0  0  0  0  0  0
    1.9060    0.2352    0.2463 H   0  0  0  0  0  0  0  0  0  0  0  0
    2.0570   -1.4914   -0.0841 H   0  0  0  0  0  0  0  0  0  0  0  0
    3.5365   -1.4247   -3.4824 H   0  0  0  0  0  0  0  0  0  0  0  0
    5.8685   -2.2024   -3.1136 H   0  0  0  0  0  0  0  0  0  0  0  0
    4.2058    1.8406   -0.7279 H   0  0  0  0  0  0  0  0  0  0  0  0
    8.4711    1.1928    0.7328 H   0  0  0  0  0  0  0  0  0  0  0  0
    7.5038   -0.2767    0.9737 H   0  0  0  0  0  0  0  0  0  0  0  0
    9.3889   -0.6418   -0.6716 H   0  0  0  0  0  0  0  0  0  0  0  0
    8.7258    0.6278   -1.7200 H   0  0  0  0  0  0  0  0  0  0  0  0
   -0.7880    0.4717   -1.6031 H   0  0  0  0  0  0  0  0  0  0  0  0
   -0.3933   -0.3566   -3.1180 H   0  0  0  0  0  0  0  0  0  0  0  0
   -2.0190   -1.6688   -1.8262 H   0  0  0  0  0  0  0  0  0  0  0  0
   -0.5235   -2.5419   -2.1096 H   0  0  0  0  0  0  0  0  0  0  0  0
   -3.2445    0.7140    3.3893 H   0  0  0  0  0  0  0  0  0  0  0  0
   -4.7891    0.6939    4.2311 H   0  0  0  0  0  0  0  0  0  0  0  0
   -3.0859    1.7039    1.0194 H   0  0  0  0  0  0  0  0  0  0  0  0
   -3.9496    3.4692   -0.4788 H   0  0  0  0  0  0  0  0  0  0  0  0
   -6.1673    4.4994   -0.0540 H   0  0  0  0  0  0  0  0  0  0  0  0
   -7.5226    3.7551    1.9030 H   0  0  0  0  0  0  0  0  0  0  0  0
  1  2  2  0
  2  3  1  0
  3  4  1  0
  4  5  1  0
  5  6  1  0
  6  7  1  0
  7  8  1  0
  8  9  1  0
  9 10  2  0
  9 11  2  0
  9 12  1  0
 12 13  2  0
 13 14  1  0
 14 15  2  0
 15 16  1  0
 16 17  2  0
 16 18  1  0
 18 19  1  0
 19 20  1  0
 20 21  1  0
  8 22  1  0
 22 23  1  0
  4 24  2  0
 24 25  1  0
 25 26  2  0
 26 27  1  0
 27 28  2  0
 28 29  1  0
 29 30  1  0
 30 31  1  0
 31 32  2  0
 32 33  1  0
 33 34  2  0
 34 35  1  0
 35 36  2  0
 36 37  1  0
 26  2  1  0
 36 31  1  0
 23  5  1  0
 29 25  1  0
 17 12  1  0
 21 15  1  0
  3 38  1  0
  5 39  1  0
  6 40  1  0
  6 41  1  0
  7 42  1  0
  7 43  1  0
 13 44  1  0
 14 45  1  0
 17 46  1  0
 19 47  1  0
 19 48  1  0
 20 49  1  0
 20 50  1  0
 22 51  1  0
 22 52  1  0
 23 53  1  0
 23 54  1  0
 30 55  1  0
 30 56  1  0
 32 57  1  0
 33 58  1  0
 34 59  1  0
 35 60  1  0
M  END
$$$$
