
     RDKit          3D

 34 36  0  0  0  0  0  0  0  0999 V2000
   -0.2483   -1.3049    1.9131 O   0  0  0  0  0  0  0  0  0  0  0  0
    0.2565   -0.6688    0.9977 C   0  0  0  0  0  0  0  0  0  0  0  0
    1.7279   -0.6389    0.8788 C   0  0  0  0  0  0  0  0  0  0  0  0
    2.3602   -1.1042   -0.2796 C   0  0  0  0  0  0  0  0  0  0  0  0
    3.7543   -1.0815   -0.3608 C   0  0  0  0  0  0  0  0  0  0  0  0
    4.5046   -0.6095    0.7177 C   0  0  0  0  0  0  0  0  0  0  0  0
    6.2215   -0.5810    0.6128 Cl  0  0  0  0  0  0  0  0  0  0  0  0
    3.8752   -0.1683    1.8825 C   0  0  0  0  0  0  0  0  0  0  0  0
    2.4815   -0.1898    1.9681 C   0  0  0  0  0  0  0  0  0  0  0  0
   -0.4925    0.0351    0.0907 N   0  0  0  0  0  0  0  0  0  0  0  0
   -0.0321    0.9947   -0.9234 C   0  0  0  0  0  0  0  0  0  0  0  0
   -0.3714    0.3703   -2.2541 C   0  0  0  0  0  0  0  0  0  0  0  0
   -1.7074    0.4101   -2.3976 C   0  0  0  0  0  0  0  0  0  0  0  0
   -2.2628    1.0023   -1.1116 C   0  0  0  0  0  0  0  0  0  0  0  0
   -1.1453    2.0428   -0.8952 C   0  0  0  0  0  0  0  0  0  0  0  0
   -2.0154    0.0089    0.0884 C   0  0  0  0  0  0  0  0  0  0  0  0
   -2.6639   -1.3519   -0.1630 C   0  0  0  0  0  0  0  0  0  0  0  0
   -3.9695   -1.2046   -0.5041 F   0  0  0  0  0  0  0  0  0  0  0  0
   -2.6289   -2.1886    0.8917 F   0  0  0  0  0  0  0  0  0  0  0  0
   -2.0797   -2.0173   -1.1915 F   0  0  0  0  0  0  0  0  0  0  0  0
   -2.7016    0.5306    1.3531 C   0  0  0  0  0  0  0  0  0  0  0  0
   -2.1532    1.6968    1.7775 F   0  0  0  0  0  0  0  0  0  0  0  0
   -4.0085    0.8049    1.1092 F   0  0  0  0  0  0  0  0  0  0  0  0
   -2.6704   -0.3078    2.4041 F   0  0  0  0  0  0  0  0  0  0  0  0
    1.7773   -1.5022   -1.1061 H   0  0  0  0  0  0  0  0  0  0  0  0
    4.2498   -1.4430   -1.2584 H   0  0  0  0  0  0  0  0  0  0  0  0
    4.4622    0.1834    2.7272 H   0  0  0  0  0  0  0  0  0  0  0  0
    1.9859    0.1356    2.8804 H   0  0  0  0  0  0  0  0  0  0  0  0
    0.9820    1.3761   -0.8083 H   0  0  0  0  0  0  0  0  0  0  0  0
    0.3384   -0.0378   -2.9577 H   0  0  0  0  0  0  0  0  0  0  0  0
   -2.2830    0.0204   -3.2251 H   0  0  0  0  0  0  0  0  0  0  0  0
   -3.2659    1.4215   -1.2057 H   0  0  0  0  0  0  0  0  0  0  0  0
   -1.2055    2.5824    0.0518 H   0  0  0  0  0  0  0  0  0  0  0  0
   -1.0721    2.7841   -1.7028 H   0  0  0  0  0  0  0  0  0  0  0  0
  1  2  2  0
  2  3  1  0
  3  4  2  0
  4  5  1  0
  5  6  2  0
  6  7  1  0
  6  8  1  0
  8  9  2  0
  2 10  1  0
 10 11  1  0
 11 12  1  0
 12 13  2  0
 13 14  1  0
 14 15  1  0
 14 16  1  0
 16 17  1  0
 17 18  1  0
 17 19  1  0
 17 20  1  0
 16 21  1  0
 21 22  1  0
 21 23  1  0
 21 24  1  0
  9  3  1  0
 16 10  1  0
 15 11  1  0
  4 25  1  0
  5 26  1  0
  8 27  1  0
  9 28  1  0
 11 29  1  0
 12 30  1  0
 13 31  1  0
 14 32  1  0
 15 33  1  0
 15 34  1  0
M  END
$$$$
