
     RDKit          3D

 57 59  0  0  0  0  0  0  0  0999 V2000
   -2.3729   -3.3208   -0.1156 C   0  0  0  0  0  0  0  0  0  0  0  0
   -3.6955   -2.6573   -0.4935 C   0  0  0  0  0  0  0  0  0  0  0  0
   -3.5743   -1.1943   -0.6316 N   0  0  0  0  0  0  0  0  0  0  0  0
   -4.6361   -0.6434   -1.4926 C   0  0  0  0  0  0  0  0  0  0  0  0
   -6.0568   -0.6995   -0.9362 C   0  0  0  0  0  0  0  0  0  0  0  0
   -3.4544   -0.5228    0.6848 C   0  0  0  0  0  0  0  0  0  0  0  0
   -3.1321    0.9846    0.6345 C   0  0  0  0  0  0  0  0  0  0  0  0
   -1.8056    1.1560    0.1135 O   0  0  0  0  0  0  0  0  0  0  0  0
   -1.2626    2.4051    0.2651 C   0  0  0  0  0  0  0  0  0  0  0  0
   -1.9139    3.5752    0.0807 C   0  0  0  0  0  0  0  0  0  0  0  0
   -1.1369    4.8460    0.2770 C   0  0  2  0  0  0  0  0  0  0  0  0
   -1.6681    5.9790   -0.3930 O   0  0  0  0  0  0  0  0  0  0  0  0
   -0.6628    6.9212   -0.3931 C   0  0  0  0  0  0  0  0  0  0  0  0
   -0.8366    8.0900   -0.6965 O   0  0  0  0  0  0  0  0  0  0  0  0
    0.9412    6.2820    0.0375 S   0  0  0  0  0  0  0  0  0  0  0  0
    0.2882    4.6488   -0.2565 C   0  0  1  0  0  0  0  0  0  0  0  0
    0.9407    3.4800    0.4011 C   0  0  0  0  0  0  0  0  0  0  0  0
    0.1631    2.3965    0.6321 C   0  0  0  0  0  0  0  0  0  0  0  0
    0.7355    1.2147    1.3429 C   0  0  0  0  0  0  0  0  0  0  0  0
    0.2635    0.8223    2.4060 O   0  0  0  0  0  0  0  0  0  0  0  0
    1.9029    0.5672    0.6860 C   0  0  0  0  0  0  0  0  0  0  0  0
    2.5135   -0.4598    1.2952 C   0  0  0  0  0  0  0  0  0  0  0  0
    3.6542   -1.1930    0.7318 C   0  0  0  0  0  0  0  0  0  0  0  0
    3.7463   -2.5715    0.9606 C   0  0  0  0  0  0  0  0  0  0  0  0
    4.8265   -3.3124    0.4650 C   0  0  0  0  0  0  0  0  0  0  0  0
    5.8353   -2.6804   -0.2600 C   0  0  0  0  0  0  0  0  0  0  0  0
    6.9375   -3.2828   -0.7990 O   0  0  0  0  0  0  0  0  0  0  0  0
    7.0611   -4.6855   -0.6049 C   0  0  0  0  0  0  0  0  0  0  0  0
    5.7558   -1.3032   -0.4763 C   0  0  0  0  0  0  0  0  0  0  0  0
    4.6786   -0.5611    0.0194 C   0  0  0  0  0  0  0  0  0  0  0  0
   -1.5745   -3.0258   -0.8045 H   0  0  0  0  0  0  0  0  0  0  0  0
   -2.4752   -4.4116   -0.1687 H   0  0  0  0  0  0  0  0  0  0  0  0
   -2.0601   -3.0713    0.9046 H   0  0  0  0  0  0  0  0  0  0  0  0
   -3.9985   -3.0953   -1.4550 H   0  0  0  0  0  0  0  0  0  0  0  0
   -4.4704   -2.9287    0.2339 H   0  0  0  0  0  0  0  0  0  0  0  0
   -4.6198   -1.1700   -2.4577 H   0  0  0  0  0  0  0  0  0  0  0  0
   -4.3977    0.3955   -1.7503 H   0  0  0  0  0  0  0  0  0  0  0  0
   -6.1634   -0.0852   -0.0354 H   0  0  0  0  0  0  0  0  0  0  0  0
   -6.3601   -1.7247   -0.6980 H   0  0  0  0  0  0  0  0  0  0  0  0
   -6.7624   -0.3124   -1.6817 H   0  0  0  0  0  0  0  0  0  0  0  0
   -2.6353   -0.9906    1.2466 H   0  0  0  0  0  0  0  0  0  0  0  0
   -4.3683   -0.6715    1.2738 H   0  0  0  0  0  0  0  0  0  0  0  0
   -3.1710    1.3749    1.6662 H   0  0  0  0  0  0  0  0  0  0  0  0
   -3.8687    1.5344    0.0303 H   0  0  0  0  0  0  0  0  0  0  0  0
   -2.9605    3.6335   -0.1901 H   0  0  0  0  0  0  0  0  0  0  0  0
   -1.1693    5.0595    1.3585 H   0  0  0  0  0  0  0  0  0  0  0  0
    0.2972    4.4991   -1.3451 H   0  0  0  0  0  0  0  0  0  0  0  0
    1.9894    3.5156    0.6762 H   0  0  0  0  0  0  0  0  0  0  0  0
    2.2075    0.9342   -0.2860 H   0  0  0  0  0  0  0  0  0  0  0  0
    2.1480   -0.8194    2.2567 H   0  0  0  0  0  0  0  0  0  0  0  0
    2.9701   -3.0879    1.5221 H   0  0  0  0  0  0  0  0  0  0  0  0
    4.8450   -4.3784    0.6646 H   0  0  0  0  0  0  0  0  0  0  0  0
    6.2337   -5.2231   -1.0792 H   0  0  0  0  0  0  0  0  0  0  0  0
    7.1338   -4.9326    0.4602 H   0  0  0  0  0  0  0  0  0  0  0  0
    7.9883   -5.0089   -1.0867 H   0  0  0  0  0  0  0  0  0  0  0  0
    6.5435   -0.8019   -1.0326 H   0  0  0  0  0  0  0  0  0  0  0  0
    4.6633    0.5117   -0.1518 H   0  0  0  0  0  0  0  0  0  0  0  0
  1  2  1  0
  2  3  1  0
  3  4  1  0
  4  5  1  0
  3  6  1  0
  6  7  1  0
  7  8  1  0
  8  9  1  0
  9 10  2  0
 10 11  1  0
 11 12  1  0
 12 13  1  0
 13 14  2  0
 13 15  1  0
 15 16  1  0
 16 17  1  0
 17 18  2  0
 18 19  1  0
 19 20  2  0
 19 21  1  0
 21 22  2  0
 22 23  1  0
 23 24  2  0
 24 25  1  0
 25 26  2  0
 26 27  1  0
 27 28  1  0
 26 29  1  0
 29 30  2  0
 18  9  1  0
 30 23  1  0
 16 11  1  0
  1 31  1  0
  1 32  1  0
  1 33  1  0
  2 34  1  0
  2 35  1  0
  4 36  1  0
  4 37  1  0
  5 38  1  0
  5 39  1  0
  5 40  1  0
  6 41  1  0
  6 42  1  0
  7 43  1  0
  7 44  1  0
 10 45  1  0
 11 46  1  1
 16 47  1  6
 17 48  1  0
 21 49  1  0
 22 50  1  0
 24 51  1  0
 25 52  1  0
 28 53  1  0
 28 54  1  0
 28 55  1  0
 29 56  1  0
 30 57  1  0
M  END
$$$$
