
     RDKit          3D

 33 34  0  0  0  0  0  0  0  0999 V2000
   -2.2605   -2.4235    0.0216 N   0  0  0  0  0  0  0  0  0  0  0  0
   -2.0934   -1.3641    0.7622 C   0  0  0  0  0  0  0  0  0  0  0  0
   -0.9331   -1.2166    1.4901 N   0  0  0  0  0  0  0  0  0  0  0  0
    0.1891   -1.7610    0.8300 O   0  0  0  0  0  0  0  0  0  0  0  0
    1.0897   -0.7830    0.4701 C   0  0  0  0  0  0  0  0  0  0  0  0
    0.9506    0.3984    0.7627 O   0  0  0  0  0  0  0  0  0  0  0  0
    2.2332   -1.4151   -0.2884 C   0  0  0  0  0  0  0  0  0  0  0  0
    3.2060   -0.4201   -0.8728 C   0  0  0  0  0  0  0  0  0  0  0  0
    4.3005    0.0318   -0.1215 C   0  0  0  0  0  0  0  0  0  0  0  0
    5.1913    0.9620   -0.6601 C   0  0  0  0  0  0  0  0  0  0  0  0
    4.9946    1.4524   -1.9498 C   0  0  0  0  0  0  0  0  0  0  0  0
    3.9057    1.0155   -2.7025 C   0  0  0  0  0  0  0  0  0  0  0  0
    3.0130    0.0859   -2.1668 C   0  0  0  0  0  0  0  0  0  0  0  0
   -3.1833   -0.3253    0.7882 C   0  0  0  0  0  0  0  0  0  0  0  0
   -4.1785   -0.4259   -0.2039 C   0  0  0  0  0  0  0  0  0  0  0  0
   -5.2266    0.4946   -0.2789 C   0  0  0  0  0  0  0  0  0  0  0  0
   -5.3022    1.5332    0.6409 C   0  0  0  0  0  0  0  0  0  0  0  0
   -4.3315    1.6465    1.6354 C   0  0  0  0  0  0  0  0  0  0  0  0
   -3.2747    0.7258    1.7151 C   0  0  0  0  0  0  0  0  0  0  0  0
   -2.1563    0.9782    3.0102 Cl  0  0  0  0  0  0  0  0  0  0  0  0
   -1.4281   -3.0080    0.1613 H   0  0  0  0  0  0  0  0  0  0  0  0
   -0.7487   -0.2651    1.8297 H   0  0  0  0  0  0  0  0  0  0  0  0
    2.7659   -2.0912    0.3912 H   0  0  0  0  0  0  0  0  0  0  0  0
    1.8171   -2.0255   -1.0995 H   0  0  0  0  0  0  0  0  0  0  0  0
    4.4655   -0.3315    0.8909 H   0  0  0  0  0  0  0  0  0  0  0  0
    6.0361    1.3092   -0.0703 H   0  0  0  0  0  0  0  0  0  0  0  0
    5.6862    2.1797   -2.3666 H   0  0  0  0  0  0  0  0  0  0  0  0
    3.7493    1.4025   -3.7067 H   0  0  0  0  0  0  0  0  0  0  0  0
    2.1644   -0.2364   -2.7670 H   0  0  0  0  0  0  0  0  0  0  0  0
   -4.1391   -1.2302   -0.9377 H   0  0  0  0  0  0  0  0  0  0  0  0
   -5.9796    0.3952   -1.0571 H   0  0  0  0  0  0  0  0  0  0  0  0
   -6.1168    2.2516    0.5879 H   0  0  0  0  0  0  0  0  0  0  0  0
   -4.4056    2.4603    2.3544 H   0  0  0  0  0  0  0  0  0  0  0  0
  1  2  2  3
  2  3  1  0
  3  4  1  0
  4  5  1  0
  5  6  2  0
  5  7  1  0
  7  8  1  0
  8  9  2  0
  9 10  1  0
 10 11  2  0
 11 12  1  0
 12 13  2  0
  2 14  1  0
 14 15  2  0
 15 16  1  0
 16 17  2  0
 17 18  1  0
 18 19  2  0
 19 20  1  0
 13  8  1  0
 19 14  1  0
  1 21  1  0
  3 22  1  0
  7 23  1  0
  7 24  1  0
  9 25  1  0
 10 26  1  0
 11 27  1  0
 12 28  1  0
 13 29  1  0
 15 30  1  0
 16 31  1  0
 17 32  1  0
 18 33  1  0
M  END
$$$$
