
     RDKit          3D

 44 46  0  0  0  0  0  0  0  0999 V2000
   -2.2221   -3.4030    3.5180 C   0  0  0  0  0  0  0  0  0  0  0  0
   -2.0151   -2.7950    2.1622 C   0  0  0  0  0  0  0  0  0  0  0  0
   -0.8226   -3.0023    1.4684 C   0  0  0  0  0  0  0  0  0  0  0  0
   -0.6133   -2.4774    0.1776 C   0  0  0  0  0  0  0  0  0  0  0  0
    0.7086   -2.7976   -0.4686 C   0  0  0  0  0  0  0  0  0  0  0  0
   -1.6441   -1.7152   -0.4268 C   0  0  0  0  0  0  0  0  0  0  0  0
   -1.4324   -0.9950   -2.0733 S   0  0  0  0  0  6  0  0  0  0  0  0
   -2.6848   -1.1356   -2.7877 O   0  0  0  0  0  0  0  0  0  0  0  0
   -0.2085   -1.4680   -2.6807 O   0  0  0  0  0  0  0  0  0  0  0  0
   -1.2578    0.6569   -1.7537 N   0  0  0  0  0  0  0  0  0  0  0  0
   -0.2746    1.0935   -0.8256 C   0  0  0  0  0  0  0  0  0  0  0  0
   -0.6887    1.6281    0.3948 C   0  0  0  0  0  0  0  0  0  0  0  0
    0.2581    2.0253    1.3399 C   0  0  0  0  0  0  0  0  0  0  0  0
    1.6177    1.8882    1.0565 C   0  0  0  0  0  0  0  0  0  0  0  0
    2.5412    2.2651    1.9938 O   0  0  0  0  0  0  0  0  0  0  0  0
    2.0443    1.3626   -0.1719 C   0  0  0  0  0  0  0  0  0  0  0  0
    3.7724    1.1507   -0.5672 S   0  0  0  0  0  0  0  0  0  0  0  0
    4.2474    2.7601   -1.0517 C   0  0  0  0  0  0  0  0  0  0  0  0
    5.5617    3.1575   -1.0527 N   0  0  0  0  0  0  0  0  0  0  0  0
    5.5044    4.3853   -1.5087 C   0  0  0  0  0  0  0  0  0  0  0  0
    4.2143    4.7049   -1.7816 N   0  0  0  0  0  0  0  0  0  0  0  0
    3.3904    3.6832   -1.5095 N   0  0  0  0  0  0  0  0  0  0  0  0
    1.0837    0.9602   -1.1092 C   0  0  0  0  0  0  0  0  0  0  0  0
   -2.8728   -1.5189    0.2606 C   0  0  0  0  0  0  0  0  0  0  0  0
   -4.0591   -0.7868   -0.3112 C   0  0  0  0  0  0  0  0  0  0  0  0
   -3.0359   -2.0742    1.5441 C   0  0  0  0  0  0  0  0  0  0  0  0
   -2.6377   -4.4103    3.4170 H   0  0  0  0  0  0  0  0  0  0  0  0
   -1.2769   -3.4628    4.0677 H   0  0  0  0  0  0  0  0  0  0  0  0
   -2.9077   -2.7956    4.1182 H   0  0  0  0  0  0  0  0  0  0  0  0
   -0.0384   -3.5938    1.9413 H   0  0  0  0  0  0  0  0  0  0  0  0
    1.3560   -3.3728    0.2035 H   0  0  0  0  0  0  0  0  0  0  0  0
    1.2587   -1.8864   -0.7120 H   0  0  0  0  0  0  0  0  0  0  0  0
    0.5598   -3.4161   -1.3586 H   0  0  0  0  0  0  0  0  0  0  0  0
   -2.1386    1.1625   -1.8025 H   0  0  0  0  0  0  0  0  0  0  0  0
   -1.7449    1.7263    0.6283 H   0  0  0  0  0  0  0  0  0  0  0  0
   -0.0796    2.4296    2.2891 H   0  0  0  0  0  0  0  0  0  0  0  0
    2.0859    2.6228    2.7719 H   0  0  0  0  0  0  0  0  0  0  0  0
    6.3336    5.0612   -1.6598 H   0  0  0  0  0  0  0  0  0  0  0  0
    3.8315    5.5682   -2.1496 H   0  0  0  0  0  0  0  0  0  0  0  0
    1.3989    0.5506   -2.0665 H   0  0  0  0  0  0  0  0  0  0  0  0
   -4.8091   -0.5806    0.4613 H   0  0  0  0  0  0  0  0  0  0  0  0
   -4.5470   -1.3937   -1.0794 H   0  0  0  0  0  0  0  0  0  0  0  0
   -3.7753    0.1861   -0.7171 H   0  0  0  0  0  0  0  0  0  0  0  0
   -3.9814   -1.9476    2.0710 H   0  0  0  0  0  0  0  0  0  0  0  0
  1  2  1  0
  2  3  2  0
  3  4  1  0
  4  5  1  0
  4  6  2  0
  6  7  1  0
  7  8  2  0
  7  9  2  0
  7 10  1  0
 10 11  1  0
 11 12  2  0
 12 13  1  0
 13 14  2  0
 14 15  1  0
 14 16  1  0
 16 17  1  0
 17 18  1  0
 18 19  1  0
 19 20  2  0
 20 21  1  0
 21 22  1  0
 16 23  2  0
  6 24  1  0
 24 25  1  0
 24 26  2  0
 26  2  1  0
 23 11  1  0
 22 18  2  0
  1 27  1  0
  1 28  1  0
  1 29  1  0
  3 30  1  0
  5 31  1  0
  5 32  1  0
  5 33  1  0
 10 34  1  0
 12 35  1  0
 13 36  1  0
 15 37  1  0
 20 38  1  0
 21 39  1  0
 23 40  1  0
 25 41  1  0
 25 42  1  0
 25 43  1  0
 26 44  1  0
M  END
$$$$
