
     RDKit          3D

 69 74  0  0  0  0  0  0  0  0999 V2000
    5.2619   -4.1717   -1.6362 C   0  0  0  0  0  0  0  0  0  0  0  0
    5.1539   -3.5621   -0.3577 O   0  0  0  0  0  0  0  0  0  0  0  0
    4.3525   -2.4528   -0.2477 C   0  0  0  0  0  0  0  0  0  0  0  0
    3.5761   -1.9309   -1.2875 C   0  0  0  0  0  0  0  0  0  0  0  0
    2.7809   -0.7898   -1.0919 C   0  0  0  0  0  0  0  0  0  0  0  0
    2.7431   -0.1730    0.1665 C   0  0  0  0  0  0  0  0  0  0  0  0
    3.5300   -0.6961    1.2084 C   0  0  0  0  0  0  0  0  0  0  0  0
    4.3244   -1.8321    1.0145 C   0  0  0  0  0  0  0  0  0  0  0  0
    5.1160   -2.3979    1.9838 O   0  0  0  0  0  0  0  0  0  0  0  0
    4.9663   -1.9244    3.3142 C   0  0  0  0  0  0  0  0  0  0  0  0
    1.9281    1.0792    0.4210 C   0  0  0  0  0  0  0  0  0  0  0  0
    0.9180    1.3587   -0.6073 N   0  0  0  0  0  0  0  0  0  0  0  0
   -0.3431    0.8387   -0.2918 C   0  0  0  0  0  0  0  0  0  0  0  0
   -0.7828   -0.2754   -0.9198 N   0  0  0  0  0  0  0  0  0  0  0  0
   -1.9741   -0.8165   -0.6001 C   0  0  0  0  0  0  0  0  0  0  0  0
   -2.3934   -2.0766   -1.3495 C   0  0  0  0  0  0  0  0  0  0  0  0
   -2.9467   -1.8509   -2.7078 N   0  0  0  0  0  0  0  0  0  0  0  0
   -4.2081   -1.0760   -2.6886 C   0  0  0  0  0  0  0  0  0  0  0  0
   -5.4210   -1.8648   -2.1675 C   0  0  0  0  0  0  0  0  0  0  0  0
   -5.6138   -3.0722   -2.9167 O   0  0  0  0  0  0  0  0  0  0  0  0
   -4.4400   -3.8917   -2.8751 C   0  0  0  0  0  0  0  0  0  0  0  0
   -3.2042   -3.1349   -3.3948 C   0  0  0  0  0  0  0  0  0  0  0  0
   -2.8305   -0.3426    0.3146 N   0  0  0  0  0  0  0  0  0  0  0  0
   -2.4004    0.7885    0.8929 C   0  0  0  0  0  0  0  0  0  0  0  0
   -3.3693    1.5577    2.0647 S   0  0  0  0  0  0  0  0  0  0  0  0
   -2.2494    2.8218    2.2444 C   0  0  0  0  0  0  0  0  0  0  0  0
   -1.1405    2.6713    1.4301 C   0  0  0  0  0  0  0  0  0  0  0  0
   -1.2051    1.4501    0.6515 C   0  0  0  0  0  0  0  0  0  0  0  0
   -0.0424    3.6958    1.4100 C   0  0  0  0  0  0  0  0  0  0  0  0
   -0.4785    5.0214    2.0556 C   0  0  0  0  0  0  0  0  0  0  0  0
   -1.2465    4.8283    3.3806 C   0  0  0  0  0  0  0  0  0  0  0  0
   -0.3541    4.2302    4.4733 C   0  0  0  0  0  0  0  0  0  0  0  0
   -2.5168    3.9783    3.1606 C   0  0  0  0  0  0  0  0  0  0  0  0
    1.3764    1.1272   -1.9833 C   0  0  0  0  0  0  0  0  0  0  0  0
    1.9239   -0.2825   -2.2240 C   0  0  0  0  0  0  0  0  0  0  0  0
    5.6654   -3.4723   -2.3762 H   0  0  0  0  0  0  0  0  0  0  0  0
    4.2995   -4.5809   -1.9606 H   0  0  0  0  0  0  0  0  0  0  0  0
    5.9647   -5.0061   -1.5510 H   0  0  0  0  0  0  0  0  0  0  0  0
    3.5623   -2.3994   -2.2664 H   0  0  0  0  0  0  0  0  0  0  0  0
    3.5080   -0.1919    2.1694 H   0  0  0  0  0  0  0  0  0  0  0  0
    3.9299   -2.0139    3.6561 H   0  0  0  0  0  0  0  0  0  0  0  0
    5.5850   -2.5502    3.9642 H   0  0  0  0  0  0  0  0  0  0  0  0
    5.3258   -0.8945    3.4060 H   0  0  0  0  0  0  0  0  0  0  0  0
    1.4801    1.0190    1.4210 H   0  0  0  0  0  0  0  0  0  0  0  0
    2.6266    1.9253    0.4390 H   0  0  0  0  0  0  0  0  0  0  0  0
   -3.0885   -2.6393   -0.7155 H   0  0  0  0  0  0  0  0  0  0  0  0
   -1.4904   -2.6950   -1.4378 H   0  0  0  0  0  0  0  0  0  0  0  0
   -4.4151   -0.7781   -3.7252 H   0  0  0  0  0  0  0  0  0  0  0  0
   -4.0965   -0.1392   -2.1327 H   0  0  0  0  0  0  0  0  0  0  0  0
   -5.3227   -2.1105   -1.1042 H   0  0  0  0  0  0  0  0  0  0  0  0
   -6.3275   -1.2616   -2.2818 H   0  0  0  0  0  0  0  0  0  0  0  0
   -4.6273   -4.7650   -3.5084 H   0  0  0  0  0  0  0  0  0  0  0  0
   -4.2925   -4.2563   -1.8524 H   0  0  0  0  0  0  0  0  0  0  0  0
   -3.3615   -2.9091   -4.4576 H   0  0  0  0  0  0  0  0  0  0  0  0
   -2.3195   -3.7809   -3.3506 H   0  0  0  0  0  0  0  0  0  0  0  0
    0.8237    3.3006    1.9526 H   0  0  0  0  0  0  0  0  0  0  0  0
    0.2759    3.8937    0.3803 H   0  0  0  0  0  0  0  0  0  0  0  0
   -1.1287    5.5611    1.3536 H   0  0  0  0  0  0  0  0  0  0  0  0
    0.4022    5.6555    2.2142 H   0  0  0  0  0  0  0  0  0  0  0  0
   -1.5636    5.8175    3.7368 H   0  0  0  0  0  0  0  0  0  0  0  0
   -0.0351    3.2099    4.2390 H   0  0  0  0  0  0  0  0  0  0  0  0
    0.5432    4.8415    4.6165 H   0  0  0  0  0  0  0  0  0  0  0  0
   -0.8893    4.1980    5.4281 H   0  0  0  0  0  0  0  0  0  0  0  0
   -2.9177    3.6349    4.1216 H   0  0  0  0  0  0  0  0  0  0  0  0
   -3.2858    4.6098    2.6964 H   0  0  0  0  0  0  0  0  0  0  0  0
    0.5853    1.3588   -2.7083 H   0  0  0  0  0  0  0  0  0  0  0  0
    2.1784    1.8505   -2.1838 H   0  0  0  0  0  0  0  0  0  0  0  0
    1.1052   -0.9937   -2.3793 H   0  0  0  0  0  0  0  0  0  0  0  0
    2.5098   -0.2702   -3.1515 H   0  0  0  0  0  0  0  0  0  0  0  0
  1  2  1  0
  2  3  1  0
  3  4  2  0
  4  5  1  0
  5  6  2  0
  6  7  1  0
  7  8  2  0
  8  9  1  0
  9 10  1  0
  6 11  1  0
 11 12  1  0
 12 13  1  0
 13 14  2  0
 14 15  1  0
 15 16  1  0
 16 17  1  0
 17 18  1  0
 18 19  1  0
 19 20  1  0
 20 21  1  0
 21 22  1  0
 15 23  2  0
 23 24  1  0
 24 25  1  0
 25 26  1  0
 26 27  2  0
 27 28  1  0
 27 29  1  0
 29 30  1  0
 30 31  1  0
 31 32  1  0
 31 33  1  0
 12 34  1  0
 34 35  1  0
  8  3  1  0
 28 13  1  0
 35  5  1  0
 22 17  1  0
 28 24  2  0
 33 26  1  0
  1 36  1  0
  1 37  1  0
  1 38  1  0
  4 39  1  0
  7 40  1  0
 10 41  1  0
 10 42  1  0
 10 43  1  0
 11 44  1  0
 11 45  1  0
 16 46  1  0
 16 47  1  0
 18 48  1  0
 18 49  1  0
 19 50  1  0
 19 51  1  0
 21 52  1  0
 21 53  1  0
 22 54  1  0
 22 55  1  0
 29 56  1  0
 29 57  1  0
 30 58  1  0
 30 59  1  0
 31 60  1  0
 32 61  1  0
 32 62  1  0
 32 63  1  0
 33 64  1  0
 33 65  1  0
 34 66  1  0
 34 67  1  0
 35 68  1  0
 35 69  1  0
M  END
$$$$
