
     RDKit          3D

 51 54  0  0  0  0  0  0  0  0999 V2000
    6.1085    0.3137   -2.2352 C   0  0  0  0  0  0  0  0  0  0  0  0
    4.8515   -0.0289   -3.0170 C   0  0  0  0  0  0  0  0  0  0  0  0
    3.5976    0.3563   -2.2761 C   0  0  0  0  0  0  0  0  0  0  0  0
    3.1572    1.6797   -2.2602 C   0  0  0  0  0  0  0  0  0  0  0  0
    1.9873    2.0306   -1.5743 C   0  0  0  0  0  0  0  0  0  0  0  0
    1.2205    1.0741   -0.8874 C   0  0  0  0  0  0  0  0  0  0  0  0
   -0.0070    1.4349   -0.1994 N   0  0  0  0  0  0  0  0  0  0  0  0
   -0.8244    2.4254   -0.7644 C   0  0  0  0  0  0  0  0  0  0  0  0
   -0.5914    3.0604   -1.7969 O   0  0  0  0  0  0  0  0  0  0  0  0
   -2.1128    2.7028   -0.1027 C   0  0  0  0  0  0  0  0  0  0  0  0
   -2.9971    3.6381   -0.6759 C   0  0  0  0  0  0  0  0  0  0  0  0
   -4.2398    3.8834   -0.0966 C   0  0  0  0  0  0  0  0  0  0  0  0
   -4.6044    3.1874    1.0491 C   0  0  0  0  0  0  0  0  0  0  0  0
   -3.7205    2.2647    1.6205 C   0  0  0  0  0  0  0  0  0  0  0  0
   -2.4539    2.0201    1.0584 C   0  0  0  0  0  0  0  0  0  0  0  0
   -1.5214    1.1181    1.6246 N   0  0  0  0  0  0  0  0  0  0  0  0
   -1.7932    0.4506    2.8996 C   0  0  0  0  0  0  0  0  0  0  0  0
   -2.4615   -0.9030    2.6539 C   0  0  0  0  0  0  0  0  0  0  0  0
   -3.5717   -1.0089    2.1145 O   0  0  0  0  0  0  0  0  0  0  0  0
   -1.7070   -1.9804    3.0762 N   0  0  0  0  0  0  0  0  0  0  0  0
   -2.0925   -3.3346    2.7417 C   0  0  0  0  0  0  0  0  0  0  0  0
   -1.2675   -3.7788    1.5869 C   0  0  0  0  0  0  0  0  0  0  0  0
   -1.4743   -3.8210    0.2209 C   0  0  0  0  0  0  0  0  0  0  0  0
   -0.2763   -4.3405   -0.3420 C   0  0  0  0  0  0  0  0  0  0  0  0
    0.5834   -4.5762    0.7125 C   0  0  0  0  0  0  0  0  0  0  0  0
   -0.0102   -4.2404    1.8888 O   0  0  0  0  0  0  0  0  0  0  0  0
   -0.3130    0.7877    1.0067 C   0  0  0  0  0  0  0  0  0  0  0  0
    0.4387   -0.0174    1.5699 O   0  0  0  0  0  0  0  0  0  0  0  0
    1.6829   -0.2511   -0.9057 C   0  0  0  0  0  0  0  0  0  0  0  0
    2.8531   -0.6062   -1.5883 C   0  0  0  0  0  0  0  0  0  0  0  0
    6.9956   -0.0074   -2.7909 H   0  0  0  0  0  0  0  0  0  0  0  0
    6.1871    1.3965   -2.0566 H   0  0  0  0  0  0  0  0  0  0  0  0
    6.1203   -0.1835   -1.2635 H   0  0  0  0  0  0  0  0  0  0  0  0
    4.8599    0.4698   -4.0026 H   0  0  0  0  0  0  0  0  0  0  0  0
    4.8379   -1.1008   -3.2374 H   0  0  0  0  0  0  0  0  0  0  0  0
    3.7203    2.4514   -2.7770 H   0  0  0  0  0  0  0  0  0  0  0  0
    1.7140    3.0821   -1.5582 H   0  0  0  0  0  0  0  0  0  0  0  0
   -2.7225    4.1667   -1.5873 H   0  0  0  0  0  0  0  0  0  0  0  0
   -4.9263    4.5978   -0.5475 H   0  0  0  0  0  0  0  0  0  0  0  0
   -5.5833    3.3516    1.4974 H   0  0  0  0  0  0  0  0  0  0  0  0
   -4.0789    1.7272    2.4933 H   0  0  0  0  0  0  0  0  0  0  0  0
   -2.4190    1.0565    3.5607 H   0  0  0  0  0  0  0  0  0  0  0  0
   -0.8589    0.3115    3.4543 H   0  0  0  0  0  0  0  0  0  0  0  0
   -0.7001   -1.8345    3.1747 H   0  0  0  0  0  0  0  0  0  0  0  0
   -1.8786   -3.9645    3.6212 H   0  0  0  0  0  0  0  0  0  0  0  0
   -3.1687   -3.3961    2.5200 H   0  0  0  0  0  0  0  0  0  0  0  0
   -2.3748   -3.4999   -0.3006 H   0  0  0  0  0  0  0  0  0  0  0  0
   -0.0601   -4.5167   -1.3859 H   0  0  0  0  0  0  0  0  0  0  0  0
    1.5995   -4.9574    0.7927 H   0  0  0  0  0  0  0  0  0  0  0  0
    1.1289   -1.0470   -0.4164 H   0  0  0  0  0  0  0  0  0  0  0  0
    3.1669   -1.6435   -1.5902 H   0  0  0  0  0  0  0  0  0  0  0  0
  1  2  1  0
  2  3  1  0
  3  4  2  0
  4  5  1  0
  5  6  2  0
  6  7  1  0
  7  8  1  0
  8  9  2  0
  8 10  1  0
 10 11  2  0
 11 12  1  0
 12 13  2  0
 13 14  1  0
 14 15  2  0
 15 16  1  0
 16 17  1  0
 17 18  1  0
 18 19  2  0
 18 20  1  0
 20 21  1  0
 21 22  1  0
 22 23  2  0
 23 24  1  0
 24 25  2  0
 25 26  1  0
 16 27  1  0
 27 28  2  0
  6 29  1  0
 29 30  2  0
 30  3  1  0
 27  7  1  0
 15 10  1  0
 26 22  1  0
  1 31  1  0
  1 32  1  0
  1 33  1  0
  2 34  1  0
  2 35  1  0
  4 36  1  0
  5 37  1  0
 11 38  1  0
 12 39  1  0
 13 40  1  0
 14 41  1  0
 17 42  1  0
 17 43  1  0
 20 44  1  0
 21 45  1  0
 21 46  1  0
 23 47  1  0
 24 48  1  0
 25 49  1  0
 29 50  1  0
 30 51  1  0
M  END
$$$$
