
     RDKit          3D

 92 94  0  0  0  0  0  0  0  0999 V2000
   -2.9900   -2.4213    3.8500 C   0  0  0  0  0  0  0  0  0  0  0  0
   -2.0480   -1.6262    3.0029 C   0  0  0  0  0  0  0  0  0  0  0  0
   -0.9640   -1.2069    3.3850 O   0  0  0  0  0  0  0  0  0  0  0  0
   -2.5823   -1.4384    1.7694 O   0  0  0  0  0  0  0  0  0  0  0  0
   -1.7892   -0.7245    0.7697 C   0  0  1  0  0  0  0  0  0  0  0  0
   -1.1254   -1.7745   -0.1673 C   0  0  2  0  0  0  0  0  0  0  0  0
   -0.1468   -2.5344    0.5837 O   0  0  0  0  0  0  0  0  0  0  0  0
   -0.5558   -3.7080    1.1281 C   0  0  0  0  0  0  0  0  0  0  0  0
    0.5251   -4.2898    1.9851 C   0  0  0  0  0  0  0  0  0  0  0  0
   -1.6508   -4.2334    0.9634 O   0  0  0  0  0  0  0  0  0  0  0  0
   -0.3756   -1.2742   -1.4000 C   0  0  0  0  0  0  0  0  0  0  0  0
   -0.7792   -2.0092   -2.6627 C   0  0  0  0  0  0  0  0  0  0  0  0
    0.5922   -0.3322   -1.4922 C   0  0  0  0  0  0  0  0  0  0  0  0
    1.2722    0.5376   -0.4273 C   0  0  1  0  0  0  0  0  0  0  0  0
    2.8201    0.3451   -0.4071 C   0  0  1  0  0  0  0  0  0  0  0  0
    3.2172   -0.9241   -0.9407 O   0  0  0  0  0  0  0  0  0  0  0  0
    3.1921   -1.9754   -0.0885 C   0  0  0  0  0  0  0  0  0  0  0  0
    3.0395   -1.9215    1.1189 O   0  0  0  0  0  0  0  0  0  0  0  0
    3.3945   -3.2341   -0.8550 C   0  0  0  0  0  0  0  0  0  0  0  0
    3.7925   -4.3849   -0.1623 C   0  0  0  0  0  0  0  0  0  0  0  0
    3.9528   -5.5943   -0.8433 C   0  0  0  0  0  0  0  0  0  0  0  0
    3.7158   -5.6590   -2.2183 C   0  0  0  0  0  0  0  0  0  0  0  0
    3.3206   -4.5164   -2.9145 C   0  0  0  0  0  0  0  0  0  0  0  0
    3.1556   -3.3061   -2.2362 C   0  0  0  0  0  0  0  0  0  0  0  0
    3.4266    1.5077   -1.2297 C   0  0  1  0  0  0  0  0  0  0  0  0
    4.3797    1.1116   -2.3499 C   0  0  0  0  0  0  0  0  0  0  0  0
    2.2353    2.3126   -1.7493 C   0  0  0  0  0  0  0  0  0  0  0  0
    1.1113    2.0631   -0.7208 C   0  0  1  0  0  0  0  0  0  0  0  0
   -0.1166    2.3337   -1.4090 O   0  0  0  0  0  0  0  0  0  0  0  0
    1.2632    3.0468    0.4978 C   0  0  1  0  0  0  0  0  0  0  0  0
    0.7843    4.3511    0.0536 O   0  0  0  0  0  0  0  0  0  0  0  0
    1.6740    5.3829    0.0507 C   0  0  0  0  0  0  0  0  0  0  0  0
    0.9949    6.6350   -0.4166 C   0  0  0  0  0  0  0  0  0  0  0  0
    2.8551    5.3047    0.3449 O   0  0  0  0  0  0  0  0  0  0  0  0
    0.5887    2.6873    1.8626 C   0  0  1  0  0  0  0  0  0  0  0  0
    0.7518    3.8166    2.8873 C   0  0  0  0  0  0  0  0  0  0  0  0
   -0.8435    2.1999    1.9053 C   0  0  0  0  0  0  0  0  0  0  0  0
   -1.8039    2.4042    0.9910 C   0  0  0  0  0  0  0  0  0  0  0  0
   -3.0903    1.5889    0.8299 C   0  0  0  0  0  0  0  0  0  0  0  0
   -3.7993    1.3242    2.1715 C   0  0  0  0  0  0  0  0  0  0  0  0
   -4.0670    2.4428   -0.0207 C   0  0  0  0  0  0  0  0  0  0  0  0
   -2.7433    0.2643    0.0333 C   0  0  2  0  0  0  0  0  0  0  0  0
   -3.9692   -0.4598   -0.2614 O   0  0  0  0  0  0  0  0  0  0  0  0
   -4.3786   -0.5329   -1.5556 C   0  0  0  0  0  0  0  0  0  0  0  0
   -5.5982   -1.3968   -1.6442 C   0  0  0  0  0  0  0  0  0  0  0  0
   -3.8449    0.0085   -2.5108 O   0  0  0  0  0  0  0  0  0  0  0  0
   -2.5667   -2.5398    4.8489 H   0  0  0  0  0  0  0  0  0  0  0  0
   -3.1360   -3.4140    3.4168 H   0  0  0  0  0  0  0  0  0  0  0  0
   -3.9464   -1.8992    3.9380 H   0  0  0  0  0  0  0  0  0  0  0  0
   -0.9890   -0.1905    1.2698 H   0  0  0  0  0  0  0  0  0  0  0  0
   -1.9244   -2.4501   -0.5067 H   0  0  0  0  0  0  0  0  0  0  0  0
    0.8960   -3.5422    2.6868 H   0  0  0  0  0  0  0  0  0  0  0  0
    1.3295   -4.6692    1.3522 H   0  0  0  0  0  0  0  0  0  0  0  0
    0.1120   -5.1178    2.5640 H   0  0  0  0  0  0  0  0  0  0  0  0
   -0.5958   -3.0828   -2.5455 H   0  0  0  0  0  0  0  0  0  0  0  0
   -1.8425   -1.8536   -2.8708 H   0  0  0  0  0  0  0  0  0  0  0  0
   -0.2191   -1.6770   -3.5441 H   0  0  0  0  0  0  0  0  0  0  0  0
    0.9926   -0.1455   -2.4914 H   0  0  0  0  0  0  0  0  0  0  0  0
    0.8848    0.2667    0.5532 H   0  0  0  0  0  0  0  0  0  0  0  0
    3.1857    0.4508    0.6231 H   0  0  0  0  0  0  0  0  0  0  0  0
    3.9704   -4.3418    0.9125 H   0  0  0  0  0  0  0  0  0  0  0  0
    4.2611   -6.4852   -0.3009 H   0  0  0  0  0  0  0  0  0  0  0  0
    3.8377   -6.6016   -2.7467 H   0  0  0  0  0  0  0  0  0  0  0  0
    3.1323   -4.5681   -3.9858 H   0  0  0  0  0  0  0  0  0  0  0  0
    2.8310   -2.4282   -2.7920 H   0  0  0  0  0  0  0  0  0  0  0  0
    3.9852    2.1509   -0.5348 H   0  0  0  0  0  0  0  0  0  0  0  0
    4.7500    2.0012   -2.8702 H   0  0  0  0  0  0  0  0  0  0  0  0
    3.8899    0.4779   -3.0948 H   0  0  0  0  0  0  0  0  0  0  0  0
    5.2466    0.5700   -1.9581 H   0  0  0  0  0  0  0  0  0  0  0  0
    1.9314    1.9685   -2.7479 H   0  0  0  0  0  0  0  0  0  0  0  0
    2.4823    3.3745   -1.8617 H   0  0  0  0  0  0  0  0  0  0  0  0
   -0.1605    3.3005   -1.5301 H   0  0  0  0  0  0  0  0  0  0  0  0
    2.3342    3.1105    0.7342 H   0  0  0  0  0  0  0  0  0  0  0  0
    0.8710    6.5996   -1.5003 H   0  0  0  0  0  0  0  0  0  0  0  0
    0.0206    6.7373    0.0664 H   0  0  0  0  0  0  0  0  0  0  0  0
    1.6016    7.5047   -0.1413 H   0  0  0  0  0  0  0  0  0  0  0  0
    1.1780    1.8392    2.2484 H   0  0  0  0  0  0  0  0  0  0  0  0
    1.8014    4.1243    2.9654 H   0  0  0  0  0  0  0  0  0  0  0  0
    0.1547    4.6958    2.6220 H   0  0  0  0  0  0  0  0  0  0  0  0
    0.4291    3.4907    3.8833 H   0  0  0  0  0  0  0  0  0  0  0  0
   -1.0277    1.5042    2.7256 H   0  0  0  0  0  0  0  0  0  0  0  0
   -1.6130    3.1134    0.1889 H   0  0  0  0  0  0  0  0  0  0  0  0
   -3.1568    0.8327    2.9052 H   0  0  0  0  0  0  0  0  0  0  0  0
   -4.6842    0.6954    2.0338 H   0  0  0  0  0  0  0  0  0  0  0  0
   -4.1342    2.2622    2.6306 H   0  0  0  0  0  0  0  0  0  0  0  0
   -5.0380    1.9462   -0.1358 H   0  0  0  0  0  0  0  0  0  0  0  0
   -3.6679    2.6242   -1.0274 H   0  0  0  0  0  0  0  0  0  0  0  0
   -4.2519    3.4223    0.4436 H   0  0  0  0  0  0  0  0  0  0  0  0
   -2.2572    0.5796   -0.8997 H   0  0  0  0  0  0  0  0  0  0  0  0
   -5.9282   -1.4550   -2.6847 H   0  0  0  0  0  0  0  0  0  0  0  0
   -6.4034   -0.9658   -1.0433 H   0  0  0  0  0  0  0  0  0  0  0  0
   -5.3594   -2.4065   -1.2992 H   0  0  0  0  0  0  0  0  0  0  0  0
  1  2  1  0
  2  3  2  0
  2  4  1  0
  4  5  1  0
  5  6  1  0
  6  7  1  0
  7  8  1  0
  8  9  1  0
  8 10  2  0
  6 11  1  0
 11 12  1  0
 11 13  2  0
 13 14  1  0
 14 15  1  0
 15 16  1  0
 16 17  1  0
 17 18  2  0
 17 19  1  0
 19 20  2  0
 20 21  1  0
 21 22  2  0
 22 23  1  0
 23 24  2  0
 15 25  1  0
 25 26  1  0
 25 27  1  0
 27 28  1  0
 28 29  1  6
 28 30  1  0
 30 31  1  0
 31 32  1  0
 32 33  1  0
 32 34  2  0
 30 35  1  0
 35 36  1  0
 35 37  1  0
 37 38  2  0
 38 39  1  0
 39 40  1  0
 39 41  1  0
 39 42  1  0
 42 43  1  0
 43 44  1  0
 44 45  1  0
 44 46  2  0
 42  5  1  0
 28 14  1  0
 24 19  1  0
  1 47  1  0
  1 48  1  0
  1 49  1  0
  5 50  1  1
  6 51  1  6
  9 52  1  0
  9 53  1  0
  9 54  1  0
 12 55  1  0
 12 56  1  0
 12 57  1  0
 13 58  1  0
 14 59  1  1
 15 60  1  1
 20 61  1  0
 21 62  1  0
 22 63  1  0
 23 64  1  0
 24 65  1  0
 25 66  1  1
 26 67  1  0
 26 68  1  0
 26 69  1  0
 27 70  1  0
 27 71  1  0
 29 72  1  0
 30 73  1  1
 33 74  1  0
 33 75  1  0
 33 76  1  0
 35 77  1  1
 36 78  1  0
 36 79  1  0
 36 80  1  0
 37 81  1  0
 38 82  1  0
 40 83  1  0
 40 84  1  0
 40 85  1  0
 41 86  1  0
 41 87  1  0
 41 88  1  0
 42 89  1  6
 45 90  1  0
 45 91  1  0
 45 92  1  0
M  END
$$$$
