
     RDKit          3D

 42 41  0  0  0  0  0  0  0  0999 V2000
   -3.3606   -1.5756    2.9596 C   0  0  0  0  0  0  0  0  0  0  0  0
   -4.4455   -1.0494    2.0607 C   0  0  0  0  0  0  0  0  0  0  0  0
   -5.8202   -1.0618    2.6769 C   0  0  0  0  0  0  0  0  0  0  0  0
   -4.2573   -0.5839    0.8103 C   0  0  0  0  0  0  0  0  0  0  0  0
   -2.9685   -0.5291    0.0337 C   0  0  0  0  0  0  0  0  0  0  0  0
   -2.4042    0.8955   -0.0122 C   0  0  0  0  0  0  0  0  0  0  0  0
   -1.0870    0.9803   -0.7641 C   0  0  0  0  0  0  0  0  0  0  0  0
   -1.2027    0.9391   -2.2643 C   0  0  0  0  0  0  0  0  0  0  0  0
    0.0715    1.0995   -0.0846 C   0  0  0  0  0  0  0  0  0  0  0  0
    1.4619    1.2398   -0.6445 C   0  0  0  0  0  0  0  0  0  0  0  0
    2.2367   -0.0798   -0.5531 C   0  0  0  0  0  0  0  0  0  0  0  0
    3.6674    0.0444   -1.0495 C   0  0  0  0  0  0  0  0  0  0  0  0
    3.8205    0.0888   -2.5460 C   0  0  0  0  0  0  0  0  0  0  0  0
    4.6868    0.0764   -0.1663 C   0  0  0  0  0  0  0  0  0  0  0  0
    6.1527    0.1602   -0.4354 C   0  0  0  0  0  0  0  0  0  0  0  0
    6.7859   -0.8463    0.3413 O   0  0  0  0  0  0  0  0  0  0  0  0
   -2.3560   -1.4424    2.5520 H   0  0  0  0  0  0  0  0  0  0  0  0
   -3.5108   -2.6441    3.1453 H   0  0  0  0  0  0  0  0  0  0  0  0
   -3.3835   -1.0525    3.9217 H   0  0  0  0  0  0  0  0  0  0  0  0
   -5.8378   -0.4407    3.5785 H   0  0  0  0  0  0  0  0  0  0  0  0
   -6.5857   -0.6783    1.9941 H   0  0  0  0  0  0  0  0  0  0  0  0
   -6.1021   -2.0834    2.9519 H   0  0  0  0  0  0  0  0  0  0  0  0
   -5.1212   -0.2093    0.2608 H   0  0  0  0  0  0  0  0  0  0  0  0
   -2.2225   -1.2197    0.4406 H   0  0  0  0  0  0  0  0  0  0  0  0
   -3.1782   -0.8869   -0.9819 H   0  0  0  0  0  0  0  0  0  0  0  0
   -2.2743    1.2646    1.0143 H   0  0  0  0  0  0  0  0  0  0  0  0
   -3.1273    1.5762   -0.4807 H   0  0  0  0  0  0  0  0  0  0  0  0
   -1.7270    0.0332   -2.5841 H   0  0  0  0  0  0  0  0  0  0  0  0
   -1.7670    1.8069   -2.6211 H   0  0  0  0  0  0  0  0  0  0  0  0
   -0.2369    0.9384   -2.7744 H   0  0  0  0  0  0  0  0  0  0  0  0
    0.0334    1.1084    1.0053 H   0  0  0  0  0  0  0  0  0  0  0  0
    1.9811    2.0151   -0.0662 H   0  0  0  0  0  0  0  0  0  0  0  0
    1.4409    1.6078   -1.6743 H   0  0  0  0  0  0  0  0  0  0  0  0
    2.2281   -0.4329    0.4871 H   0  0  0  0  0  0  0  0  0  0  0  0
    1.7250   -0.8596   -1.1325 H   0  0  0  0  0  0  0  0  0  0  0  0
    3.2935    0.9541   -2.9596 H   0  0  0  0  0  0  0  0  0  0  0  0
    4.8588    0.1620   -2.8752 H   0  0  0  0  0  0  0  0  0  0  0  0
    3.3990   -0.8173   -2.9937 H   0  0  0  0  0  0  0  0  0  0  0  0
    4.4489    0.0333    0.8965 H   0  0  0  0  0  0  0  0  0  0  0  0
    6.4163   -0.0023   -1.4816 H   0  0  0  0  0  0  0  0  0  0  0  0
    6.5347    1.1348   -0.1170 H   0  0  0  0  0  0  0  0  0  0  0  0
    7.7333   -0.8040    0.1315 H   0  0  0  0  0  0  0  0  0  0  0  0
  1  2  1  0
  2  3  1  0
  2  4  2  3
  4  5  1  0
  5  6  1  0
  6  7  1  0
  7  8  1  0
  7  9  2  3
  9 10  1  0
 10 11  1  0
 11 12  1  0
 12 13  1  0
 12 14  2  3
 14 15  1  0
 15 16  1  0
  1 17  1  0
  1 18  1  0
  1 19  1  0
  3 20  1  0
  3 21  1  0
  3 22  1  0
  4 23  1  0
  5 24  1  0
  5 25  1  0
  6 26  1  0
  6 27  1  0
  8 28  1  0
  8 29  1  0
  8 30  1  0
  9 31  1  0
 10 32  1  0
 10 33  1  0
 11 34  1  0
 11 35  1  0
 13 36  1  0
 13 37  1  0
 13 38  1  0
 14 39  1  0
 15 40  1  0
 15 41  1  0
 16 42  1  0
M  END
$$$$
