
     RDKit          3D

 63 67  0  0  0  0  0  0  0  0999 V2000
    7.4314    2.5559   -3.1508 C   0  0  0  0  0  0  0  0  0  0  0  0
    5.9780    2.8825   -2.8487 C   0  0  0  0  0  0  0  0  0  0  0  0
    5.5130    1.9566   -1.8585 O   0  0  0  0  0  0  0  0  0  0  0  0
    4.1614    1.9589   -1.6705 C   0  0  0  0  0  0  0  0  0  0  0  0
    3.3728    2.6570   -2.2991 O   0  0  0  0  0  0  0  0  0  0  0  0
    3.7394    1.0319   -0.6292 C   0  0  0  0  0  0  0  0  0  0  0  0
    2.3988    0.7334   -0.2491 C   0  0  0  0  0  0  0  0  0  0  0  0
    2.4291   -0.2030    0.7693 C   0  0  0  0  0  0  0  0  0  0  0  0
    1.3667   -0.8583    1.5197 C   0  0  0  0  0  0  0  0  0  0  0  0
    0.0181   -0.7322    1.2031 N   0  0  0  0  0  0  0  0  0  0  0  0
   -0.4515   -0.8002   -0.1902 C   0  0  0  0  0  0  0  0  0  0  0  0
   -1.6218   -1.7948   -0.3617 C   0  0  0  0  0  0  0  0  0  0  0  0
   -2.7690   -1.5822    0.5400 N   0  0  0  0  0  0  0  0  0  0  0  0
   -4.0055   -1.1642   -0.1307 C   0  0  0  0  0  0  0  0  0  0  0  0
   -3.9627    0.1789   -0.8914 C   0  0  0  0  0  0  0  0  0  0  0  0
   -5.2869    0.4702   -1.5782 C   0  0  0  0  0  0  0  0  0  0  0  0
   -5.5196   -0.0996   -2.8429 C   0  0  0  0  0  0  0  0  0  0  0  0
   -6.7279    0.1003   -3.5098 C   0  0  0  0  0  0  0  0  0  0  0  0
   -7.7296    0.8644   -2.9204 C   0  0  0  0  0  0  0  0  0  0  0  0
   -7.5145    1.4436   -1.6707 C   0  0  0  0  0  0  0  0  0  0  0  0
   -6.2997    1.2564   -0.9799 C   0  0  0  0  0  0  0  0  0  0  0  0
   -6.1134    1.9222    0.3680 C   0  0  0  0  0  0  0  0  0  0  0  0
   -5.7022    1.0565    1.3374 F   0  0  0  0  0  0  0  0  0  0  0  0
   -5.1782    2.9114    0.3300 F   0  0  0  0  0  0  0  0  0  0  0  0
   -7.2458    2.5059    0.8539 F   0  0  0  0  0  0  0  0  0  0  0  0
   -2.4184   -0.7559    1.7093 C   0  0  0  0  0  0  0  0  0  0  0  0
   -0.9967   -1.0473    2.2281 C   0  0  0  0  0  0  0  0  0  0  0  0
    1.7010   -1.5979    2.5500 N   0  0  0  0  0  0  0  0  0  0  0  0
    3.0549   -1.8106    2.8790 C   0  0  0  0  0  0  0  0  0  0  0  0
    3.3521   -2.6289    3.9717 C   0  0  0  0  0  0  0  0  0  0  0  0
    4.6780   -2.8817    4.3346 C   0  0  0  0  0  0  0  0  0  0  0  0
    5.7230   -2.3173    3.6022 C   0  0  0  0  0  0  0  0  0  0  0  0
    5.4505   -1.4977    2.5041 C   0  0  0  0  0  0  0  0  0  0  0  0
    4.1188   -1.2555    2.1533 C   0  0  0  0  0  0  0  0  0  0  0  0
    3.7528   -0.4295    1.0765 N   0  0  0  0  0  0  0  0  0  0  0  0
    4.5497    0.2740    0.2035 C   0  0  0  0  0  0  0  0  0  0  0  0
    8.0399    2.5776   -2.2405 H   0  0  0  0  0  0  0  0  0  0  0  0
    7.8459    3.2676   -3.8693 H   0  0  0  0  0  0  0  0  0  0  0  0
    7.5200    1.5444   -3.5653 H   0  0  0  0  0  0  0  0  0  0  0  0
    5.3824    2.8031   -3.7686 H   0  0  0  0  0  0  0  0  0  0  0  0
    5.8968    3.9019   -2.4488 H   0  0  0  0  0  0  0  0  0  0  0  0
    1.5089    1.1712   -0.6857 H   0  0  0  0  0  0  0  0  0  0  0  0
    0.3535   -1.1206   -0.8622 H   0  0  0  0  0  0  0  0  0  0  0  0
   -0.7663    0.2027   -0.5065 H   0  0  0  0  0  0  0  0  0  0  0  0
   -1.2369   -2.8005   -0.1584 H   0  0  0  0  0  0  0  0  0  0  0  0
   -1.9321   -1.8079   -1.4151 H   0  0  0  0  0  0  0  0  0  0  0  0
   -4.8176   -1.1428    0.6076 H   0  0  0  0  0  0  0  0  0  0  0  0
   -4.2909   -1.9650   -0.8260 H   0  0  0  0  0  0  0  0  0  0  0  0
   -3.1756    0.1650   -1.6558 H   0  0  0  0  0  0  0  0  0  0  0  0
   -3.6982    1.0084   -0.2269 H   0  0  0  0  0  0  0  0  0  0  0  0
   -4.7499   -0.7063   -3.3202 H   0  0  0  0  0  0  0  0  0  0  0  0
   -6.8907   -0.3482   -4.4854 H   0  0  0  0  0  0  0  0  0  0  0  0
   -8.6711    1.0166   -3.4421 H   0  0  0  0  0  0  0  0  0  0  0  0
   -8.3105    2.0439   -1.2276 H   0  0  0  0  0  0  0  0  0  0  0  0
   -3.1341   -0.9477    2.5154 H   0  0  0  0  0  0  0  0  0  0  0  0
   -2.4773    0.3114    1.4686 H   0  0  0  0  0  0  0  0  0  0  0  0
   -0.9221   -2.0994    2.5385 H   0  0  0  0  0  0  0  0  0  0  0  0
   -0.8139   -0.4221    3.1137 H   0  0  0  0  0  0  0  0  0  0  0  0
    2.5391   -3.0717    4.5413 H   0  0  0  0  0  0  0  0  0  0  0  0
    4.8898   -3.5191    5.1898 H   0  0  0  0  0  0  0  0  0  0  0  0
    6.7537   -2.5105    3.8899 H   0  0  0  0  0  0  0  0  0  0  0  0
    6.2823   -1.0676    1.9559 H   0  0  0  0  0  0  0  0  0  0  0  0
    5.6289    0.2122    0.2477 H   0  0  0  0  0  0  0  0  0  0  0  0
  1  2  1  0
  2  3  1  0
  3  4  1  0
  4  5  2  0
  4  6  1  0
  6  7  1  0
  7  8  2  0
  8  9  1  0
  9 10  1  0
 10 11  1  0
 11 12  1  0
 12 13  1  0
 13 14  1  0
 14 15  1  0
 15 16  1  0
 16 17  2  0
 17 18  1  0
 18 19  2  0
 19 20  1  0
 20 21  2  0
 21 22  1  0
 22 23  1  0
 22 24  1  0
 22 25  1  0
 13 26  1  0
 26 27  1  0
  9 28  2  0
 28 29  1  0
 29 30  2  0
 30 31  1  0
 31 32  2  0
 32 33  1  0
 33 34  2  0
 34 35  1  0
 35 36  1  0
 36  6  2  0
 35  8  1  0
 27 10  1  0
 34 29  1  0
 21 16  1  0
  1 37  1  0
  1 38  1  0
  1 39  1  0
  2 40  1  0
  2 41  1  0
  7 42  1  0
 11 43  1  0
 11 44  1  0
 12 45  1  0
 12 46  1  0
 14 47  1  0
 14 48  1  0
 15 49  1  0
 15 50  1  0
 17 51  1  0
 18 52  1  0
 19 53  1  0
 20 54  1  0
 26 55  1  0
 26 56  1  0
 27 57  1  0
 27 58  1  0
 30 59  1  0
 31 60  1  0
 32 61  1  0
 33 62  1  0
 36 63  1  0
M  END
$$$$
