
     RDKit          3D

 37 38  0  0  0  0  0  0  0  0999 V2000
    1.8262    2.3865   -2.0629 O   0  0  0  0  0  0  0  0  0  0  0  0
    0.9943    1.5502   -1.7249 C   0  0  0  0  0  0  0  0  0  0  0  0
   -0.4321    1.5491   -2.2675 C   0  0  0  0  0  0  0  0  0  0  0  0
   -1.3282    0.9400   -1.3287 O   0  0  0  0  0  0  0  0  0  0  0  0
   -2.6015    0.8495   -1.7803 C   0  0  0  0  0  0  0  0  0  0  0  0
   -3.0016    1.2039   -2.8798 O   0  0  0  0  0  0  0  0  0  0  0  0
   -3.5010    0.2352   -0.7709 C   0  0  0  0  0  0  0  0  0  0  0  0
   -3.0562   -0.0624    0.5271 C   0  0  0  0  0  0  0  0  0  0  0  0
   -3.9272   -0.6444    1.4542 C   0  0  0  0  0  0  0  0  0  0  0  0
   -5.2429   -0.9290    1.0901 C   0  0  0  0  0  0  0  0  0  0  0  0
   -6.3069   -1.6454    2.2358 Cl  0  0  0  0  0  0  0  0  0  0  0  0
   -5.6993   -0.6346   -0.1917 C   0  0  0  0  0  0  0  0  0  0  0  0
   -4.8317   -0.0523   -1.1161 C   0  0  0  0  0  0  0  0  0  0  0  0
   -5.3655    0.2085   -2.3509 O   0  0  0  0  0  0  0  0  0  0  0  0
    1.2701    0.5059   -0.8634 N   0  0  0  0  0  0  0  0  0  0  0  0
    2.5395    0.4428   -0.1607 C   0  0  0  0  0  0  0  0  0  0  0  0
    2.7843   -0.9267    0.4765 C   0  0  0  0  0  0  0  0  0  0  0  0
    4.0367   -0.9813    1.2051 N   0  0  0  0  0  0  0  0  0  0  0  0
    4.1876   -0.5221    2.4898 C   0  0  0  0  0  0  0  0  0  0  0  0
    3.0995   -0.0284    3.1448 O   0  0  0  0  0  0  0  0  0  0  0  0
    5.4339   -0.6082    2.9687 C   0  0  0  0  0  0  0  0  0  0  0  0
    6.5161   -1.2814    1.7870 S   0  0  0  0  0  0  0  0  0  0  0  0
    5.2027   -1.4262    0.6024 C   0  0  0  0  0  0  0  0  0  0  0  0
    5.3548   -1.8467   -0.5318 O   0  0  0  0  0  0  0  0  0  0  0  0
   -0.4303    0.9929   -3.2116 H   0  0  0  0  0  0  0  0  0  0  0  0
   -0.7334    2.5899   -2.4299 H   0  0  0  0  0  0  0  0  0  0  0  0
   -2.0383    0.1572    0.8382 H   0  0  0  0  0  0  0  0  0  0  0  0
   -3.5756   -0.8713    2.4581 H   0  0  0  0  0  0  0  0  0  0  0  0
   -6.7249   -0.8520   -0.4784 H   0  0  0  0  0  0  0  0  0  0  0  0
   -4.6907    0.6544   -2.9092 H   0  0  0  0  0  0  0  0  0  0  0  0
    0.4589    0.0633   -0.4468 H   0  0  0  0  0  0  0  0  0  0  0  0
    3.3457    0.6877   -0.8622 H   0  0  0  0  0  0  0  0  0  0  0  0
    2.5263    1.2302    0.6017 H   0  0  0  0  0  0  0  0  0  0  0  0
    1.9625   -1.1942    1.1520 H   0  0  0  0  0  0  0  0  0  0  0  0
    2.7986   -1.6912   -0.3102 H   0  0  0  0  0  0  0  0  0  0  0  0
    3.3825    0.2537    4.0321 H   0  0  0  0  0  0  0  0  0  0  0  0
    5.7673   -0.3030    3.9494 H   0  0  0  0  0  0  0  0  0  0  0  0
  1  2  2  0
  2  3  1  0
  3  4  1  0
  4  5  1  0
  5  6  2  0
  5  7  1  0
  7  8  2  0
  8  9  1  0
  9 10  2  0
 10 11  1  0
 10 12  1  0
 12 13  2  0
 13 14  1  0
  2 15  1  0
 15 16  1  0
 16 17  1  0
 17 18  1  0
 18 19  1  0
 19 20  1  0
 19 21  2  0
 21 22  1  0
 22 23  1  0
 23 24  2  0
 13  7  1  0
 23 18  1  0
  3 25  1  0
  3 26  1  0
  8 27  1  0
  9 28  1  0
 12 29  1  0
 14 30  1  0
 15 31  1  0
 16 32  1  0
 16 33  1  0
 17 34  1  0
 17 35  1  0
 20 36  1  0
 21 37  1  0
M  END
$$$$
