
     RDKit          3D

 29 30  0  0  0  0  0  0  0  0999 V2000
   -3.4291   -0.6987   -0.4018 C   0  0  0  0  0  0  0  0  0  0  0  0
   -2.2081   -0.1502    0.2806 C   0  0  0  0  0  0  0  0  0  0  0  0
   -1.0236   -0.7795    0.4183 C   0  0  0  0  0  0  0  0  0  0  0  0
   -0.7583   -2.1942   -0.0261 C   0  0  0  0  0  0  0  0  0  0  0  0
    0.1608   -0.0907    1.0710 C   0  0  0  0  0  0  0  0  0  0  0  0
    1.3234    0.1388    0.1180 C   0  0  0  0  0  0  0  0  0  0  0  0
    2.5457   -0.5224    0.3206 C   0  0  0  0  0  0  0  0  0  0  0  0
    3.6171   -0.3197   -0.5517 C   0  0  0  0  0  0  0  0  0  0  0  0
    3.4817    0.5452   -1.6358 C   0  0  0  0  0  0  0  0  0  0  0  0
    2.2758    1.2087   -1.8502 C   0  0  0  0  0  0  0  0  0  0  0  0
    1.2033    1.0073   -0.9800 C   0  0  0  0  0  0  0  0  0  0  0  0
   -0.2214    1.1577    1.6976 N   0  0  0  0  0  0  0  0  0  0  0  0
   -1.3956    1.7926    1.4833 C   0  0  0  0  0  0  0  0  0  0  0  0
   -1.6713    3.3203    2.0758 S   0  0  0  0  0  0  0  0  0  0  0  0
   -2.3452    1.1239    0.7796 N   0  0  0  0  0  0  0  0  0  0  0  0
   -4.1737   -1.0002    0.3420 H   0  0  0  0  0  0  0  0  0  0  0  0
   -3.8804    0.0629   -1.0482 H   0  0  0  0  0  0  0  0  0  0  0  0
   -3.2137   -1.5569   -1.0430 H   0  0  0  0  0  0  0  0  0  0  0  0
   -1.6719   -2.7647   -0.2101 H   0  0  0  0  0  0  0  0  0  0  0  0
   -0.1597   -2.2029   -0.9423 H   0  0  0  0  0  0  0  0  0  0  0  0
   -0.2097   -2.7393    0.7500 H   0  0  0  0  0  0  0  0  0  0  0  0
    0.5013   -0.7171    1.9058 H   0  0  0  0  0  0  0  0  0  0  0  0
    2.6730   -1.2018    1.1606 H   0  0  0  0  0  0  0  0  0  0  0  0
    4.5589   -0.8362   -0.3850 H   0  0  0  0  0  0  0  0  0  0  0  0
    4.3165    0.7034   -2.3134 H   0  0  0  0  0  0  0  0  0  0  0  0
    2.1688    1.8852   -2.6941 H   0  0  0  0  0  0  0  0  0  0  0  0
    0.2676    1.5337   -1.1595 H   0  0  0  0  0  0  0  0  0  0  0  0
    0.4962    1.6856    2.1754 H   0  0  0  0  0  0  0  0  0  0  0  0
   -3.2284    1.6091    0.6624 H   0  0  0  0  0  0  0  0  0  0  0  0
  1  2  1  0
  2  3  2  0
  3  4  1  0
  3  5  1  0
  5  6  1  0
  6  7  2  0
  7  8  1  0
  8  9  2  0
  9 10  1  0
 10 11  2  0
  5 12  1  0
 12 13  1  0
 13 14  2  0
 13 15  1  0
 15  2  1  0
 11  6  1  0
  1 16  1  0
  1 17  1  0
  1 18  1  0
  4 19  1  0
  4 20  1  0
  4 21  1  0
  5 22  1  0
  7 23  1  0
  8 24  1  0
  9 25  1  0
 10 26  1  0
 11 27  1  0
 12 28  1  0
 15 29  1  0
M  END
$$$$
