
     RDKit          3D

 68 71  0  0  0  0  0  0  0  0999 V2000
   -2.5967   -6.6926   -1.1026 C   0  0  0  0  0  0  0  0  0  0  0  0
   -2.4388   -5.2017   -1.1050 C   0  0  0  0  0  0  0  0  0  0  0  0
   -1.5178   -4.5838   -1.9543 C   0  0  0  0  0  0  0  0  0  0  0  0
   -1.3519   -3.1964   -1.9279 C   0  0  0  0  0  0  0  0  0  0  0  0
   -2.0990   -2.3907   -1.0489 C   0  0  0  0  0  0  0  0  0  0  0  0
   -1.8420   -0.8870   -1.0371 C   0  0  0  0  0  0  0  0  0  0  0  0
   -3.0723    0.0391   -0.7793 C   0  0  0  0  0  0  0  0  0  0  0  0
   -4.2177   -0.3535   -0.5755 O   0  0  0  0  0  0  0  0  0  0  0  0
   -2.7743    1.3941   -0.8836 N   0  0  0  0  0  0  0  0  0  0  0  0
   -3.8183    2.3945   -0.8654 C   0  0  0  0  0  0  0  0  0  0  0  0
   -4.4891    2.5507    0.5021 C   0  0  0  0  0  0  0  0  0  0  0  0
   -4.9654    4.0032    0.5678 C   0  0  0  0  0  0  0  0  0  0  0  0
   -4.4171    4.6902   -0.6790 C   0  0  0  0  0  0  0  0  0  0  0  0
   -3.2822    3.7943   -1.1456 C   0  0  0  0  0  0  0  0  0  0  0  0
   -0.6947   -0.5014   -0.1720 N   0  0  0  0  0  0  0  0  0  0  0  0
   -0.7600   -0.8770    1.2452 C   0  0  0  0  0  0  0  0  0  0  0  0
   -0.1042   -2.1841    1.5125 C   0  0  0  0  0  0  0  0  0  0  0  0
    0.9543   -2.8797    0.9602 C   0  0  0  0  0  0  0  0  0  0  0  0
    1.0759   -4.0831    1.6957 C   0  0  0  0  0  0  0  0  0  0  0  0
    0.0816   -4.0524    2.6445 C   0  0  0  0  0  0  0  0  0  0  0  0
   -0.6284   -2.9000    2.5517 O   0  0  0  0  0  0  0  0  0  0  0  0
    0.1887    0.4554   -0.6506 C   0  0  0  0  0  0  0  0  0  0  0  0
   -0.0192    1.0438   -1.7143 O   0  0  0  0  0  0  0  0  0  0  0  0
    1.4086    0.7874    0.1914 C   0  0  0  0  0  0  0  0  0  0  0  0
    2.4126    1.6258   -0.5963 C   0  0  0  0  0  0  0  0  0  0  0  0
    3.7433    1.7411    0.1204 C   0  0  0  0  0  0  0  0  0  0  0  0
    3.9564    1.2005    1.1995 O   0  0  0  0  0  0  0  0  0  0  0  0
    4.6423    2.5017   -0.5927 N   0  0  0  0  0  0  0  0  0  0  0  0
    5.9489    2.7386   -0.2293 C   0  0  0  0  0  0  0  0  0  0  0  0
    6.6676    2.2824    0.8983 C   0  0  0  0  0  0  0  0  0  0  0  0
    7.9242    2.8131    0.7435 C   0  0  0  0  0  0  0  0  0  0  0  0
    9.1712    2.7520    1.5241 C   0  0  0  0  0  0  0  0  0  0  0  0
    7.9611    3.5408   -0.4033 O   0  0  0  0  0  0  0  0  0  0  0  0
    6.7225    3.4931   -1.0171 N   0  0  0  0  0  0  0  0  0  0  0  0
   -3.0017   -3.0248   -0.1839 C   0  0  0  0  0  0  0  0  0  0  0  0
   -3.1686   -4.4128   -0.2110 C   0  0  0  0  0  0  0  0  0  0  0  0
   -3.6337   -6.9730   -0.8893 H   0  0  0  0  0  0  0  0  0  0  0  0
   -2.3394   -7.1173   -2.0790 H   0  0  0  0  0  0  0  0  0  0  0  0
   -1.9446   -7.1358   -0.3430 H   0  0  0  0  0  0  0  0  0  0  0  0
   -0.9212   -5.1775   -2.6421 H   0  0  0  0  0  0  0  0  0  0  0  0
   -0.6219   -2.7449   -2.5971 H   0  0  0  0  0  0  0  0  0  0  0  0
   -1.5742   -0.6447   -2.0766 H   0  0  0  0  0  0  0  0  0  0  0  0
   -1.9175    1.6112   -1.3907 H   0  0  0  0  0  0  0  0  0  0  0  0
   -4.5691    2.1237   -1.6191 H   0  0  0  0  0  0  0  0  0  0  0  0
   -3.7760    2.3606    1.3143 H   0  0  0  0  0  0  0  0  0  0  0  0
   -5.3191    1.8478    0.6333 H   0  0  0  0  0  0  0  0  0  0  0  0
   -4.5805    4.4819    1.4750 H   0  0  0  0  0  0  0  0  0  0  0  0
   -6.0577    4.0691    0.6014 H   0  0  0  0  0  0  0  0  0  0  0  0
   -5.1964    4.7363   -1.4485 H   0  0  0  0  0  0  0  0  0  0  0  0
   -4.0848    5.7124   -0.4775 H   0  0  0  0  0  0  0  0  0  0  0  0
   -2.3746    3.9928   -0.5620 H   0  0  0  0  0  0  0  0  0  0  0  0
   -3.0397    3.9446   -2.2019 H   0  0  0  0  0  0  0  0  0  0  0  0
   -0.2808   -0.1133    1.8636 H   0  0  0  0  0  0  0  0  0  0  0  0
   -1.8103   -0.8963    1.5556 H   0  0  0  0  0  0  0  0  0  0  0  0
    1.5585   -2.5640    0.1219 H   0  0  0  0  0  0  0  0  0  0  0  0
    1.7907   -4.8802    1.5468 H   0  0  0  0  0  0  0  0  0  0  0  0
   -0.2329   -4.7336    3.4227 H   0  0  0  0  0  0  0  0  0  0  0  0
    1.8798   -0.1444    0.5163 H   0  0  0  0  0  0  0  0  0  0  0  0
    1.0929    1.3495    1.0765 H   0  0  0  0  0  0  0  0  0  0  0  0
    2.5992    1.1721   -1.5773 H   0  0  0  0  0  0  0  0  0  0  0  0
    2.0109    2.6328   -0.7607 H   0  0  0  0  0  0  0  0  0  0  0  0
    4.3775    2.9300   -1.4692 H   0  0  0  0  0  0  0  0  0  0  0  0
    6.3261    1.6546    1.7077 H   0  0  0  0  0  0  0  0  0  0  0  0
    9.0891    2.0265    2.3392 H   0  0  0  0  0  0  0  0  0  0  0  0
    9.3987    3.7299    1.9595 H   0  0  0  0  0  0  0  0  0  0  0  0
   10.0098    2.4532    0.8882 H   0  0  0  0  0  0  0  0  0  0  0  0
   -3.5854   -2.4531    0.5339 H   0  0  0  0  0  0  0  0  0  0  0  0
   -3.8734   -4.8715    0.4784 H   0  0  0  0  0  0  0  0  0  0  0  0
  1  2  1  0
  2  3  2  0
  3  4  1  0
  4  5  2  0
  5  6  1  0
  6  7  1  0
  7  8  2  0
  7  9  1  0
  9 10  1  0
 10 11  1  0
 11 12  1  0
 12 13  1  0
 13 14  1  0
  6 15  1  0
 15 16  1  0
 16 17  1  0
 17 18  2  0
 18 19  1  0
 19 20  2  0
 20 21  1  0
 15 22  1  0
 22 23  2  0
 22 24  1  0
 24 25  1  0
 25 26  1  0
 26 27  2  0
 26 28  1  0
 28 29  1  0
 29 30  1  0
 30 31  2  0
 31 32  1  0
 31 33  1  0
 33 34  1  0
  5 35  1  0
 35 36  2  0
 36  2  1  0
 14 10  1  0
 21 17  1  0
 34 29  2  0
  1 37  1  0
  1 38  1  0
  1 39  1  0
  3 40  1  0
  4 41  1  0
  6 42  1  0
  9 43  1  0
 10 44  1  0
 11 45  1  0
 11 46  1  0
 12 47  1  0
 12 48  1  0
 13 49  1  0
 13 50  1  0
 14 51  1  0
 14 52  1  0
 16 53  1  0
 16 54  1  0
 18 55  1  0
 19 56  1  0
 20 57  1  0
 24 58  1  0
 24 59  1  0
 25 60  1  0
 25 61  1  0
 28 62  1  0
 30 63  1  0
 32 64  1  0
 32 65  1  0
 32 66  1  0
 35 67  1  0
 36 68  1  0
M  END
$$$$
