
     RDKit          3D

 40 42  0  0  0  0  0  0  0  0999 V2000
    1.8604    4.2104    0.9409 C   0  0  0  0  0  0  0  0  0  0  0  0
    2.1159    3.9588   -0.5355 C   0  0  0  0  0  0  0  0  0  0  0  0
    0.5763    3.5668   -1.4323 S   0  0  0  0  0  0  0  0  0  0  0  0
    0.2948    1.8682   -0.9469 C   0  0  0  0  0  0  0  0  0  0  0  0
   -0.9161    1.2903   -1.2620 C   0  0  0  0  0  0  0  0  0  0  0  0
   -1.1165   -0.0213   -0.8827 C   0  0  0  0  0  0  0  0  0  0  0  0
   -2.3020   -0.6832   -1.1780 N   0  0  0  0  0  0  0  0  0  0  0  0
   -2.3564   -2.1187   -0.8562 C   0  0  0  0  0  0  0  0  0  0  0  0
   -3.6847   -2.7027   -1.3626 C   0  0  0  0  0  0  0  0  0  0  0  0
   -4.8509   -2.0927   -0.7864 O   0  0  0  0  0  0  0  0  0  0  0  0
   -4.6076   -0.7782   -0.2689 C   0  0  0  0  0  0  0  0  0  0  0  0
   -3.5868    0.0318   -1.0870 C   0  0  0  0  0  0  0  0  0  0  0  0
   -0.1399   -0.6996   -0.2580 N   0  0  0  0  0  0  0  0  0  0  0  0
    1.0178   -0.0660    0.0082 C   0  0  0  0  0  0  0  0  0  0  0  0
    2.0745   -0.8260    0.7087 C   0  0  0  0  0  0  0  0  0  0  0  0
    3.3334   -0.2562    0.9833 C   0  0  0  0  0  0  0  0  0  0  0  0
    4.3340   -0.9740    1.6472 C   0  0  0  0  0  0  0  0  0  0  0  0
    4.0987   -2.2837    2.0539 C   0  0  0  0  0  0  0  0  0  0  0  0
    2.8656   -2.8746    1.7983 C   0  0  0  0  0  0  0  0  0  0  0  0
    1.8679   -2.1534    1.1338 C   0  0  0  0  0  0  0  0  0  0  0  0
    1.2729    1.2105   -0.3131 N   0  0  0  0  0  0  0  0  0  0  0  0
    1.4682    3.3245    1.4496 H   0  0  0  0  0  0  0  0  0  0  0  0
    2.7958    4.4869    1.4382 H   0  0  0  0  0  0  0  0  0  0  0  0
    1.1539    5.0341    1.0878 H   0  0  0  0  0  0  0  0  0  0  0  0
    2.8657    3.1753   -0.6810 H   0  0  0  0  0  0  0  0  0  0  0  0
    2.5239    4.8713   -0.9833 H   0  0  0  0  0  0  0  0  0  0  0  0
   -1.6675    1.8433   -1.8083 H   0  0  0  0  0  0  0  0  0  0  0  0
   -2.2827   -2.2638    0.2290 H   0  0  0  0  0  0  0  0  0  0  0  0
   -1.5312   -2.6537   -1.3412 H   0  0  0  0  0  0  0  0  0  0  0  0
   -3.7338   -3.7745   -1.1458 H   0  0  0  0  0  0  0  0  0  0  0  0
   -3.7590   -2.5847   -2.4502 H   0  0  0  0  0  0  0  0  0  0  0  0
   -5.5677   -0.2529   -0.2438 H   0  0  0  0  0  0  0  0  0  0  0  0
   -4.2699   -0.8827    0.7694 H   0  0  0  0  0  0  0  0  0  0  0  0
   -3.9651    0.1733   -2.1062 H   0  0  0  0  0  0  0  0  0  0  0  0
   -3.4860    1.0182   -0.6201 H   0  0  0  0  0  0  0  0  0  0  0  0
    3.5461    0.7663    0.6751 H   0  0  0  0  0  0  0  0  0  0  0  0
    5.2956   -0.5069    1.8436 H   0  0  0  0  0  0  0  0  0  0  0  0
    4.8752   -2.8430    2.5689 H   0  0  0  0  0  0  0  0  0  0  0  0
    2.6753   -3.8972    2.1137 H   0  0  0  0  0  0  0  0  0  0  0  0
    0.9119   -2.6401    0.9477 H   0  0  0  0  0  0  0  0  0  0  0  0
  1  2  1  0
  2  3  1  0
  3  4  1  0
  4  5  2  0
  5  6  1  0
  6  7  1  0
  7  8  1  0
  8  9  1  0
  9 10  1  0
 10 11  1  0
 11 12  1  0
  6 13  2  0
 13 14  1  0
 14 15  1  0
 15 16  2  0
 16 17  1  0
 17 18  2  0
 18 19  1  0
 19 20  2  0
 14 21  2  0
 21  4  1  0
 12  7  1  0
 20 15  1  0
  1 22  1  0
  1 23  1  0
  1 24  1  0
  2 25  1  0
  2 26  1  0
  5 27  1  0
  8 28  1  0
  8 29  1  0
  9 30  1  0
  9 31  1  0
 11 32  1  0
 11 33  1  0
 12 34  1  0
 12 35  1  0
 16 36  1  0
 17 37  1  0
 18 38  1  0
 19 39  1  0
 20 40  1  0
M  END
$$$$
