
     RDKit          3D

 54 57  0  0  0  0  0  0  0  0999 V2000
    8.6681    0.2116    0.8556 C   0  0  0  0  0  0  0  0  0  0  0  0
    7.6757    1.2788    0.7208 N   0  0  0  0  0  0  0  0  0  0  0  0
    8.1631    2.5201    0.1234 C   0  0  0  0  0  0  0  0  0  0  0  0
    6.3269    0.9308    0.5860 C   0  0  0  0  0  0  0  0  0  0  0  0
    5.8445   -0.3387    0.9602 C   0  0  0  0  0  0  0  0  0  0  0  0
    4.4912   -0.6906    0.8499 C   0  0  0  0  0  0  0  0  0  0  0  0
    3.5719    0.2339    0.3672 C   0  0  0  0  0  0  0  0  0  0  0  0
    2.1372   -0.0965    0.2465 C   0  0  0  0  0  0  0  0  0  0  0  0
    1.6780   -1.2640    0.5699 N   0  0  0  0  0  0  0  0  0  0  0  0
    0.3394   -1.5103    0.3952 N   0  0  0  0  0  0  0  0  0  0  0  0
   -0.4767   -0.9970   -0.6084 C   0  0  0  0  0  0  0  0  0  0  0  0
   -0.1496   -0.1574   -1.4412 O   0  0  0  0  0  0  0  0  0  0  0  0
   -1.8067   -1.6047   -0.6022 C   0  0  0  0  0  0  0  0  0  0  0  0
   -2.1116   -2.6915    0.1701 N   0  0  0  0  0  0  0  0  0  0  0  0
   -3.3729   -3.0122   -0.0500 N   0  0  0  0  0  0  0  0  0  0  0  0
   -3.8972   -2.1679   -0.9889 N   0  0  0  0  0  0  0  0  0  0  0  0
   -5.2074   -2.3709   -1.4930 C   0  0  0  0  0  0  0  0  0  0  0  0
   -5.6754   -1.6600   -2.5191 N   0  0  0  0  0  0  0  0  0  0  0  0
   -6.9535   -2.1722   -2.7362 O   0  0  0  0  0  0  0  0  0  0  0  0
   -7.2422   -3.1989   -1.8460 N   0  0  0  0  0  0  0  0  0  0  0  0
   -6.1615   -3.3199   -1.0756 C   0  0  0  0  0  0  0  0  0  0  0  0
   -6.0389   -4.2129   -0.0741 N   0  0  0  0  0  0  0  0  0  0  0  0
   -2.9345   -1.2169   -1.3131 C   0  0  0  0  0  0  0  0  0  0  0  0
   -3.1215   -0.0365   -2.1968 C   0  0  0  0  0  0  0  0  0  0  0  0
   -2.9049    1.1430   -1.4109 O   0  0  0  0  0  0  0  0  0  0  0  0
   -3.8988    1.5537   -0.5680 C   0  0  0  0  0  0  0  0  0  0  0  0
   -3.4574    2.2089    0.5876 C   0  0  0  0  0  0  0  0  0  0  0  0
   -4.3743    2.6796    1.5286 C   0  0  0  0  0  0  0  0  0  0  0  0
   -5.7328    2.5036    1.3004 C   0  0  0  0  0  0  0  0  0  0  0  0
   -6.6181    2.9550    2.1980 F   0  0  0  0  0  0  0  0  0  0  0  0
   -6.1866    1.8757    0.1464 C   0  0  0  0  0  0  0  0  0  0  0  0
   -5.2674    1.4060   -0.7971 C   0  0  0  0  0  0  0  0  0  0  0  0
    4.0050    1.5021   -0.0040 C   0  0  0  0  0  0  0  0  0  0  0  0
    5.3617    1.8396    0.1121 C   0  0  0  0  0  0  0  0  0  0  0  0
    9.6873    0.6134    0.8800 H   0  0  0  0  0  0  0  0  0  0  0  0
    8.5357   -0.3325    1.7966 H   0  0  0  0  0  0  0  0  0  0  0  0
    8.6136   -0.4895    0.0151 H   0  0  0  0  0  0  0  0  0  0  0  0
    8.0746    2.4896   -0.9683 H   0  0  0  0  0  0  0  0  0  0  0  0
    7.6267    3.3919    0.5142 H   0  0  0  0  0  0  0  0  0  0  0  0
    9.2185    2.6870    0.3663 H   0  0  0  0  0  0  0  0  0  0  0  0
    6.5139   -1.0948    1.3597 H   0  0  0  0  0  0  0  0  0  0  0  0
    4.1713   -1.6851    1.1510 H   0  0  0  0  0  0  0  0  0  0  0  0
    1.4900    0.7251   -0.1031 H   0  0  0  0  0  0  0  0  0  0  0  0
    0.0032   -2.3435    0.8728 H   0  0  0  0  0  0  0  0  0  0  0  0
   -6.6941   -4.9866   -0.0291 H   0  0  0  0  0  0  0  0  0  0  0  0
   -5.1286   -4.4132    0.3386 H   0  0  0  0  0  0  0  0  0  0  0  0
   -4.0536    0.0242   -2.7540 H   0  0  0  0  0  0  0  0  0  0  0  0
   -2.3380   -0.0485   -2.9644 H   0  0  0  0  0  0  0  0  0  0  0  0
   -2.3922    2.3466    0.7554 H   0  0  0  0  0  0  0  0  0  0  0  0
   -4.0377    3.1814    2.4302 H   0  0  0  0  0  0  0  0  0  0  0  0
   -7.2541    1.7648   -0.0189 H   0  0  0  0  0  0  0  0  0  0  0  0
   -5.6544    0.9561   -1.7047 H   0  0  0  0  0  0  0  0  0  0  0  0
    3.3055    2.2429   -0.3816 H   0  0  0  0  0  0  0  0  0  0  0  0
    5.6394    2.8476   -0.1815 H   0  0  0  0  0  0  0  0  0  0  0  0
  1  2  1  0
  2  3  1  0
  2  4  1  0
  4  5  2  0
  5  6  1  0
  6  7  2  0
  7  8  1  0
  8  9  2  3
  9 10  1  0
 10 11  1  0
 11 12  2  0
 11 13  1  0
 13 14  1  0
 14 15  2  0
 15 16  1  0
 16 17  1  0
 17 18  2  0
 18 19  1  0
 19 20  1  0
 20 21  2  0
 21 22  1  0
 16 23  1  0
 23 24  1  0
 24 25  1  0
 25 26  1  0
 26 27  2  0
 27 28  1  0
 28 29  2  0
 29 30  1  0
 29 31  1  0
 31 32  2  0
  7 33  1  0
 33 34  2  0
 34  4  1  0
 23 13  2  0
 32 26  1  0
 21 17  1  0
  1 35  1  0
  1 36  1  0
  1 37  1  0
  3 38  1  0
  3 39  1  0
  3 40  1  0
  5 41  1  0
  6 42  1  0
  8 43  1  0
 10 44  1  0
 22 45  1  0
 22 46  1  0
 24 47  1  0
 24 48  1  0
 27 49  1  0
 28 50  1  0
 31 51  1  0
 32 52  1  0
 33 53  1  0
 34 54  1  0
M  END
$$$$
