
     RDKit          3D

 35 36  0  0  0  0  0  0  0  0999 V2000
    5.9993    0.7715   -0.5150 C   0  0  0  0  0  0  0  0  0  0  0  0
    4.8956    0.0703    0.2190 C   0  0  0  0  0  0  0  0  0  0  0  0
    5.1874   -0.9947    1.0625 C   0  0  0  0  0  0  0  0  0  0  0  0
    4.1406   -1.6173    1.7302 C   0  0  0  0  0  0  0  0  0  0  0  0
    2.8384   -1.1614    1.5397 C   0  0  0  0  0  0  0  0  0  0  0  0
    2.6266   -0.0926    0.6828 C   0  0  0  0  0  0  0  0  0  0  0  0
    1.3779    0.4637    0.4066 N   0  0  0  0  0  0  0  0  0  0  0  0
    0.1442    0.0918    0.9008 C   0  0  0  0  0  0  0  0  0  0  0  0
   -0.0629   -0.8323    1.6814 O   0  0  0  0  0  0  0  0  0  0  0  0
   -0.9810    0.9799    0.3498 C   0  0  0  0  0  0  0  0  0  0  0  0
   -2.2700    0.7030    0.8867 O   0  0  0  0  0  0  0  0  0  0  0  0
   -3.0708    0.0404   -0.0058 C   0  0  0  0  0  0  0  0  0  0  0  0
   -2.7832   -1.2754   -0.3754 C   0  0  0  0  0  0  0  0  0  0  0  0
   -3.6228   -1.9461   -1.2633 C   0  0  0  0  0  0  0  0  0  0  0  0
   -4.7540   -1.3068   -1.7698 C   0  0  0  0  0  0  0  0  0  0  0  0
   -5.0529    0.0005   -1.3815 C   0  0  0  0  0  0  0  0  0  0  0  0
   -4.2223    0.6835   -0.4821 C   0  0  0  0  0  0  0  0  0  0  0  0
   -4.5572    2.0828   -0.0555 C   0  0  0  0  0  0  0  0  0  0  0  0
    3.6331    0.5239    0.0245 N   0  0  0  0  0  0  0  0  0  0  0  0
    6.5408    0.0635   -1.1503 H   0  0  0  0  0  0  0  0  0  0  0  0
    6.6977    1.2241    0.1961 H   0  0  0  0  0  0  0  0  0  0  0  0
    5.5998    1.5660   -1.1545 H   0  0  0  0  0  0  0  0  0  0  0  0
    6.2083   -1.3359    1.2010 H   0  0  0  0  0  0  0  0  0  0  0  0
    4.3320   -2.4525    2.3986 H   0  0  0  0  0  0  0  0  0  0  0  0
    2.0291   -1.6516    2.0671 H   0  0  0  0  0  0  0  0  0  0  0  0
    1.4497    1.2375   -0.2401 H   0  0  0  0  0  0  0  0  0  0  0  0
   -0.7437    2.0124    0.6333 H   0  0  0  0  0  0  0  0  0  0  0  0
   -0.9650    0.9379   -0.7483 H   0  0  0  0  0  0  0  0  0  0  0  0
   -1.9219   -1.7918    0.0408 H   0  0  0  0  0  0  0  0  0  0  0  0
   -3.4020   -2.9716   -1.5475 H   0  0  0  0  0  0  0  0  0  0  0  0
   -5.4113   -1.8309   -2.4591 H   0  0  0  0  0  0  0  0  0  0  0  0
   -5.9450    0.4797   -1.7792 H   0  0  0  0  0  0  0  0  0  0  0  0
   -3.8097    2.7836   -0.4392 H   0  0  0  0  0  0  0  0  0  0  0  0
   -4.5896    2.1514    1.0366 H   0  0  0  0  0  0  0  0  0  0  0  0
   -5.5352    2.3934   -0.4332 H   0  0  0  0  0  0  0  0  0  0  0  0
  1  2  1  0
  2  3  2  0
  3  4  1  0
  4  5  2  0
  5  6  1  0
  6  7  1  0
  7  8  1  0
  8  9  2  0
  8 10  1  0
 10 11  1  0
 11 12  1  0
 12 13  2  0
 13 14  1  0
 14 15  2  0
 15 16  1  0
 16 17  2  0
 17 18  1  0
  6 19  2  0
 19  2  1  0
 17 12  1  0
  1 20  1  0
  1 21  1  0
  1 22  1  0
  3 23  1  0
  4 24  1  0
  5 25  1  0
  7 26  1  0
 10 27  1  0
 10 28  1  0
 13 29  1  0
 14 30  1  0
 15 31  1  0
 16 32  1  0
 18 33  1  0
 18 34  1  0
 18 35  1  0
M  END
$$$$
