
     RDKit          3D

 46 48  0  0  0  0  0  0  0  0999 V2000
   -1.4567    2.9518   -2.0337 C   0  0  0  0  0  0  0  0  0  0  0  0
   -2.3675    2.2464   -1.3492 C   0  0  0  0  0  0  0  0  0  0  0  0
   -2.5213    0.7539   -1.4325 C   0  0  0  0  0  0  0  0  0  0  0  0
   -2.3804    0.1105   -0.1382 N   0  0  0  0  0  0  0  0  0  0  0  0
   -1.2113   -0.2569    0.4774 C   0  0  0  0  0  0  0  0  0  0  0  0
    0.3651    0.1063   -0.1313 S   0  0  0  0  0  0  0  0  0  0  0  0
    1.3939   -0.5413    1.2210 C   0  0  0  0  0  0  0  0  0  0  0  0
    2.8617   -0.3177    0.9448 C   0  0  0  0  0  0  0  0  0  0  0  0
    3.4960    0.8561    1.3761 C   0  0  0  0  0  0  0  0  0  0  0  0
    4.8511    1.0687    1.1091 C   0  0  0  0  0  0  0  0  0  0  0  0
    5.5926    0.1137    0.4019 C   0  0  0  0  0  0  0  0  0  0  0  0
    7.0323    0.3913    0.1452 C   0  0  0  0  0  0  0  0  0  0  0  0
    7.6013    1.4048    0.5199 O   0  0  0  0  0  0  0  0  0  0  0  0
    7.6014   -0.6259   -0.5493 O   0  0  0  0  0  0  0  0  0  0  0  0
    8.9879   -0.4305   -0.8300 C   0  0  0  0  0  0  0  0  0  0  0  0
    4.9613   -1.0568   -0.0378 C   0  0  0  0  0  0  0  0  0  0  0  0
    3.6053   -1.2686    0.2306 C   0  0  0  0  0  0  0  0  0  0  0  0
   -1.4741   -0.9298    1.5720 N   0  0  0  0  0  0  0  0  0  0  0  0
   -2.8374   -1.0218    1.6856 N   0  0  0  0  0  0  0  0  0  0  0  0
   -3.3835   -0.3811    0.6697 C   0  0  0  0  0  0  0  0  0  0  0  0
   -4.7980   -0.3046    0.4704 C   0  0  0  0  0  0  0  0  0  0  0  0
   -5.6269    1.1678    0.1825 S   0  0  0  0  0  0  0  0  0  0  0  0
   -7.1125    0.3207    0.1102 C   0  0  0  0  0  0  0  0  0  0  0  0
   -8.2732    0.9555   -0.1255 N   0  0  0  0  0  0  0  0  0  0  0  0
   -7.0353   -0.9680    0.3165 N   0  0  0  0  0  0  0  0  0  0  0  0
   -5.7181   -1.3396    0.5499 C   0  0  0  0  0  0  0  0  0  0  0  0
   -5.4332   -2.7713    0.8402 C   0  0  0  0  0  0  0  0  0  0  0  0
   -0.7452    2.4781   -2.7043 H   0  0  0  0  0  0  0  0  0  0  0  0
   -1.3968    4.0317   -1.9294 H   0  0  0  0  0  0  0  0  0  0  0  0
   -3.0488    2.7824   -0.6920 H   0  0  0  0  0  0  0  0  0  0  0  0
   -3.5036    0.5028   -1.8437 H   0  0  0  0  0  0  0  0  0  0  0  0
   -1.7882    0.3034   -2.1116 H   0  0  0  0  0  0  0  0  0  0  0  0
    1.1195   -0.0507    2.1622 H   0  0  0  0  0  0  0  0  0  0  0  0
    1.2054   -1.6134    1.3502 H   0  0  0  0  0  0  0  0  0  0  0  0
    2.9380    1.6144    1.9223 H   0  0  0  0  0  0  0  0  0  0  0  0
    5.3259    1.9854    1.4549 H   0  0  0  0  0  0  0  0  0  0  0  0
    9.5602   -0.3528    0.0998 H   0  0  0  0  0  0  0  0  0  0  0  0
    9.1320    0.4597   -1.4504 H   0  0  0  0  0  0  0  0  0  0  0  0
    9.3470   -1.3014   -1.3853 H   0  0  0  0  0  0  0  0  0  0  0  0
    5.5102   -1.8138   -0.5924 H   0  0  0  0  0  0  0  0  0  0  0  0
    3.1308   -2.1819   -0.1242 H   0  0  0  0  0  0  0  0  0  0  0  0
   -9.0963    0.4239    0.1387 H   0  0  0  0  0  0  0  0  0  0  0  0
   -8.3253    1.9297    0.1458 H   0  0  0  0  0  0  0  0  0  0  0  0
   -4.6750   -3.1618    0.1543 H   0  0  0  0  0  0  0  0  0  0  0  0
   -5.0740   -2.8896    1.8669 H   0  0  0  0  0  0  0  0  0  0  0  0
   -6.3362   -3.3795    0.7259 H   0  0  0  0  0  0  0  0  0  0  0  0
  1  2  2  0
  2  3  1  0
  3  4  1  0
  4  5  1  0
  5  6  1  0
  6  7  1  0
  7  8  1  0
  8  9  2  0
  9 10  1  0
 10 11  2  0
 11 12  1  0
 12 13  2  0
 12 14  1  0
 14 15  1  0
 11 16  1  0
 16 17  2  0
  5 18  2  0
 18 19  1  0
 19 20  2  0
 20 21  1  0
 21 22  1  0
 22 23  1  0
 23 24  1  0
 23 25  2  0
 25 26  1  0
 26 27  1  0
 20  4  1  0
 26 21  2  0
 17  8  1  0
  1 28  1  0
  1 29  1  0
  2 30  1  0
  3 31  1  0
  3 32  1  0
  7 33  1  0
  7 34  1  0
  9 35  1  0
 10 36  1  0
 15 37  1  0
 15 38  1  0
 15 39  1  0
 16 40  1  0
 17 41  1  0
 24 42  1  0
 24 43  1  0
 27 44  1  0
 27 45  1  0
 27 46  1  0
M  END
$$$$
