
     RDKit          3D

 40 42  0  0  0  0  0  0  0  0999 V2000
   -6.0182   -0.2993    2.1103 C   0  0  0  0  0  0  0  0  0  0  0  0
   -5.4278   -0.0618    0.7034 C   0  0  0  0  0  0  0  0  0  0  0  0
   -5.9447   -1.1780   -0.2228 C   0  0  0  0  0  0  0  0  0  0  0  0
   -5.9314    1.3040    0.2017 C   0  0  0  0  0  0  0  0  0  0  0  0
   -3.9079   -0.0816    0.7718 C   0  0  0  0  0  0  0  0  0  0  0  0
   -3.2070   -0.2739    1.8736 N   0  0  0  0  0  0  0  0  0  0  0  0
   -1.8470   -0.2423    1.6469 N   0  0  0  0  0  0  0  0  0  0  0  0
   -1.5591   -0.0278    0.3836 C   0  0  0  0  0  0  0  0  0  0  0  0
   -0.2687    0.0428   -0.0686 N   0  0  0  0  0  0  0  0  0  0  0  0
    0.1603    0.2609   -1.3565 C   0  0  0  0  0  0  0  0  0  0  0  0
   -0.5402    0.4344   -2.3498 O   0  0  0  0  0  0  0  0  0  0  0  0
    1.6876    0.2738   -1.4787 C   0  0  0  0  0  0  0  0  0  0  0  0
    2.3078    0.0540   -0.2133 O   0  0  0  0  0  0  0  0  0  0  0  0
    3.6767    0.0430   -0.1895 C   0  0  0  0  0  0  0  0  0  0  0  0
    4.2335   -0.1783    1.0870 C   0  0  0  0  0  0  0  0  0  0  0  0
    5.6187   -0.2175    1.2750 C   0  0  0  0  0  0  0  0  0  0  0  0
    6.4156   -0.0321    0.1687 C   0  0  0  0  0  0  0  0  0  0  0  0
    5.8779    0.1839   -1.0778 C   0  0  0  0  0  0  0  0  0  0  0  0
    4.5142    0.2276   -1.2929 C   0  0  0  0  0  0  0  0  0  0  0  0
    6.8339    0.3426   -2.0332 O   0  0  0  0  0  0  0  0  0  0  0  0
    8.0339    0.2015   -1.2435 C   0  0  0  0  0  0  0  0  0  0  0  0
    7.7744   -0.0367    0.1555 O   0  0  0  0  0  0  0  0  0  0  0  0
   -2.9177    0.1516   -0.6229 S   0  0  0  0  0  0  0  0  0  0  0  0
   -5.7046   -1.2680    2.5174 H   0  0  0  0  0  0  0  0  0  0  0  0
   -7.1141   -0.2896    2.0881 H   0  0  0  0  0  0  0  0  0  0  0  0
   -5.6953    0.4757    2.8157 H   0  0  0  0  0  0  0  0  0  0  0  0
   -5.6268   -1.0285   -1.2608 H   0  0  0  0  0  0  0  0  0  0  0  0
   -7.0402   -1.2154   -0.2225 H   0  0  0  0  0  0  0  0  0  0  0  0
   -5.5769   -2.1606    0.0958 H   0  0  0  0  0  0  0  0  0  0  0  0
   -5.5539    2.1210    0.8281 H   0  0  0  0  0  0  0  0  0  0  0  0
   -5.6133    1.5047   -0.8275 H   0  0  0  0  0  0  0  0  0  0  0  0
   -7.0265    1.3506    0.2164 H   0  0  0  0  0  0  0  0  0  0  0  0
    0.4378   -0.0835    0.6479 H   0  0  0  0  0  0  0  0  0  0  0  0
    1.9600   -0.5260   -2.1769 H   0  0  0  0  0  0  0  0  0  0  0  0
    1.9693    1.2576   -1.8716 H   0  0  0  0  0  0  0  0  0  0  0  0
    3.5774   -0.3216    1.9430 H   0  0  0  0  0  0  0  0  0  0  0  0
    6.0498   -0.3874    2.2549 H   0  0  0  0  0  0  0  0  0  0  0  0
    4.1487    0.4013   -2.2967 H   0  0  0  0  0  0  0  0  0  0  0  0
    8.6175   -0.6374   -1.6399 H   0  0  0  0  0  0  0  0  0  0  0  0
    8.6263    1.1187   -1.3393 H   0  0  0  0  0  0  0  0  0  0  0  0
  1  2  1  0
  2  3  1  0
  2  4  1  0
  2  5  1  0
  5  6  2  0
  6  7  1  0
  7  8  2  0
  8  9  1  0
  9 10  1  0
 10 11  2  0
 10 12  1  0
 12 13  1  0
 13 14  1  0
 14 15  2  0
 15 16  1  0
 16 17  2  0
 17 18  1  0
 18 19  2  0
 18 20  1  0
 20 21  1  0
 21 22  1  0
  8 23  1  0
 23  5  1  0
 19 14  1  0
 22 17  1  0
  1 24  1  0
  1 25  1  0
  1 26  1  0
  3 27  1  0
  3 28  1  0
  3 29  1  0
  4 30  1  0
  4 31  1  0
  4 32  1  0
  9 33  1  0
 12 34  1  0
 12 35  1  0
 15 36  1  0
 16 37  1  0
 19 38  1  0
 21 39  1  0
 21 40  1  0
M  END
$$$$
