
     RDKit          3D

 45 47  0  0  0  0  0  0  0  0999 V2000
    4.4533    1.6302   -2.1986 C   0  0  0  0  0  0  0  0  0  0  0  0
    5.6073    2.0794   -1.3172 C   0  0  0  0  0  0  0  0  0  0  0  0
    5.4350    1.7497    0.1696 C   0  0  0  0  0  0  0  0  0  0  0  0
    5.7205    0.2946    0.5540 C   0  0  0  0  0  0  0  0  0  0  0  0
    4.6376   -0.6676    0.1920 C   0  0  0  0  0  0  0  0  0  0  0  0
    4.7370   -1.5904   -0.7432 N   0  0  0  0  0  0  0  0  0  0  0  0
    3.5849   -2.3421   -0.8518 N   0  0  0  0  0  0  0  0  0  0  0  0
    2.6693   -1.9754    0.0169 C   0  0  0  0  0  0  0  0  0  0  0  0
    1.4439   -2.5909    0.0757 N   0  0  0  0  0  0  0  0  0  0  0  0
    0.4155   -2.3085    0.9532 C   0  0  0  0  0  0  0  0  0  0  0  0
    0.4309   -1.4703    1.8474 O   0  0  0  0  0  0  0  0  0  0  0  0
   -0.8123   -3.1975    0.6855 C   0  0  0  0  0  0  0  0  0  0  0  0
   -1.9794   -2.9003    1.4320 O   0  0  0  0  0  0  0  0  0  0  0  0
   -2.7409   -1.8331    1.0479 C   0  0  0  0  0  0  0  0  0  0  0  0
   -3.8853   -1.6289    1.8241 C   0  0  0  0  0  0  0  0  0  0  0  0
   -4.7657   -0.5731    1.5530 C   0  0  0  0  0  0  0  0  0  0  0  0
   -4.5171    0.3041    0.4939 C   0  0  0  0  0  0  0  0  0  0  0  0
   -5.3896    1.4343    0.1491 C   0  0  0  0  0  0  0  0  0  0  0  0
   -6.6283    1.7039    0.9509 C   0  0  0  0  0  0  0  0  0  0  0  0
   -5.0465    2.2086   -0.8909 C   0  0  0  0  0  0  0  0  0  0  0  0
   -3.8433    1.9861   -1.7070 C   0  0  0  0  0  0  0  0  0  0  0  0
   -3.5826    2.7216   -2.6521 O   0  0  0  0  0  0  0  0  0  0  0  0
   -3.0390    0.9162   -1.3566 O   0  0  0  0  0  0  0  0  0  0  0  0
   -3.3686    0.0827   -0.2682 C   0  0  0  0  0  0  0  0  0  0  0  0
   -2.4802   -0.9663   -0.0079 C   0  0  0  0  0  0  0  0  0  0  0  0
    3.1367   -0.6902    1.0289 S   0  0  0  0  0  0  0  0  0  0  0  0
    3.4925    1.9660   -1.7962 H   0  0  0  0  0  0  0  0  0  0  0  0
    4.4262    0.5445   -2.3094 H   0  0  0  0  0  0  0  0  0  0  0  0
    4.5644    2.0541   -3.2022 H   0  0  0  0  0  0  0  0  0  0  0  0
    5.6920    3.1694   -1.4111 H   0  0  0  0  0  0  0  0  0  0  0  0
    6.5473    1.6605   -1.6943 H   0  0  0  0  0  0  0  0  0  0  0  0
    6.1563    2.3705    0.7177 H   0  0  0  0  0  0  0  0  0  0  0  0
    4.4421    2.0646    0.5118 H   0  0  0  0  0  0  0  0  0  0  0  0
    6.6624   -0.0299    0.0949 H   0  0  0  0  0  0  0  0  0  0  0  0
    5.8806    0.2437    1.6389 H   0  0  0  0  0  0  0  0  0  0  0  0
    1.3422   -3.3288   -0.6081 H   0  0  0  0  0  0  0  0  0  0  0  0
   -0.5180   -4.2143    0.9737 H   0  0  0  0  0  0  0  0  0  0  0  0
   -1.0316   -3.2372   -0.3888 H   0  0  0  0  0  0  0  0  0  0  0  0
   -4.0938   -2.2975    2.6570 H   0  0  0  0  0  0  0  0  0  0  0  0
   -5.6379   -0.4587    2.1909 H   0  0  0  0  0  0  0  0  0  0  0  0
   -7.3138    0.8509    0.9067 H   0  0  0  0  0  0  0  0  0  0  0  0
   -7.1740    2.5771    0.5760 H   0  0  0  0  0  0  0  0  0  0  0  0
   -6.3780    1.9043    1.9982 H   0  0  0  0  0  0  0  0  0  0  0  0
   -5.6463    3.0585   -1.1966 H   0  0  0  0  0  0  0  0  0  0  0  0
   -1.6057   -1.0604   -0.6400 H   0  0  0  0  0  0  0  0  0  0  0  0
  1  2  1  0
  2  3  1  0
  3  4  1  0
  4  5  1  0
  5  6  2  0
  6  7  1  0
  7  8  2  0
  8  9  1  0
  9 10  1  0
 10 11  2  0
 10 12  1  0
 12 13  1  0
 13 14  1  0
 14 15  2  0
 15 16  1  0
 16 17  2  0
 17 18  1  0
 18 19  1  0
 18 20  2  0
 20 21  1  0
 21 22  2  0
 21 23  1  0
 23 24  1  0
 24 25  2  0
  8 26  1  0
 26  5  1  0
 25 14  1  0
 24 17  1  0
  1 27  1  0
  1 28  1  0
  1 29  1  0
  2 30  1  0
  2 31  1  0
  3 32  1  0
  3 33  1  0
  4 34  1  0
  4 35  1  0
  9 36  1  0
 12 37  1  0
 12 38  1  0
 15 39  1  0
 16 40  1  0
 19 41  1  0
 19 42  1  0
 19 43  1  0
 20 44  1  0
 25 45  1  0
M  END
$$$$
