
     RDKit          3D

 43 45  0  0  0  0  0  0  0  0999 V2000
   -5.8896   -2.2525    0.6301 C   0  0  0  0  0  0  0  0  0  0  0  0
   -5.0451   -1.1859    1.1639 N   0  0  0  0  0  0  0  0  0  0  0  0
   -5.5259   -0.5516    2.3897 C   0  0  0  0  0  0  0  0  0  0  0  0
   -4.2445   -0.4472    0.2843 C   0  0  0  0  0  0  0  0  0  0  0  0
   -3.9720   -0.8838   -1.0252 C   0  0  0  0  0  0  0  0  0  0  0  0
   -3.1567   -0.1569   -1.9061 C   0  0  0  0  0  0  0  0  0  0  0  0
   -2.5711    1.0372   -1.4977 C   0  0  0  0  0  0  0  0  0  0  0  0
   -1.7209    1.7930   -2.4184 C   0  0  0  0  0  0  0  0  0  0  0  0
   -0.3788    1.8446   -2.3943 C   0  0  0  0  0  0  0  0  0  0  0  0
    0.4877    1.1448   -1.4623 C   0  0  0  0  0  0  0  0  0  0  0  0
    1.8268    1.2102   -1.4142 C   0  0  0  0  0  0  0  0  0  0  0  0
    2.8687    2.1206   -2.4214 S   0  0  0  0  0  0  0  0  0  0  0  0
    4.3136    1.6352   -1.5318 C   0  0  0  0  0  0  0  0  0  0  0  0
    5.7747    2.3789   -1.8769 S   0  0  0  0  0  0  0  0  0  0  0  0
    3.9799    0.7004   -0.5567 N   0  0  0  0  0  0  0  0  0  0  0  0
    4.9269    0.0292    0.2886 C   0  0  0  0  0  0  0  0  0  0  0  0
    6.1474   -0.4510   -0.2108 C   0  0  0  0  0  0  0  0  0  0  0  0
    7.0599   -1.1111    0.6196 C   0  0  0  0  0  0  0  0  0  0  0  0
    6.7636   -1.3126    1.9634 C   0  0  0  0  0  0  0  0  0  0  0  0
    5.5517   -0.8621    2.4753 C   0  0  0  0  0  0  0  0  0  0  0  0
    4.6405   -0.2026    1.6440 C   0  0  0  0  0  0  0  0  0  0  0  0
    2.6158    0.4387   -0.4125 C   0  0  0  0  0  0  0  0  0  0  0  0
    2.0760   -0.3264    0.3782 O   0  0  0  0  0  0  0  0  0  0  0  0
   -2.8080    1.4921   -0.2036 C   0  0  0  0  0  0  0  0  0  0  0  0
   -3.6250    0.7563    0.6679 C   0  0  0  0  0  0  0  0  0  0  0  0
   -6.4650   -2.7400    1.4251 H   0  0  0  0  0  0  0  0  0  0  0  0
   -6.6046   -1.8600   -0.1014 H   0  0  0  0  0  0  0  0  0  0  0  0
   -5.2871   -3.0428    0.1696 H   0  0  0  0  0  0  0  0  0  0  0  0
   -6.1369    0.3293    2.1638 H   0  0  0  0  0  0  0  0  0  0  0  0
   -6.1437   -1.2396    2.9779 H   0  0  0  0  0  0  0  0  0  0  0  0
   -4.6933   -0.2660    3.0414 H   0  0  0  0  0  0  0  0  0  0  0  0
   -4.3856   -1.8143   -1.4014 H   0  0  0  0  0  0  0  0  0  0  0  0
   -2.9811   -0.5439   -2.9068 H   0  0  0  0  0  0  0  0  0  0  0  0
   -2.2621    2.3485   -3.1817 H   0  0  0  0  0  0  0  0  0  0  0  0
    0.1008    2.4613   -3.1528 H   0  0  0  0  0  0  0  0  0  0  0  0
   -0.0135    0.5006   -0.7384 H   0  0  0  0  0  0  0  0  0  0  0  0
    6.4023   -0.3662   -1.2637 H   0  0  0  0  0  0  0  0  0  0  0  0
    7.9984   -1.4769    0.2098 H   0  0  0  0  0  0  0  0  0  0  0  0
    7.4712   -1.8274    2.6082 H   0  0  0  0  0  0  0  0  0  0  0  0
    5.3093   -1.0227    3.5229 H   0  0  0  0  0  0  0  0  0  0  0  0
    3.7109    0.1452    2.0898 H   0  0  0  0  0  0  0  0  0  0  0  0
   -2.3584    2.4181    0.1462 H   0  0  0  0  0  0  0  0  0  0  0  0
   -3.7571    1.1593    1.6671 H   0  0  0  0  0  0  0  0  0  0  0  0
  1  2  1  0
  2  3  1  0
  2  4  1  0
  4  5  2  0
  5  6  1  0
  6  7  2  0
  7  8  1  0
  8  9  2  3
  9 10  1  0
 10 11  2  3
 11 12  1  0
 12 13  1  0
 13 14  2  0
 13 15  1  0
 15 16  1  0
 16 17  2  0
 17 18  1  0
 18 19  2  0
 19 20  1  0
 20 21  2  0
 15 22  1  0
 22 23  2  0
  7 24  1  0
 24 25  2  0
 25  4  1  0
 22 11  1  0
 21 16  1  0
  1 26  1  0
  1 27  1  0
  1 28  1  0
  3 29  1  0
  3 30  1  0
  3 31  1  0
  5 32  1  0
  6 33  1  0
  8 34  1  0
  9 35  1  0
 10 36  1  0
 17 37  1  0
 18 38  1  0
 19 39  1  0
 20 40  1  0
 21 41  1  0
 24 42  1  0
 25 43  1  0
M  END
$$$$
