
     RDKit          3D

 35 35  0  0  0  0  0  0  0  0999 V2000
   -3.5582    1.5538   -0.6412 C   0  0  0  0  0  0  0  0  0  0  0  0
   -3.3429    0.0582   -0.3770 C   0  0  0  0  0  0  0  0  0  0  0  0
   -4.6273   -0.7101   -0.7162 C   0  0  0  0  0  0  0  0  0  0  0  0
   -2.2215   -0.5715   -1.0928 N   0  0  0  0  0  0  0  0  0  0  0  0
   -2.0029   -0.1061   -2.4583 C   0  0  0  0  0  0  0  0  0  0  0  0
   -0.9717   -0.6492   -0.3225 C   0  0  0  0  0  0  0  0  0  0  0  0
   -0.3055    0.6709    0.0940 C   0  0  0  0  0  0  0  0  0  0  0  0
    0.9340    0.4106    0.7781 O   0  0  0  0  0  0  0  0  0  0  0  0
    2.0134    0.2501   -0.0238 C   0  0  0  0  0  0  0  0  0  0  0  0
    2.0313    0.2467   -1.2426 O   0  0  0  0  0  0  0  0  0  0  0  0
    3.1908   -0.0463    0.8091 C   0  0  0  0  0  0  0  0  0  0  0  0
    3.8494   -1.2598    0.5615 C   0  0  0  0  0  0  0  0  0  0  0  0
    4.9695   -1.6144    1.3135 C   0  0  0  0  0  0  0  0  0  0  0  0
    5.4400   -0.7559    2.3057 C   0  0  0  0  0  0  0  0  0  0  0  0
    4.7987    0.4627    2.5411 C   0  0  0  0  0  0  0  0  0  0  0  0
    3.6749    0.8259    1.7903 C   0  0  0  0  0  0  0  0  0  0  0  0
    2.9168    2.5343    2.1252 Br  0  0  0  0  0  0  0  0  0  0  0  0
   -3.8642    1.7478   -1.6749 H   0  0  0  0  0  0  0  0  0  0  0  0
   -2.6573    2.1386   -0.4377 H   0  0  0  0  0  0  0  0  0  0  0  0
   -4.3506    1.9412    0.0094 H   0  0  0  0  0  0  0  0  0  0  0  0
   -3.1935   -0.0698    0.7034 H   0  0  0  0  0  0  0  0  0  0  0  0
   -4.8953   -0.6145   -1.7739 H   0  0  0  0  0  0  0  0  0  0  0  0
   -4.5180   -1.7765   -0.4882 H   0  0  0  0  0  0  0  0  0  0  0  0
   -5.4684   -0.3329   -0.1240 H   0  0  0  0  0  0  0  0  0  0  0  0
   -1.2630   -0.7374   -2.9634 H   0  0  0  0  0  0  0  0  0  0  0  0
   -2.9208   -0.1802   -3.0509 H   0  0  0  0  0  0  0  0  0  0  0  0
   -1.6474    0.9283   -2.5030 H   0  0  0  0  0  0  0  0  0  0  0  0
   -0.2501   -1.2595   -0.8814 H   0  0  0  0  0  0  0  0  0  0  0  0
   -1.1539   -1.2415    0.5848 H   0  0  0  0  0  0  0  0  0  0  0  0
   -0.1368    1.3399   -0.7574 H   0  0  0  0  0  0  0  0  0  0  0  0
   -0.9391    1.2068    0.8074 H   0  0  0  0  0  0  0  0  0  0  0  0
    3.4880   -1.9297   -0.2167 H   0  0  0  0  0  0  0  0  0  0  0  0
    5.4763   -2.5579    1.1235 H   0  0  0  0  0  0  0  0  0  0  0  0
    6.3148   -1.0303    2.8912 H   0  0  0  0  0  0  0  0  0  0  0  0
    5.1911    1.1275    3.3076 H   0  0  0  0  0  0  0  0  0  0  0  0
  1  2  1  0
  2  3  1  0
  2  4  1  0
  4  5  1  0
  4  6  1  0
  6  7  1  0
  7  8  1  0
  8  9  1  0
  9 10  2  0
  9 11  1  0
 11 12  2  0
 12 13  1  0
 13 14  2  0
 14 15  1  0
 15 16  2  0
 16 17  1  0
 16 11  1  0
  1 18  1  0
  1 19  1  0
  1 20  1  0
  2 21  1  0
  3 22  1  0
  3 23  1  0
  3 24  1  0
  5 25  1  0
  5 26  1  0
  5 27  1  0
  6 28  1  0
  6 29  1  0
  7 30  1  0
  7 31  1  0
 12 32  1  0
 13 33  1  0
 14 34  1  0
 15 35  1  0
M  END
$$$$
