
     RDKit          3D

 15 15  0  0  0  0  0  0  0  0999 V2000
   -3.9092   -0.4885    1.8831 N   0  0  0  0  0  0  0  0  0  0  0  0
   -2.9100   -0.3890    1.3025 C   0  0  0  0  0  0  0  0  0  0  0  0
   -1.6843   -0.2686    0.5934 C   0  0  0  0  0  0  0  0  0  0  0  0
   -1.2799   -1.1912   -0.3407 C   0  0  0  0  0  0  0  0  0  0  0  0
   -0.1195   -1.1002   -1.0281 N   0  0  0  0  0  0  0  0  0  0  0  0
    0.6602   -0.0368   -0.7740 C   0  0  0  0  0  0  0  0  0  0  0  0
    1.8653    0.0551   -1.4924 N   0  0  0  0  0  0  0  0  0  0  0  0
    2.9334    0.8204   -0.9611 N   0  0  0  0  0  0  0  0  0  0  0  0
    0.3537    0.9120    0.1338 N   0  0  0  0  0  0  0  0  0  0  0  0
   -0.8166    0.7768    0.7947 C   0  0  0  0  0  0  0  0  0  0  0  0
   -1.8842   -2.0625   -0.5826 H   0  0  0  0  0  0  0  0  0  0  0  0
    2.0738   -0.8611   -1.8880 H   0  0  0  0  0  0  0  0  0  0  0  0
    2.5915    1.7767   -0.8105 H   0  0  0  0  0  0  0  0  0  0  0  0
    3.1548    0.4895   -0.0173 H   0  0  0  0  0  0  0  0  0  0  0  0
   -1.0289    1.5673    1.5106 H   0  0  0  0  0  0  0  0  0  0  0  0
  1  2  3  0
  2  3  1  0
  3  4  2  0
  4  5  1  0
  5  6  2  0
  6  7  1  0
  7  8  1  0
  6  9  1  0
  9 10  2  0
 10  3  1  0
  4 11  1  0
  7 12  1  0
  8 13  1  0
  8 14  1  0
 10 15  1  0
M  END
$$$$
