
     RDKit          3D

 51 54  0  0  0  0  0  0  0  0999 V2000
   -3.6616   -4.3510    2.2378 C   0  0  0  0  0  0  0  0  0  0  0  0
   -2.2491   -4.2903    2.0875 O   0  0  0  0  0  0  0  0  0  0  0  0
   -1.7427   -3.2862    1.3090 C   0  0  0  0  0  0  0  0  0  0  0  0
   -2.4873   -2.2629    0.7289 C   0  0  0  0  0  0  0  0  0  0  0  0
   -1.8550   -1.2862   -0.0647 C   0  0  0  0  0  0  0  0  0  0  0  0
   -2.6657   -0.2023   -0.6418 C   0  0  0  0  0  0  0  0  0  0  0  0
   -3.8820   -0.2015   -0.4591 O   0  0  0  0  0  0  0  0  0  0  0  0
   -1.9915    0.7689   -1.3638 N   0  0  0  0  0  0  0  0  0  0  0  0
   -2.7694    1.8973   -1.8551 C   0  0  0  0  0  0  0  0  0  0  0  0
   -2.8565    2.9401   -0.7939 C   0  0  0  0  0  0  0  0  0  0  0  0
   -3.6822    3.1117    0.2983 C   0  0  0  0  0  0  0  0  0  0  0  0
   -3.2610    4.3039    0.9350 C   0  0  0  0  0  0  0  0  0  0  0  0
   -2.2082    4.7828    0.1928 C   0  0  0  0  0  0  0  0  0  0  0  0
   -1.9582    3.9643   -0.8611 O   0  0  0  0  0  0  0  0  0  0  0  0
   -0.6348    0.7517   -1.6415 C   0  0  0  0  0  0  0  0  0  0  0  0
   -0.0924    1.6258   -2.3221 O   0  0  0  0  0  0  0  0  0  0  0  0
    0.0998   -0.3207   -1.1401 N   0  0  0  0  0  0  0  0  0  0  0  0
    1.5401   -0.3099   -1.4158 C   0  0  0  0  0  0  0  0  0  0  0  0
    2.3039    0.4388   -0.3234 C   0  0  0  0  0  0  0  0  0  0  0  0
    1.9325    0.4656    0.8509 O   0  0  0  0  0  0  0  0  0  0  0  0
    3.5791    1.1227   -0.6834 C   0  0  0  0  0  0  0  0  0  0  0  0
    4.0532    2.1302    0.1705 C   0  0  0  0  0  0  0  0  0  0  0  0
    5.2542    2.7872   -0.1080 C   0  0  0  0  0  0  0  0  0  0  0  0
    5.9904    2.4395   -1.2404 C   0  0  0  0  0  0  0  0  0  0  0  0
    5.5222    1.4340   -2.0859 C   0  0  0  0  0  0  0  0  0  0  0  0
    6.5281    0.9575   -3.6174 Br  0  0  0  0  0  0  0  0  0  0  0  0
    4.3222    0.7709   -1.8169 C   0  0  0  0  0  0  0  0  0  0  0  0
   -0.4827   -1.3162   -0.3093 C   0  0  0  0  0  0  0  0  0  0  0  0
    0.2631   -2.3414    0.2852 C   0  0  0  0  0  0  0  0  0  0  0  0
   -0.3591   -3.2962    1.0981 C   0  0  0  0  0  0  0  0  0  0  0  0
    0.4342   -4.2872    1.6246 O   0  0  0  0  0  0  0  0  0  0  0  0
    0.7892   -3.9610    2.9729 C   0  0  0  0  0  0  0  0  0  0  0  0
   -4.1591   -4.4686    1.2694 H   0  0  0  0  0  0  0  0  0  0  0  0
   -3.8961   -5.2336    2.8410 H   0  0  0  0  0  0  0  0  0  0  0  0
   -4.0376   -3.4725    2.7725 H   0  0  0  0  0  0  0  0  0  0  0  0
   -3.5604   -2.1917    0.8792 H   0  0  0  0  0  0  0  0  0  0  0  0
   -2.3184    2.3157   -2.7618 H   0  0  0  0  0  0  0  0  0  0  0  0
   -3.7785    1.5658   -2.1270 H   0  0  0  0  0  0  0  0  0  0  0  0
   -4.4828    2.4475    0.5969 H   0  0  0  0  0  0  0  0  0  0  0  0
   -3.6699    4.7559    1.8277 H   0  0  0  0  0  0  0  0  0  0  0  0
   -1.5625    5.6456    0.2764 H   0  0  0  0  0  0  0  0  0  0  0  0
    1.9311   -1.3256   -1.5194 H   0  0  0  0  0  0  0  0  0  0  0  0
    1.7060    0.1834   -2.3793 H   0  0  0  0  0  0  0  0  0  0  0  0
    3.4865    2.4090    1.0593 H   0  0  0  0  0  0  0  0  0  0  0  0
    5.6117    3.5694    0.5583 H   0  0  0  0  0  0  0  0  0  0  0  0
    6.9256    2.9536   -1.4518 H   0  0  0  0  0  0  0  0  0  0  0  0
    3.9966   -0.0189   -2.4866 H   0  0  0  0  0  0  0  0  0  0  0  0
    1.3381   -2.4252    0.1639 H   0  0  0  0  0  0  0  0  0  0  0  0
   -0.0792   -3.6752    3.5835 H   0  0  0  0  0  0  0  0  0  0  0  0
    1.2380   -4.8545    3.4230 H   0  0  0  0  0  0  0  0  0  0  0  0
    1.5381   -3.1600    2.9797 H   0  0  0  0  0  0  0  0  0  0  0  0
  1  2  1  0
  2  3  1  0
  3  4  2  0
  4  5  1  0
  5  6  1  0
  6  7  2  0
  6  8  1  0
  8  9  1  0
  9 10  1  0
 10 11  2  0
 11 12  1  0
 12 13  2  0
 13 14  1  0
  8 15  1  0
 15 16  2  0
 15 17  1  0
 17 18  1  0
 18 19  1  0
 19 20  2  0
 19 21  1  0
 21 22  2  0
 22 23  1  0
 23 24  2  0
 24 25  1  0
 25 26  1  0
 25 27  2  0
 17 28  1  0
 28 29  1  0
 29 30  2  0
 30 31  1  0
 31 32  1  0
 30  3  1  0
 28  5  2  0
 14 10  1  0
 27 21  1  0
  1 33  1  0
  1 34  1  0
  1 35  1  0
  4 36  1  0
  9 37  1  0
  9 38  1  0
 11 39  1  0
 12 40  1  0
 13 41  1  0
 18 42  1  0
 18 43  1  0
 22 44  1  0
 23 45  1  0
 24 46  1  0
 27 47  1  0
 29 48  1  0
 32 49  1  0
 32 50  1  0
 32 51  1  0
M  END
$$$$
