
     RDKit          3D

 47 50  0  0  0  0  0  0  0  0999 V2000
   -5.3407   -2.3690   -2.7530 C   0  0  0  0  0  0  0  0  0  0  0  0
   -4.9059   -1.6861   -1.5767 O   0  0  0  0  0  0  0  0  0  0  0  0
   -5.8125   -1.6916   -0.5676 C   0  0  0  0  0  0  0  0  0  0  0  0
   -6.9296   -2.1806   -0.6119 O   0  0  0  0  0  0  0  0  0  0  0  0
   -5.2468   -1.0417    0.6481 C   0  0  0  0  0  0  0  0  0  0  0  0
   -5.9373   -1.2024    1.8552 C   0  0  0  0  0  0  0  0  0  0  0  0
   -5.4308   -0.6514    3.0288 C   0  0  0  0  0  0  0  0  0  0  0  0
   -4.2378    0.0718    3.0009 C   0  0  0  0  0  0  0  0  0  0  0  0
   -3.5460    0.2736    1.7921 C   0  0  0  0  0  0  0  0  0  0  0  0
   -2.3364    1.0277    1.8162 N   0  0  0  0  0  0  0  0  0  0  0  0
   -1.7047    1.2600    3.0008 N   0  0  0  0  0  0  0  0  0  0  0  0
   -0.5786    1.8895    2.7177 N   0  0  0  0  0  0  0  0  0  0  0  0
   -0.4735    2.1305    1.3771 N   0  0  0  0  0  0  0  0  0  0  0  0
   -1.5648    1.6356    0.8331 C   0  0  0  0  0  0  0  0  0  0  0  0
   -2.0144    1.9127   -0.8184 S   0  0  0  0  0  0  0  0  0  0  0  0
   -0.6099    2.8901   -1.4235 C   0  0  0  0  0  0  0  0  0  0  0  0
    0.5510    1.9811   -1.8018 C   0  0  0  0  0  0  0  0  0  0  0  0
    0.6065    1.4879   -2.9239 O   0  0  0  0  0  0  0  0  0  0  0  0
    1.4541    1.8115   -0.7763 N   0  0  0  0  0  0  0  0  0  0  0  0
    2.6369    1.1224   -0.8159 C   0  0  0  0  0  0  0  0  0  0  0  0
    3.3691    0.9786    0.2674 N   0  0  0  0  0  0  0  0  0  0  0  0
    4.5152    0.2791   -0.0501 C   0  0  0  0  0  0  0  0  0  0  0  0
    4.6350   -0.0807   -1.3754 C   0  0  0  0  0  0  0  0  0  0  0  0
    3.2764    0.4509   -2.2477 S   0  0  0  0  0  0  0  0  0  0  0  0
    5.7705   -0.8446   -1.9650 C   0  0  0  0  0  0  0  0  0  0  0  0
    6.9647   -0.8496   -0.9915 C   0  0  0  0  0  0  0  0  0  0  0  0
    6.5302   -1.1038    0.4632 C   0  0  0  0  0  0  0  0  0  0  0  0
    5.5599   -0.0227    0.9697 C   0  0  0  0  0  0  0  0  0  0  0  0
   -4.0525   -0.2987    0.6182 C   0  0  0  0  0  0  0  0  0  0  0  0
   -5.6119   -3.4020   -2.5205 H   0  0  0  0  0  0  0  0  0  0  0  0
   -4.5094   -2.3836   -3.4626 H   0  0  0  0  0  0  0  0  0  0  0  0
   -6.1819   -1.8403   -3.2114 H   0  0  0  0  0  0  0  0  0  0  0  0
   -6.8649   -1.7766    1.8877 H   0  0  0  0  0  0  0  0  0  0  0  0
   -5.9632   -0.7886    3.9677 H   0  0  0  0  0  0  0  0  0  0  0  0
   -3.8718    0.4855    3.9398 H   0  0  0  0  0  0  0  0  0  0  0  0
   -0.2956    3.6476   -0.7001 H   0  0  0  0  0  0  0  0  0  0  0  0
   -0.9211    3.4258   -2.3252 H   0  0  0  0  0  0  0  0  0  0  0  0
    1.2253    2.1423    0.1550 H   0  0  0  0  0  0  0  0  0  0  0  0
    6.0812   -0.4118   -2.9222 H   0  0  0  0  0  0  0  0  0  0  0  0
    5.4501   -1.8775   -2.1534 H   0  0  0  0  0  0  0  0  0  0  0  0
    7.4805    0.1191   -1.0423 H   0  0  0  0  0  0  0  0  0  0  0  0
    7.6866   -1.6126   -1.3069 H   0  0  0  0  0  0  0  0  0  0  0  0
    6.0461   -2.0873    0.5231 H   0  0  0  0  0  0  0  0  0  0  0  0
    7.4094   -1.1405    1.1159 H   0  0  0  0  0  0  0  0  0  0  0  0
    5.0961   -0.3480    1.9072 H   0  0  0  0  0  0  0  0  0  0  0  0
    6.1203    0.8962    1.1790 H   0  0  0  0  0  0  0  0  0  0  0  0
   -3.5232   -0.2281   -0.3250 H   0  0  0  0  0  0  0  0  0  0  0  0
  1  2  1  0
  2  3  1  0
  3  4  2  0
  3  5  1  0
  5  6  2  0
  6  7  1  0
  7  8  2  0
  8  9  1  0
  9 10  1  0
 10 11  1  0
 11 12  2  0
 12 13  1  0
 13 14  2  0
 14 15  1  0
 15 16  1  0
 16 17  1  0
 17 18  2  0
 17 19  1  0
 19 20  1  0
 20 21  2  0
 21 22  1  0
 22 23  2  0
 23 24  1  0
 23 25  1  0
 25 26  1  0
 26 27  1  0
 27 28  1  0
  9 29  2  0
 29  5  1  0
 14 10  1  0
 24 20  1  0
 28 22  1  0
  1 30  1  0
  1 31  1  0
  1 32  1  0
  6 33  1  0
  7 34  1  0
  8 35  1  0
 16 36  1  0
 16 37  1  0
 19 38  1  0
 25 39  1  0
 25 40  1  0
 26 41  1  0
 26 42  1  0
 27 43  1  0
 27 44  1  0
 28 45  1  0
 28 46  1  0
 29 47  1  0
M  END
$$$$
