
     RDKit          3D

 56 60  0  0  0  0  0  0  0  0999 V2000
   -5.5494    1.4338   -1.7316 C   0  0  0  0  0  0  0  0  0  0  0  0
   -4.1302    1.0708   -1.3955 C   0  0  0  0  0  0  0  0  0  0  0  0
   -3.1668    1.1338   -2.4161 C   0  0  0  0  0  0  0  0  0  0  0  0
   -1.8262    0.8252   -2.1659 C   0  0  0  0  0  0  0  0  0  0  0  0
   -1.4056    0.4416   -0.8867 C   0  0  0  0  0  0  0  0  0  0  0  0
   -0.0014    0.1170   -0.6171 C   0  0  0  0  0  0  0  0  0  0  0  0
    0.7094    1.1430   -0.1065 N   0  0  0  0  0  0  0  0  0  0  0  0
    2.0283    0.9730    0.2109 N   0  0  0  0  0  0  0  0  0  0  0  0
    2.6463   -0.2116    0.0192 C   0  0  0  0  0  0  0  0  0  0  0  0
    4.0065   -0.3765    0.4051 N   0  0  0  0  0  0  0  0  0  0  0  0
    4.9388    0.6394    0.7278 C   0  0  0  0  0  0  0  0  0  0  0  0
    6.0187    0.3217    1.5876 C   0  0  0  0  0  0  0  0  0  0  0  0
    7.0062    1.2627    1.9019 C   0  0  0  0  0  0  0  0  0  0  0  0
    6.9078    2.5075    1.3242 C   0  0  0  0  0  0  0  0  0  0  0  0
    5.8891    2.8201    0.4583 C   0  0  0  0  0  0  0  0  0  0  0  0
    4.9038    1.9095    0.1322 C   0  0  0  0  0  0  0  0  0  0  0  0
    5.9890    4.0901   -0.0212 O   0  0  0  0  0  0  0  0  0  0  0  0
    7.1607    4.5531    0.6788 C   0  0  0  0  0  0  0  0  0  0  0  0
    7.7705    3.5416    1.5084 O   0  0  0  0  0  0  0  0  0  0  0  0
    1.9430   -1.3104   -0.5278 C   0  0  0  0  0  0  0  0  0  0  0  0
    2.5421   -2.5707   -0.7823 C   0  0  0  0  0  0  0  0  0  0  0  0
    1.8159   -3.6381   -1.3138 C   0  0  0  0  0  0  0  0  0  0  0  0
    0.4707   -3.4763   -1.6072 C   0  0  0  0  0  0  0  0  0  0  0  0
   -0.1431   -2.2453   -1.3800 C   0  0  0  0  0  0  0  0  0  0  0  0
    0.5750   -1.1438   -0.8481 C   0  0  0  0  0  0  0  0  0  0  0  0
   -2.3609    0.3773    0.1368 C   0  0  0  0  0  0  0  0  0  0  0  0
   -3.7134    0.6685   -0.1145 C   0  0  0  0  0  0  0  0  0  0  0  0
   -4.8504    0.4829    1.2440 S   0  0  0  0  0  6  0  0  0  0  0  0
   -4.6302    1.5872    2.1476 O   0  0  0  0  0  0  0  0  0  0  0  0
   -6.1684    0.1426    0.7553 O   0  0  0  0  0  0  0  0  0  0  0  0
   -4.2939   -0.8818    2.0364 N   0  0  0  0  0  0  0  0  0  0  0  0
   -4.5022   -2.2257    1.4858 C   0  0  0  0  0  0  0  0  0  0  0  0
   -5.8399   -2.8164    1.9384 C   0  0  0  0  0  0  0  0  0  0  0  0
   -6.9043   -2.4171    1.0824 O   0  0  0  0  0  0  0  0  0  0  0  0
   -6.1659    0.5328   -1.8065 H   0  0  0  0  0  0  0  0  0  0  0  0
   -5.6076    1.9551   -2.6938 H   0  0  0  0  0  0  0  0  0  0  0  0
   -5.9654    2.1171   -0.9844 H   0  0  0  0  0  0  0  0  0  0  0  0
   -3.4517    1.4385   -3.4225 H   0  0  0  0  0  0  0  0  0  0  0  0
   -1.1041    0.9002   -2.9781 H   0  0  0  0  0  0  0  0  0  0  0  0
    4.0617   -1.1527    1.0557 H   0  0  0  0  0  0  0  0  0  0  0  0
    6.0951   -0.6710    2.0239 H   0  0  0  0  0  0  0  0  0  0  0  0
    7.8241    1.0203    2.5703 H   0  0  0  0  0  0  0  0  0  0  0  0
    4.1309    2.1893   -0.5743 H   0  0  0  0  0  0  0  0  0  0  0  0
    6.8778    5.4015    1.3128 H   0  0  0  0  0  0  0  0  0  0  0  0
    7.8975    4.8951   -0.0571 H   0  0  0  0  0  0  0  0  0  0  0  0
    3.6011   -2.7282   -0.5865 H   0  0  0  0  0  0  0  0  0  0  0  0
    2.3068   -4.5898   -1.5042 H   0  0  0  0  0  0  0  0  0  0  0  0
   -0.1014   -4.3028   -2.0214 H   0  0  0  0  0  0  0  0  0  0  0  0
   -1.1986   -2.1500   -1.6311 H   0  0  0  0  0  0  0  0  0  0  0  0
   -2.0404    0.1035    1.1415 H   0  0  0  0  0  0  0  0  0  0  0  0
   -4.1172   -0.7546    3.0323 H   0  0  0  0  0  0  0  0  0  0  0  0
   -3.6812   -2.8496    1.8573 H   0  0  0  0  0  0  0  0  0  0  0  0
   -4.4360   -2.2068    0.3922 H   0  0  0  0  0  0  0  0  0  0  0  0
   -6.0880   -2.5307    2.9657 H   0  0  0  0  0  0  0  0  0  0  0  0
   -5.7912   -3.9092    1.8891 H   0  0  0  0  0  0  0  0  0  0  0  0
   -6.8820   -1.4367    1.0133 H   0  0  0  0  0  0  0  0  0  0  0  0
  1  2  1  0
  2  3  2  0
  3  4  1  0
  4  5  2  0
  5  6  1  0
  6  7  2  0
  7  8  1  0
  8  9  2  0
  9 10  1  0
 10 11  1  0
 11 12  2  0
 12 13  1  0
 13 14  2  0
 14 15  1  0
 15 16  2  0
 15 17  1  0
 17 18  1  0
 18 19  1  0
  9 20  1  0
 20 21  2  0
 21 22  1  0
 22 23  2  0
 23 24  1  0
 24 25  2  0
  5 26  1  0
 26 27  2  0
 27 28  1  0
 28 29  2  0
 28 30  2  0
 28 31  1  0
 31 32  1  0
 32 33  1  0
 33 34  1  0
 27  2  1  0
 25  6  1  0
 16 11  1  0
 25 20  1  0
 19 14  1  0
  1 35  1  0
  1 36  1  0
  1 37  1  0
  3 38  1  0
  4 39  1  0
 10 40  1  0
 12 41  1  0
 13 42  1  0
 16 43  1  0
 18 44  1  0
 18 45  1  0
 21 46  1  0
 22 47  1  0
 23 48  1  0
 24 49  1  0
 26 50  1  0
 31 51  1  0
 32 52  1  0
 32 53  1  0
 33 54  1  0
 33 55  1  0
 34 56  1  0
M  END
$$$$
