
     RDKit          3D

 40 42  0  0  0  0  0  0  0  0999 V2000
   -6.1512    0.9732    1.4621 C   0  0  0  0  0  0  0  0  0  0  0  0
   -5.4584    0.0129    0.4742 C   0  0  0  0  0  0  0  0  0  0  0  0
   -5.8465   -1.4227    0.8718 C   0  0  0  0  0  0  0  0  0  0  0  0
   -5.9816    0.3054   -0.9435 C   0  0  0  0  0  0  0  0  0  0  0  0
   -3.9535    0.2491    0.5053 C   0  0  0  0  0  0  0  0  0  0  0  0
   -3.3917    1.4127    0.7744 N   0  0  0  0  0  0  0  0  0  0  0  0
   -2.0142    1.3640    0.6919 N   0  0  0  0  0  0  0  0  0  0  0  0
   -1.5765    0.1742    0.3516 C   0  0  0  0  0  0  0  0  0  0  0  0
   -0.2435   -0.0979    0.1985 N   0  0  0  0  0  0  0  0  0  0  0  0
    0.3298   -1.2904   -0.1802 C   0  0  0  0  0  0  0  0  0  0  0  0
   -0.2470   -2.3485   -0.4107 O   0  0  0  0  0  0  0  0  0  0  0  0
    1.8569   -1.2133   -0.2731 C   0  0  0  0  0  0  0  0  0  0  0  0
    2.3163    0.1321   -0.1436 O   0  0  0  0  0  0  0  0  0  0  0  0
    3.6629    0.3348   -0.3025 C   0  0  0  0  0  0  0  0  0  0  0  0
    4.0411    1.6861   -0.4516 C   0  0  0  0  0  0  0  0  0  0  0  0
    5.3823    2.0469   -0.6174 C   0  0  0  0  0  0  0  0  0  0  0  0
    6.3173    1.0404   -0.6129 C   0  0  0  0  0  0  0  0  0  0  0  0
    5.9548   -0.2747   -0.4573 C   0  0  0  0  0  0  0  0  0  0  0  0
    4.6366   -0.6621   -0.3069 C   0  0  0  0  0  0  0  0  0  0  0  0
    7.0287   -1.1107   -0.4598 O   0  0  0  0  0  0  0  0  0  0  0  0
    8.1073   -0.1695   -0.6320 C   0  0  0  0  0  0  0  0  0  0  0  0
    7.6613    1.1990   -0.7378 O   0  0  0  0  0  0  0  0  0  0  0  0
   -2.8040   -0.9726    0.1022 S   0  0  0  0  0  0  0  0  0  0  0  0
   -5.9640    2.0220    1.2015 H   0  0  0  0  0  0  0  0  0  0  0  0
   -7.2368    0.8246    1.4588 H   0  0  0  0  0  0  0  0  0  0  0  0
   -5.7933    0.8178    2.4868 H   0  0  0  0  0  0  0  0  0  0  0  0
   -5.4715   -2.1630    0.1583 H   0  0  0  0  0  0  0  0  0  0  0  0
   -6.9371   -1.5414    0.9039 H   0  0  0  0  0  0  0  0  0  0  0  0
   -5.4564   -1.6777    1.8635 H   0  0  0  0  0  0  0  0  0  0  0  0
   -5.5237   -0.3594   -1.6825 H   0  0  0  0  0  0  0  0  0  0  0  0
   -5.7547    1.3349   -1.2432 H   0  0  0  0  0  0  0  0  0  0  0  0
   -7.0675    0.1707   -1.0052 H   0  0  0  0  0  0  0  0  0  0  0  0
    0.3708    0.6927    0.3591 H   0  0  0  0  0  0  0  0  0  0  0  0
    2.2564   -1.8333    0.5385 H   0  0  0  0  0  0  0  0  0  0  0  0
    2.1404   -1.6079   -1.2567 H   0  0  0  0  0  0  0  0  0  0  0  0
    3.2803    2.4628   -0.4439 H   0  0  0  0  0  0  0  0  0  0  0  0
    5.6770    3.0834   -0.7387 H   0  0  0  0  0  0  0  0  0  0  0  0
    4.4092   -1.7115   -0.1856 H   0  0  0  0  0  0  0  0  0  0  0  0
    8.7856   -0.2542    0.2258 H   0  0  0  0  0  0  0  0  0  0  0  0
    8.6582   -0.4267   -1.5430 H   0  0  0  0  0  0  0  0  0  0  0  0
  1  2  1  0
  2  3  1  0
  2  4  1  0
  2  5  1  0
  5  6  2  0
  6  7  1  0
  7  8  2  0
  8  9  1  0
  9 10  1  0
 10 11  2  0
 10 12  1  0
 12 13  1  0
 13 14  1  0
 14 15  2  0
 15 16  1  0
 16 17  2  0
 17 18  1  0
 18 19  2  0
 18 20  1  0
 20 21  1  0
 21 22  1  0
  8 23  1  0
 23  5  1  0
 19 14  1  0
 22 17  1  0
  1 24  1  0
  1 25  1  0
  1 26  1  0
  3 27  1  0
  3 28  1  0
  3 29  1  0
  4 30  1  0
  4 31  1  0
  4 32  1  0
  9 33  1  0
 12 34  1  0
 12 35  1  0
 15 36  1  0
 16 37  1  0
 19 38  1  0
 21 39  1  0
 21 40  1  0
M  END
$$$$
