
     RDKit          3D

 33 34  0  0  0  0  0  0  0  0999 V2000
   -2.0631    3.7264    1.6609 C   0  0  0  0  0  0  0  0  0  0  0  0
   -1.2901    2.5557    1.3965 O   0  0  0  0  0  0  0  0  0  0  0  0
   -0.3064    2.7546    0.4872 C   0  0  0  0  0  0  0  0  0  0  0  0
    0.0486    3.8058   -0.0152 O   0  0  0  0  0  0  0  0  0  0  0  0
    0.4034    1.4842    0.2990 C   0  0  0  0  0  0  0  0  0  0  0  0
    1.7425    1.4630    0.6839 C   0  0  0  0  0  0  0  0  0  0  0  0
    2.4130    0.2668    0.5816 C   0  0  0  0  0  0  0  0  0  0  0  0
    3.7323    0.2649    0.9792 O   0  0  0  0  0  0  0  0  0  0  0  0
    4.3672   -1.0008    0.8257 C   0  0  0  0  0  0  0  0  0  0  0  0
    1.8382   -0.8690    0.1377 N   0  0  0  0  0  0  0  0  0  0  0  0
    0.5376   -0.8276   -0.2511 C   0  0  0  0  0  0  0  0  0  0  0  0
   -0.2093    0.3344   -0.2060 C   0  0  0  0  0  0  0  0  0  0  0  0
   -1.5771    0.3042   -0.7369 C   0  0  0  0  0  0  0  0  0  0  0  0
   -2.1647    1.3538   -0.9781 O   0  0  0  0  0  0  0  0  0  0  0  0
   -2.1178   -0.9468   -0.9922 N   0  0  0  0  0  0  0  0  0  0  0  0
   -3.4975   -1.0016   -1.4424 C   0  0  0  0  0  0  0  0  0  0  0  0
   -1.3724   -2.1144   -1.0848 C   0  0  0  0  0  0  0  0  0  0  0  0
   -1.8678   -3.1669   -1.4917 O   0  0  0  0  0  0  0  0  0  0  0  0
   -0.0447   -2.0248   -0.7143 N   0  0  0  0  0  0  0  0  0  0  0  0
    0.8040   -3.2068   -0.7681 C   0  0  0  0  0  0  0  0  0  0  0  0
   -2.8708    3.4518    2.3449 H   0  0  0  0  0  0  0  0  0  0  0  0
   -2.5078    4.1132    0.7384 H   0  0  0  0  0  0  0  0  0  0  0  0
   -1.4443    4.4898    2.1427 H   0  0  0  0  0  0  0  0  0  0  0  0
    2.2408    2.3498    1.0621 H   0  0  0  0  0  0  0  0  0  0  0  0
    5.4053   -0.8952    1.1552 H   0  0  0  0  0  0  0  0  0  0  0  0
    3.8928   -1.7609    1.4561 H   0  0  0  0  0  0  0  0  0  0  0  0
    4.3805   -1.3132   -0.2244 H   0  0  0  0  0  0  0  0  0  0  0  0
   -4.0794   -0.1715   -1.0309 H   0  0  0  0  0  0  0  0  0  0  0  0
   -3.5078   -0.9382   -2.5352 H   0  0  0  0  0  0  0  0  0  0  0  0
   -3.9650   -1.9428   -1.1374 H   0  0  0  0  0  0  0  0  0  0  0  0
    0.2689   -4.0756   -1.1615 H   0  0  0  0  0  0  0  0  0  0  0  0
    1.6601   -3.0119   -1.4223 H   0  0  0  0  0  0  0  0  0  0  0  0
    1.1508   -3.4505    0.2415 H   0  0  0  0  0  0  0  0  0  0  0  0
  1  2  1  0
  2  3  1  0
  3  4  2  0
  3  5  1  0
  5  6  2  0
  6  7  1  0
  7  8  1  0
  8  9  1  0
  7 10  2  0
 10 11  1  0
 11 12  2  0
 12 13  1  0
 13 14  2  0
 13 15  1  0
 15 16  1  0
 15 17  1  0
 17 18  2  0
 17 19  1  0
 19 20  1  0
 12  5  1  0
 19 11  1  0
  1 21  1  0
  1 22  1  0
  1 23  1  0
  6 24  1  0
  9 25  1  0
  9 26  1  0
  9 27  1  0
 16 28  1  0
 16 29  1  0
 16 30  1  0
 20 31  1  0
 20 32  1  0
 20 33  1  0
M  END
$$$$
