
     RDKit          3D

 23 23  0  0  0  0  0  0  0  0999 V2000
   -2.1942    1.5579   -1.0534 C   0  0  0  0  0  0  0  0  0  0  0  0
   -1.6043    0.4422   -0.2314 C   0  0  0  0  0  0  0  0  0  0  0  0
   -1.1809   -0.7035   -1.0172 C   0  0  0  0  0  0  0  0  0  0  0  0
    0.0548   -1.1910   -1.2127 C   0  0  0  0  0  0  0  0  0  0  0  0
    1.2741   -0.6545   -0.7137 C   0  0  0  0  0  0  0  0  0  0  0  0
    1.6426    0.6300   -0.3248 C   0  0  0  0  0  0  0  0  0  0  0  0
    2.9986    0.5998    0.0804 C   0  0  0  0  0  0  0  0  0  0  0  0
    3.4091   -0.6951   -0.0934 C   0  0  0  0  0  0  0  0  0  0  0  0
    2.3954   -1.4498   -0.5779 O   0  0  0  0  0  0  0  0  0  0  0  0
   -1.5130    0.5455    1.1084 C   0  0  0  0  0  0  0  0  0  0  0  0
   -1.0095   -0.4432    2.0739 C   0  0  0  0  0  0  0  0  0  0  0  0
   -0.5444   -0.1516    3.1625 O   0  0  0  0  0  0  0  0  0  0  0  0
   -1.1821   -1.7184    1.7026 O   0  0  0  0  0  0  0  0  0  0  0  0
   -3.0757    1.2089   -1.6025 H   0  0  0  0  0  0  0  0  0  0  0  0
   -2.5077    2.4050   -0.4335 H   0  0  0  0  0  0  0  0  0  0  0  0
   -1.4605    1.9332   -1.7756 H   0  0  0  0  0  0  0  0  0  0  0  0
   -2.0038   -1.2309   -1.5009 H   0  0  0  0  0  0  0  0  0  0  0  0
    0.1537   -2.1026   -1.7972 H   0  0  0  0  0  0  0  0  0  0  0  0
    1.0038    1.5009   -0.3393 H   0  0  0  0  0  0  0  0  0  0  0  0
    3.5991    1.4209    0.4447 H   0  0  0  0  0  0  0  0  0  0  0  0
    4.3435   -1.2139    0.0676 H   0  0  0  0  0  0  0  0  0  0  0  0
   -1.8109    1.4686    1.5973 H   0  0  0  0  0  0  0  0  0  0  0  0
   -0.7879   -2.2316    2.4363 H   0  0  0  0  0  0  0  0  0  0  0  0
  1  2  1  0
  2  3  1  0
  3  4  2  3
  4  5  1  0
  5  6  2  0
  6  7  1  0
  7  8  2  0
  8  9  1  0
  2 10  2  3
 10 11  1  0
 11 12  2  0
 11 13  1  0
  9  5  1  0
  1 14  1  0
  1 15  1  0
  1 16  1  0
  3 17  1  0
  4 18  1  0
  6 19  1  0
  7 20  1  0
  8 21  1  0
 10 22  1  0
 13 23  1  0
M  END
$$$$
