
     RDKit          3D

 29 30  0  0  0  0  0  0  0  0999 V2000
    2.1565    2.7642   -1.7532 O   0  0  0  0  0  0  0  0  0  0  0  0
    3.0959    2.1597   -1.2512 C   0  0  0  0  0  0  0  0  0  0  0  0
    2.9073    0.8859   -0.5297 C   0  0  0  0  0  0  0  0  0  0  0  0
    4.0005    0.2875    0.1034 C   0  0  0  0  0  0  0  0  0  0  0  0
    3.8267   -0.9181    0.7844 C   0  0  0  0  0  0  0  0  0  0  0  0
    2.5653   -1.5145    0.8367 C   0  0  0  0  0  0  0  0  0  0  0  0
    1.4717   -0.9034    0.2184 C   0  0  0  0  0  0  0  0  0  0  0  0
    0.2720   -1.5770    0.2940 O   0  0  0  0  0  0  0  0  0  0  0  0
   -0.8722   -0.8264    0.4231 C   0  0  0  0  0  0  0  0  0  0  0  0
   -1.0261    0.0579    1.4984 C   0  0  0  0  0  0  0  0  0  0  0  0
   -2.2226    0.7652    1.6628 C   0  0  0  0  0  0  0  0  0  0  0  0
   -3.2795    0.5712    0.7590 C   0  0  0  0  0  0  0  0  0  0  0  0
   -4.5357    1.3113    0.9410 N   0  0  0  0  0  4  0  0  0  0  0  0
   -5.4160    1.1632    0.0830 O   0  0  0  0  0  0  0  0  0  0  0  0
   -4.6368    2.0349    1.9408 O   0  0  0  0  0  1  0  0  0  0  0  0
   -3.1522   -0.3264   -0.3078 C   0  0  0  0  0  0  0  0  0  0  0  0
   -1.9422   -1.0168   -0.4572 C   0  0  0  0  0  0  0  0  0  0  0  0
   -1.8176   -1.9498   -1.5605 N   0  0  0  0  0  4  0  0  0  0  0  0
   -0.8740   -1.7865   -2.3437 O   0  0  0  0  0  0  0  0  0  0  0  0
   -2.6935   -2.8198   -1.6547 O   0  0  0  0  0  1  0  0  0  0  0  0
    1.6430    0.2903   -0.4850 C   0  0  0  0  0  0  0  0  0  0  0  0
    4.1263    2.5488   -1.3077 H   0  0  0  0  0  0  0  0  0  0  0  0
    4.9869    0.7432    0.0690 H   0  0  0  0  0  0  0  0  0  0  0  0
    4.6733   -1.3976    1.2706 H   0  0  0  0  0  0  0  0  0  0  0  0
    2.4356   -2.4594    1.3596 H   0  0  0  0  0  0  0  0  0  0  0  0
   -0.2212    0.1956    2.2182 H   0  0  0  0  0  0  0  0  0  0  0  0
   -2.3167    1.4542    2.5014 H   0  0  0  0  0  0  0  0  0  0  0  0
   -3.9690   -0.4926   -1.0086 H   0  0  0  0  0  0  0  0  0  0  0  0
    0.8145    0.7551   -1.0130 H   0  0  0  0  0  0  0  0  0  0  0  0
  1  2  2  0
  2  3  1  0
  3  4  2  0
  4  5  1  0
  5  6  2  0
  6  7  1  0
  7  8  1  0
  8  9  1  0
  9 10  2  0
 10 11  1  0
 11 12  2  0
 12 13  1  0
 13 14  2  0
 13 15  1  0
 12 16  1  0
 16 17  2  0
 17 18  1  0
 18 19  2  0
 18 20  1  0
  7 21  2  0
 21  3  1  0
 17  9  1  0
  2 22  1  0
  4 23  1  0
  5 24  1  0
  6 25  1  0
 10 26  1  0
 11 27  1  0
 16 28  1  0
 21 29  1  0
M  CHG  4  13   1  15  -1  18   1  20  -1
M  END
$$$$
