
     RDKit          3D

 38 39  0  0  0  0  0  0  0  0999 V2000
   -4.7241    2.7983    2.3468 C   0  0  0  0  0  0  0  0  0  0  0  0
   -3.8174    2.3550    1.4660 C   0  0  0  0  0  0  0  0  0  0  0  0
   -3.9899    1.1283    0.6159 C   0  0  0  0  0  0  0  0  0  0  0  0
   -2.9083    0.1035    0.8643 C   0  0  0  0  0  0  0  0  0  0  0  0
   -3.0079   -0.7845    1.9420 C   0  0  0  0  0  0  0  0  0  0  0  0
   -2.0023   -1.7201    2.1787 C   0  0  0  0  0  0  0  0  0  0  0  0
   -0.8864   -1.7701    1.3462 C   0  0  0  0  0  0  0  0  0  0  0  0
    0.0472   -2.7226    1.6547 O   0  0  0  0  0  0  0  0  0  0  0  0
   -0.7479   -0.8926    0.2581 C   0  0  0  0  0  0  0  0  0  0  0  0
    0.4118   -0.9241   -0.6482 C   0  0  0  0  0  0  0  0  0  0  0  0
    1.3265    0.1459   -0.6387 C   0  0  0  0  0  0  0  0  0  0  0  0
    2.4544    0.1572   -1.4761 C   0  0  0  0  0  0  0  0  0  0  0  0
    3.4330    1.3070   -1.4329 C   0  0  0  0  0  0  0  0  0  0  0  0
    4.5951    1.0305   -0.5219 C   0  0  0  0  0  0  0  0  0  0  0  0
    5.8753    1.0035   -0.9158 C   0  0  0  0  0  0  0  0  0  0  0  0
    2.6765   -0.9304   -2.3292 C   0  0  0  0  0  0  0  0  0  0  0  0
    1.7819   -1.9987   -2.3554 C   0  0  0  0  0  0  0  0  0  0  0  0
    0.6622   -1.9913   -1.5266 C   0  0  0  0  0  0  0  0  0  0  0  0
   -0.1564   -3.0846   -1.6185 O   0  0  0  0  0  0  0  0  0  0  0  0
   -1.7746    0.0446    0.0366 C   0  0  0  0  0  0  0  0  0  0  0  0
   -4.5374    3.6944    2.9311 H   0  0  0  0  0  0  0  0  0  0  0  0
   -5.6650    2.2818    2.5088 H   0  0  0  0  0  0  0  0  0  0  0  0
   -2.8903    2.9110    1.3411 H   0  0  0  0  0  0  0  0  0  0  0  0
   -4.9695    0.6625    0.7836 H   0  0  0  0  0  0  0  0  0  0  0  0
   -3.9805    1.4267   -0.4399 H   0  0  0  0  0  0  0  0  0  0  0  0
   -3.8687   -0.7480    2.6063 H   0  0  0  0  0  0  0  0  0  0  0  0
   -2.0841   -2.4072    3.0168 H   0  0  0  0  0  0  0  0  0  0  0  0
    0.8174   -2.6200    1.0682 H   0  0  0  0  0  0  0  0  0  0  0  0
    1.1616    0.9811    0.0418 H   0  0  0  0  0  0  0  0  0  0  0  0
    3.7714    1.5283   -2.4533 H   0  0  0  0  0  0  0  0  0  0  0  0
    2.9212    2.2140   -1.0875 H   0  0  0  0  0  0  0  0  0  0  0  0
    4.3638    0.8485    0.5259 H   0  0  0  0  0  0  0  0  0  0  0  0
    6.6698    0.7984   -0.2045 H   0  0  0  0  0  0  0  0  0  0  0  0
    6.1604    1.1800   -1.9482 H   0  0  0  0  0  0  0  0  0  0  0  0
    3.5512   -0.9519   -2.9758 H   0  0  0  0  0  0  0  0  0  0  0  0
    1.9571   -2.8395   -3.0215 H   0  0  0  0  0  0  0  0  0  0  0  0
   -0.9351   -2.9520   -1.0497 H   0  0  0  0  0  0  0  0  0  0  0  0
   -1.6918    0.7370   -0.8010 H   0  0  0  0  0  0  0  0  0  0  0  0
  1  2  2  0
  2  3  1  0
  3  4  1  0
  4  5  2  0
  5  6  1  0
  6  7  2  0
  7  8  1  0
  7  9  1  0
  9 10  1  0
 10 11  2  0
 11 12  1  0
 12 13  1  0
 13 14  1  0
 14 15  2  0
 12 16  2  0
 16 17  1  0
 17 18  2  0
 18 19  1  0
  9 20  2  0
 20  4  1  0
 18 10  1  0
  1 21  1  0
  1 22  1  0
  2 23  1  0
  3 24  1  0
  3 25  1  0
  5 26  1  0
  6 27  1  0
  8 28  1  0
 11 29  1  0
 13 30  1  0
 13 31  1  0
 14 32  1  0
 15 33  1  0
 15 34  1  0
 16 35  1  0
 17 36  1  0
 19 37  1  0
 20 38  1  0
M  END
$$$$
