
     RDKit          3D

 30 31  0  0  0  0  0  0  0  0999 V2000
   -4.8238   -0.2935    0.4239 C   0  0  0  0  0  0  0  0  0  0  0  0
   -3.2987   -0.3619    0.3260 C   0  0  0  0  0  0  0  0  0  0  0  0
   -2.7187   -0.6592    1.7120 C   0  0  0  0  0  0  0  0  0  0  0  0
   -2.8730    0.9279   -0.1379 O   0  0  0  0  0  0  0  0  0  0  0  0
   -1.6629    1.0426   -0.7022 C   0  0  0  0  0  0  0  0  0  0  0  0
   -1.1642    2.0935   -1.0698 O   0  0  0  0  0  0  0  0  0  0  0  0
   -0.9516   -0.2724   -0.8622 C   0  0  0  0  0  0  0  0  0  0  0  0
    0.3238   -0.4514   -0.6633 N   0  0  0  0  0  0  0  0  0  0  0  0
    1.0610    0.6456   -0.3240 N   0  0  0  0  0  0  0  0  0  0  0  0
    2.4618    0.4942   -0.2081 C   0  0  0  0  0  0  0  0  0  0  0  0
    3.0771   -0.7607   -0.1126 C   0  0  0  0  0  0  0  0  0  0  0  0
    4.4587   -0.8726    0.0684 C   0  0  0  0  0  0  0  0  0  0  0  0
    5.2425    0.2730    0.1802 C   0  0  0  0  0  0  0  0  0  0  0  0
    4.6439    1.5288    0.1196 C   0  0  0  0  0  0  0  0  0  0  0  0
    3.2621    1.6368   -0.0625 C   0  0  0  0  0  0  0  0  0  0  0  0
   -1.8123   -1.4591   -1.1978 C   0  0  0  0  0  0  0  0  0  0  0  0
   -1.4587   -2.3284   -1.9727 O   0  0  0  0  0  0  0  0  0  0  0  0
   -3.0073   -1.4295   -0.5869 O   0  0  0  0  0  0  0  0  0  0  0  0
   -5.2466   -1.2446    0.7649 H   0  0  0  0  0  0  0  0  0  0  0  0
   -5.2594   -0.0811   -0.5598 H   0  0  0  0  0  0  0  0  0  0  0  0
   -5.1467    0.5065    1.0988 H   0  0  0  0  0  0  0  0  0  0  0  0
   -2.9785    0.1303    2.4254 H   0  0  0  0  0  0  0  0  0  0  0  0
   -1.6260   -0.7181    1.6911 H   0  0  0  0  0  0  0  0  0  0  0  0
   -3.0793   -1.6211    2.0919 H   0  0  0  0  0  0  0  0  0  0  0  0
    0.8002    1.5589   -0.7180 H   0  0  0  0  0  0  0  0  0  0  0  0
    2.4804   -1.6663   -0.1866 H   0  0  0  0  0  0  0  0  0  0  0  0
    4.9172   -1.8561    0.1257 H   0  0  0  0  0  0  0  0  0  0  0  0
    6.3163    0.1862    0.3223 H   0  0  0  0  0  0  0  0  0  0  0  0
    5.2496    2.4254    0.2194 H   0  0  0  0  0  0  0  0  0  0  0  0
    2.8132    2.6263   -0.0903 H   0  0  0  0  0  0  0  0  0  0  0  0
  1  2  1  0
  2  3  1  0
  2  4  1  0
  4  5  1  0
  5  6  2  0
  5  7  1  0
  7  8  2  3
  8  9  1  0
  9 10  1  0
 10 11  2  0
 11 12  1  0
 12 13  2  0
 13 14  1  0
 14 15  2  0
  7 16  1  0
 16 17  2  0
 16 18  1  0
 18  2  1  0
 15 10  1  0
  1 19  1  0
  1 20  1  0
  1 21  1  0
  3 22  1  0
  3 23  1  0
  3 24  1  0
  9 25  1  0
 11 26  1  0
 12 27  1  0
 13 28  1  0
 14 29  1  0
 15 30  1  0
M  END
$$$$
