
     RDKit          3D

 36 37  0  0  0  0  0  0  0  0999 V2000
   -2.3020   -2.3321    1.7273 C   0  0  0  0  0  0  0  0  0  0  0  0
   -3.1973   -1.2802    1.1005 C   0  0  0  0  0  0  0  0  0  0  0  0
   -2.5303   -0.6544   -0.0064 O   0  0  0  0  0  0  0  0  0  0  0  0
   -1.7237    0.3911    0.2989 C   0  0  0  0  0  0  0  0  0  0  0  0
   -1.5063    0.8219    1.4226 O   0  0  0  0  0  0  0  0  0  0  0  0
   -1.1005    0.9637   -0.9274 C   0  0  0  0  0  0  0  0  0  0  0  0
   -1.4892    0.5221   -2.2043 C   0  0  0  0  0  0  0  0  0  0  0  0
   -0.9115    1.0711   -3.3506 C   0  0  0  0  0  0  0  0  0  0  0  0
    0.0529    2.0677   -3.2344 C   0  0  0  0  0  0  0  0  0  0  0  0
    0.4461    2.5156   -1.9731 C   0  0  0  0  0  0  0  0  0  0  0  0
   -0.1170    1.9674   -0.8157 C   0  0  0  0  0  0  0  0  0  0  0  0
    0.3425    2.4411    0.4600 N   0  0  0  0  0  0  0  0  0  0  0  0
    1.9327    2.0897    0.9353 S   0  0  0  0  0  6  0  0  0  0  0  0
    2.8634    2.6311   -0.0303 O   0  0  0  0  0  0  0  0  0  0  0  0
    2.0242    2.4775    2.3291 O   0  0  0  0  0  0  0  0  0  0  0  0
    1.9998    0.3250    0.8846 C   0  0  0  0  0  0  0  0  0  0  0  0
    1.6739   -0.4097    2.0318 C   0  0  0  0  0  0  0  0  0  0  0  0
    1.7497   -1.8036    2.0070 C   0  0  0  0  0  0  0  0  0  0  0  0
    2.1551   -2.4606    0.8450 C   0  0  0  0  0  0  0  0  0  0  0  0
    2.4895   -1.7231   -0.2911 C   0  0  0  0  0  0  0  0  0  0  0  0
    2.4172   -0.3316   -0.2657 C   0  0  0  0  0  0  0  0  0  0  0  0
    2.7307    0.3328   -1.3844 F   0  0  0  0  0  0  0  0  0  0  0  0
   -2.8314   -2.8705    2.5183 H   0  0  0  0  0  0  0  0  0  0  0  0
   -1.9645   -3.0508    0.9734 H   0  0  0  0  0  0  0  0  0  0  0  0
   -1.4056   -1.8763    2.1579 H   0  0  0  0  0  0  0  0  0  0  0  0
   -3.5229   -0.5380    1.8385 H   0  0  0  0  0  0  0  0  0  0  0  0
   -4.0995   -1.7552    0.7015 H   0  0  0  0  0  0  0  0  0  0  0  0
   -2.2464   -0.2493   -2.3255 H   0  0  0  0  0  0  0  0  0  0  0  0
   -1.2166    0.7233   -4.3351 H   0  0  0  0  0  0  0  0  0  0  0  0
    0.5050    2.4986   -4.1250 H   0  0  0  0  0  0  0  0  0  0  0  0
    1.1998    3.2978   -1.9018 H   0  0  0  0  0  0  0  0  0  0  0  0
   -0.2973    2.2512    1.2447 H   0  0  0  0  0  0  0  0  0  0  0  0
    1.3582    0.0937    2.9442 H   0  0  0  0  0  0  0  0  0  0  0  0
    1.4948   -2.3765    2.8961 H   0  0  0  0  0  0  0  0  0  0  0  0
    2.2160   -3.5463    0.8264 H   0  0  0  0  0  0  0  0  0  0  0  0
    2.8105   -2.2241   -1.1999 H   0  0  0  0  0  0  0  0  0  0  0  0
  1  2  1  0
  2  3  1  0
  3  4  1  0
  4  5  2  0
  4  6  1  0
  6  7  2  0
  7  8  1  0
  8  9  2  0
  9 10  1  0
 10 11  2  0
 11 12  1  0
 12 13  1  0
 13 14  2  0
 13 15  2  0
 13 16  1  0
 16 17  2  0
 17 18  1  0
 18 19  2  0
 19 20  1  0
 20 21  2  0
 21 22  1  0
 11  6  1  0
 21 16  1  0
  1 23  1  0
  1 24  1  0
  1 25  1  0
  2 26  1  0
  2 27  1  0
  7 28  1  0
  8 29  1  0
  9 30  1  0
 10 31  1  0
 12 32  1  0
 17 33  1  0
 18 34  1  0
 19 35  1  0
 20 36  1  0
M  END
$$$$
