
     RDKit          3D

 52 56  0  0  0  0  0  0  0  0999 V2000
    3.7325    0.8989   -2.3520 C   0  0  0  0  0  0  0  0  0  0  0  0
    3.5236   -0.0447   -1.1852 C   0  0  0  0  0  0  0  0  0  0  0  0
    2.4166   -0.1265   -0.5055 N   0  0  0  0  0  0  0  0  0  0  0  0
    1.3823    0.7005   -0.8189 N   0  0  0  0  0  0  0  0  0  0  0  0
    0.1746    0.6107   -0.1416 C   0  0  0  0  0  0  0  0  0  0  0  0
   -0.0860   -0.2014    0.7408 O   0  0  0  0  0  0  0  0  0  0  0  0
   -0.7860    1.6168   -0.5921 C   0  0  0  0  0  0  0  0  0  0  0  0
   -0.4699    2.5534   -1.5396 N   0  0  0  0  0  0  0  0  0  0  0  0
   -1.5311    3.3126   -1.7411 N   0  0  0  0  0  0  0  0  0  0  0  0
   -2.5520    2.8880   -0.9355 N   0  0  0  0  0  0  0  0  0  0  0  0
   -3.8182    3.5280   -0.9611 C   0  0  0  0  0  0  0  0  0  0  0  0
   -4.8234    3.1121   -0.1907 N   0  0  0  0  0  0  0  0  0  0  0  0
   -5.8765    3.9661   -0.5116 O   0  0  0  0  0  0  0  0  0  0  0  0
   -5.4958    4.8984   -1.4702 N   0  0  0  0  0  0  0  0  0  0  0  0
   -4.2194    4.6298   -1.7417 C   0  0  0  0  0  0  0  0  0  0  0  0
   -3.4706    5.3219   -2.6217 N   0  0  0  0  0  0  0  0  0  0  0  0
   -2.1001    1.8034   -0.1866 C   0  0  0  0  0  0  0  0  0  0  0  0
   -2.9046    1.0368    0.7998 C   0  0  0  0  0  0  0  0  0  0  0  0
   -3.8239   -0.2866   -0.0562 S   0  0  0  0  0  0  0  0  0  0  0  0
   -4.4324   -1.1675    1.3672 C   0  0  0  0  0  0  0  0  0  0  0  0
   -3.5617   -1.9019    2.1788 C   0  0  0  0  0  0  0  0  0  0  0  0
   -4.0506   -2.5921    3.2896 C   0  0  0  0  0  0  0  0  0  0  0  0
   -5.4117   -2.5567    3.5894 C   0  0  0  0  0  0  0  0  0  0  0  0
   -6.2854   -1.8351    2.7770 C   0  0  0  0  0  0  0  0  0  0  0  0
   -5.7974   -1.1444    1.6657 C   0  0  0  0  0  0  0  0  0  0  0  0
    4.6548   -0.9397   -0.7918 C   0  0  0  0  0  0  0  0  0  0  0  0
    5.9979   -0.5359   -0.9567 C   0  0  0  0  0  0  0  0  0  0  0  0
    7.0469   -1.3819   -0.5786 C   0  0  0  0  0  0  0  0  0  0  0  0
    6.7211   -2.6069   -0.0380 C   0  0  0  0  0  0  0  0  0  0  0  0
    5.4145   -2.9980    0.1359 C   0  0  0  0  0  0  0  0  0  0  0  0
    4.3586   -2.1885   -0.2246 C   0  0  0  0  0  0  0  0  0  0  0  0
    5.3145   -4.2367    0.6880 O   0  0  0  0  0  0  0  0  0  0  0  0
    6.7066   -4.5767    0.8509 C   0  0  0  0  0  0  0  0  0  0  0  0
    7.6059   -3.5488    0.3839 O   0  0  0  0  0  0  0  0  0  0  0  0
    4.6257    0.6511   -2.9298 H   0  0  0  0  0  0  0  0  0  0  0  0
    3.8181    1.9232   -1.9788 H   0  0  0  0  0  0  0  0  0  0  0  0
    2.8845    0.8316   -3.0404 H   0  0  0  0  0  0  0  0  0  0  0  0
    1.4884    1.4269   -1.5187 H   0  0  0  0  0  0  0  0  0  0  0  0
   -2.5749    4.9617   -2.9467 H   0  0  0  0  0  0  0  0  0  0  0  0
   -3.9334    5.9478   -3.2726 H   0  0  0  0  0  0  0  0  0  0  0  0
   -2.2457    0.5941    1.5524 H   0  0  0  0  0  0  0  0  0  0  0  0
   -3.5935    1.6724    1.3615 H   0  0  0  0  0  0  0  0  0  0  0  0
   -2.4981   -1.9471    1.9506 H   0  0  0  0  0  0  0  0  0  0  0  0
   -3.3684   -3.1604    3.9167 H   0  0  0  0  0  0  0  0  0  0  0  0
   -5.7920   -3.0962    4.4530 H   0  0  0  0  0  0  0  0  0  0  0  0
   -7.3476   -1.8121    3.0061 H   0  0  0  0  0  0  0  0  0  0  0  0
   -6.4897   -0.5887    1.0377 H   0  0  0  0  0  0  0  0  0  0  0  0
    6.2434    0.4438   -1.3576 H   0  0  0  0  0  0  0  0  0  0  0  0
    8.0828   -1.0837   -0.6974 H   0  0  0  0  0  0  0  0  0  0  0  0
    3.3350   -2.5158   -0.0707 H   0  0  0  0  0  0  0  0  0  0  0  0
    6.9021   -4.7571    1.9143 H   0  0  0  0  0  0  0  0  0  0  0  0
    6.9099   -5.4989    0.2945 H   0  0  0  0  0  0  0  0  0  0  0  0
  1  2  1  0
  2  3  2  3
  3  4  1  0
  4  5  1  0
  5  6  2  0
  5  7  1  0
  7  8  1  0
  8  9  2  0
  9 10  1  0
 10 11  1  0
 11 12  2  0
 12 13  1  0
 13 14  1  0
 14 15  2  0
 15 16  1  0
 10 17  1  0
 17 18  1  0
 18 19  1  0
 19 20  1  0
 20 21  2  0
 21 22  1  0
 22 23  2  0
 23 24  1  0
 24 25  2  0
  2 26  1  0
 26 27  2  0
 27 28  1  0
 28 29  2  0
 29 30  1  0
 30 31  2  0
 30 32  1  0
 32 33  1  0
 33 34  1  0
 17  7  2  0
 25 20  1  0
 31 26  1  0
 15 11  1  0
 34 29  1  0
  1 35  1  0
  1 36  1  0
  1 37  1  0
  4 38  1  0
 16 39  1  0
 16 40  1  0
 18 41  1  0
 18 42  1  0
 21 43  1  0
 22 44  1  0
 23 45  1  0
 24 46  1  0
 25 47  1  0
 27 48  1  0
 28 49  1  0
 31 50  1  0
 33 51  1  0
 33 52  1  0
M  END
$$$$
