
     RDKit          3D

 34 35  0  0  0  0  0  0  0  0999 V2000
   -2.9617   -1.2976    1.6068 C   0  0  0  0  0  0  0  0  0  0  0  0
   -3.4495   -0.4864    0.4361 C   0  0  0  0  0  0  0  0  0  0  0  0
   -4.8027   -0.5991    0.0680 C   0  0  0  0  0  0  0  0  0  0  0  0
   -5.3148    0.1271   -1.0044 C   0  0  0  0  0  0  0  0  0  0  0  0
   -4.4777    0.9648   -1.7297 C   0  0  0  0  0  0  0  0  0  0  0  0
   -3.1308    1.0849   -1.3779 C   0  0  0  0  0  0  0  0  0  0  0  0
   -2.6036    0.3848   -0.2864 C   0  0  0  0  0  0  0  0  0  0  0  0
   -1.2334    0.4590    0.0669 N   0  0  0  0  0  0  0  0  0  0  0  0
   -0.3023    1.4472   -0.1405 C   0  0  0  0  0  0  0  0  0  0  0  0
   -0.5473    3.0562   -0.5141 S   0  0  0  0  0  0  0  0  0  0  0  0
    0.9992    1.0523    0.0269 N   0  0  0  0  0  0  0  0  0  0  0  0
    1.5059   -0.3068    0.0247 C   0  0  0  0  0  0  0  0  0  0  0  0
    3.0082   -0.3222    0.0915 C   0  0  0  0  0  0  0  0  0  0  0  0
    3.6664   -0.1539    1.3183 C   0  0  0  0  0  0  0  0  0  0  0  0
    5.0607   -0.1439    1.3777 C   0  0  0  0  0  0  0  0  0  0  0  0
    5.8098   -0.2939    0.2122 C   0  0  0  0  0  0  0  0  0  0  0  0
    5.1663   -0.4495   -1.0141 C   0  0  0  0  0  0  0  0  0  0  0  0
    3.7719   -0.4596   -1.0760 C   0  0  0  0  0  0  0  0  0  0  0  0
   -3.7764   -1.8563    2.0798 H   0  0  0  0  0  0  0  0  0  0  0  0
   -2.5307   -0.6430    2.3712 H   0  0  0  0  0  0  0  0  0  0  0  0
   -2.2117   -2.0242    1.2781 H   0  0  0  0  0  0  0  0  0  0  0  0
   -5.4708   -1.2568    0.6202 H   0  0  0  0  0  0  0  0  0  0  0  0
   -6.3623    0.0326   -1.2778 H   0  0  0  0  0  0  0  0  0  0  0  0
   -4.8650    1.5217   -2.5790 H   0  0  0  0  0  0  0  0  0  0  0  0
   -2.5052    1.7105   -2.0056 H   0  0  0  0  0  0  0  0  0  0  0  0
   -0.9358   -0.2216    0.7485 H   0  0  0  0  0  0  0  0  0  0  0  0
    1.6714    1.7831   -0.1837 H   0  0  0  0  0  0  0  0  0  0  0  0
    1.1451   -0.8106   -0.8796 H   0  0  0  0  0  0  0  0  0  0  0  0
    1.0875   -0.8459    0.8821 H   0  0  0  0  0  0  0  0  0  0  0  0
    3.0941   -0.0237    2.2344 H   0  0  0  0  0  0  0  0  0  0  0  0
    5.5630   -0.0140    2.3330 H   0  0  0  0  0  0  0  0  0  0  0  0
    6.8957   -0.2837    0.2589 H   0  0  0  0  0  0  0  0  0  0  0  0
    5.7512   -0.5589   -1.9239 H   0  0  0  0  0  0  0  0  0  0  0  0
    3.2850   -0.5724   -2.0425 H   0  0  0  0  0  0  0  0  0  0  0  0
  1  2  1  0
  2  3  2  0
  3  4  1  0
  4  5  2  0
  5  6  1  0
  6  7  2  0
  7  8  1  0
  8  9  1  0
  9 10  2  0
  9 11  1  0
 11 12  1  0
 12 13  1  0
 13 14  2  0
 14 15  1  0
 15 16  2  0
 16 17  1  0
 17 18  2  0
  7  2  1  0
 18 13  1  0
  1 19  1  0
  1 20  1  0
  1 21  1  0
  3 22  1  0
  4 23  1  0
  5 24  1  0
  6 25  1  0
  8 26  1  0
 11 27  1  0
 12 28  1  0
 12 29  1  0
 14 30  1  0
 15 31  1  0
 16 32  1  0
 17 33  1  0
 18 34  1  0
M  END
$$$$
