
     RDKit          3D

 34 34  0  0  0  0  0  0  0  0999 V2000
    4.7077    0.0396   -1.8891 C   0  0  0  0  0  0  0  0  0  0  0  0
    4.0642    1.0244   -0.9256 C   0  0  0  0  0  0  0  0  0  0  0  0
    4.1927    0.6123    0.5439 C   0  0  0  0  0  0  0  0  0  0  0  0
    3.5053   -0.7068    0.8940 C   0  0  0  0  0  0  0  0  0  0  0  0
    2.1296   -0.7009    0.4853 O   0  0  0  0  0  0  0  0  0  0  0  0
    1.2562   -0.1439    1.3609 C   0  0  0  0  0  0  0  0  0  0  0  0
    1.5367    0.3348    2.4478 O   0  0  0  0  0  0  0  0  0  0  0  0
   -0.1270   -0.1863    0.8123 C   0  0  0  0  0  0  0  0  0  0  0  0
   -1.1680    0.3252    1.5947 C   0  0  0  0  0  0  0  0  0  0  0  0
   -2.4874    0.3107    1.1240 C   0  0  0  0  0  0  0  0  0  0  0  0
   -2.7856   -0.2143   -0.1343 C   0  0  0  0  0  0  0  0  0  0  0  0
   -4.0840   -0.2653   -0.6815 N   0  0  0  0  0  0  0  0  0  0  0  0
   -5.2619    0.1640   -0.0964 C   0  0  0  0  0  0  0  0  0  0  0  0
   -6.4568   -0.0585   -0.9902 C   0  0  0  0  0  0  0  0  0  0  0  0
   -5.3971    0.6511    1.0199 O   0  0  0  0  0  0  0  0  0  0  0  0
   -1.7417   -0.7246   -0.9172 C   0  0  0  0  0  0  0  0  0  0  0  0
   -0.4216   -0.7122   -0.4504 C   0  0  0  0  0  0  0  0  0  0  0  0
    4.6715    0.4345   -2.9095 H   0  0  0  0  0  0  0  0  0  0  0  0
    5.7568   -0.1350   -1.6304 H   0  0  0  0  0  0  0  0  0  0  0  0
    4.1853   -0.9215   -1.8878 H   0  0  0  0  0  0  0  0  0  0  0  0
    3.0092    1.1574   -1.1914 H   0  0  0  0  0  0  0  0  0  0  0  0
    4.5442    2.0021   -1.0534 H   0  0  0  0  0  0  0  0  0  0  0  0
    3.7546    1.4141    1.1504 H   0  0  0  0  0  0  0  0  0  0  0  0
    5.2520    0.5488    0.8191 H   0  0  0  0  0  0  0  0  0  0  0  0
    3.5938   -0.9189    1.9665 H   0  0  0  0  0  0  0  0  0  0  0  0
    3.9906   -1.5405    0.3762 H   0  0  0  0  0  0  0  0  0  0  0  0
   -0.9624    0.7409    2.5800 H   0  0  0  0  0  0  0  0  0  0  0  0
   -3.2576    0.7207    1.7706 H   0  0  0  0  0  0  0  0  0  0  0  0
   -4.1596   -0.6709   -1.6057 H   0  0  0  0  0  0  0  0  0  0  0  0
   -7.2574    0.6298   -0.7041 H   0  0  0  0  0  0  0  0  0  0  0  0
   -6.8058   -1.0883   -0.8785 H   0  0  0  0  0  0  0  0  0  0  0  0
   -6.2036    0.1334   -2.0369 H   0  0  0  0  0  0  0  0  0  0  0  0
   -1.9367   -1.1403   -1.9027 H   0  0  0  0  0  0  0  0  0  0  0  0
    0.3637   -1.1157   -1.0849 H   0  0  0  0  0  0  0  0  0  0  0  0
  1  2  1  0
  2  3  1  0
  3  4  1  0
  4  5  1  0
  5  6  1  0
  6  7  2  0
  6  8  1  0
  8  9  2  0
  9 10  1  0
 10 11  2  0
 11 12  1  0
 12 13  1  0
 13 14  1  0
 13 15  2  0
 11 16  1  0
 16 17  2  0
 17  8  1  0
  1 18  1  0
  1 19  1  0
  1 20  1  0
  2 21  1  0
  2 22  1  0
  3 23  1  0
  3 24  1  0
  4 25  1  0
  4 26  1  0
  9 27  1  0
 10 28  1  0
 12 29  1  0
 14 30  1  0
 14 31  1  0
 14 32  1  0
 16 33  1  0
 17 34  1  0
M  END
$$$$
