
     RDKit          3D

 43 45  0  0  0  0  0  0  0  0999 V2000
    7.4149   -2.2162   -1.5246 O   0  0  0  0  0  0  0  0  0  0  0  0
    7.9941   -1.5196   -0.7088 C   0  0  0  0  0  0  0  0  0  0  0  0
    9.3439   -1.4517   -0.7234 O   0  0  0  0  0  0  0  0  0  0  0  0
    7.4053   -0.6974    0.4114 C   0  0  0  0  0  0  0  0  0  0  0  0
    5.9084   -0.5208    0.3252 C   0  0  0  0  0  0  0  0  0  0  0  0
    5.3575    0.6725   -0.1562 C   0  0  0  0  0  0  0  0  0  0  0  0
    3.9697    0.8372   -0.2413 C   0  0  0  0  0  0  0  0  0  0  0  0
    3.1087   -0.1896    0.1444 C   0  0  0  0  0  0  0  0  0  0  0  0
    1.7015   -0.1028    0.0921 N   0  0  0  0  0  0  0  0  0  0  0  0
    0.9420    0.9449   -0.3960 C   0  0  0  0  0  0  0  0  0  0  0  0
    1.3524    1.9689   -0.9286 O   0  0  0  0  0  0  0  0  0  0  0  0
   -0.5326    0.7567   -0.2811 C   0  0  0  0  0  0  0  0  0  0  0  0
   -1.3534    1.2758   -1.2866 C   0  0  0  0  0  0  0  0  0  0  0  0
   -2.7409    1.1179   -1.2129 C   0  0  0  0  0  0  0  0  0  0  0  0
   -3.3278    0.4488   -0.1315 C   0  0  0  0  0  0  0  0  0  0  0  0
   -4.7291    0.3318   -0.1362 N   0  0  0  0  0  0  0  0  0  0  0  0
   -5.5455   -0.2883    0.7937 C   0  0  0  0  0  0  0  0  0  0  0  0
   -5.1615   -0.8642    1.8063 O   0  0  0  0  0  0  0  0  0  0  0  0
   -6.9532   -0.1960    0.4465 C   0  0  0  0  0  0  0  0  0  0  0  0
   -8.0824   -0.6680    1.0888 C   0  0  0  0  0  0  0  0  0  0  0  0
   -9.1921   -0.2881    0.2970 C   0  0  0  0  0  0  0  0  0  0  0  0
   -8.6780    0.3923   -0.7810 C   0  0  0  0  0  0  0  0  0  0  0  0
   -7.3235    0.4556   -0.7042 O   0  0  0  0  0  0  0  0  0  0  0  0
   -2.5050   -0.0502    0.8809 C   0  0  0  0  0  0  0  0  0  0  0  0
   -1.1143    0.1059    0.8121 C   0  0  0  0  0  0  0  0  0  0  0  0
    3.6586   -1.3850    0.6226 C   0  0  0  0  0  0  0  0  0  0  0  0
    5.0444   -1.5511    0.7117 C   0  0  0  0  0  0  0  0  0  0  0  0
    9.5956   -2.0238   -1.4791 H   0  0  0  0  0  0  0  0  0  0  0  0
    7.6574   -1.1799    1.3630 H   0  0  0  0  0  0  0  0  0  0  0  0
    7.8873    0.2878    0.4051 H   0  0  0  0  0  0  0  0  0  0  0  0
    5.9995    1.4922   -0.4723 H   0  0  0  0  0  0  0  0  0  0  0  0
    3.5945    1.7844   -0.6160 H   0  0  0  0  0  0  0  0  0  0  0  0
    1.2049   -0.9329    0.3870 H   0  0  0  0  0  0  0  0  0  0  0  0
   -0.9140    1.8033   -2.1315 H   0  0  0  0  0  0  0  0  0  0  0  0
   -3.3519    1.5288   -2.0132 H   0  0  0  0  0  0  0  0  0  0  0  0
   -5.2258    0.7482   -0.9173 H   0  0  0  0  0  0  0  0  0  0  0  0
   -8.0887   -1.2198    2.0195 H   0  0  0  0  0  0  0  0  0  0  0  0
  -10.2378   -0.4854    0.4884 H   0  0  0  0  0  0  0  0  0  0  0  0
   -9.1214    0.8688   -1.6448 H   0  0  0  0  0  0  0  0  0  0  0  0
   -2.9138   -0.5572    1.7498 H   0  0  0  0  0  0  0  0  0  0  0  0
   -0.5095   -0.2602    1.6374 H   0  0  0  0  0  0  0  0  0  0  0  0
    3.0194   -2.2092    0.9279 H   0  0  0  0  0  0  0  0  0  0  0  0
    5.4425   -2.4958    1.0760 H   0  0  0  0  0  0  0  0  0  0  0  0
  1  2  2  0
  2  3  1  0
  2  4  1  0
  4  5  1  0
  5  6  2  0
  6  7  1  0
  7  8  2  0
  8  9  1  0
  9 10  1  0
 10 11  2  0
 10 12  1  0
 12 13  2  0
 13 14  1  0
 14 15  2  0
 15 16  1  0
 16 17  1  0
 17 18  2  0
 17 19  1  0
 19 20  2  0
 20 21  1  0
 21 22  2  0
 22 23  1  0
 15 24  1  0
 24 25  2  0
  8 26  1  0
 26 27  2  0
 27  5  1  0
 25 12  1  0
 23 19  1  0
  3 28  1  0
  4 29  1  0
  4 30  1  0
  6 31  1  0
  7 32  1  0
  9 33  1  0
 13 34  1  0
 14 35  1  0
 16 36  1  0
 20 37  1  0
 21 38  1  0
 22 39  1  0
 24 40  1  0
 25 41  1  0
 26 42  1  0
 27 43  1  0
M  END
$$$$
