
     RDKit          3D

 38 39  0  0  0  0  0  0  0  0999 V2000
   -5.2258    2.2988    1.1830 C   0  0  0  0  0  0  0  0  0  0  0  0
   -4.0200    1.9604    0.7074 C   0  0  0  0  0  0  0  0  0  0  0  0
   -2.7628    1.9244    1.5295 C   0  0  0  0  0  0  0  0  0  0  0  0
   -2.1210    0.5575    1.5352 C   0  0  0  0  0  0  0  0  0  0  0  0
   -2.5743   -0.4343    2.4102 C   0  0  0  0  0  0  0  0  0  0  0  0
   -1.9943   -1.7002    2.3932 C   0  0  0  0  0  0  0  0  0  0  0  0
   -0.9632   -1.9863    1.4978 C   0  0  0  0  0  0  0  0  0  0  0  0
   -0.4863   -3.2698    1.5401 O   0  0  0  0  0  0  0  0  0  0  0  0
   -0.4596   -1.0167    0.6119 C   0  0  0  0  0  0  0  0  0  0  0  0
    0.6863   -1.2418   -0.3054 C   0  0  0  0  0  0  0  0  0  0  0  0
    1.7684   -0.3376   -0.2987 C   0  0  0  0  0  0  0  0  0  0  0  0
    2.8646   -0.4750   -1.1686 C   0  0  0  0  0  0  0  0  0  0  0  0
    3.9923    0.5294   -1.1348 C   0  0  0  0  0  0  0  0  0  0  0  0
    3.6563    1.7865   -1.8864 C   0  0  0  0  0  0  0  0  0  0  0  0
    3.6202    3.0083   -1.3380 C   0  0  0  0  0  0  0  0  0  0  0  0
    2.8797   -1.5383   -2.0761 C   0  0  0  0  0  0  0  0  0  0  0  0
    1.8317   -2.4566   -2.0988 C   0  0  0  0  0  0  0  0  0  0  0  0
    0.7557   -2.3062   -1.2203 C   0  0  0  0  0  0  0  0  0  0  0  0
   -0.2447   -3.2446   -1.2360 O   0  0  0  0  0  0  0  0  0  0  0  0
   -1.0755    0.2537    0.6447 C   0  0  0  0  0  0  0  0  0  0  0  0
   -5.3742    2.5727    2.2228 H   0  0  0  0  0  0  0  0  0  0  0  0
   -6.0961    2.3028    0.5338 H   0  0  0  0  0  0  0  0  0  0  0  0
   -3.9244    1.6926   -0.3431 H   0  0  0  0  0  0  0  0  0  0  0  0
   -2.9556    2.2335    2.5649 H   0  0  0  0  0  0  0  0  0  0  0  0
   -2.0574    2.6619    1.1266 H   0  0  0  0  0  0  0  0  0  0  0  0
   -3.3879   -0.2294    3.1019 H   0  0  0  0  0  0  0  0  0  0  0  0
   -2.3526   -2.4732    3.0672 H   0  0  0  0  0  0  0  0  0  0  0  0
   -0.1841   -3.4701    0.6329 H   0  0  0  0  0  0  0  0  0  0  0  0
    1.7628    0.4949    0.4050 H   0  0  0  0  0  0  0  0  0  0  0  0
    4.2461    0.7459   -0.0892 H   0  0  0  0  0  0  0  0  0  0  0  0
    4.8954    0.0878   -1.5744 H   0  0  0  0  0  0  0  0  0  0  0  0
    3.4357    1.6787   -2.9465 H   0  0  0  0  0  0  0  0  0  0  0  0
    3.8336    3.1696   -0.2859 H   0  0  0  0  0  0  0  0  0  0  0  0
    3.3711    3.8783   -1.9381 H   0  0  0  0  0  0  0  0  0  0  0  0
    3.7131   -1.6623   -2.7642 H   0  0  0  0  0  0  0  0  0  0  0  0
    1.8755   -3.2877   -2.7962 H   0  0  0  0  0  0  0  0  0  0  0  0
   -0.1944   -3.7340   -2.0756 H   0  0  0  0  0  0  0  0  0  0  0  0
   -0.7342    1.0264   -0.0435 H   0  0  0  0  0  0  0  0  0  0  0  0
  1  2  2  0
  2  3  1  0
  3  4  1  0
  4  5  2  0
  5  6  1  0
  6  7  2  0
  7  8  1  0
  7  9  1  0
  9 10  1  0
 10 11  2  0
 11 12  1  0
 12 13  1  0
 13 14  1  0
 14 15  2  0
 12 16  2  0
 16 17  1  0
 17 18  2  0
 18 19  1  0
  9 20  2  0
 20  4  1  0
 18 10  1  0
  1 21  1  0
  1 22  1  0
  2 23  1  0
  3 24  1  0
  3 25  1  0
  5 26  1  0
  6 27  1  0
  8 28  1  0
 11 29  1  0
 13 30  1  0
 13 31  1  0
 14 32  1  0
 15 33  1  0
 15 34  1  0
 16 35  1  0
 17 36  1  0
 19 37  1  0
 20 38  1  0
M  END
$$$$
