
     RDKit          3D

 56 58  0  0  0  0  0  0  0  0999 V2000
    8.5090   -1.2436    2.3831 C   0  0  0  0  0  0  0  0  0  0  0  0
    8.4733   -0.0385    1.6292 O   0  0  0  0  0  0  0  0  0  0  0  0
    7.6229   -0.0057    0.5585 C   0  0  0  0  0  0  0  0  0  0  0  0
    7.6118    1.2029   -0.1412 C   0  0  0  0  0  0  0  0  0  0  0  0
    6.7882    1.3758   -1.2565 C   0  0  0  0  0  0  0  0  0  0  0  0
    5.9651    0.3321   -1.6948 C   0  0  0  0  0  0  0  0  0  0  0  0
    5.0546    0.5143   -2.8806 C   0  0  0  0  0  0  0  0  0  0  0  0
    3.7514    0.9612   -2.4649 N   0  0  0  0  0  0  0  0  0  0  0  0
    2.7124    0.0913   -2.2362 C   0  0  0  0  0  0  0  0  0  0  0  0
    2.7039   -1.1094   -2.4698 O   0  0  0  0  0  0  0  0  0  0  0  0
    1.4728    0.7689   -1.6080 C   0  0  0  0  0  0  0  0  0  0  0  0
    1.5225    1.9437   -1.2735 O   0  0  0  0  0  0  0  0  0  0  0  0
    0.3924   -0.0700   -1.4748 N   0  0  0  0  0  0  0  0  0  0  0  0
   -0.7831    0.3015   -0.7019 C   0  0  0  0  0  0  0  0  0  0  0  0
   -1.9955   -0.5966   -1.0298 C   0  0  0  0  0  0  0  0  0  0  0  0
   -1.5733   -1.9723   -0.8299 O   0  0  0  0  0  0  0  0  0  0  0  0
   -2.5161   -2.5928    0.0507 C   0  0  0  0  0  0  0  0  0  0  0  0
   -3.1280   -1.4568    0.8378 C   0  0  0  0  0  0  0  0  0  0  0  0
   -3.1912   -0.4116   -0.1840 N   0  0  0  0  0  0  0  0  0  0  0  0
   -3.5968    1.1488    0.2712 S   0  0  0  0  0  6  0  0  0  0  0  0
   -2.7528    1.5072    1.3906 O   0  0  0  0  0  0  0  0  0  0  0  0
   -3.6455    1.9582   -0.9263 O   0  0  0  0  0  0  0  0  0  0  0  0
   -5.2593    0.9566    0.8579 C   0  0  0  0  0  0  0  0  0  0  0  0
   -5.5448    1.0961    2.2175 C   0  0  0  0  0  0  0  0  0  0  0  0
   -6.8596    0.9425    2.6606 C   0  0  0  0  0  0  0  0  0  0  0  0
   -7.8899    0.6670    1.7502 C   0  0  0  0  0  0  0  0  0  0  0  0
   -9.2974    0.4760    2.2358 C   0  0  0  0  0  0  0  0  0  0  0  0
   -7.5857    0.5247    0.3891 C   0  0  0  0  0  0  0  0  0  0  0  0
   -6.2738    0.6773   -0.0613 C   0  0  0  0  0  0  0  0  0  0  0  0
    5.9718   -0.8761   -0.9844 C   0  0  0  0  0  0  0  0  0  0  0  0
    6.7974   -1.0458    0.1328 C   0  0  0  0  0  0  0  0  0  0  0  0
    7.5330   -1.4587    2.8309 H   0  0  0  0  0  0  0  0  0  0  0  0
    8.8575   -2.0821    1.7713 H   0  0  0  0  0  0  0  0  0  0  0  0
    9.2257   -1.1065    3.1986 H   0  0  0  0  0  0  0  0  0  0  0  0
    8.2493    2.0197    0.1887 H   0  0  0  0  0  0  0  0  0  0  0  0
    6.7957    2.3309   -1.7764 H   0  0  0  0  0  0  0  0  0  0  0  0
    4.9740   -0.4215   -3.4455 H   0  0  0  0  0  0  0  0  0  0  0  0
    5.4610    1.2708   -3.5609 H   0  0  0  0  0  0  0  0  0  0  0  0
    3.6388    1.8981   -2.0875 H   0  0  0  0  0  0  0  0  0  0  0  0
    0.5726   -1.0606   -1.6342 H   0  0  0  0  0  0  0  0  0  0  0  0
   -0.4986    0.1916    0.3510 H   0  0  0  0  0  0  0  0  0  0  0  0
   -0.9980    1.3582   -0.8866 H   0  0  0  0  0  0  0  0  0  0  0  0
   -2.2736   -0.4968   -2.0847 H   0  0  0  0  0  0  0  0  0  0  0  0
   -3.2651   -3.1049   -0.5636 H   0  0  0  0  0  0  0  0  0  0  0  0
   -2.0128   -3.3285    0.6833 H   0  0  0  0  0  0  0  0  0  0  0  0
   -2.4632   -1.1582    1.6553 H   0  0  0  0  0  0  0  0  0  0  0  0
   -4.1091   -1.7274    1.2336 H   0  0  0  0  0  0  0  0  0  0  0  0
   -4.7592    1.3251    2.9340 H   0  0  0  0  0  0  0  0  0  0  0  0
   -7.0793    1.0472    3.7215 H   0  0  0  0  0  0  0  0  0  0  0  0
   -9.4617   -0.5724    2.5023 H   0  0  0  0  0  0  0  0  0  0  0  0
   -9.4950    1.1007    3.1132 H   0  0  0  0  0  0  0  0  0  0  0  0
  -10.0199    0.7628    1.4643 H   0  0  0  0  0  0  0  0  0  0  0  0
   -8.3724    0.3018   -0.3290 H   0  0  0  0  0  0  0  0  0  0  0  0
   -6.0486    0.5792   -1.1209 H   0  0  0  0  0  0  0  0  0  0  0  0
    5.3253   -1.6949   -1.2976 H   0  0  0  0  0  0  0  0  0  0  0  0
    6.7668   -2.0005    0.6465 H   0  0  0  0  0  0  0  0  0  0  0  0
  1  2  1  0
  2  3  1  0
  3  4  2  0
  4  5  1  0
  5  6  2  0
  6  7  1  0
  7  8  1  0
  8  9  1  0
  9 10  2  0
  9 11  1  0
 11 12  2  0
 11 13  1  0
 13 14  1  0
 14 15  1  0
 15 16  1  0
 16 17  1  0
 17 18  1  0
 18 19  1  0
 19 20  1  0
 20 21  2  0
 20 22  2  0
 20 23  1  0
 23 24  2  0
 24 25  1  0
 25 26  2  0
 26 27  1  0
 26 28  1  0
 28 29  2  0
  6 30  1  0
 30 31  2  0
 31  3  1  0
 19 15  1  0
 29 23  1  0
  1 32  1  0
  1 33  1  0
  1 34  1  0
  4 35  1  0
  5 36  1  0
  7 37  1  0
  7 38  1  0
  8 39  1  0
 13 40  1  0
 14 41  1  0
 14 42  1  0
 15 43  1  0
 17 44  1  0
 17 45  1  0
 18 46  1  0
 18 47  1  0
 24 48  1  0
 25 49  1  0
 27 50  1  0
 27 51  1  0
 27 52  1  0
 28 53  1  0
 29 54  1  0
 30 55  1  0
 31 56  1  0
M  END
$$$$
