
     RDKit          3D

 56 58  0  0  0  0  0  0  0  0999 V2000
    8.6197    3.5917   -1.0724 C   0  0  0  0  0  0  0  0  0  0  0  0
    8.7953    2.3518   -0.2094 C   0  0  0  0  0  0  0  0  0  0  0  0
    8.0050    1.2724   -0.7121 O   0  0  0  0  0  0  0  0  0  0  0  0
    6.7529    1.0821   -0.2022 C   0  0  0  0  0  0  0  0  0  0  0  0
    6.1548   -0.1257   -0.5644 C   0  0  0  0  0  0  0  0  0  0  0  0
    4.8701   -0.4585   -0.1180 C   0  0  0  0  0  0  0  0  0  0  0  0
    4.1591    0.4217    0.6944 C   0  0  0  0  0  0  0  0  0  0  0  0
    2.8627    0.1717    1.1883 N   0  0  0  0  0  0  0  0  0  0  0  0
    2.0809   -0.9531    0.9762 C   0  0  0  0  0  0  0  0  0  0  0  0
    2.3788   -1.9353    0.3058 O   0  0  0  0  0  0  0  0  0  0  0  0
    0.7326   -0.8371    1.6678 C   0  0  0  0  0  0  0  0  0  0  0  0
   -0.0635   -2.1364    1.6154 C   0  0  0  0  0  0  0  0  0  0  0  0
   -0.5001   -2.4100    0.2373 N   0  0  0  0  0  0  0  0  0  0  0  0
   -1.7357   -3.5260    0.0074 S   0  0  0  0  0  6  0  0  0  0  0  0
   -1.7421   -4.4336    1.1325 O   0  0  0  0  0  0  0  0  0  0  0  0
   -1.6488   -3.9889   -1.3569 O   0  0  0  0  0  0  0  0  0  0  0  0
   -3.1765   -2.4949    0.1127 C   0  0  0  0  0  0  0  0  0  0  0  0
   -4.1230   -2.7154    1.1115 C   0  0  0  0  0  0  0  0  0  0  0  0
   -5.2613   -1.9044    1.1764 C   0  0  0  0  0  0  0  0  0  0  0  0
   -5.4676   -0.8704    0.2468 C   0  0  0  0  0  0  0  0  0  0  0  0
   -4.5042   -0.6684   -0.7423 C   0  0  0  0  0  0  0  0  0  0  0  0
   -3.3586   -1.4753   -0.8198 C   0  0  0  0  0  0  0  0  0  0  0  0
   -4.6944    0.4154   -1.7182 C   0  0  0  0  0  0  0  0  0  0  0  0
   -3.7947    0.6665   -2.5157 O   0  0  0  0  0  0  0  0  0  0  0  0
   -5.8946    1.1068   -1.6573 N   0  0  0  0  0  0  0  0  0  0  0  0
   -6.1128    2.1559   -2.6371 C   0  0  0  0  0  0  0  0  0  0  0  0
   -6.8386    0.9730   -0.6472 C   0  0  0  0  0  0  0  0  0  0  0  0
   -7.8217    1.7157   -0.5819 O   0  0  0  0  0  0  0  0  0  0  0  0
   -6.6134   -0.0323    0.2915 N   0  0  0  0  0  0  0  0  0  0  0  0
   -7.6019   -0.2189    1.3472 C   0  0  0  0  0  0  0  0  0  0  0  0
    4.7552    1.6385    1.0486 C   0  0  0  0  0  0  0  0  0  0  0  0
    6.0423    1.9689    0.6016 C   0  0  0  0  0  0  0  0  0  0  0  0
    7.5858    3.9513   -1.0507 H   0  0  0  0  0  0  0  0  0  0  0  0
    8.8534    3.3685   -2.1195 H   0  0  0  0  0  0  0  0  0  0  0  0
    9.2787    4.3971   -0.7288 H   0  0  0  0  0  0  0  0  0  0  0  0
    8.6130    2.5524    0.8527 H   0  0  0  0  0  0  0  0  0  0  0  0
    9.8408    2.0282   -0.2752 H   0  0  0  0  0  0  0  0  0  0  0  0
    6.6941   -0.8233   -1.2008 H   0  0  0  0  0  0  0  0  0  0  0  0
    4.4610   -1.4137   -0.4300 H   0  0  0  0  0  0  0  0  0  0  0  0
    2.4617    0.9065    1.7571 H   0  0  0  0  0  0  0  0  0  0  0  0
    0.9086   -0.5725    2.7174 H   0  0  0  0  0  0  0  0  0  0  0  0
    0.1704   -0.0235    1.1941 H   0  0  0  0  0  0  0  0  0  0  0  0
    0.5439   -2.9739    1.9756 H   0  0  0  0  0  0  0  0  0  0  0  0
   -0.9388   -2.0314    2.2660 H   0  0  0  0  0  0  0  0  0  0  0  0
    0.2615   -2.5568   -0.4365 H   0  0  0  0  0  0  0  0  0  0  0  0
   -3.9912   -3.5157    1.8372 H   0  0  0  0  0  0  0  0  0  0  0  0
   -5.9768   -2.1126    1.9676 H   0  0  0  0  0  0  0  0  0  0  0  0
   -2.6203   -1.3114   -1.6034 H   0  0  0  0  0  0  0  0  0  0  0  0
   -7.1773    2.2509   -2.8715 H   0  0  0  0  0  0  0  0  0  0  0  0
   -5.5688    1.9541   -3.5649 H   0  0  0  0  0  0  0  0  0  0  0  0
   -5.7575    3.1012   -2.2142 H   0  0  0  0  0  0  0  0  0  0  0  0
   -8.0254   -1.2266    1.2745 H   0  0  0  0  0  0  0  0  0  0  0  0
   -8.4287    0.4934    1.2743 H   0  0  0  0  0  0  0  0  0  0  0  0
   -7.1230   -0.0745    2.3214 H   0  0  0  0  0  0  0  0  0  0  0  0
    4.2291    2.3544    1.6755 H   0  0  0  0  0  0  0  0  0  0  0  0
    6.4500    2.9305    0.8923 H   0  0  0  0  0  0  0  0  0  0  0  0
  1  2  1  0
  2  3  1  0
  3  4  1  0
  4  5  2  0
  5  6  1  0
  6  7  2  0
  7  8  1  0
  8  9  1  0
  9 10  2  0
  9 11  1  0
 11 12  1  0
 12 13  1  0
 13 14  1  0
 14 15  2  0
 14 16  2  0
 14 17  1  0
 17 18  2  0
 18 19  1  0
 19 20  2  0
 20 21  1  0
 21 22  2  0
 21 23  1  0
 23 24  2  0
 23 25  1  0
 25 26  1  0
 25 27  1  0
 27 28  2  0
 27 29  1  0
 29 30  1  0
  7 31  1  0
 31 32  2  0
 32  4  1  0
 22 17  1  0
 29 20  1  0
  1 33  1  0
  1 34  1  0
  1 35  1  0
  2 36  1  0
  2 37  1  0
  5 38  1  0
  6 39  1  0
  8 40  1  0
 11 41  1  0
 11 42  1  0
 12 43  1  0
 12 44  1  0
 13 45  1  0
 18 46  1  0
 19 47  1  0
 22 48  1  0
 26 49  1  0
 26 50  1  0
 26 51  1  0
 30 52  1  0
 30 53  1  0
 30 54  1  0
 31 55  1  0
 32 56  1  0
M  END
$$$$
