
     RDKit          3D

 68 71  0  0  0  0  0  0  0  0999 V2000
    8.8309   -0.2966    5.5832 C   0  0  0  0  0  0  0  0  0  0  0  0
    8.0324    0.1611    4.4327 C   0  0  0  0  0  0  0  0  0  0  0  0
    6.7353   -0.0365    4.0302 C   0  0  0  0  0  0  0  0  0  0  0  0
    6.6228    0.6893    2.8238 C   0  0  0  0  0  0  0  0  0  0  0  0
    5.5347    0.8429    1.9929 N   0  0  0  0  0  0  0  0  0  0  0  0
    4.2704    0.3607    2.2435 C   0  0  0  0  0  0  0  0  0  0  0  0
    3.9350   -0.2847    3.2301 O   0  0  0  0  0  0  0  0  0  0  0  0
    3.2979    0.7249    1.1389 C   0  0  0  0  0  0  0  0  0  0  0  0
    1.8739    0.2915    1.4756 C   0  0  0  0  0  0  0  0  0  0  0  0
    0.8835    0.7419    0.4166 C   0  0  0  0  0  0  0  0  0  0  0  0
    1.2583    1.4438   -0.5274 O   0  0  0  0  0  0  0  0  0  0  0  0
   -0.4534    0.3879    0.5789 N   0  0  0  0  0  0  0  0  0  0  0  0
   -0.9304   -0.4922    1.6556 C   0  0  0  0  0  0  0  0  0  0  0  0
   -1.0514   -1.9087    1.2282 C   0  0  0  0  0  0  0  0  0  0  0  0
   -2.1130   -2.7893    1.1641 C   0  0  0  0  0  0  0  0  0  0  0  0
   -1.5943   -4.0095    0.6729 C   0  0  0  0  0  0  0  0  0  0  0  0
   -0.2473   -3.8046    0.4932 C   0  0  0  0  0  0  0  0  0  0  0  0
    0.0954   -2.5418    0.8502 O   0  0  0  0  0  0  0  0  0  0  0  0
   -1.3745    0.8085   -0.5026 C   0  0  0  0  0  0  0  0  0  0  0  0
   -1.3062   -0.0958   -1.7758 C   0  0  0  0  0  0  0  0  0  0  0  0
   -0.7721   -1.2007   -1.8171 O   0  0  0  0  0  0  0  0  0  0  0  0
   -1.9308    0.4555   -2.8900 N   0  0  0  0  0  0  0  0  0  0  0  0
   -2.0980   -0.3126   -4.1029 C   0  0  0  0  0  0  0  0  0  0  0  0
   -2.4781    0.5505   -5.2989 C   0  0  0  0  0  0  0  0  0  0  0  0
   -3.0212   -0.4566   -6.3045 C   0  0  0  0  0  0  0  0  0  0  0  0
   -3.6375   -1.5825   -5.4721 C   0  0  0  0  0  0  0  0  0  0  0  0
   -3.2638   -1.2964   -4.0192 C   0  0  0  0  0  0  0  0  0  0  0  0
   -2.8105    1.0746   -0.0255 C   0  0  0  0  0  0  0  0  0  0  0  0
   -3.8122    0.0981   -0.2038 C   0  0  0  0  0  0  0  0  0  0  0  0
   -5.1181    0.3137    0.2341 C   0  0  0  0  0  0  0  0  0  0  0  0
   -5.4489    1.5068    0.8638 C   0  0  0  0  0  0  0  0  0  0  0  0
   -4.4745    2.4846    1.0582 C   0  0  0  0  0  0  0  0  0  0  0  0
   -3.1522    2.2832    0.6279 C   0  0  0  0  0  0  0  0  0  0  0  0
   -2.1406    3.3717    0.8758 C   0  0  0  0  0  0  0  0  0  0  0  0
    7.7811    1.2861    2.5159 N   0  0  0  0  0  0  0  0  0  0  0  0
    8.6600    0.9666    3.5342 O   0  0  0  0  0  0  0  0  0  0  0  0
    9.8815   -0.4269    5.3057 H   0  0  0  0  0  0  0  0  0  0  0  0
    8.7769    0.4316    6.3981 H   0  0  0  0  0  0  0  0  0  0  0  0
    8.4610   -1.2563    5.9564 H   0  0  0  0  0  0  0  0  0  0  0  0
    5.9845   -0.6320    4.5308 H   0  0  0  0  0  0  0  0  0  0  0  0
    5.7184    1.4056    1.1719 H   0  0  0  0  0  0  0  0  0  0  0  0
    3.3377    1.8107    0.9898 H   0  0  0  0  0  0  0  0  0  0  0  0
    3.6288    0.2425    0.2123 H   0  0  0  0  0  0  0  0  0  0  0  0
    1.8435   -0.7976    1.5680 H   0  0  0  0  0  0  0  0  0  0  0  0
    1.5815    0.7377    2.4328 H   0  0  0  0  0  0  0  0  0  0  0  0
   -1.8829   -0.1176    2.0388 H   0  0  0  0  0  0  0  0  0  0  0  0
   -0.2495   -0.4491    2.5094 H   0  0  0  0  0  0  0  0  0  0  0  0
   -3.1376   -2.5706    1.4277 H   0  0  0  0  0  0  0  0  0  0  0  0
   -2.1313   -4.9250    0.4707 H   0  0  0  0  0  0  0  0  0  0  0  0
    0.5623   -4.4223    0.1362 H   0  0  0  0  0  0  0  0  0  0  0  0
   -1.0031    1.7707   -0.8813 H   0  0  0  0  0  0  0  0  0  0  0  0
   -2.5264    1.2616   -2.7439 H   0  0  0  0  0  0  0  0  0  0  0  0
   -1.1679   -0.8573   -4.3126 H   0  0  0  0  0  0  0  0  0  0  0  0
   -1.6287    1.1157   -5.6934 H   0  0  0  0  0  0  0  0  0  0  0  0
   -3.2616    1.2708   -5.0304 H   0  0  0  0  0  0  0  0  0  0  0  0
   -3.7476   -0.0019   -6.9856 H   0  0  0  0  0  0  0  0  0  0  0  0
   -2.2024   -0.8577   -6.9144 H   0  0  0  0  0  0  0  0  0  0  0  0
   -4.7257   -1.6189   -5.5914 H   0  0  0  0  0  0  0  0  0  0  0  0
   -3.2387   -2.5519   -5.7934 H   0  0  0  0  0  0  0  0  0  0  0  0
   -4.1201   -0.8415   -3.5036 H   0  0  0  0  0  0  0  0  0  0  0  0
   -3.0030   -2.2083   -3.4721 H   0  0  0  0  0  0  0  0  0  0  0  0
   -3.5836   -0.8523   -0.6853 H   0  0  0  0  0  0  0  0  0  0  0  0
   -5.8757   -0.4516    0.0851 H   0  0  0  0  0  0  0  0  0  0  0  0
   -6.4659    1.6761    1.2079 H   0  0  0  0  0  0  0  0  0  0  0  0
   -4.7549    3.4104    1.5566 H   0  0  0  0  0  0  0  0  0  0  0  0
   -1.2994    2.9888    1.4619 H   0  0  0  0  0  0  0  0  0  0  0  0
   -1.7770    3.7771   -0.0738 H   0  0  0  0  0  0  0  0  0  0  0  0
   -2.5757    4.2038    1.4403 H   0  0  0  0  0  0  0  0  0  0  0  0
  1  2  1  0
  2  3  2  0
  3  4  1  0
  4  5  1  0
  5  6  1  0
  6  7  2  0
  6  8  1  0
  8  9  1  0
  9 10  1  0
 10 11  2  0
 10 12  1  0
 12 13  1  0
 13 14  1  0
 14 15  2  0
 15 16  1  0
 16 17  2  0
 17 18  1  0
 12 19  1  0
 19 20  1  0
 20 21  2  0
 20 22  1  0
 22 23  1  0
 23 24  1  0
 24 25  1  0
 25 26  1  0
 26 27  1  0
 19 28  1  0
 28 29  2  0
 29 30  1  0
 30 31  2  0
 31 32  1  0
 32 33  2  0
 33 34  1  0
  4 35  2  0
 35 36  1  0
 36  2  1  0
 18 14  1  0
 27 23  1  0
 33 28  1  0
  1 37  1  0
  1 38  1  0
  1 39  1  0
  3 40  1  0
  5 41  1  0
  8 42  1  0
  8 43  1  0
  9 44  1  0
  9 45  1  0
 13 46  1  0
 13 47  1  0
 15 48  1  0
 16 49  1  0
 17 50  1  0
 19 51  1  0
 22 52  1  0
 23 53  1  0
 24 54  1  0
 24 55  1  0
 25 56  1  0
 25 57  1  0
 26 58  1  0
 26 59  1  0
 27 60  1  0
 27 61  1  0
 29 62  1  0
 30 63  1  0
 31 64  1  0
 32 65  1  0
 34 66  1  0
 34 67  1  0
 34 68  1  0
M  END
$$$$
