
     RDKit          3D

 50 52  0  0  0  0  0  0  0  0999 V2000
    2.5848   -0.4033   -3.9570 C   0  0  0  0  0  0  0  0  0  0  0  0
    2.5476   -1.1126   -2.6139 C   0  0  0  0  0  0  0  0  0  0  0  0
    2.8060   -0.1874   -1.5003 N   0  0  0  0  0  4  0  0  0  0  0  0
    1.8345    0.4040   -0.8140 C   0  0  0  0  0  0  0  0  0  0  0  0
    0.4430    0.3084   -1.0808 C   0  0  0  0  0  0  0  0  0  0  0  0
   -0.4704    0.1270   -0.1127 C   0  0  0  0  0  0  0  0  0  0  0  0
   -1.8806   -0.0184   -0.4135 C   0  0  0  0  0  0  0  0  0  0  0  0
   -2.8135   -0.2627    0.5207 C   0  0  0  0  0  0  0  0  0  0  0  0
   -4.1865   -0.4615    0.3088 N   0  0  0  0  0  0  0  0  0  0  0  0
   -4.6985   -0.7076   -0.9858 C   0  0  0  0  0  0  0  0  0  0  0  0
   -6.1514   -0.3512   -1.2343 C   0  0  0  0  0  0  0  0  0  0  0  0
   -4.0271   -1.1352   -1.9311 O   0  0  0  0  0  0  0  0  0  0  0  0
   -5.0494   -0.5434    1.4623 C   0  0  0  0  0  0  0  0  0  0  0  0
   -4.8883    0.3481    2.5355 C   0  0  0  0  0  0  0  0  0  0  0  0
   -5.7095    0.2654    3.6632 C   0  0  0  0  0  0  0  0  0  0  0  0
   -6.6924   -0.7176    3.7397 C   0  0  0  0  0  0  0  0  0  0  0  0
   -6.8525   -1.6212    2.6925 C   0  0  0  0  0  0  0  0  0  0  0  0
   -6.0341   -1.5377    1.5625 C   0  0  0  0  0  0  0  0  0  0  0  0
    2.4881    1.3748    0.4450 S   0  0  0  0  0  0  0  0  0  0  0  0
    4.1051    0.9701    0.0227 C   0  0  0  0  0  0  0  0  0  0  0  0
    5.3011    1.4008    0.6281 C   0  0  0  0  0  0  0  0  0  0  0  0
    6.5091    0.9368    0.1033 C   0  0  0  0  0  0  0  0  0  0  0  0
    7.7544    1.2540    0.5672 O   0  0  0  0  0  0  0  0  0  0  0  0
    7.8368    2.1353    1.6825 C   0  0  0  0  0  0  0  0  0  0  0  0
    6.5106    0.0719   -0.9909 C   0  0  0  0  0  0  0  0  0  0  0  0
    5.3182   -0.3547   -1.5902 C   0  0  0  0  0  0  0  0  0  0  0  0
    4.0951    0.1055   -1.0674 C   0  0  0  0  0  0  0  0  0  0  0  0
    2.3855   -1.1110   -4.7672 H   0  0  0  0  0  0  0  0  0  0  0  0
    3.5628    0.0542   -4.1347 H   0  0  0  0  0  0  0  0  0  0  0  0
    1.8343    0.3918   -4.0027 H   0  0  0  0  0  0  0  0  0  0  0  0
    3.2861   -1.9218   -2.5918 H   0  0  0  0  0  0  0  0  0  0  0  0
    1.5777   -1.6040   -2.4761 H   0  0  0  0  0  0  0  0  0  0  0  0
    0.1161    0.3503   -2.1178 H   0  0  0  0  0  0  0  0  0  0  0  0
   -0.1869    0.0539    0.9367 H   0  0  0  0  0  0  0  0  0  0  0  0
   -2.1631    0.0753   -1.4592 H   0  0  0  0  0  0  0  0  0  0  0  0
   -2.5062   -0.3241    1.5634 H   0  0  0  0  0  0  0  0  0  0  0  0
   -6.7693   -1.2514   -1.2070 H   0  0  0  0  0  0  0  0  0  0  0  0
   -6.5238    0.3933   -0.5269 H   0  0  0  0  0  0  0  0  0  0  0  0
   -6.2303    0.0941   -2.2318 H   0  0  0  0  0  0  0  0  0  0  0  0
   -4.1490    1.1438    2.4937 H   0  0  0  0  0  0  0  0  0  0  0  0
   -5.5865    0.9727    4.4801 H   0  0  0  0  0  0  0  0  0  0  0  0
   -7.3314   -0.7829    4.6175 H   0  0  0  0  0  0  0  0  0  0  0  0
   -7.6094   -2.3996    2.7593 H   0  0  0  0  0  0  0  0  0  0  0  0
   -6.1546   -2.2901    0.7872 H   0  0  0  0  0  0  0  0  0  0  0  0
    5.2614    2.0758    1.4770 H   0  0  0  0  0  0  0  0  0  0  0  0
    7.4109    3.1148    1.4416 H   0  0  0  0  0  0  0  0  0  0  0  0
    7.3539    1.7001    2.5636 H   0  0  0  0  0  0  0  0  0  0  0  0
    8.8956    2.2792    1.9177 H   0  0  0  0  0  0  0  0  0  0  0  0
    7.4649   -0.2777   -1.3873 H   0  0  0  0  0  0  0  0  0  0  0  0
    5.3812   -1.0246   -2.4427 H   0  0  0  0  0  0  0  0  0  0  0  0
  1  2  1  0
  2  3  1  0
  3  4  2  0
  4  5  1  0
  5  6  2  3
  6  7  1  0
  7  8  2  3
  8  9  1  0
  9 10  1  0
 10 11  1  0
 10 12  2  0
  9 13  1  0
 13 14  2  0
 14 15  1  0
 15 16  2  0
 16 17  1  0
 17 18  2  0
  4 19  1  0
 19 20  1  0
 20 21  2  0
 21 22  1  0
 22 23  1  0
 23 24  1  0
 22 25  2  0
 25 26  1  0
 26 27  2  0
 27  3  1  0
 18 13  1  0
 27 20  1  0
  1 28  1  0
  1 29  1  0
  1 30  1  0
  2 31  1  0
  2 32  1  0
  5 33  1  0
  6 34  1  0
  7 35  1  0
  8 36  1  0
 11 37  1  0
 11 38  1  0
 11 39  1  0
 14 40  1  0
 15 41  1  0
 16 42  1  0
 17 43  1  0
 18 44  1  0
 21 45  1  0
 24 46  1  0
 24 47  1  0
 24 48  1  0
 25 49  1  0
 26 50  1  0
M  CHG  1   3   1
M  END
$$$$
