
     RDKit          3D

 36 37  0  0  0  0  0  0  0  0999 V2000
   -1.7444    2.7776   -1.2359 O   0  0  0  0  0  0  0  0  0  0  0  0
   -1.0898    2.2940   -0.3161 C   0  0  0  0  0  0  0  0  0  0  0  0
   -0.0022    3.0880    0.4150 C   0  0  0  0  0  0  0  0  0  0  0  0
    1.3131    2.5430    0.2885 O   0  0  0  0  0  0  0  0  0  0  0  0
    1.6069    1.5233    1.1273 C   0  0  0  0  0  0  0  0  0  0  0  0
    0.8383    1.0235    1.9348 O   0  0  0  0  0  0  0  0  0  0  0  0
    3.0066    1.0626    0.9321 C   0  0  0  0  0  0  0  0  0  0  0  0
    3.4794    0.0276    1.7501 C   0  0  0  0  0  0  0  0  0  0  0  0
    4.7854   -0.4360    1.5982 C   0  0  0  0  0  0  0  0  0  0  0  0
    5.3600   -1.7069    2.6053 Cl  0  0  0  0  0  0  0  0  0  0  0  0
    5.6294    0.1186    0.6399 C   0  0  0  0  0  0  0  0  0  0  0  0
    5.1561    1.1464   -0.1717 C   0  0  0  0  0  0  0  0  0  0  0  0
    6.1923    1.8371   -1.3593 Cl  0  0  0  0  0  0  0  0  0  0  0  0
    3.8522    1.6230   -0.0342 C   0  0  0  0  0  0  0  0  0  0  0  0
   -1.2806    1.0139    0.1589 N   0  0  0  0  0  0  0  0  0  0  0  0
   -2.3802    0.1884   -0.3051 C   0  0  0  0  0  0  0  0  0  0  0  0
   -2.1123   -1.3034   -0.0933 C   0  0  0  0  0  0  0  0  0  0  0  0
   -3.2364   -2.1259   -0.4984 N   0  0  0  0  0  0  0  0  0  0  0  0
   -3.4295   -2.5693   -1.7828 C   0  0  0  0  0  0  0  0  0  0  0  0
   -2.4943   -2.2761   -2.7281 O   0  0  0  0  0  0  0  0  0  0  0  0
   -4.5611   -3.2583   -1.9691 C   0  0  0  0  0  0  0  0  0  0  0  0
   -5.4751   -3.3766   -0.4952 S   0  0  0  0  0  0  0  0  0  0  0  0
   -4.2614   -2.4264    0.3838 C   0  0  0  0  0  0  0  0  0  0  0  0
   -4.3652   -2.1093    1.5568 O   0  0  0  0  0  0  0  0  0  0  0  0
    0.0269    4.0926   -0.0213 H   0  0  0  0  0  0  0  0  0  0  0  0
   -0.2836    3.2118    1.4680 H   0  0  0  0  0  0  0  0  0  0  0  0
    2.8315   -0.4157    2.5045 H   0  0  0  0  0  0  0  0  0  0  0  0
    6.6466   -0.2471    0.5263 H   0  0  0  0  0  0  0  0  0  0  0  0
    3.5065    2.4251   -0.6823 H   0  0  0  0  0  0  0  0  0  0  0  0
   -0.8546    0.7907    1.0596 H   0  0  0  0  0  0  0  0  0  0  0  0
   -2.5663    0.3969   -1.3648 H   0  0  0  0  0  0  0  0  0  0  0  0
   -3.2735    0.5022    0.2472 H   0  0  0  0  0  0  0  0  0  0  0  0
   -1.9156   -1.4859    0.9707 H   0  0  0  0  0  0  0  0  0  0  0  0
   -1.2107   -1.6179   -0.6326 H   0  0  0  0  0  0  0  0  0  0  0  0
   -2.7920   -2.6401   -3.5792 H   0  0  0  0  0  0  0  0  0  0  0  0
   -4.9025   -3.6912   -2.8976 H   0  0  0  0  0  0  0  0  0  0  0  0
  1  2  2  0
  2  3  1  0
  3  4  1  0
  4  5  1  0
  5  6  2  0
  5  7  1  0
  7  8  2  0
  8  9  1  0
  9 10  1  0
  9 11  2  0
 11 12  1  0
 12 13  1  0
 12 14  2  0
  2 15  1  0
 15 16  1  0
 16 17  1  0
 17 18  1  0
 18 19  1  0
 19 20  1  0
 19 21  2  0
 21 22  1  0
 22 23  1  0
 23 24  2  0
 14  7  1  0
 23 18  1  0
  3 25  1  0
  3 26  1  0
  8 27  1  0
 11 28  1  0
 14 29  1  0
 15 30  1  0
 16 31  1  0
 16 32  1  0
 17 33  1  0
 17 34  1  0
 20 35  1  0
 21 36  1  0
M  END
$$$$
