
     RDKit          3D

 35 37  0  0  0  0  0  0  0  0999 V2000
   -4.9202   -0.7255    1.0473 C   0  0  0  0  0  0  0  0  0  0  0  0
   -4.4315    0.4232    0.2136 C   0  0  0  0  0  0  0  0  0  0  0  0
   -5.2426    1.5599    0.0332 C   0  0  0  0  0  0  0  0  0  0  0  0
   -4.7969    2.6508   -0.7207 C   0  0  0  0  0  0  0  0  0  0  0  0
   -3.5226    2.6176   -1.2813 C   0  0  0  0  0  0  0  0  0  0  0  0
   -2.6967    1.4994   -1.0964 C   0  0  0  0  0  0  0  0  0  0  0  0
   -3.1586    0.3911   -0.3811 C   0  0  0  0  0  0  0  0  0  0  0  0
   -2.4099   -0.7424   -0.1930 O   0  0  0  0  0  0  0  0  0  0  0  0
   -1.6473   -1.1454   -1.3281 C   0  0  0  0  0  0  0  0  0  0  0  0
   -0.1687   -0.8045   -1.1387 C   0  0  0  0  0  0  0  0  0  0  0  0
    0.4466   -0.1857   -1.9947 O   0  0  0  0  0  0  0  0  0  0  0  0
    0.3335   -1.3077    0.0347 N   0  0  0  0  0  0  0  0  0  0  0  0
    1.6214   -1.2150    0.4990 C   0  0  0  0  0  0  0  0  0  0  0  0
    2.0196   -1.8468    1.5827 N   0  0  0  0  0  0  0  0  0  0  0  0
    3.3573   -1.6273    1.8545 N   0  0  0  0  0  0  0  0  0  0  0  0
    3.9020   -0.8042    0.9766 C   0  0  0  0  0  0  0  0  0  0  0  0
    5.2748   -0.3985    1.0344 C   0  0  0  0  0  0  0  0  0  0  0  0
    6.2917   -0.9317    1.8135 C   0  0  0  0  0  0  0  0  0  0  0  0
    7.4711   -0.2081    1.5157 C   0  0  0  0  0  0  0  0  0  0  0  0
    7.1097    0.7494    0.6008 C   0  0  0  0  0  0  0  0  0  0  0  0
    5.7945    0.6380    0.2957 O   0  0  0  0  0  0  0  0  0  0  0  0
    2.8267   -0.2748   -0.2525 S   0  0  0  0  0  0  0  0  0  0  0  0
   -4.3615   -0.7666    1.9880 H   0  0  0  0  0  0  0  0  0  0  0  0
   -5.9852   -0.6230    1.2849 H   0  0  0  0  0  0  0  0  0  0  0  0
   -4.8012   -1.6724    0.5162 H   0  0  0  0  0  0  0  0  0  0  0  0
   -6.2384    1.6057    0.4782 H   0  0  0  0  0  0  0  0  0  0  0  0
   -5.4459    3.5174   -0.8698 H   0  0  0  0  0  0  0  0  0  0  0  0
   -3.1618    3.4702   -1.8606 H   0  0  0  0  0  0  0  0  0  0  0  0
   -1.7009    1.5350   -1.5210 H   0  0  0  0  0  0  0  0  0  0  0  0
   -2.0144   -0.7333   -2.2764 H   0  0  0  0  0  0  0  0  0  0  0  0
   -1.7359   -2.2383   -1.4089 H   0  0  0  0  0  0  0  0  0  0  0  0
   -0.2888   -1.8244    0.6412 H   0  0  0  0  0  0  0  0  0  0  0  0
    6.1849   -1.7580    2.5084 H   0  0  0  0  0  0  0  0  0  0  0  0
    8.4542   -0.3630    1.9318 H   0  0  0  0  0  0  0  0  0  0  0  0
    7.6411    1.5389    0.0846 H   0  0  0  0  0  0  0  0  0  0  0  0
  1  2  1  0
  2  3  2  0
  3  4  1  0
  4  5  2  0
  5  6  1  0
  6  7  2  0
  7  8  1  0
  8  9  1  0
  9 10  1  0
 10 11  2  0
 10 12  1  0
 12 13  1  0
 13 14  2  0
 14 15  1  0
 15 16  2  0
 16 17  1  0
 17 18  2  0
 18 19  1  0
 19 20  2  0
 20 21  1  0
 16 22  1  0
  7  2  1  0
 22 13  1  0
 21 17  1  0
  1 23  1  0
  1 24  1  0
  1 25  1  0
  3 26  1  0
  4 27  1  0
  5 28  1  0
  6 29  1  0
  9 30  1  0
  9 31  1  0
 12 32  1  0
 18 33  1  0
 19 34  1  0
 20 35  1  0
M  END
$$$$
