
     RDKit          3D

 36 38  0  0  0  0  0  0  0  0999 V2000
   -3.7006    0.4998   -2.6937 C   0  0  0  0  0  0  0  0  0  0  0  0
   -2.7718    0.2400   -1.5495 C   0  0  0  0  0  0  0  0  0  0  0  0
   -1.4490    0.3815   -1.7736 N   0  0  0  0  0  0  0  0  0  0  0  0
   -0.6353    0.1524   -0.7122 C   0  0  0  0  0  0  0  0  0  0  0  0
    1.1161    0.3544   -1.0246 S   0  0  0  0  0  6  0  0  0  0  0  0
    1.3479    1.7592   -1.3297 O   0  0  0  0  0  0  0  0  0  0  0  0
    1.5211   -0.6985   -1.9451 O   0  0  0  0  0  0  0  0  0  0  0  0
    1.8471    0.0072    0.5697 C   0  0  0  0  0  0  0  0  0  0  0  0
    3.3484    0.1411    0.4799 C   0  0  0  0  0  0  0  0  0  0  0  0
    3.9703    1.3727    0.7364 C   0  0  0  0  0  0  0  0  0  0  0  0
    5.3590    1.4965    0.6516 C   0  0  0  0  0  0  0  0  0  0  0  0
    6.1336    0.3915    0.3071 C   0  0  0  0  0  0  0  0  0  0  0  0
    7.8443    0.5442    0.2050 Cl  0  0  0  0  0  0  0  0  0  0  0  0
    5.5309   -0.8358    0.0428 C   0  0  0  0  0  0  0  0  0  0  0  0
    4.1423   -0.9610    0.1274 C   0  0  0  0  0  0  0  0  0  0  0  0
   -0.9812   -0.1972    0.5459 N   0  0  0  0  0  0  0  0  0  0  0  0
   -2.3022   -0.3299    0.6947 C   0  0  0  0  0  0  0  0  0  0  0  0
   -3.2358   -0.1295   -0.3091 C   0  0  0  0  0  0  0  0  0  0  0  0
   -4.6253   -0.3172    0.1966 C   0  0  0  0  0  0  0  0  0  0  0  0
   -4.3657   -1.0971    1.4953 C   0  0  0  0  0  0  0  0  0  0  0  0
   -2.9787   -0.6693    1.9935 C   0  0  0  0  0  0  0  0  0  0  0  0
   -4.3987    1.3042   -2.4419 H   0  0  0  0  0  0  0  0  0  0  0  0
   -4.2658   -0.4053   -2.9367 H   0  0  0  0  0  0  0  0  0  0  0  0
   -3.1434    0.8018   -3.5866 H   0  0  0  0  0  0  0  0  0  0  0  0
    1.4444    0.7150    1.3013 H   0  0  0  0  0  0  0  0  0  0  0  0
    1.5726   -1.0098    0.8674 H   0  0  0  0  0  0  0  0  0  0  0  0
    3.3778    2.2498    0.9919 H   0  0  0  0  0  0  0  0  0  0  0  0
    5.8273    2.4573    0.8478 H   0  0  0  0  0  0  0  0  0  0  0  0
    6.1333   -1.6961   -0.2365 H   0  0  0  0  0  0  0  0  0  0  0  0
    3.6852   -1.9234   -0.0974 H   0  0  0  0  0  0  0  0  0  0  0  0
   -5.2528   -0.8918   -0.4901 H   0  0  0  0  0  0  0  0  0  0  0  0
   -5.0872    0.6534    0.4045 H   0  0  0  0  0  0  0  0  0  0  0  0
   -4.3510   -2.1730    1.2713 H   0  0  0  0  0  0  0  0  0  0  0  0
   -5.1477   -0.9350    2.2437 H   0  0  0  0  0  0  0  0  0  0  0  0
   -3.0400    0.2229    2.6245 H   0  0  0  0  0  0  0  0  0  0  0  0
   -2.4693   -1.4750    2.5283 H   0  0  0  0  0  0  0  0  0  0  0  0
  1  2  1  0
  2  3  2  0
  3  4  1  0
  4  5  1  0
  5  6  2  0
  5  7  2  0
  5  8  1  0
  8  9  1  0
  9 10  2  0
 10 11  1  0
 11 12  2  0
 12 13  1  0
 12 14  1  0
 14 15  2  0
  4 16  2  0
 16 17  1  0
 17 18  2  0
 18 19  1  0
 19 20  1  0
 20 21  1  0
 18  2  1  0
 15  9  1  0
 21 17  1  0
  1 22  1  0
  1 23  1  0
  1 24  1  0
  8 25  1  0
  8 26  1  0
 10 27  1  0
 11 28  1  0
 14 29  1  0
 15 30  1  0
 19 31  1  0
 19 32  1  0
 20 33  1  0
 20 34  1  0
 21 35  1  0
 21 36  1  0
M  END
$$$$
