
     RDKit          3D

 31 33  0  0  0  0  0  0  0  0999 V2000
   -2.5706   -1.5734   -1.6740 C   0  0  0  0  0  0  0  0  0  0  0  0
   -3.0666   -0.6449   -0.6126 C   0  0  0  0  0  0  0  0  0  0  0  0
   -4.4537   -0.3389   -0.4176 C   0  0  0  0  0  0  0  0  0  0  0  0
   -4.6649    0.5444    0.6138 C   0  0  0  0  0  0  0  0  0  0  0  0
   -3.2079    1.0156    1.3572 S   0  0  0  0  0  0  0  0  0  0  0  0
   -2.2641    0.0309    0.3027 C   0  0  0  0  0  0  0  0  0  0  0  0
   -0.7478   -0.0260    0.4320 C   0  0  0  0  0  0  0  0  0  0  0  0
   -0.2846   -0.2985    1.8476 C   0  0  0  0  0  0  0  0  0  0  0  0
    0.9242   -1.1756    1.8516 C   0  0  0  0  0  0  0  0  0  0  0  0
    0.9479   -2.1887    2.5598 O   0  0  0  0  0  0  0  0  0  0  0  0
    2.0405   -0.9005    1.1399 N   0  0  0  0  0  0  0  0  0  0  0  0
    2.4499    0.1129    0.2513 C   0  0  0  0  0  0  0  0  0  0  0  0
    3.8148    0.0076   -0.1059 C   0  0  0  0  0  0  0  0  0  0  0  0
    4.4371    0.9231   -0.9543 C   0  0  0  0  0  0  0  0  0  0  0  0
    3.7040    1.9742   -1.4720 C   0  0  0  0  0  0  0  0  0  0  0  0
    2.3541    2.0906   -1.1447 C   0  0  0  0  0  0  0  0  0  0  0  0
    1.6991    1.1669   -0.2956 C   0  0  0  0  0  0  0  0  0  0  0  0
   -0.0313    1.5545   -0.1122 S   0  0  0  0  0  0  0  0  0  0  0  0
   -1.8634   -1.0591   -2.3328 H   0  0  0  0  0  0  0  0  0  0  0  0
   -3.3935   -1.9482   -2.2912 H   0  0  0  0  0  0  0  0  0  0  0  0
   -2.0680   -2.4348   -1.2225 H   0  0  0  0  0  0  0  0  0  0  0  0
   -5.2612   -0.7489   -1.0127 H   0  0  0  0  0  0  0  0  0  0  0  0
   -5.6087    0.9380    0.9649 H   0  0  0  0  0  0  0  0  0  0  0  0
   -0.3876   -0.8044   -0.2513 H   0  0  0  0  0  0  0  0  0  0  0  0
   -1.0551   -0.8569    2.3973 H   0  0  0  0  0  0  0  0  0  0  0  0
   -0.0764    0.6001    2.4408 H   0  0  0  0  0  0  0  0  0  0  0  0
    2.7418   -1.6016    1.3572 H   0  0  0  0  0  0  0  0  0  0  0  0
    4.4296   -0.7994    0.2910 H   0  0  0  0  0  0  0  0  0  0  0  0
    5.4902    0.8140   -1.2003 H   0  0  0  0  0  0  0  0  0  0  0  0
    4.1709    2.7016   -2.1308 H   0  0  0  0  0  0  0  0  0  0  0  0
    1.8013    2.9256   -1.5768 H   0  0  0  0  0  0  0  0  0  0  0  0
  1  2  1  0
  2  3  1  0
  3  4  2  0
  4  5  1  0
  5  6  1  0
  6  7  1  0
  7  8  1  0
  8  9  1  0
  9 10  2  0
  9 11  1  0
 11 12  1  0
 12 13  2  0
 13 14  1  0
 14 15  2  0
 15 16  1  0
 16 17  2  0
 17 18  1  0
  6  2  2  0
 18  7  1  0
 17 12  1  0
  1 19  1  0
  1 20  1  0
  1 21  1  0
  3 22  1  0
  4 23  1  0
  7 24  1  0
  8 25  1  0
  8 26  1  0
 11 27  1  0
 13 28  1  0
 14 29  1  0
 15 30  1  0
 16 31  1  0
M  END
$$$$
