
     RDKit          3D

 88 93  0  0  0  0  0  0  0  0999 V2000
    2.3200    1.1569   -1.9850 C   0  0  0  0  0  0  0  0  0  0  0  0
    2.5664    0.1057   -0.9476 C   0  0  0  0  0  0  0  0  0  0  0  0
    3.4872   -0.6975   -0.9823 O   0  0  0  0  0  0  0  0  0  0  0  0
    1.5950    0.1640    0.0037 O   0  0  0  0  0  0  0  0  0  0  0  0
    1.6836   -0.7801    1.0845 C   0  0  1  0  0  0  0  0  0  0  0  0
    1.9688   -0.0649    2.4144 C   0  0  1  0  0  0  0  0  0  0  0  0
    3.0389    1.0189    2.3410 C   0  0  0  0  0  0  0  0  0  0  0  0
    4.2805    0.4010    1.9787 O   0  0  0  0  0  0  0  0  0  0  0  0
    5.2240    1.2421    1.4893 C   0  0  0  0  0  0  0  0  0  0  0  0
    5.0901    2.4429    1.3188 O   0  0  0  0  0  0  0  0  0  0  0  0
    6.4895    0.5086    1.2251 C   0  0  0  0  0  0  0  0  0  0  0  0
    6.5369   -0.8871    1.1168 C   0  0  0  0  0  0  0  0  0  0  0  0
    7.7554   -1.5308    0.8856 C   0  0  0  0  0  0  0  0  0  0  0  0
    8.9278   -0.7846    0.7618 C   0  0  0  0  0  0  0  0  0  0  0  0
    8.8854    0.6067    0.8584 C   0  0  0  0  0  0  0  0  0  0  0  0
    7.6685    1.2525    1.0840 C   0  0  0  0  0  0  0  0  0  0  0  0
    0.6009    0.4718    2.9013 C   0  0  0  0  0  0  0  0  0  0  0  0
   -0.5022   -0.2066    2.0252 C   0  0  2  0  0  0  0  0  0  0  0  0
   -0.9010    0.7434    1.0241 O   0  0  0  0  0  0  0  0  0  0  0  0
   -1.5813    1.8432    1.4327 C   0  0  0  0  0  0  0  0  0  0  0  0
   -1.9060    2.1016    2.5819 O   0  0  0  0  0  0  0  0  0  0  0  0
   -1.9207    2.7346    0.3026 C   0  0  0  0  0  0  0  0  0  0  0  0
   -1.5052    2.5480   -0.9617 C   0  0  0  0  0  0  0  0  0  0  0  0
   -1.8521    3.4173   -2.0975 C   0  0  0  0  0  0  0  0  0  0  0  0
   -2.1699    4.7746   -1.9484 C   0  0  0  0  0  0  0  0  0  0  0  0
   -2.4744    5.5634   -3.0634 C   0  0  0  0  0  0  0  0  0  0  0  0
   -2.4507    5.0105   -4.3411 C   0  0  0  0  0  0  0  0  0  0  0  0
   -2.1154    3.6697   -4.5077 C   0  0  0  0  0  0  0  0  0  0  0  0
   -1.8177    2.8782   -3.3925 C   0  0  0  0  0  0  0  0  0  0  0  0
   -1.6323   -0.8601    2.8691 C   0  0  0  0  0  0  0  0  0  0  0  0
   -1.3361   -1.4685    3.9072 O   0  0  0  0  0  0  0  0  0  0  0  0
   -3.1079   -0.7735    2.5082 C   0  0  0  0  0  0  0  0  0  0  0  0
   -3.9316   -0.6544    3.7810 C   0  0  0  0  0  0  0  0  0  0  0  0
   -3.7721   -0.7965    1.3287 C   0  0  0  0  0  0  0  0  0  0  0  0
   -3.3824   -0.9119   -0.0915 C   0  0  0  0  0  0  0  0  0  0  0  0
   -3.4267   -2.2320   -0.8564 C   0  0  2  0  0  0  0  0  0  0  0  0
   -2.4060   -2.5941   -1.9205 C   0  0  0  0  0  0  0  0  0  0  0  0
   -1.3871   -3.6867   -1.5239 C   0  0  0  0  0  0  0  0  0  0  0  0
   -0.5142   -3.3840   -0.3218 C   0  0  2  0  0  0  0  0  0  0  0  0
    0.5263   -4.3943    0.0517 C   0  0  0  0  0  0  0  0  0  0  0  0
   -1.3178   -2.9430    0.7563 O   0  0  0  0  0  0  0  0  0  0  0  0
   -0.4055   -1.9606    0.2250 C   0  0  1  0  0  0  0  0  0  0  0  0
    0.3150   -1.3778    1.3850 C   0  0  1  0  0  0  0  0  0  0  0  0
   -4.4712   -1.1681   -1.1447 C   0  0  0  0  0  0  0  0  0  0  0  0
   -4.3962   -0.3332   -2.4036 C   0  0  0  0  0  0  0  0  0  0  0  0
   -5.8931   -1.5267   -0.7743 C   0  0  0  0  0  0  0  0  0  0  0  0
    3.2172    1.2766   -2.5985 H   0  0  0  0  0  0  0  0  0  0  0  0
    1.4852    0.8571   -2.6241 H   0  0  0  0  0  0  0  0  0  0  0  0
    2.1073    2.1163   -1.5075 H   0  0  0  0  0  0  0  0  0  0  0  0
    2.4137   -1.5716    0.8817 H   0  0  0  0  0  0  0  0  0  0  0  0
    2.3014   -0.8305    3.1318 H   0  0  0  0  0  0  0  0  0  0  0  0
    2.7562    1.7997    1.6258 H   0  0  0  0  0  0  0  0  0  0  0  0
    3.1647    1.4806    3.3264 H   0  0  0  0  0  0  0  0  0  0  0  0
    5.6332   -1.4817    1.2026 H   0  0  0  0  0  0  0  0  0  0  0  0
    7.7896   -2.6144    0.8041 H   0  0  0  0  0  0  0  0  0  0  0  0
    9.8752   -1.2878    0.5808 H   0  0  0  0  0  0  0  0  0  0  0  0
    9.7986    1.1867    0.7564 H   0  0  0  0  0  0  0  0  0  0  0  0
    7.6425    2.3372    1.1590 H   0  0  0  0  0  0  0  0  0  0  0  0
    0.4870    0.2436    3.9673 H   0  0  0  0  0  0  0  0  0  0  0  0
    0.5842    1.5639    2.8125 H   0  0  0  0  0  0  0  0  0  0  0  0
   -2.5545    3.5669    0.5911 H   0  0  0  0  0  0  0  0  0  0  0  0
   -0.8792    1.6936   -1.2086 H   0  0  0  0  0  0  0  0  0  0  0  0
   -2.1743    5.2473   -0.9709 H   0  0  0  0  0  0  0  0  0  0  0  0
   -2.7256    6.6120   -2.9340 H   0  0  0  0  0  0  0  0  0  0  0  0
   -2.6849    5.6275   -5.2074 H   0  0  0  0  0  0  0  0  0  0  0  0
   -2.0876    3.2359   -5.5039 H   0  0  0  0  0  0  0  0  0  0  0  0
   -1.5664    1.8304   -3.5522 H   0  0  0  0  0  0  0  0  0  0  0  0
   -3.4682    0.0490    4.4786 H   0  0  0  0  0  0  0  0  0  0  0  0
   -4.0216   -1.6297    4.2693 H   0  0  0  0  0  0  0  0  0  0  0  0
   -4.9431   -0.2796    3.5932 H   0  0  0  0  0  0  0  0  0  0  0  0
   -4.8522   -0.6896    1.4460 H   0  0  0  0  0  0  0  0  0  0  0  0
   -2.6446   -0.1806   -0.3907 H   0  0  0  0  0  0  0  0  0  0  0  0
   -3.7577   -3.1173   -0.3203 H   0  0  0  0  0  0  0  0  0  0  0  0
   -1.8633   -1.7041   -2.2608 H   0  0  0  0  0  0  0  0  0  0  0  0
   -2.9554   -2.9664   -2.7933 H   0  0  0  0  0  0  0  0  0  0  0  0
   -0.7318   -3.8647   -2.3879 H   0  0  0  0  0  0  0  0  0  0  0  0
   -1.9275   -4.6235   -1.3347 H   0  0  0  0  0  0  0  0  0  0  0  0
    0.4119   -4.7253    1.0884 H   0  0  0  0  0  0  0  0  0  0  0  0
    0.4658   -5.2797   -0.5870 H   0  0  0  0  0  0  0  0  0  0  0  0
    1.5310   -3.9722   -0.0607 H   0  0  0  0  0  0  0  0  0  0  0  0
   -0.7191   -1.1895   -0.4627 H   0  0  0  0  0  0  0  0  0  0  0  0
    0.4704   -2.1640    2.1402 H   0  0  0  0  0  0  0  0  0  0  0  0
   -3.3854    0.0221   -2.6162 H   0  0  0  0  0  0  0  0  0  0  0  0
   -4.7381   -0.9133   -3.2679 H   0  0  0  0  0  0  0  0  0  0  0  0
   -5.0384    0.5503   -2.3084 H   0  0  0  0  0  0  0  0  0  0  0  0
   -6.4565   -0.6241   -0.5126 H   0  0  0  0  0  0  0  0  0  0  0  0
   -5.9498   -2.2218    0.0704 H   0  0  0  0  0  0  0  0  0  0  0  0
   -6.3933   -2.0042   -1.6244 H   0  0  0  0  0  0  0  0  0  0  0  0
  1  2  1  0
  2  3  2  0
  2  4  1  0
  4  5  1  0
  5  6  1  0
  6  7  1  0
  7  8  1  0
  8  9  1  0
  9 10  2  0
  9 11  1  0
 11 12  2  0
 12 13  1  0
 13 14  2  0
 14 15  1  0
 15 16  2  0
  6 17  1  0
 17 18  1  0
 18 19  1  6
 19 20  1  0
 20 21  2  0
 20 22  1  0
 22 23  2  0
 23 24  1  0
 24 25  2  0
 25 26  1  0
 26 27  2  0
 27 28  1  0
 28 29  2  0
 18 30  1  0
 30 31  2  0
 30 32  1  0
 32 33  1  0
 32 34  2  3
 34 35  1  0
 35 36  1  0
 36 37  1  0
 37 38  1  0
 38 39  1  0
 39 40  1  1
 39 41  1  0
 41 42  1  0
 42 43  1  0
 36 44  1  0
 44 45  1  0
 44 46  1  0
 43  5  1  0
 16 11  1  0
 43 18  1  0
 29 24  1  0
 44 35  1  0
 42 39  1  0
  1 47  1  0
  1 48  1  0
  1 49  1  0
  5 50  1  6
  6 51  1  1
  7 52  1  0
  7 53  1  0
 12 54  1  0
 13 55  1  0
 14 56  1  0
 15 57  1  0
 16 58  1  0
 17 59  1  0
 17 60  1  0
 22 61  1  0
 23 62  1  0
 25 63  1  0
 26 64  1  0
 27 65  1  0
 28 66  1  0
 29 67  1  0
 33 68  1  0
 33 69  1  0
 33 70  1  0
 34 71  1  0
 35 72  1  0
 36 73  1  1
 37 74  1  0
 37 75  1  0
 38 76  1  0
 38 77  1  0
 40 78  1  0
 40 79  1  0
 40 80  1  0
 42 81  1  6
 43 82  1  1
 45 83  1  0
 45 84  1  0
 45 85  1  0
 46 86  1  0
 46 87  1  0
 46 88  1  0
M  END
$$$$
