
     RDKit          3D

 29 29  0  0  0  0  0  0  0  0999 V2000
   -2.6033   -2.9461    1.3315 C   0  0  0  0  0  0  0  0  0  0  0  0
   -2.7953   -2.5562    0.2114 C   0  0  0  0  0  0  0  0  0  0  0  0
   -3.0371   -2.0968   -1.1615 C   0  0  0  0  0  0  0  0  0  0  0  0
   -1.9680   -1.2175   -1.6362 N   0  0  0  0  0  0  0  0  0  0  0  0
   -2.2015    0.2034   -1.3484 C   0  0  0  0  0  0  0  0  0  0  0  0
   -1.9834    0.6227    0.1087 C   0  0  0  0  0  0  0  0  0  0  0  0
   -0.5557    0.3824    0.5962 C   0  0  0  0  0  0  0  0  0  0  0  0
    0.3198    1.2567   -0.1182 O   0  0  0  0  0  0  0  0  0  0  0  0
    1.6654    1.1487    0.1107 C   0  0  0  0  0  0  0  0  0  0  0  0
    2.2425    0.3031    1.0641 C   0  0  0  0  0  0  0  0  0  0  0  0
    3.6316    0.2653    1.2276 C   0  0  0  0  0  0  0  0  0  0  0  0
    4.4489    1.0733    0.4408 C   0  0  0  0  0  0  0  0  0  0  0  0
    6.1556    1.0206    0.6493 Cl  0  0  0  0  0  0  0  0  0  0  0  0
    3.8940    1.9223   -0.5104 C   0  0  0  0  0  0  0  0  0  0  0  0
    2.5069    1.9585   -0.6725 C   0  0  0  0  0  0  0  0  0  0  0  0
    1.8628    3.0306   -1.8692 Cl  0  0  0  0  0  0  0  0  0  0  0  0
   -2.4300   -3.2954    2.3229 H   0  0  0  0  0  0  0  0  0  0  0  0
   -3.0563   -2.9811   -1.8103 H   0  0  0  0  0  0  0  0  0  0  0  0
   -4.0233   -1.6289   -1.2583 H   0  0  0  0  0  0  0  0  0  0  0  0
   -1.9123   -1.3184   -2.6497 H   0  0  0  0  0  0  0  0  0  0  0  0
   -1.5152    0.7821   -1.9790 H   0  0  0  0  0  0  0  0  0  0  0  0
   -3.2102    0.4930   -1.6680 H   0  0  0  0  0  0  0  0  0  0  0  0
   -2.6934    0.1126    0.7667 H   0  0  0  0  0  0  0  0  0  0  0  0
   -2.2041    1.6953    0.1816 H   0  0  0  0  0  0  0  0  0  0  0  0
   -0.2698   -0.6641    0.4425 H   0  0  0  0  0  0  0  0  0  0  0  0
   -0.5093    0.6204    1.6656 H   0  0  0  0  0  0  0  0  0  0  0  0
    1.6403   -0.3402    1.6979 H   0  0  0  0  0  0  0  0  0  0  0  0
    4.0669   -0.3979    1.9713 H   0  0  0  0  0  0  0  0  0  0  0  0
    4.5334    2.5519   -1.1225 H   0  0  0  0  0  0  0  0  0  0  0  0
  1  2  3  0
  2  3  1  0
  3  4  1  0
  4  5  1  0
  5  6  1  0
  6  7  1  0
  7  8  1  0
  8  9  1  0
  9 10  2  0
 10 11  1  0
 11 12  2  0
 12 13  1  0
 12 14  1  0
 14 15  2  0
 15 16  1  0
 15  9  1  0
  1 17  1  0
  3 18  1  0
  3 19  1  0
  4 20  1  0
  5 21  1  0
  5 22  1  0
  6 23  1  0
  6 24  1  0
  7 25  1  0
  7 26  1  0
 10 27  1  0
 11 28  1  0
 14 29  1  0
M  END
$$$$
