
     RDKit          3D

 38 38  0  0  0  0  0  0  0  0999 V2000
    3.6006    3.3504    1.9306 C   0  0  0  0  0  0  0  0  0  0  0  0
    2.6286    2.3173    2.0354 O   0  0  0  0  0  0  0  0  0  0  0  0
    3.2422    1.0509    2.3107 C   0  0  0  0  0  0  0  0  0  0  0  0
    2.1506   -0.0190    2.3667 C   0  0  0  0  0  0  0  0  0  0  0  0
    1.4777   -0.1676    1.0861 N   0  0  0  0  0  0  0  0  0  0  0  0
    2.0416   -0.9064    0.0695 C   0  0  0  0  0  0  0  0  0  0  0  0
    3.0590   -1.5760    0.2120 O   0  0  0  0  0  0  0  0  0  0  0  0
    1.3669   -0.7888   -1.2592 C   0  0  0  0  0  0  0  0  0  0  0  0
    2.2286   -0.6745   -2.3826 C   0  0  0  0  0  0  0  0  0  0  0  0
    2.9129   -0.5550   -3.3138 N   0  0  0  0  0  0  0  0  0  0  0  0
    0.0191   -0.8460   -1.2998 C   0  0  0  0  0  0  0  0  0  0  0  0
   -0.9262   -0.7757   -2.4210 C   0  0  0  0  0  0  0  0  0  0  0  0
   -0.4185   -0.7739   -3.8418 C   0  0  0  0  0  0  0  0  0  0  0  0
   -2.2632   -0.7289   -2.2280 C   0  0  0  0  0  0  0  0  0  0  0  0
   -2.9587   -0.7078   -0.9371 C   0  0  0  0  0  0  0  0  0  0  0  0
   -3.3948   -1.9023   -0.3549 C   0  0  0  0  0  0  0  0  0  0  0  0
   -4.0405   -1.8828    0.8826 C   0  0  0  0  0  0  0  0  0  0  0  0
   -4.2523   -0.6717    1.5409 C   0  0  0  0  0  0  0  0  0  0  0  0
   -3.8200    0.5218    0.9634 C   0  0  0  0  0  0  0  0  0  0  0  0
   -3.1741    0.5051   -0.2739 C   0  0  0  0  0  0  0  0  0  0  0  0
    3.0818    4.2915    1.7297 H   0  0  0  0  0  0  0  0  0  0  0  0
    4.1566    3.4500    2.8678 H   0  0  0  0  0  0  0  0  0  0  0  0
    4.2878    3.1468    1.1037 H   0  0  0  0  0  0  0  0  0  0  0  0
    3.9730    0.8198    1.5273 H   0  0  0  0  0  0  0  0  0  0  0  0
    3.7550    1.1027    3.2775 H   0  0  0  0  0  0  0  0  0  0  0  0
    2.5805   -0.9821    2.6604 H   0  0  0  0  0  0  0  0  0  0  0  0
    1.3786    0.2621    3.0903 H   0  0  0  0  0  0  0  0  0  0  0  0
    0.8025    0.5525    0.8572 H   0  0  0  0  0  0  0  0  0  0  0  0
   -0.4759   -0.9846   -0.3365 H   0  0  0  0  0  0  0  0  0  0  0  0
    0.1950   -1.6592   -4.0384 H   0  0  0  0  0  0  0  0  0  0  0  0
    0.1599    0.1323   -4.0470 H   0  0  0  0  0  0  0  0  0  0  0  0
   -1.2362   -0.7948   -4.5719 H   0  0  0  0  0  0  0  0  0  0  0  0
   -2.9408   -0.6898   -3.0799 H   0  0  0  0  0  0  0  0  0  0  0  0
   -3.2319   -2.8523   -0.8585 H   0  0  0  0  0  0  0  0  0  0  0  0
   -4.3787   -2.8127    1.3328 H   0  0  0  0  0  0  0  0  0  0  0  0
   -4.7569   -0.6580    2.5038 H   0  0  0  0  0  0  0  0  0  0  0  0
   -3.9880    1.4655    1.4760 H   0  0  0  0  0  0  0  0  0  0  0  0
   -2.8419    1.4412   -0.7166 H   0  0  0  0  0  0  0  0  0  0  0  0
  1  2  1  0
  2  3  1  0
  3  4  1  0
  4  5  1  0
  5  6  1  0
  6  7  2  0
  6  8  1  0
  8  9  1  0
  9 10  3  0
  8 11  2  3
 11 12  1  0
 12 13  1  0
 12 14  2  3
 14 15  1  0
 15 16  2  0
 16 17  1  0
 17 18  2  0
 18 19  1  0
 19 20  2  0
 20 15  1  0
  1 21  1  0
  1 22  1  0
  1 23  1  0
  3 24  1  0
  3 25  1  0
  4 26  1  0
  4 27  1  0
  5 28  1  0
 11 29  1  0
 13 30  1  0
 13 31  1  0
 13 32  1  0
 14 33  1  0
 16 34  1  0
 17 35  1  0
 18 36  1  0
 19 37  1  0
 20 38  1  0
M  END
$$$$
