
     RDKit          3D

 37 38  0  0  0  0  0  0  0  0999 V2000
   -5.6267   -1.5683   -1.1821 C   0  0  0  0  0  0  0  0  0  0  0  0
   -5.0705   -0.2172   -1.1200 N   0  0  0  0  0  0  0  0  0  0  0  0
   -5.7580    0.7853   -1.9330 C   0  0  0  0  0  0  0  0  0  0  0  0
   -3.7143   -0.0486   -0.8258 C   0  0  0  0  0  0  0  0  0  0  0  0
   -2.9362   -1.0776   -0.2683 C   0  0  0  0  0  0  0  0  0  0  0  0
   -1.5782   -0.9094    0.0479 C   0  0  0  0  0  0  0  0  0  0  0  0
   -0.9389    0.3075   -0.1842 C   0  0  0  0  0  0  0  0  0  0  0  0
    0.4697    0.5423    0.1630 C   0  0  0  0  0  0  0  0  0  0  0  0
    1.4406   -0.3665   -0.0249 C   0  0  0  0  0  0  0  0  0  0  0  0
    2.8489   -0.1402    0.3194 C   0  0  0  0  0  0  0  0  0  0  0  0
    3.6001   -1.1968    0.8314 C   0  0  0  0  0  0  0  0  0  0  0  0
    4.9420   -1.0048    1.1409 C   0  0  0  0  0  0  0  0  0  0  0  0
    5.5289    0.1964    0.9427 N   0  0  0  0  0  4  0  0  0  0  0  0
    6.9543    0.3737    1.2681 C   0  0  0  0  0  0  0  0  0  0  0  0
    4.8283    1.2287    0.4233 C   0  0  0  0  0  0  0  0  0  0  0  0
    3.4836    1.0818    0.1016 C   0  0  0  0  0  0  0  0  0  0  0  0
   -1.6948    1.3551   -0.7076 C   0  0  0  0  0  0  0  0  0  0  0  0
   -3.0518    1.1751   -1.0208 C   0  0  0  0  0  0  0  0  0  0  0  0
   -5.1181   -2.1679   -1.9451 H   0  0  0  0  0  0  0  0  0  0  0  0
   -5.5562   -2.0705   -0.2113 H   0  0  0  0  0  0  0  0  0  0  0  0
   -6.6931   -1.5501   -1.4334 H   0  0  0  0  0  0  0  0  0  0  0  0
   -5.7552    1.7640   -1.4412 H   0  0  0  0  0  0  0  0  0  0  0  0
   -5.2989    0.8693   -2.9242 H   0  0  0  0  0  0  0  0  0  0  0  0
   -6.8128    0.5261   -2.0781 H   0  0  0  0  0  0  0  0  0  0  0  0
   -3.3720   -2.0480   -0.0499 H   0  0  0  0  0  0  0  0  0  0  0  0
   -1.0465   -1.7451    0.4946 H   0  0  0  0  0  0  0  0  0  0  0  0
    0.6786    1.5221    0.5851 H   0  0  0  0  0  0  0  0  0  0  0  0
    1.2036   -1.3410   -0.4491 H   0  0  0  0  0  0  0  0  0  0  0  0
    3.1453   -2.1714    1.0011 H   0  0  0  0  0  0  0  0  0  0  0  0
    5.5541   -1.8065    1.5446 H   0  0  0  0  0  0  0  0  0  0  0  0
    7.1287    1.4128    1.5589 H   0  0  0  0  0  0  0  0  0  0  0  0
    7.5283    0.1173    0.3743 H   0  0  0  0  0  0  0  0  0  0  0  0
    7.2160   -0.2834    2.1015 H   0  0  0  0  0  0  0  0  0  0  0  0
    5.3532    2.1664    0.2630 H   0  0  0  0  0  0  0  0  0  0  0  0
    2.9444    1.9230   -0.3297 H   0  0  0  0  0  0  0  0  0  0  0  0
   -1.2474    2.3300   -0.8857 H   0  0  0  0  0  0  0  0  0  0  0  0
   -3.5788    2.0361   -1.4211 H   0  0  0  0  0  0  0  0  0  0  0  0
  1  2  1  0
  2  3  1  0
  2  4  1  0
  4  5  2  0
  5  6  1  0
  6  7  2  0
  7  8  1  0
  8  9  2  3
  9 10  1  0
 10 11  2  0
 11 12  1  0
 12 13  2  0
 13 14  1  0
 13 15  1  0
 15 16  2  0
  7 17  1  0
 17 18  2  0
 18  4  1  0
 16 10  1  0
  1 19  1  0
  1 20  1  0
  1 21  1  0
  3 22  1  0
  3 23  1  0
  3 24  1  0
  5 25  1  0
  6 26  1  0
  8 27  1  0
  9 28  1  0
 11 29  1  0
 12 30  1  0
 14 31  1  0
 14 32  1  0
 14 33  1  0
 15 34  1  0
 16 35  1  0
 17 36  1  0
 18 37  1  0
M  CHG  1  13   1
M  END
$$$$
