
     RDKit          3D

 63 66  0  0  0  0  0  0  0  0999 V2000
   -6.2302    3.5340   -0.0732 C   0  0  0  0  0  0  0  0  0  0  0  0
   -4.8548    3.2065   -0.6594 C   0  0  0  0  0  0  0  0  0  0  0  0
   -4.8765    1.9080   -1.4733 C   0  0  0  0  0  0  0  0  0  0  0  0
   -4.9455    0.6568   -0.5924 C   0  0  0  0  0  0  0  0  0  0  0  0
   -3.8479    0.6306    0.3843 N   0  0  0  0  0  0  0  0  0  0  0  0
   -3.8578   -0.5911    1.2024 C   0  0  0  0  0  0  0  0  0  0  0  0
   -3.1774   -1.6956    0.4747 C   0  0  0  0  0  0  0  0  0  0  0  0
   -1.8184   -1.8925    0.2703 C   0  0  0  0  0  0  0  0  0  0  0  0
   -0.6951   -1.0938    0.7602 C   0  0  0  0  0  0  0  0  0  0  0  0
   -0.8169   -0.2247    1.6181 O   0  0  0  0  0  0  0  0  0  0  0  0
    0.5018   -1.4592    0.1586 N   0  0  0  0  0  0  0  0  0  0  0  0
    1.6664   -0.8225    0.4705 N   0  0  0  0  0  0  0  0  0  0  0  0
    2.7096   -1.2232   -0.1836 C   0  0  0  0  0  0  0  0  0  0  0  0
    4.0401   -0.6214    0.0312 C   0  0  0  0  0  0  0  0  0  0  0  0
    4.2249    0.3981    0.9653 C   0  0  0  0  0  0  0  0  0  0  0  0
    5.4946    0.9541    1.1371 C   0  0  0  0  0  0  0  0  0  0  0  0
    6.5839    0.5027    0.3842 C   0  0  0  0  0  0  0  0  0  0  0  0
    7.7584    1.1456    0.6539 O   0  0  0  0  0  0  0  0  0  0  0  0
    8.9540    0.7488   -0.0240 C   0  0  0  0  0  0  0  0  0  0  0  0
    9.0639    1.4777   -1.3602 C   0  0  0  0  0  0  0  0  0  0  0  0
   10.1210    1.1406    0.8796 C   0  0  0  0  0  0  0  0  0  0  0  0
    6.3902   -0.5178   -0.5481 C   0  0  0  0  0  0  0  0  0  0  0  0
    5.1205   -1.0818   -0.7251 C   0  0  0  0  0  0  0  0  0  0  0  0
   -1.6360   -3.0039   -0.5098 N   0  0  0  0  0  0  0  0  0  0  0  0
   -2.8213   -3.5192   -0.7776 N   0  0  0  0  0  0  0  0  0  0  0  0
   -3.7909   -2.7575   -0.1828 N   0  0  0  0  0  0  0  0  0  0  0  0
   -5.1597   -3.1173   -0.2895 C   0  0  0  0  0  0  0  0  0  0  0  0
   -6.1135   -2.4321    0.3417 N   0  0  0  0  0  0  0  0  0  0  0  0
   -7.2918   -3.0968    0.0087 O   0  0  0  0  0  0  0  0  0  0  0  0
   -7.0399   -4.1851   -0.8186 N   0  0  0  0  0  0  0  0  0  0  0  0
   -5.7212   -4.1918   -1.0085 C   0  0  0  0  0  0  0  0  0  0  0  0
   -5.0709   -5.0917   -1.7703 N   0  0  0  0  0  0  0  0  0  0  0  0
   -3.8830    1.8207    1.2486 C   0  0  0  0  0  0  0  0  0  0  0  0
   -3.7807    3.1100    0.4292 C   0  0  0  0  0  0  0  0  0  0  0  0
   -6.9735    3.6331   -0.8711 H   0  0  0  0  0  0  0  0  0  0  0  0
   -6.5840    2.7649    0.6200 H   0  0  0  0  0  0  0  0  0  0  0  0
   -6.1999    4.4845    0.4705 H   0  0  0  0  0  0  0  0  0  0  0  0
   -4.5886    4.0308   -1.3336 H   0  0  0  0  0  0  0  0  0  0  0  0
   -3.9644    1.8595   -2.0836 H   0  0  0  0  0  0  0  0  0  0  0  0
   -5.7191    1.9112   -2.1750 H   0  0  0  0  0  0  0  0  0  0  0  0
   -5.9200    0.6046   -0.0904 H   0  0  0  0  0  0  0  0  0  0  0  0
   -4.8792   -0.2107   -1.2590 H   0  0  0  0  0  0  0  0  0  0  0  0
   -3.2869   -0.4308    2.1273 H   0  0  0  0  0  0  0  0  0  0  0  0
   -4.8622   -0.8302    1.5572 H   0  0  0  0  0  0  0  0  0  0  0  0
    0.4907   -2.1985   -0.5372 H   0  0  0  0  0  0  0  0  0  0  0  0
    2.6474   -2.0294   -0.9373 H   0  0  0  0  0  0  0  0  0  0  0  0
    3.3904    0.7667    1.5582 H   0  0  0  0  0  0  0  0  0  0  0  0
    5.6355    1.7503    1.8645 H   0  0  0  0  0  0  0  0  0  0  0  0
    9.0009   -0.3377   -0.1592 H   0  0  0  0  0  0  0  0  0  0  0  0
    8.2345    1.2162   -2.0248 H   0  0  0  0  0  0  0  0  0  0  0  0
   10.0005    1.2316   -1.8696 H   0  0  0  0  0  0  0  0  0  0  0  0
    9.0165    2.5629   -1.2182 H   0  0  0  0  0  0  0  0  0  0  0  0
   10.0361    0.6367    1.8491 H   0  0  0  0  0  0  0  0  0  0  0  0
   11.0815    0.8701    0.4299 H   0  0  0  0  0  0  0  0  0  0  0  0
   10.1183    2.2176    1.0832 H   0  0  0  0  0  0  0  0  0  0  0  0
    7.2009   -0.8948   -1.1620 H   0  0  0  0  0  0  0  0  0  0  0  0
    4.9905   -1.8724   -1.4592 H   0  0  0  0  0  0  0  0  0  0  0  0
   -5.5579   -5.9302   -2.0681 H   0  0  0  0  0  0  0  0  0  0  0  0
   -4.0564   -5.1790   -1.7328 H   0  0  0  0  0  0  0  0  0  0  0  0
   -4.7936    1.8311    1.8610 H   0  0  0  0  0  0  0  0  0  0  0  0
   -3.0314    1.8028    1.9405 H   0  0  0  0  0  0  0  0  0  0  0  0
   -2.7911    3.1466   -0.0471 H   0  0  0  0  0  0  0  0  0  0  0  0
   -3.8351    3.9777    1.0977 H   0  0  0  0  0  0  0  0  0  0  0  0
  1  2  1  0
  2  3  1  0
  3  4  1  0
  4  5  1  0
  5  6  1  0
  6  7  1  0
  7  8  2  0
  8  9  1  0
  9 10  2  0
  9 11  1  0
 11 12  1  0
 12 13  2  3
 13 14  1  0
 14 15  2  0
 15 16  1  0
 16 17  2  0
 17 18  1  0
 18 19  1  0
 19 20  1  0
 19 21  1  0
 17 22  1  0
 22 23  2  0
  8 24  1  0
 24 25  2  0
 25 26  1  0
 26 27  1  0
 27 28  2  0
 28 29  1  0
 29 30  1  0
 30 31  2  0
 31 32  1  0
  5 33  1  0
 33 34  1  0
 34  2  1  0
 26  7  1  0
 31 27  1  0
 23 14  1  0
  1 35  1  0
  1 36  1  0
  1 37  1  0
  2 38  1  0
  3 39  1  0
  3 40  1  0
  4 41  1  0
  4 42  1  0
  6 43  1  0
  6 44  1  0
 11 45  1  0
 13 46  1  0
 15 47  1  0
 16 48  1  0
 19 49  1  0
 20 50  1  0
 20 51  1  0
 20 52  1  0
 21 53  1  0
 21 54  1  0
 21 55  1  0
 22 56  1  0
 23 57  1  0
 32 58  1  0
 32 59  1  0
 33 60  1  0
 33 61  1  0
 34 62  1  0
 34 63  1  0
M  END
$$$$
