
     RDKit          3D

 46 48  0  0  0  0  0  0  0  0999 V2000
   -8.0056   -1.5999    0.2464 C   0  0  0  0  0  0  0  0  0  0  0  0
   -7.4397   -0.6983    1.1890 O   0  0  0  0  0  0  0  0  0  0  0  0
   -6.2406   -0.1282    0.8575 C   0  0  0  0  0  0  0  0  0  0  0  0
   -5.6888    0.6826    1.8518 C   0  0  0  0  0  0  0  0  0  0  0  0
   -4.4753    1.3414    1.6429 C   0  0  0  0  0  0  0  0  0  0  0  0
   -3.7920    1.1883    0.4325 C   0  0  0  0  0  0  0  0  0  0  0  0
   -2.5295    1.9100    0.2411 C   0  0  0  0  0  0  0  0  0  0  0  0
   -1.3048    1.3668    0.2881 C   0  0  0  0  0  0  0  0  0  0  0  0
    0.1343    2.3183    0.0167 S   0  0  0  0  0  0  0  0  0  0  0  0
    1.1433    0.9250    0.2191 C   0  0  0  0  0  0  0  0  0  0  0  0
    2.4760    0.9698    0.1149 C   0  0  0  0  0  0  0  0  0  0  0  0
    3.3218   -0.2412    0.2934 C   0  0  0  0  0  0  0  0  0  0  0  0
    2.8537   -1.3038    0.6927 O   0  0  0  0  0  0  0  0  0  0  0  0
    4.7764   -0.1284    0.0066 C   0  0  0  0  0  0  0  0  0  0  0  0
    5.6531   -0.9546    0.7199 C   0  0  0  0  0  0  0  0  0  0  0  0
    7.0288   -0.8916    0.4863 C   0  0  0  0  0  0  0  0  0  0  0  0
    7.5459   -0.0031   -0.4632 C   0  0  0  0  0  0  0  0  0  0  0  0
    9.0203    0.0380   -0.7396 C   0  0  0  0  0  0  0  0  0  0  0  0
    6.6640    0.7981   -1.1988 C   0  0  0  0  0  0  0  0  0  0  0  0
    5.2862    0.7383   -0.9670 C   0  0  0  0  0  0  0  0  0  0  0  0
    0.4112   -0.1885    0.4910 N   0  0  0  0  0  0  0  0  0  0  0  0
   -0.9524   -0.0601    0.5651 C   0  0  0  0  0  0  0  0  0  0  0  0
   -1.7180   -0.9734    0.8223 O   0  0  0  0  0  0  0  0  0  0  0  0
   -4.3365    0.3599   -0.5619 C   0  0  0  0  0  0  0  0  0  0  0  0
   -3.6620    0.2610   -1.7558 O   0  0  0  0  0  0  0  0  0  0  0  0
   -3.5001   -1.0869   -2.1946 C   0  0  0  0  0  0  0  0  0  0  0  0
   -5.5660   -0.2812   -0.3551 C   0  0  0  0  0  0  0  0  0  0  0  0
   -8.2711   -1.0829   -0.6815 H   0  0  0  0  0  0  0  0  0  0  0  0
   -7.3348   -2.4435    0.0520 H   0  0  0  0  0  0  0  0  0  0  0  0
   -8.9274   -2.0007    0.6789 H   0  0  0  0  0  0  0  0  0  0  0  0
   -6.2106    0.8041    2.7980 H   0  0  0  0  0  0  0  0  0  0  0  0
   -4.0694    1.9678    2.4332 H   0  0  0  0  0  0  0  0  0  0  0  0
   -2.6540    2.9695    0.0331 H   0  0  0  0  0  0  0  0  0  0  0  0
    2.9749    1.9097   -0.0864 H   0  0  0  0  0  0  0  0  0  0  0  0
    5.2683   -1.6530    1.4611 H   0  0  0  0  0  0  0  0  0  0  0  0
    7.6932   -1.5444    1.0490 H   0  0  0  0  0  0  0  0  0  0  0  0
    9.2749   -0.6853   -1.5203 H   0  0  0  0  0  0  0  0  0  0  0  0
    9.5935   -0.1983    0.1631 H   0  0  0  0  0  0  0  0  0  0  0  0
    9.3282    1.0365   -1.0673 H   0  0  0  0  0  0  0  0  0  0  0  0
    7.0465    1.4696   -1.9653 H   0  0  0  0  0  0  0  0  0  0  0  0
    4.6334    1.3556   -1.5775 H   0  0  0  0  0  0  0  0  0  0  0  0
    0.8591   -1.0856    0.6650 H   0  0  0  0  0  0  0  0  0  0  0  0
   -2.6545   -1.1116   -2.8887 H   0  0  0  0  0  0  0  0  0  0  0  0
   -4.3894   -1.4198   -2.7387 H   0  0  0  0  0  0  0  0  0  0  0  0
   -3.2761   -1.7701   -1.3678 H   0  0  0  0  0  0  0  0  0  0  0  0
   -5.9881   -0.8759   -1.1552 H   0  0  0  0  0  0  0  0  0  0  0  0
  1  2  1  0
  2  3  1  0
  3  4  2  0
  4  5  1  0
  5  6  2  0
  6  7  1  0
  7  8  2  3
  8  9  1  0
  9 10  1  0
 10 11  2  3
 11 12  1  0
 12 13  2  0
 12 14  1  0
 14 15  2  0
 15 16  1  0
 16 17  2  0
 17 18  1  0
 17 19  1  0
 19 20  2  0
 10 21  1  0
 21 22  1  0
 22 23  2  0
  6 24  1  0
 24 25  1  0
 25 26  1  0
 24 27  2  0
 27  3  1  0
 22  8  1  0
 20 14  1  0
  1 28  1  0
  1 29  1  0
  1 30  1  0
  4 31  1  0
  5 32  1  0
  7 33  1  0
 11 34  1  0
 15 35  1  0
 16 36  1  0
 18 37  1  0
 18 38  1  0
 18 39  1  0
 19 40  1  0
 20 41  1  0
 21 42  1  0
 26 43  1  0
 26 44  1  0
 26 45  1  0
 27 46  1  0
M  END
$$$$
