
     RDKit          3D

 56 58  0  0  0  0  0  0  0  0999 V2000
    9.8883    2.4614   -1.3895 C   0  0  0  0  0  0  0  0  0  0  0  0
    8.7160    1.5339   -1.1232 C   0  0  0  0  0  0  0  0  0  0  0  0
    7.6687    2.3056   -0.5377 O   0  0  0  0  0  0  0  0  0  0  0  0
    6.5250    1.6447   -0.1889 C   0  0  0  0  0  0  0  0  0  0  0  0
    5.5464    2.4409    0.4069 C   0  0  0  0  0  0  0  0  0  0  0  0
    4.3229    1.8960    0.8146 C   0  0  0  0  0  0  0  0  0  0  0  0
    4.0597    0.5411    0.6269 C   0  0  0  0  0  0  0  0  0  0  0  0
    2.8553   -0.0915    0.9991 N   0  0  0  0  0  0  0  0  0  0  0  0
    1.7528    0.4849    1.6096 C   0  0  0  0  0  0  0  0  0  0  0  0
    1.6287    1.6598    1.9365 O   0  0  0  0  0  0  0  0  0  0  0  0
    0.6384   -0.5268    1.8218 C   0  0  0  0  0  0  0  0  0  0  0  0
   -0.5105    0.0328    2.6537 C   0  0  0  0  0  0  0  0  0  0  0  0
   -1.2306    1.0682    1.8966 N   0  0  0  0  0  0  0  0  0  0  0  0
   -2.7698    1.5012    2.4163 S   0  0  0  0  0  6  0  0  0  0  0  0
   -3.0526    2.8101    1.8758 O   0  0  0  0  0  0  0  0  0  0  0  0
   -2.8723    1.2104    3.8291 O   0  0  0  0  0  0  0  0  0  0  0  0
   -3.7829    0.3447    1.5287 C   0  0  0  0  0  0  0  0  0  0  0  0
   -4.5439   -0.5970    2.2188 C   0  0  0  0  0  0  0  0  0  0  0  0
   -5.3457   -1.4946    1.5049 C   0  0  0  0  0  0  0  0  0  0  0  0
   -5.3988   -1.4597    0.1004 C   0  0  0  0  0  0  0  0  0  0  0  0
   -4.6294   -0.5055   -0.5668 C   0  0  0  0  0  0  0  0  0  0  0  0
   -3.8223    0.4010    0.1362 C   0  0  0  0  0  0  0  0  0  0  0  0
   -4.6641   -0.4537   -2.0362 C   0  0  0  0  0  0  0  0  0  0  0  0
   -3.9050    0.3120   -2.6254 O   0  0  0  0  0  0  0  0  0  0  0  0
   -5.5564   -1.3046   -2.6695 N   0  0  0  0  0  0  0  0  0  0  0  0
   -5.6269   -1.2438   -4.1180 C   0  0  0  0  0  0  0  0  0  0  0  0
   -6.2754   -2.3128   -2.0394 C   0  0  0  0  0  0  0  0  0  0  0  0
   -6.9413   -3.1263   -2.6837 O   0  0  0  0  0  0  0  0  0  0  0  0
   -6.1975   -2.3640   -0.6494 N   0  0  0  0  0  0  0  0  0  0  0  0
   -6.9689   -3.3890    0.0439 C   0  0  0  0  0  0  0  0  0  0  0  0
    5.0431   -0.2568    0.0282 C   0  0  0  0  0  0  0  0  0  0  0  0
    6.2681    0.2892   -0.3769 C   0  0  0  0  0  0  0  0  0  0  0  0
    9.5937    3.2703   -2.0668 H   0  0  0  0  0  0  0  0  0  0  0  0
   10.2266    2.9307   -0.4589 H   0  0  0  0  0  0  0  0  0  0  0  0
   10.7260    1.9148   -1.8344 H   0  0  0  0  0  0  0  0  0  0  0  0
    8.3810    1.0968   -2.0717 H   0  0  0  0  0  0  0  0  0  0  0  0
    9.0367    0.7425   -0.4353 H   0  0  0  0  0  0  0  0  0  0  0  0
    5.7337    3.5015    0.5572 H   0  0  0  0  0  0  0  0  0  0  0  0
    3.6007    2.5655    1.2704 H   0  0  0  0  0  0  0  0  0  0  0  0
    2.7947   -1.0788    0.7839 H   0  0  0  0  0  0  0  0  0  0  0  0
    1.0598   -1.3957    2.3413 H   0  0  0  0  0  0  0  0  0  0  0  0
    0.2770   -0.8520    0.8387 H   0  0  0  0  0  0  0  0  0  0  0  0
   -0.1353    0.4625    3.5892 H   0  0  0  0  0  0  0  0  0  0  0  0
   -1.1936   -0.7898    2.8932 H   0  0  0  0  0  0  0  0  0  0  0  0
   -0.6718    1.8956    1.6525 H   0  0  0  0  0  0  0  0  0  0  0  0
   -4.5266   -0.6380    3.3063 H   0  0  0  0  0  0  0  0  0  0  0  0
   -5.9265   -2.2106    2.0803 H   0  0  0  0  0  0  0  0  0  0  0  0
   -3.2339    1.1457   -0.3983 H   0  0  0  0  0  0  0  0  0  0  0  0
   -6.6398   -1.4712   -4.4648 H   0  0  0  0  0  0  0  0  0  0  0  0
   -4.9375   -1.9893   -4.5275 H   0  0  0  0  0  0  0  0  0  0  0  0
   -5.3448   -0.2552   -4.4911 H   0  0  0  0  0  0  0  0  0  0  0  0
   -6.2887   -4.0332    0.6116 H   0  0  0  0  0  0  0  0  0  0  0  0
   -7.5305   -4.0245   -0.6460 H   0  0  0  0  0  0  0  0  0  0  0  0
   -7.6902   -2.9097    0.7142 H   0  0  0  0  0  0  0  0  0  0  0  0
    4.8751   -1.3182   -0.1341 H   0  0  0  0  0  0  0  0  0  0  0  0
    6.9952   -0.3715   -0.8364 H   0  0  0  0  0  0  0  0  0  0  0  0
  1  2  1  0
  2  3  1  0
  3  4  1  0
  4  5  2  0
  5  6  1  0
  6  7  2  0
  7  8  1  0
  8  9  1  0
  9 10  2  0
  9 11  1  0
 11 12  1  0
 12 13  1  0
 13 14  1  0
 14 15  2  0
 14 16  2  0
 14 17  1  0
 17 18  2  0
 18 19  1  0
 19 20  2  0
 20 21  1  0
 21 22  2  0
 21 23  1  0
 23 24  2  0
 23 25  1  0
 25 26  1  0
 25 27  1  0
 27 28  2  0
 27 29  1  0
 29 30  1  0
  7 31  1  0
 31 32  2  0
 32  4  1  0
 22 17  1  0
 29 20  1  0
  1 33  1  0
  1 34  1  0
  1 35  1  0
  2 36  1  0
  2 37  1  0
  5 38  1  0
  6 39  1  0
  8 40  1  0
 11 41  1  0
 11 42  1  0
 12 43  1  0
 12 44  1  0
 13 45  1  0
 18 46  1  0
 19 47  1  0
 22 48  1  0
 26 49  1  0
 26 50  1  0
 26 51  1  0
 30 52  1  0
 30 53  1  0
 30 54  1  0
 31 55  1  0
 32 56  1  0
M  END
$$$$
