
     RDKit          3D

 36 37  0  0  0  0  0  0  0  0999 V2000
   -0.8024   -0.1953   -0.2173 O   0  0  0  0  0  0  0  0  0  0  0  0
   -0.2892   -1.2071    0.2592 C   0  0  0  0  0  0  0  0  0  0  0  0
    1.1747   -1.3139    0.6779 C   0  0  0  0  0  0  0  0  0  0  0  0
    1.8878   -0.1372    0.3071 O   0  0  0  0  0  0  0  0  0  0  0  0
    3.1686   -0.1196    0.7487 C   0  0  0  0  0  0  0  0  0  0  0  0
    3.7089   -0.9884    1.4097 O   0  0  0  0  0  0  0  0  0  0  0  0
    3.8100    1.1330    0.2945 C   0  0  0  0  0  0  0  0  0  0  0  0
    3.1290    2.3450    0.5015 C   0  0  0  0  0  0  0  0  0  0  0  0
    3.7094    3.5543    0.1171 C   0  0  0  0  0  0  0  0  0  0  0  0
    4.9710    3.5622   -0.4732 C   0  0  0  0  0  0  0  0  0  0  0  0
    5.6518    2.3617   -0.6850 C   0  0  0  0  0  0  0  0  0  0  0  0
    5.0757    1.1436   -0.3033 C   0  0  0  0  0  0  0  0  0  0  0  0
    6.0576   -0.4343   -0.6930 Br  0  0  0  0  0  0  0  0  0  0  0  0
   -1.0267   -2.3555    0.4864 N   0  0  0  0  0  0  0  0  0  0  0  0
   -2.3951   -2.4496    0.0069 C   0  0  0  0  0  0  0  0  0  0  0  0
   -3.3594   -1.5007    0.7367 C   0  0  0  0  0  0  0  0  0  0  0  0
   -4.3312   -0.9208   -0.1667 N   0  0  0  0  0  0  0  0  0  0  0  0
   -4.2086    0.2997   -0.7876 C   0  0  0  0  0  0  0  0  0  0  0  0
   -3.1155    1.0951   -0.6144 O   0  0  0  0  0  0  0  0  0  0  0  0
   -5.2442    0.6316   -1.5640 C   0  0  0  0  0  0  0  0  0  0  0  0
   -6.4501   -0.6168   -1.5879 S   0  0  0  0  0  0  0  0  0  0  0  0
   -5.4850   -1.6204   -0.4937 C   0  0  0  0  0  0  0  0  0  0  0  0
   -5.8085   -2.7383   -0.1257 O   0  0  0  0  0  0  0  0  0  0  0  0
    1.2004   -1.4465    1.7660 H   0  0  0  0  0  0  0  0  0  0  0  0
    1.6157   -2.1821    0.1749 H   0  0  0  0  0  0  0  0  0  0  0  0
    2.1448    2.3527    0.9662 H   0  0  0  0  0  0  0  0  0  0  0  0
    3.1774    4.4892    0.2791 H   0  0  0  0  0  0  0  0  0  0  0  0
    5.4248    4.5040   -0.7739 H   0  0  0  0  0  0  0  0  0  0  0  0
    6.6324    2.3866   -1.1556 H   0  0  0  0  0  0  0  0  0  0  0  0
   -0.5377   -3.2159    0.7070 H   0  0  0  0  0  0  0  0  0  0  0  0
   -2.3733   -2.2436   -1.0700 H   0  0  0  0  0  0  0  0  0  0  0  0
   -2.7182   -3.4879    0.1383 H   0  0  0  0  0  0  0  0  0  0  0  0
   -3.8968   -2.0751    1.5022 H   0  0  0  0  0  0  0  0  0  0  0  0
   -2.8461   -0.6982    1.2775 H   0  0  0  0  0  0  0  0  0  0  0  0
   -2.3230    0.5382   -0.4514 H   0  0  0  0  0  0  0  0  0  0  0  0
   -5.3291    1.5503   -2.1264 H   0  0  0  0  0  0  0  0  0  0  0  0
  1  2  2  0
  2  3  1  0
  3  4  1  0
  4  5  1  0
  5  6  2  0
  5  7  1  0
  7  8  2  0
  8  9  1  0
  9 10  2  0
 10 11  1  0
 11 12  2  0
 12 13  1  0
  2 14  1  0
 14 15  1  0
 15 16  1  0
 16 17  1  0
 17 18  1  0
 18 19  1  0
 18 20  2  0
 20 21  1  0
 21 22  1  0
 22 23  2  0
 12  7  1  0
 22 17  1  0
  3 24  1  0
  3 25  1  0
  8 26  1  0
  9 27  1  0
 10 28  1  0
 11 29  1  0
 14 30  1  0
 15 31  1  0
 15 32  1  0
 16 33  1  0
 16 34  1  0
 19 35  1  0
 20 36  1  0
M  END
$$$$
