
     RDKit          3D

 51 53  0  0  0  0  0  0  0  0999 V2000
    9.8977   -0.7877   -2.0027 C   0  0  0  0  0  0  0  0  0  0  0  0
    8.4804   -0.6931   -2.0760 O   0  0  0  0  0  0  0  0  0  0  0  0
    7.8154   -0.4543   -0.9046 C   0  0  0  0  0  0  0  0  0  0  0  0
    8.3981   -0.2953    0.3509 C   0  0  0  0  0  0  0  0  0  0  0  0
    7.5930   -0.0523    1.4656 C   0  0  0  0  0  0  0  0  0  0  0  0
    6.2046    0.0319    1.3327 C   0  0  0  0  0  0  0  0  0  0  0  0
    5.6091   -0.1260    0.0819 C   0  0  0  0  0  0  0  0  0  0  0  0
    4.2229   -0.0529   -0.1379 N   0  0  0  0  0  0  0  0  0  0  0  0
    3.2281    0.1673    0.7908 C   0  0  0  0  0  0  0  0  0  0  0  0
    3.3188    0.3375    1.9985 O   0  0  0  0  0  0  0  0  0  0  0  0
    1.8276    0.1856    0.1472 C   0  0  0  0  0  0  0  0  0  0  0  0
    1.7260   -0.0115   -1.0570 O   0  0  0  0  0  0  0  0  0  0  0  0
    0.8310    0.4232    1.0771 N   0  0  0  0  0  0  0  0  0  0  0  0
   -0.5243    0.3713    0.8778 N   0  0  0  0  0  0  0  0  0  0  0  0
   -1.0024    0.5424   -0.3115 C   0  0  0  0  0  0  0  0  0  0  0  0
   -2.4393    0.4698   -0.5366 C   0  0  0  0  0  0  0  0  0  0  0  0
   -3.0845    0.7901   -1.7560 C   0  0  0  0  0  0  0  0  0  0  0  0
   -4.4464    0.6398   -1.5902 C   0  0  0  0  0  0  0  0  0  0  0  0
   -5.5084    0.9731   -2.5827 C   0  0  0  0  0  0  0  0  0  0  0  0
   -4.6741    0.2211   -0.2827 N   0  0  0  0  0  0  0  0  0  0  0  0
   -5.9511    0.0179    0.3190 C   0  0  0  0  0  0  0  0  0  0  0  0
   -6.9510   -0.6851   -0.3616 C   0  0  0  0  0  0  0  0  0  0  0  0
   -8.1997   -0.8766    0.2364 C   0  0  0  0  0  0  0  0  0  0  0  0
   -8.4577   -0.3656    1.5116 C   0  0  0  0  0  0  0  0  0  0  0  0
  -10.0238   -0.6425    2.1863 Cl  0  0  0  0  0  0  0  0  0  0  0  0
   -7.4598    0.3400    2.1925 C   0  0  0  0  0  0  0  0  0  0  0  0
   -7.7098    1.0082    3.7664 Cl  0  0  0  0  0  0  0  0  0  0  0  0
   -6.2079    0.5308    1.5976 C   0  0  0  0  0  0  0  0  0  0  0  0
   -3.4367    0.0623    0.3449 C   0  0  0  0  0  0  0  0  0  0  0  0
   -3.2735   -0.5322    1.7097 C   0  0  0  0  0  0  0  0  0  0  0  0
    6.4241   -0.3686   -1.0307 C   0  0  0  0  0  0  0  0  0  0  0  0
   10.2052   -1.6265   -1.3693 H   0  0  0  0  0  0  0  0  0  0  0  0
   10.2726   -0.9786   -3.0128 H   0  0  0  0  0  0  0  0  0  0  0  0
   10.3385    0.1530   -1.6563 H   0  0  0  0  0  0  0  0  0  0  0  0
    9.4711   -0.3527    0.4987 H   0  0  0  0  0  0  0  0  0  0  0  0
    8.0474    0.0732    2.4457 H   0  0  0  0  0  0  0  0  0  0  0  0
    5.6191    0.2230    2.2265 H   0  0  0  0  0  0  0  0  0  0  0  0
    3.8903   -0.1799   -1.0920 H   0  0  0  0  0  0  0  0  0  0  0  0
    1.1230    0.4304    2.0559 H   0  0  0  0  0  0  0  0  0  0  0  0
   -0.3954    0.7945   -1.1951 H   0  0  0  0  0  0  0  0  0  0  0  0
   -2.6043    1.1350   -2.6643 H   0  0  0  0  0  0  0  0  0  0  0  0
   -5.8796    0.0687   -3.0733 H   0  0  0  0  0  0  0  0  0  0  0  0
   -6.3439    1.5071   -2.1208 H   0  0  0  0  0  0  0  0  0  0  0  0
   -5.1069    1.6266   -3.3652 H   0  0  0  0  0  0  0  0  0  0  0  0
   -6.7661   -1.1308   -1.3356 H   0  0  0  0  0  0  0  0  0  0  0  0
   -8.9664   -1.4354   -0.2955 H   0  0  0  0  0  0  0  0  0  0  0  0
   -5.4532    1.1109    2.1239 H   0  0  0  0  0  0  0  0  0  0  0  0
   -3.1707    0.2565    2.4612 H   0  0  0  0  0  0  0  0  0  0  0  0
   -2.3842   -1.1689    1.7534 H   0  0  0  0  0  0  0  0  0  0  0  0
   -4.1106   -1.1801    1.9853 H   0  0  0  0  0  0  0  0  0  0  0  0
    5.9875   -0.4945   -2.0185 H   0  0  0  0  0  0  0  0  0  0  0  0
  1  2  1  0
  2  3  1  0
  3  4  2  0
  4  5  1  0
  5  6  2  0
  6  7  1  0
  7  8  1  0
  8  9  1  0
  9 10  2  0
  9 11  1  0
 11 12  2  0
 11 13  1  0
 13 14  1  0
 14 15  2  3
 15 16  1  0
 16 17  1  0
 17 18  2  0
 18 19  1  0
 18 20  1  0
 20 21  1  0
 21 22  2  0
 22 23  1  0
 23 24  2  0
 24 25  1  0
 24 26  1  0
 26 27  1  0
 26 28  2  0
 20 29  1  0
 29 30  1  0
  7 31  2  0
 31  3  1  0
 29 16  2  0
 28 21  1  0
  1 32  1  0
  1 33  1  0
  1 34  1  0
  4 35  1  0
  5 36  1  0
  6 37  1  0
  8 38  1  0
 13 39  1  0
 15 40  1  0
 17 41  1  0
 19 42  1  0
 19 43  1  0
 19 44  1  0
 22 45  1  0
 23 46  1  0
 28 47  1  0
 30 48  1  0
 30 49  1  0
 30 50  1  0
 31 51  1  0
M  END
$$$$
