
     RDKit          3D

 26 27  0  0  0  0  0  0  0  0999 V2000
   -1.2338   -1.1969    1.5616 O   0  0  0  0  0  0  0  0  0  0  0  0
   -1.3116   -0.8723    0.3769 C   0  0  0  0  0  0  0  0  0  0  0  0
   -0.1820   -1.1758   -0.6186 C   0  0  0  0  0  0  0  0  0  0  0  0
    0.9218   -1.8876   -0.0628 O   0  0  0  0  0  0  0  0  0  0  0  0
    1.9469   -1.0421    0.2724 C   0  0  0  0  0  0  0  0  0  0  0  0
    2.0545   -0.6464    1.6062 C   0  0  0  0  0  0  0  0  0  0  0  0
    3.1007    0.1877    2.0019 C   0  0  0  0  0  0  0  0  0  0  0  0
    4.0482    0.6116    1.0693 C   0  0  0  0  0  0  0  0  0  0  0  0
    3.9556    0.1961   -0.2610 C   0  0  0  0  0  0  0  0  0  0  0  0
    2.9093   -0.6380   -0.6600 C   0  0  0  0  0  0  0  0  0  0  0  0
    2.8365   -1.1433   -2.3091 Cl  0  0  0  0  0  0  0  0  0  0  0  0
   -2.4803   -0.1767   -0.1525 C   0  0  0  0  0  0  0  0  0  0  0  0
   -3.6085    0.2191    0.5508 C   0  0  0  0  0  0  0  0  0  0  0  0
   -4.4928    0.8595   -0.3469 C   0  0  0  0  0  0  0  0  0  0  0  0
   -3.8933    0.8440   -1.5832 C   0  0  0  0  0  0  0  0  0  0  0  0
   -2.6808    0.2166   -1.4600 N   0  0  0  0  0  0  0  0  0  0  0  0
   -0.5997   -1.8209   -1.4003 H   0  0  0  0  0  0  0  0  0  0  0  0
    0.1282   -0.2353   -1.0932 H   0  0  0  0  0  0  0  0  0  0  0  0
    1.3249   -0.9883    2.3373 H   0  0  0  0  0  0  0  0  0  0  0  0
    3.1795    0.4999    3.0407 H   0  0  0  0  0  0  0  0  0  0  0  0
    4.8654    1.2577    1.3815 H   0  0  0  0  0  0  0  0  0  0  0  0
    4.7059    0.5197   -0.9775 H   0  0  0  0  0  0  0  0  0  0  0  0
   -3.7671    0.0558    1.6108 H   0  0  0  0  0  0  0  0  0  0  0  0
   -5.4613    1.2839   -0.1145 H   0  0  0  0  0  0  0  0  0  0  0  0
   -4.2260    1.2242   -2.5404 H   0  0  0  0  0  0  0  0  0  0  0  0
   -2.0404    0.0709   -2.2295 H   0  0  0  0  0  0  0  0  0  0  0  0
  1  2  2  0
  2  3  1  0
  3  4  1  0
  4  5  1  0
  5  6  2  0
  6  7  1  0
  7  8  2  0
  8  9  1  0
  9 10  2  0
 10 11  1  0
  2 12  1  0
 12 13  2  0
 13 14  1  0
 14 15  2  0
 15 16  1  0
 10  5  1  0
 16 12  1  0
  3 17  1  0
  3 18  1  0
  6 19  1  0
  7 20  1  0
  8 21  1  0
  9 22  1  0
 13 23  1  0
 14 24  1  0
 15 25  1  0
 16 26  1  0
M  END
$$$$
