
     RDKit          3D

 32 32  0  0  0  0  0  0  0  0999 V2000
   -1.8330    3.1873   -1.8321 C   0  0  0  0  0  0  0  0  0  0  0  0
   -2.4043    2.1304   -1.8345 C   0  0  0  0  0  0  0  0  0  0  0  0
   -3.0999    0.8334   -1.8259 C   0  0  0  0  0  0  0  0  0  0  0  0
   -2.2308   -0.2730   -2.2495 N   0  0  0  0  0  0  0  0  0  0  0  0
   -3.0104   -1.4931   -2.4414 C   0  0  0  0  0  0  0  0  0  0  0  0
   -1.0582   -0.4882   -1.3832 C   0  0  0  0  0  0  0  0  0  0  0  0
   -1.3409   -0.8647    0.0801 C   0  0  0  0  0  0  0  0  0  0  0  0
   -0.0451   -1.0897    0.8614 C   0  0  0  0  0  0  0  0  0  0  0  0
    0.6661    0.1436    0.9320 O   0  0  0  0  0  0  0  0  0  0  0  0
    1.8862    0.1549    1.5522 C   0  0  0  0  0  0  0  0  0  0  0  0
    2.4590   -0.9469    2.1959 C   0  0  0  0  0  0  0  0  0  0  0  0
    3.7136   -0.8353    2.8053 C   0  0  0  0  0  0  0  0  0  0  0  0
    4.3992    0.3770    2.7750 C   0  0  0  0  0  0  0  0  0  0  0  0
    5.9408    0.5037    3.5275 Cl  0  0  0  0  0  0  0  0  0  0  0  0
    3.8450    1.4840    2.1420 C   0  0  0  0  0  0  0  0  0  0  0  0
    2.5924    1.3712    1.5342 C   0  0  0  0  0  0  0  0  0  0  0  0
    1.9427    2.7753    0.7584 Cl  0  0  0  0  0  0  0  0  0  0  0  0
   -1.3116    4.1163   -1.8279 H   0  0  0  0  0  0  0  0  0  0  0  0
   -3.9419    0.9144   -2.5258 H   0  0  0  0  0  0  0  0  0  0  0  0
   -3.5382    0.6457   -0.8389 H   0  0  0  0  0  0  0  0  0  0  0  0
   -3.7626   -1.3460   -3.2248 H   0  0  0  0  0  0  0  0  0  0  0  0
   -3.5301   -1.8088   -1.5305 H   0  0  0  0  0  0  0  0  0  0  0  0
   -2.3706   -2.3161   -2.7788 H   0  0  0  0  0  0  0  0  0  0  0  0
   -0.4428   -1.2772   -1.8363 H   0  0  0  0  0  0  0  0  0  0  0  0
   -0.4214    0.4041   -1.4167 H   0  0  0  0  0  0  0  0  0  0  0  0
   -1.9393   -1.7804    0.1304 H   0  0  0  0  0  0  0  0  0  0  0  0
   -1.9069   -0.0627    0.5668 H   0  0  0  0  0  0  0  0  0  0  0  0
    0.5591   -1.8549    0.3594 H   0  0  0  0  0  0  0  0  0  0  0  0
   -0.3016   -1.4259    1.8730 H   0  0  0  0  0  0  0  0  0  0  0  0
    1.9563   -1.9075    2.2457 H   0  0  0  0  0  0  0  0  0  0  0  0
    4.1485   -1.6991    3.3026 H   0  0  0  0  0  0  0  0  0  0  0  0
    4.3811    2.4285    2.1201 H   0  0  0  0  0  0  0  0  0  0  0  0
  1  2  3  0
  2  3  1  0
  3  4  1  0
  4  5  1  0
  4  6  1  0
  6  7  1  0
  7  8  1  0
  8  9  1  0
  9 10  1  0
 10 11  2  0
 11 12  1  0
 12 13  2  0
 13 14  1  0
 13 15  1  0
 15 16  2  0
 16 17  1  0
 16 10  1  0
  1 18  1  0
  3 19  1  0
  3 20  1  0
  5 21  1  0
  5 22  1  0
  5 23  1  0
  6 24  1  0
  6 25  1  0
  7 26  1  0
  7 27  1  0
  8 28  1  0
  8 29  1  0
 11 30  1  0
 12 31  1  0
 15 32  1  0
M  END
$$$$
