
     RDKit          3D

 55 60  0  0  0  0  0  0  0  0999 V2000
    4.2264   -2.6590    1.1633 O   0  0  0  0  0  0  0  0  0  0  0  0
    3.9124   -1.4703    1.1378 C   0  0  0  0  0  0  0  0  0  0  0  0
    4.7265   -0.4945    1.8490 C   0  0  0  0  0  0  0  0  0  0  0  0
    5.4595   -0.7048    3.0554 C   0  0  0  0  0  0  0  0  0  0  0  0
    6.1092    0.4732    3.3355 C   0  0  0  0  0  0  0  0  0  0  0  0
    5.8538    1.3923    2.3706 O   0  0  0  0  0  0  0  0  0  0  0  0
    5.0390    0.7943    1.4635 C   0  0  0  0  0  0  0  0  0  0  0  0
    2.7863   -1.0269    0.4352 N   0  0  0  0  0  0  0  0  0  0  0  0
    2.0756   -2.0021   -0.3848 C   0  0  0  0  0  0  0  0  0  0  0  0
    1.2785   -1.3111   -1.4847 C   0  0  0  0  0  0  0  0  0  0  0  0
    0.2151   -0.3099   -0.9329 C   0  0  0  0  0  0  0  0  0  0  0  0
    0.5781    0.0816    0.5263 C   0  0  0  0  0  0  0  0  0  0  0  0
    2.0875    0.2267    0.7144 C   0  0  0  0  0  0  0  0  0  0  0  0
    0.3214    0.9369   -1.6735 O   0  0  0  0  0  0  0  0  0  0  0  0
   -0.1687    0.9210   -2.9488 C   0  0  0  0  0  0  0  0  0  0  0  0
    0.2763    1.9415   -3.7906 C   0  0  0  0  0  0  0  0  0  0  0  0
   -0.1605    1.9913   -5.1152 C   0  0  0  0  0  0  0  0  0  0  0  0
   -1.0436    1.0243   -5.5856 C   0  0  0  0  0  0  0  0  0  0  0  0
   -1.4596    1.0772   -6.8568 F   0  0  0  0  0  0  0  0  0  0  0  0
   -1.5068    0.0121   -4.7551 C   0  0  0  0  0  0  0  0  0  0  0  0
   -1.0707   -0.0284   -3.4282 C   0  0  0  0  0  0  0  0  0  0  0  0
   -1.5824   -1.0586   -2.5061 C   0  0  0  0  0  0  0  0  0  0  0  0
   -2.2840   -1.9656   -2.9418 O   0  0  0  0  0  0  0  0  0  0  0  0
   -1.2351   -0.8631   -1.0333 C   0  0  0  0  0  0  0  0  0  0  0  0
   -2.3272    0.0060   -0.4197 C   0  0  0  0  0  0  0  0  0  0  0  0
   -2.6136   -0.7901    0.8049 C   0  0  0  0  0  0  0  0  0  0  0  0
   -3.4777   -0.2751    1.8929 C   0  0  0  0  0  0  0  0  0  0  0  0
   -4.1583    0.9426    1.7733 C   0  0  0  0  0  0  0  0  0  0  0  0
   -4.9636    1.3999    2.8220 C   0  0  0  0  0  0  0  0  0  0  0  0
   -5.0895    0.6425    3.9860 C   0  0  0  0  0  0  0  0  0  0  0  0
   -6.0802    1.2112    5.2715 Cl  0  0  0  0  0  0  0  0  0  0  0  0
   -4.4192   -0.5717    4.1118 C   0  0  0  0  0  0  0  0  0  0  0  0
   -3.6145   -1.0311    3.0654 C   0  0  0  0  0  0  0  0  0  0  0  0
   -2.0512   -1.9545    0.8417 N   0  0  0  0  0  0  0  0  0  0  0  0
   -1.3280   -2.1232   -0.3599 O   0  0  0  0  0  0  0  0  0  0  0  0
    5.4979   -1.6143    3.6398 H   0  0  0  0  0  0  0  0  0  0  0  0
    6.7659    0.7973    4.1309 H   0  0  0  0  0  0  0  0  0  0  0  0
    4.7853    1.4024    0.6068 H   0  0  0  0  0  0  0  0  0  0  0  0
    2.7961   -2.6953   -0.8340 H   0  0  0  0  0  0  0  0  0  0  0  0
    1.4238   -2.5904    0.2716 H   0  0  0  0  0  0  0  0  0  0  0  0
    0.8139   -2.0813   -2.1106 H   0  0  0  0  0  0  0  0  0  0  0  0
    1.9844   -0.7792   -2.1373 H   0  0  0  0  0  0  0  0  0  0  0  0
    0.2250   -0.6728    1.2375 H   0  0  0  0  0  0  0  0  0  0  0  0
    0.1075    1.0344    0.7965 H   0  0  0  0  0  0  0  0  0  0  0  0
    2.4831    0.9867    0.0320 H   0  0  0  0  0  0  0  0  0  0  0  0
    2.2879    0.5454    1.7422 H   0  0  0  0  0  0  0  0  0  0  0  0
    0.9728    2.6909   -3.4218 H   0  0  0  0  0  0  0  0  0  0  0  0
    0.1840    2.7743   -5.7844 H   0  0  0  0  0  0  0  0  0  0  0  0
   -2.2048   -0.7245   -5.1436 H   0  0  0  0  0  0  0  0  0  0  0  0
   -3.2370    0.0513   -1.0285 H   0  0  0  0  0  0  0  0  0  0  0  0
   -2.0010    1.0226   -0.1897 H   0  0  0  0  0  0  0  0  0  0  0  0
   -4.0883    1.5496    0.8756 H   0  0  0  0  0  0  0  0  0  0  0  0
   -5.4926    2.3449    2.7243 H   0  0  0  0  0  0  0  0  0  0  0  0
   -4.5177   -1.1667    5.0162 H   0  0  0  0  0  0  0  0  0  0  0  0
   -3.0978   -1.9836    3.1729 H   0  0  0  0  0  0  0  0  0  0  0  0
  1  2  2  0
  2  3  1  0
  3  4  1  0
  4  5  2  0
  5  6  1  0
  6  7  1  0
  2  8  1  0
  8  9  1  0
  9 10  1  0
 10 11  1  0
 11 12  1  0
 12 13  1  0
 11 14  1  0
 14 15  1  0
 15 16  2  0
 16 17  1  0
 17 18  2  0
 18 19  1  0
 18 20  1  0
 20 21  2  0
 21 22  1  0
 22 23  2  0
 22 24  1  0
 24 25  1  0
 25 26  1  0
 26 27  1  0
 27 28  2  0
 28 29  1  0
 29 30  2  0
 30 31  1  0
 30 32  1  0
 32 33  2  0
 26 34  2  0
 34 35  1  0
  7  3  2  0
 13  8  1  0
 21 15  1  0
 35 24  1  0
 24 11  1  0
 33 27  1  0
  4 36  1  0
  5 37  1  0
  7 38  1  0
  9 39  1  0
  9 40  1  0
 10 41  1  0
 10 42  1  0
 12 43  1  0
 12 44  1  0
 13 45  1  0
 13 46  1  0
 16 47  1  0
 17 48  1  0
 20 49  1  0
 25 50  1  0
 25 51  1  0
 28 52  1  0
 29 53  1  0
 32 54  1  0
 33 55  1  0
M  END
$$$$
