
     RDKit          3D

 62 65  0  0  0  0  0  0  0  0999 V2000
   -4.4920   -1.8396   -1.7576 C   0  0  0  0  0  0  0  0  0  0  0  0
   -4.1133   -2.1826   -0.3244 C   0  0  0  0  0  0  0  0  0  0  0  0
   -3.7272   -0.9852    0.4139 N   0  0  0  0  0  0  0  0  0  0  0  0
   -2.4588   -0.3774    0.5020 C   0  0  0  0  0  0  0  0  0  0  0  0
   -1.3287   -0.8859   -0.0344 C   0  0  0  0  0  0  0  0  0  0  0  0
    0.0165   -0.3481    0.0158 C   0  0  0  0  0  0  0  0  0  0  0  0
    1.0626   -0.9925   -0.5207 C   0  0  0  0  0  0  0  0  0  0  0  0
    2.4728   -0.5200   -0.5157 C   0  0  0  0  0  0  0  0  0  0  0  0
    3.4790   -1.2405   -0.9297 N   0  0  0  0  0  4  0  0  0  0  0  0
    3.5197   -2.6400   -1.4051 C   0  0  0  0  0  0  0  0  0  0  0  0
    3.3896   -2.6787   -2.9166 C   0  0  0  0  0  0  0  0  0  0  0  0
    4.7250   -0.4593   -0.8506 C   0  0  0  0  0  0  0  0  0  0  0  0
    6.0082   -0.8302   -1.2148 C   0  0  0  0  0  0  0  0  0  0  0  0
    7.0263    0.1119   -1.0503 C   0  0  0  0  0  0  0  0  0  0  0  0
    6.7441    1.3870   -0.5363 C   0  0  0  0  0  0  0  0  0  0  0  0
    5.4411    1.7414   -0.1790 C   0  0  0  0  0  0  0  0  0  0  0  0
    4.4364    0.7996   -0.3441 C   0  0  0  0  0  0  0  0  0  0  0  0
    2.9579    0.8915   -0.0498 C   0  0  0  0  0  0  0  0  0  0  0  0
    2.7634    1.1051    1.4557 C   0  0  0  0  0  0  0  0  0  0  0  0
    2.3335    2.0138   -0.8837 C   0  0  0  0  0  0  0  0  0  0  0  0
   -2.6164    0.9485    1.3244 C   0  0  0  0  0  0  0  0  0  0  0  0
   -1.8465    0.9115    2.6527 C   0  0  0  0  0  0  0  0  0  0  0  0
   -2.2779    2.2005    0.5004 C   0  0  0  0  0  0  0  0  0  0  0  0
   -4.1137    0.9448    1.6169 C   0  0  0  0  0  0  0  0  0  0  0  0
   -4.8714    1.8821    2.3116 C   0  0  0  0  0  0  0  0  0  0  0  0
   -6.2429    1.6675    2.4338 C   0  0  0  0  0  0  0  0  0  0  0  0
   -6.8343    0.5327    1.8654 C   0  0  0  0  0  0  0  0  0  0  0  0
   -6.0613   -0.4044    1.1701 C   0  0  0  0  0  0  0  0  0  0  0  0
   -4.6961   -0.1982    1.0481 C   0  0  0  0  0  0  0  0  0  0  0  0
   -5.3510   -1.1627   -1.7927 H   0  0  0  0  0  0  0  0  0  0  0  0
   -4.7546   -2.7500   -2.3068 H   0  0  0  0  0  0  0  0  0  0  0  0
   -3.6614   -1.3541   -2.2796 H   0  0  0  0  0  0  0  0  0  0  0  0
   -3.2904   -2.9071   -0.3330 H   0  0  0  0  0  0  0  0  0  0  0  0
   -4.9402   -2.7083    0.1677 H   0  0  0  0  0  0  0  0  0  0  0  0
   -1.4204   -1.8254   -0.5753 H   0  0  0  0  0  0  0  0  0  0  0  0
    0.1346    0.6008    0.5148 H   0  0  0  0  0  0  0  0  0  0  0  0
    0.8737   -1.9449   -1.0108 H   0  0  0  0  0  0  0  0  0  0  0  0
    4.4500   -3.1081   -1.0671 H   0  0  0  0  0  0  0  0  0  0  0  0
    2.7020   -3.1945   -0.9328 H   0  0  0  0  0  0  0  0  0  0  0  0
    2.4418   -2.2420   -3.2487 H   0  0  0  0  0  0  0  0  0  0  0  0
    3.4237   -3.7147   -3.2694 H   0  0  0  0  0  0  0  0  0  0  0  0
    4.1996   -2.1304   -3.4092 H   0  0  0  0  0  0  0  0  0  0  0  0
    6.2537   -1.8055   -1.6204 H   0  0  0  0  0  0  0  0  0  0  0  0
    8.0508   -0.1385   -1.3240 H   0  0  0  0  0  0  0  0  0  0  0  0
    7.5534    2.1072   -0.4161 H   0  0  0  0  0  0  0  0  0  0  0  0
    5.2360    2.7333    0.2172 H   0  0  0  0  0  0  0  0  0  0  0  0
    3.3243    1.9754    1.8150 H   0  0  0  0  0  0  0  0  0  0  0  0
    3.1038    0.2342    2.0290 H   0  0  0  0  0  0  0  0  0  0  0  0
    1.7177    1.2781    1.7220 H   0  0  0  0  0  0  0  0  0  0  0  0
    1.2604    2.1145   -0.7025 H   0  0  0  0  0  0  0  0  0  0  0  0
    2.4624    1.8304   -1.9571 H   0  0  0  0  0  0  0  0  0  0  0  0
    2.7901    2.9839   -0.6574 H   0  0  0  0  0  0  0  0  0  0  0  0
   -0.7635    0.9355    2.5046 H   0  0  0  0  0  0  0  0  0  0  0  0
   -2.0985    1.7705    3.2858 H   0  0  0  0  0  0  0  0  0  0  0  0
   -2.0806    0.0069    3.2276 H   0  0  0  0  0  0  0  0  0  0  0  0
   -2.8396    2.2242   -0.4410 H   0  0  0  0  0  0  0  0  0  0  0  0
   -2.5258    3.1168    1.0484 H   0  0  0  0  0  0  0  0  0  0  0  0
   -1.2163    2.2627    0.2510 H   0  0  0  0  0  0  0  0  0  0  0  0
   -4.4168    2.7645    2.7493 H   0  0  0  0  0  0  0  0  0  0  0  0
   -6.8599    2.3847    2.9707 H   0  0  0  0  0  0  0  0  0  0  0  0
   -7.9059    0.3788    1.9658 H   0  0  0  0  0  0  0  0  0  0  0  0
   -6.5487   -1.2717    0.7408 H   0  0  0  0  0  0  0  0  0  0  0  0
  1  2  1  0
  2  3  1  0
  3  4  1  0
  4  5  2  3
  5  6  1  0
  6  7  2  3
  7  8  1  0
  8  9  2  0
  9 10  1  0
 10 11  1  0
  9 12  1  0
 12 13  2  0
 13 14  1  0
 14 15  2  0
 15 16  1  0
 16 17  2  0
 17 18  1  0
 18 19  1  0
 18 20  1  0
  4 21  1  0
 21 22  1  0
 21 23  1  0
 21 24  1  0
 24 25  2  0
 25 26  1  0
 26 27  2  0
 27 28  1  0
 28 29  2  0
 29  3  1  0
 18  8  1  0
 29 24  1  0
 17 12  1  0
  1 30  1  0
  1 31  1  0
  1 32  1  0
  2 33  1  0
  2 34  1  0
  5 35  1  0
  6 36  1  0
  7 37  1  0
 10 38  1  0
 10 39  1  0
 11 40  1  0
 11 41  1  0
 11 42  1  0
 13 43  1  0
 14 44  1  0
 15 45  1  0
 16 46  1  0
 19 47  1  0
 19 48  1  0
 19 49  1  0
 20 50  1  0
 20 51  1  0
 20 52  1  0
 22 53  1  0
 22 54  1  0
 22 55  1  0
 23 56  1  0
 23 57  1  0
 23 58  1  0
 25 59  1  0
 26 60  1  0
 27 61  1  0
 28 62  1  0
M  CHG  1   9   1
M  END
$$$$
