
     RDKit          3D

 37 39  0  0  0  0  0  0  0  0999 V2000
    6.6005   -1.2455   -0.6226 C   0  0  0  0  0  0  0  0  0  0  0  0
    6.5891    0.1942   -0.1275 C   0  0  0  0  0  0  0  0  0  0  0  0
    5.8419    0.3719    1.1953 C   0  0  0  0  0  0  0  0  0  0  0  0
    4.3762    0.0998    1.0867 C   0  0  0  0  0  0  0  0  0  0  0  0
    3.7850   -0.9907    1.5281 N   0  0  0  0  0  0  0  0  0  0  0  0
    2.4230   -0.9696    1.2958 N   0  0  0  0  0  0  0  0  0  0  0  0
    2.0401    0.1325    0.6887 C   0  0  0  0  0  0  0  0  0  0  0  0
    0.7357    0.3581    0.3367 N   0  0  0  0  0  0  0  0  0  0  0  0
    0.2079    1.4904   -0.2400 C   0  0  0  0  0  0  0  0  0  0  0  0
    0.8020    2.5274   -0.5200 O   0  0  0  0  0  0  0  0  0  0  0  0
   -1.2816    1.3443   -0.5634 C   0  0  0  0  0  0  0  0  0  0  0  0
   -1.8753    0.3340    0.2461 O   0  0  0  0  0  0  0  0  0  0  0  0
   -3.2345    0.1931    0.1577 C   0  0  0  0  0  0  0  0  0  0  0  0
   -4.0537    0.7784   -0.8267 C   0  0  0  0  0  0  0  0  0  0  0  0
   -5.4381    0.5629   -0.8219 C   0  0  0  0  0  0  0  0  0  0  0  0
   -5.9640   -0.2308    0.1727 C   0  0  0  0  0  0  0  0  0  0  0  0
   -5.1663   -0.8070    1.1307 C   0  0  0  0  0  0  0  0  0  0  0  0
   -3.8011   -0.6213    1.1457 C   0  0  0  0  0  0  0  0  0  0  0  0
   -5.8779   -1.5524    2.0189 O   0  0  0  0  0  0  0  0  0  0  0  0
   -7.2179   -1.3667    1.5167 C   0  0  0  0  0  0  0  0  0  0  0  0
   -7.2772   -0.5426    0.3325 O   0  0  0  0  0  0  0  0  0  0  0  0
    3.3018    1.2316    0.3675 S   0  0  0  0  0  0  0  0  0  0  0  0
    5.5900   -1.6030   -0.8435 H   0  0  0  0  0  0  0  0  0  0  0  0
    7.0482   -1.9140    0.1187 H   0  0  0  0  0  0  0  0  0  0  0  0
    7.1876   -1.3184   -1.5437 H   0  0  0  0  0  0  0  0  0  0  0  0
    6.1586    0.8388   -0.9033 H   0  0  0  0  0  0  0  0  0  0  0  0
    7.6269    0.5184    0.0123 H   0  0  0  0  0  0  0  0  0  0  0  0
    5.9944    1.3918    1.5653 H   0  0  0  0  0  0  0  0  0  0  0  0
    6.2764   -0.2937    1.9513 H   0  0  0  0  0  0  0  0  0  0  0  0
    0.0926   -0.3811    0.5981 H   0  0  0  0  0  0  0  0  0  0  0  0
   -1.3564    1.0804   -1.6237 H   0  0  0  0  0  0  0  0  0  0  0  0
   -1.7532    2.3134   -0.3647 H   0  0  0  0  0  0  0  0  0  0  0  0
   -3.6447    1.4031   -1.6143 H   0  0  0  0  0  0  0  0  0  0  0  0
   -6.0779    1.0065   -1.5766 H   0  0  0  0  0  0  0  0  0  0  0  0
   -3.1887   -1.0891    1.9100 H   0  0  0  0  0  0  0  0  0  0  0  0
   -7.8238   -0.8968    2.3000 H   0  0  0  0  0  0  0  0  0  0  0  0
   -7.6455   -2.3486    1.2828 H   0  0  0  0  0  0  0  0  0  0  0  0
  1  2  1  0
  2  3  1  0
  3  4  1  0
  4  5  2  0
  5  6  1  0
  6  7  2  0
  7  8  1  0
  8  9  1  0
  9 10  2  0
  9 11  1  0
 11 12  1  0
 12 13  1  0
 13 14  2  0
 14 15  1  0
 15 16  2  0
 16 17  1  0
 17 18  2  0
 17 19  1  0
 19 20  1  0
 20 21  1  0
  7 22  1  0
 22  4  1  0
 18 13  1  0
 21 16  1  0
  1 23  1  0
  1 24  1  0
  1 25  1  0
  2 26  1  0
  2 27  1  0
  3 28  1  0
  3 29  1  0
  8 30  1  0
 11 31  1  0
 11 32  1  0
 14 33  1  0
 15 34  1  0
 18 35  1  0
 20 36  1  0
 20 37  1  0
M  END
$$$$
