
     RDKit          3D

 48 49  0  0  0  0  0  0  0  0999 V2000
   -5.1336   -0.5255    2.0260 C   0  0  0  0  0  0  0  0  0  0  0  0
   -4.9089   -0.8370    0.5537 C   0  0  0  0  0  0  0  0  0  0  0  0
   -4.8498    0.3696   -0.2819 N   0  0  0  0  0  0  0  0  0  0  0  0
   -6.0957    1.1133   -0.4805 C   0  0  0  0  0  0  0  0  0  0  0  0
   -6.1034    2.4375    0.2699 C   0  0  0  0  0  0  0  0  0  0  0  0
   -3.7474    0.7580   -1.0471 C   0  0  0  0  0  0  0  0  0  0  0  0
   -3.8007    1.6238   -1.9168 O   0  0  0  0  0  0  0  0  0  0  0  0
   -2.4356    0.1110   -0.8276 C   0  0  0  0  0  0  0  0  0  0  0  0
   -1.7870   -0.4783   -1.9162 C   0  0  0  0  0  0  0  0  0  0  0  0
   -0.5290   -1.0607   -1.7412 C   0  0  0  0  0  0  0  0  0  0  0  0
    0.0901   -1.0607   -0.4817 C   0  0  0  0  0  0  0  0  0  0  0  0
    1.3577   -1.6657   -0.3865 N   0  0  0  0  0  0  0  0  0  0  0  0
    2.1094   -1.8772    0.7575 C   0  0  0  0  0  0  0  0  0  0  0  0
    1.7734   -1.6405    1.9145 O   0  0  0  0  0  0  0  0  0  0  0  0
    3.4737   -2.5022    0.4557 C   0  0  0  0  0  0  0  0  0  0  0  0
    4.1243   -1.8928   -0.6566 O   0  0  0  0  0  0  0  0  0  0  0  0
    4.9221   -0.8025   -0.4083 C   0  0  0  0  0  0  0  0  0  0  0  0
    4.8098    0.0116    0.7259 C   0  0  0  0  0  0  0  0  0  0  0  0
    5.6670    1.1057    0.9048 C   0  0  0  0  0  0  0  0  0  0  0  0
    6.6323    1.3999   -0.0658 C   0  0  0  0  0  0  0  0  0  0  0  0
    7.5302    2.5438    0.1263 N   0  0  0  0  0  4  0  0  0  0  0  0
    8.3135    2.8196   -0.7953 O   0  0  0  0  0  0  0  0  0  0  0  0
    7.4512    3.1588    1.2000 O   0  0  0  0  0  1  0  0  0  0  0  0
    6.7476    0.6102   -1.2155 C   0  0  0  0  0  0  0  0  0  0  0  0
    5.8894   -0.4836   -1.3813 C   0  0  0  0  0  0  0  0  0  0  0  0
    6.0669   -1.4477   -2.8094 Cl  0  0  0  0  0  0  0  0  0  0  0  0
   -0.5606   -0.4491    0.5959 C   0  0  0  0  0  0  0  0  0  0  0  0
   -1.8129    0.1506    0.4226 C   0  0  0  0  0  0  0  0  0  0  0  0
   -4.3435    0.1229    2.4213 H   0  0  0  0  0  0  0  0  0  0  0  0
   -6.0929   -0.0223    2.1832 H   0  0  0  0  0  0  0  0  0  0  0  0
   -5.1455   -1.4505    2.6072 H   0  0  0  0  0  0  0  0  0  0  0  0
   -5.7303   -1.4590    0.1773 H   0  0  0  0  0  0  0  0  0  0  0  0
   -4.0046   -1.4359    0.4393 H   0  0  0  0  0  0  0  0  0  0  0  0
   -6.2262    1.3003   -1.5527 H   0  0  0  0  0  0  0  0  0  0  0  0
   -6.9425    0.4977   -0.1569 H   0  0  0  0  0  0  0  0  0  0  0  0
   -7.0505    2.9584    0.1207 H   0  0  0  0  0  0  0  0  0  0  0  0
   -5.9694    2.2783    1.3419 H   0  0  0  0  0  0  0  0  0  0  0  0
   -5.2972    3.0956   -0.0676 H   0  0  0  0  0  0  0  0  0  0  0  0
   -2.2606   -0.4803   -2.8955 H   0  0  0  0  0  0  0  0  0  0  0  0
   -0.0464   -1.5170   -2.6042 H   0  0  0  0  0  0  0  0  0  0  0  0
    1.7856   -1.9570   -1.2603 H   0  0  0  0  0  0  0  0  0  0  0  0
    3.2954   -3.5483    0.1929 H   0  0  0  0  0  0  0  0  0  0  0  0
    4.1070   -2.5087    1.3477 H   0  0  0  0  0  0  0  0  0  0  0  0
    4.0616   -0.1684    1.4949 H   0  0  0  0  0  0  0  0  0  0  0  0
    5.5624    1.7120    1.8017 H   0  0  0  0  0  0  0  0  0  0  0  0
    7.4965    0.8316   -1.9787 H   0  0  0  0  0  0  0  0  0  0  0  0
   -0.1080   -0.3966    1.5844 H   0  0  0  0  0  0  0  0  0  0  0  0
   -2.2853    0.6573    1.2622 H   0  0  0  0  0  0  0  0  0  0  0  0
  1  2  1  0
  2  3  1  0
  3  4  1  0
  4  5  1  0
  3  6  1  0
  6  7  2  0
  6  8  1  0
  8  9  2  0
  9 10  1  0
 10 11  2  0
 11 12  1  0
 12 13  1  0
 13 14  2  0
 13 15  1  0
 15 16  1  0
 16 17  1  0
 17 18  2  0
 18 19  1  0
 19 20  2  0
 20 21  1  0
 21 22  2  0
 21 23  1  0
 20 24  1  0
 24 25  2  0
 25 26  1  0
 11 27  1  0
 27 28  2  0
 28  8  1  0
 25 17  1  0
  1 29  1  0
  1 30  1  0
  1 31  1  0
  2 32  1  0
  2 33  1  0
  4 34  1  0
  4 35  1  0
  5 36  1  0
  5 37  1  0
  5 38  1  0
  9 39  1  0
 10 40  1  0
 12 41  1  0
 15 42  1  0
 15 43  1  0
 18 44  1  0
 19 45  1  0
 24 46  1  0
 27 47  1  0
 28 48  1  0
M  CHG  2  21   1  23  -1
M  END
$$$$
