
     RDKit          3D

 59 62  0  0  0  0  0  0  0  0999 V2000
   -6.4053    1.8560   -0.5069 C   0  0  0  0  0  0  0  0  0  0  0  0
   -5.4729    1.4851   -1.6465 C   0  0  0  0  0  0  0  0  0  0  0  0
   -4.8724    0.1726   -1.4628 N   0  0  0  0  0  0  0  0  0  0  0  0
   -5.4227   -1.0113   -1.9169 C   0  0  0  0  0  0  0  0  0  0  0  0
   -6.6206   -1.2752   -2.6038 C   0  0  0  0  0  0  0  0  0  0  0  0
   -6.9136   -2.6015   -2.9371 C   0  0  0  0  0  0  0  0  0  0  0  0
   -6.0444   -3.6330   -2.5983 C   0  0  0  0  0  0  0  0  0  0  0  0
   -4.8563   -3.3617   -1.9129 C   0  0  0  0  0  0  0  0  0  0  0  0
   -4.5376   -2.0314   -1.5634 C   0  0  0  0  0  0  0  0  0  0  0  0
   -3.4384   -1.4324   -0.8721 C   0  0  0  0  0  0  0  0  0  0  0  0
   -2.2623   -1.9535   -0.2825 C   0  0  0  0  0  0  0  0  0  0  0  0
   -1.3558   -1.0991    0.3510 C   0  0  0  0  0  0  0  0  0  0  0  0
   -0.1690   -1.5371    0.9705 N   0  0  0  0  0  0  0  0  0  0  0  0
    0.3247   -2.8307    1.0586 C   0  0  0  0  0  0  0  0  0  0  0  0
   -0.2046   -3.8482    0.6225 O   0  0  0  0  0  0  0  0  0  0  0  0
    1.6243   -2.9039    1.8821 C   0  0  0  0  0  0  0  0  0  0  0  0
    1.2708   -3.0276    3.3588 C   0  0  0  0  0  0  0  0  0  0  0  0
    2.4172   -1.7122    1.7363 O   0  0  0  0  0  0  0  0  0  0  0  0
    3.1812   -1.6675    0.6163 C   0  0  0  0  0  0  0  0  0  0  0  0
    3.2459   -2.5336   -0.2396 O   0  0  0  0  0  0  0  0  0  0  0  0
    3.9390   -0.3894    0.5487 C   0  0  0  0  0  0  0  0  0  0  0  0
    4.7725   -0.1716   -0.5536 C   0  0  0  0  0  0  0  0  0  0  0  0
    5.5012    1.0177   -0.6649 C   0  0  0  0  0  0  0  0  0  0  0  0
    5.4060    2.0107    0.3181 C   0  0  0  0  0  0  0  0  0  0  0  0
    6.1723    3.1806    0.1260 N   0  0  0  0  0  0  0  0  0  0  0  0
    6.2197    4.2993    0.9463 C   0  0  0  0  0  0  0  0  0  0  0  0
    5.5815    4.4657    1.9818 O   0  0  0  0  0  0  0  0  0  0  0  0
    7.1613    5.3725    0.4476 C   0  0  0  0  0  0  0  0  0  0  0  0
    8.4930    5.1702    1.0125 C   0  0  0  0  0  0  0  0  0  0  0  0
    9.5686    5.0080    1.4177 N   0  0  0  0  0  0  0  0  0  0  0  0
    4.5743    1.7893    1.4178 C   0  0  0  0  0  0  0  0  0  0  0  0
    3.8467    0.5969    1.5363 C   0  0  0  0  0  0  0  0  0  0  0  0
   -1.6229    0.2722    0.3935 C   0  0  0  0  0  0  0  0  0  0  0  0
   -2.7770    0.8158   -0.1838 C   0  0  0  0  0  0  0  0  0  0  0  0
   -3.6730   -0.0588   -0.8156 C   0  0  0  0  0  0  0  0  0  0  0  0
   -6.8313    2.8503   -0.6732 H   0  0  0  0  0  0  0  0  0  0  0  0
   -5.8753    1.8678    0.4514 H   0  0  0  0  0  0  0  0  0  0  0  0
   -7.2307    1.1415   -0.4220 H   0  0  0  0  0  0  0  0  0  0  0  0
   -6.0088    1.4856   -2.6015 H   0  0  0  0  0  0  0  0  0  0  0  0
   -4.6664    2.2197   -1.7401 H   0  0  0  0  0  0  0  0  0  0  0  0
   -7.3100   -0.4817   -2.8724 H   0  0  0  0  0  0  0  0  0  0  0  0
   -7.8351   -2.8289   -3.4680 H   0  0  0  0  0  0  0  0  0  0  0  0
   -6.2880   -4.6588   -2.8642 H   0  0  0  0  0  0  0  0  0  0  0  0
   -4.1827   -4.1722   -1.6480 H   0  0  0  0  0  0  0  0  0  0  0  0
   -2.0972   -3.0234   -0.3387 H   0  0  0  0  0  0  0  0  0  0  0  0
    0.4138   -0.8206    1.3873 H   0  0  0  0  0  0  0  0  0  0  0  0
    2.1967   -3.7867    1.5719 H   0  0  0  0  0  0  0  0  0  0  0  0
    0.7312   -2.1417    3.7130 H   0  0  0  0  0  0  0  0  0  0  0  0
    0.6450   -3.9059    3.5462 H   0  0  0  0  0  0  0  0  0  0  0  0
    2.1802   -3.1073    3.9640 H   0  0  0  0  0  0  0  0  0  0  0  0
    4.8608   -0.9275   -1.3329 H   0  0  0  0  0  0  0  0  0  0  0  0
    6.1403    1.1492   -1.5350 H   0  0  0  0  0  0  0  0  0  0  0  0
    6.7585    3.1811   -0.7010 H   0  0  0  0  0  0  0  0  0  0  0  0
    7.1972    5.3613   -0.6480 H   0  0  0  0  0  0  0  0  0  0  0  0
    6.7559    6.3478    0.7380 H   0  0  0  0  0  0  0  0  0  0  0  0
    4.4704    2.5204    2.2140 H   0  0  0  0  0  0  0  0  0  0  0  0
    3.2181    0.4599    2.4129 H   0  0  0  0  0  0  0  0  0  0  0  0
   -0.9320    0.9535    0.8842 H   0  0  0  0  0  0  0  0  0  0  0  0
   -2.9622    1.8837   -0.1324 H   0  0  0  0  0  0  0  0  0  0  0  0
  1  2  1  0
  2  3  1  0
  3  4  1  0
  4  5  2  0
  5  6  1  0
  6  7  2  0
  7  8  1  0
  8  9  2  0
  9 10  1  0
 10 11  2  0
 11 12  1  0
 12 13  1  0
 13 14  1  0
 14 15  2  0
 14 16  1  0
 16 17  1  0
 16 18  1  0
 18 19  1  0
 19 20  2  0
 19 21  1  0
 21 22  2  0
 22 23  1  0
 23 24  2  0
 24 25  1  0
 25 26  1  0
 26 27  2  0
 26 28  1  0
 28 29  1  0
 29 30  3  0
 24 31  1  0
 31 32  2  0
 12 33  2  0
 33 34  1  0
 34 35  2  0
 35  3  1  0
  9  4  1  0
 35 10  1  0
 32 21  1  0
  1 36  1  0
  1 37  1  0
  1 38  1  0
  2 39  1  0
  2 40  1  0
  5 41  1  0
  6 42  1  0
  7 43  1  0
  8 44  1  0
 11 45  1  0
 13 46  1  0
 16 47  1  0
 17 48  1  0
 17 49  1  0
 17 50  1  0
 22 51  1  0
 23 52  1  0
 25 53  1  0
 28 54  1  0
 28 55  1  0
 31 56  1  0
 32 57  1  0
 33 58  1  0
 34 59  1  0
M  END
$$$$
