
     RDKit          3D

 34 34  0  0  0  0  0  0  0  0999 V2000
    6.1296    0.2013    0.5381 C   0  0  0  0  0  0  0  0  0  0  0  0
    5.4340    0.9919   -0.5591 C   0  0  0  0  0  0  0  0  0  0  0  0
    3.9246    1.1129   -0.3577 C   0  0  0  0  0  0  0  0  0  0  0  0
    3.1872   -0.2198   -0.4418 C   0  0  0  0  0  0  0  0  0  0  0  0
    1.7814    0.0477   -0.3320 O   0  0  0  0  0  0  0  0  0  0  0  0
    0.9980   -1.0577   -0.4023 C   0  0  0  0  0  0  0  0  0  0  0  0
    1.3928   -2.2039   -0.5450 O   0  0  0  0  0  0  0  0  0  0  0  0
   -0.4388   -0.6888   -0.2804 C   0  0  0  0  0  0  0  0  0  0  0  0
   -0.8664    0.6333   -0.1157 C   0  0  0  0  0  0  0  0  0  0  0  0
   -2.2320    0.9228   -0.0062 C   0  0  0  0  0  0  0  0  0  0  0  0
   -3.1898   -0.0986   -0.0595 C   0  0  0  0  0  0  0  0  0  0  0  0
   -4.5423    0.2814    0.0597 N   0  0  0  0  0  0  0  0  0  0  0  0
   -5.6542   -0.5412    0.0260 C   0  0  0  0  0  0  0  0  0  0  0  0
   -6.9403    0.2316    0.1834 C   0  0  0  0  0  0  0  0  0  0  0  0
   -5.6694   -1.7558   -0.1356 O   0  0  0  0  0  0  0  0  0  0  0  0
   -2.7591   -1.4160   -0.2232 C   0  0  0  0  0  0  0  0  0  0  0  0
   -1.3938   -1.7100   -0.3332 C   0  0  0  0  0  0  0  0  0  0  0  0
    5.8208   -0.8481    0.5336 H   0  0  0  0  0  0  0  0  0  0  0  0
    7.2140    0.2279    0.3902 H   0  0  0  0  0  0  0  0  0  0  0  0
    5.9119    0.6227    1.5246 H   0  0  0  0  0  0  0  0  0  0  0  0
    5.6449    0.5303   -1.5307 H   0  0  0  0  0  0  0  0  0  0  0  0
    5.8632    2.0006   -0.5877 H   0  0  0  0  0  0  0  0  0  0  0  0
    3.5171    1.7914   -1.1181 H   0  0  0  0  0  0  0  0  0  0  0  0
    3.7081    1.5902    0.6063 H   0  0  0  0  0  0  0  0  0  0  0  0
    3.3925   -0.7042   -1.4035 H   0  0  0  0  0  0  0  0  0  0  0  0
    3.4902   -0.8804    0.3777 H   0  0  0  0  0  0  0  0  0  0  0  0
   -0.1507    1.4505   -0.0705 H   0  0  0  0  0  0  0  0  0  0  0  0
   -2.5310    1.9603    0.1209 H   0  0  0  0  0  0  0  0  0  0  0  0
   -4.7157    1.2719    0.1753 H   0  0  0  0  0  0  0  0  0  0  0  0
   -7.7220   -0.4364    0.5565 H   0  0  0  0  0  0  0  0  0  0  0  0
   -6.8210    1.0475    0.9022 H   0  0  0  0  0  0  0  0  0  0  0  0
   -7.2407    0.6363   -0.7866 H   0  0  0  0  0  0  0  0  0  0  0  0
   -3.4585   -2.2455   -0.2695 H   0  0  0  0  0  0  0  0  0  0  0  0
   -1.0843   -2.7463   -0.4604 H   0  0  0  0  0  0  0  0  0  0  0  0
  1  2  1  0
  2  3  1  0
  3  4  1  0
  4  5  1  0
  5  6  1  0
  6  7  2  0
  6  8  1  0
  8  9  2  0
  9 10  1  0
 10 11  2  0
 11 12  1  0
 12 13  1  0
 13 14  1  0
 13 15  2  0
 11 16  1  0
 16 17  2  0
 17  8  1  0
  1 18  1  0
  1 19  1  0
  1 20  1  0
  2 21  1  0
  2 22  1  0
  3 23  1  0
  3 24  1  0
  4 25  1  0
  4 26  1  0
  9 27  1  0
 10 28  1  0
 12 29  1  0
 14 30  1  0
 14 31  1  0
 14 32  1  0
 16 33  1  0
 17 34  1  0
M  END
$$$$
