
     RDKit          3D

 60 65  0  0  0  0  0  0  0  0999 V2000
    2.8476   -2.5021    3.3673 O   0  0  0  0  0  0  0  0  0  0  0  0
    3.0513   -1.9673    2.2828 C   0  0  0  0  0  0  0  0  0  0  0  0
    2.0269   -1.7488    1.3670 N   0  0  0  0  0  0  0  0  0  0  0  0
    2.1983   -1.1313    0.1328 C   0  0  0  0  0  0  0  0  0  0  0  0
    0.9608   -0.9790   -0.7449 C   0  0  0  0  0  0  0  0  0  0  0  0
   -0.1348   -0.1575   -0.0606 C   0  0  0  0  0  0  0  0  0  0  0  0
   -1.4999   -0.5057   -0.6376 C   0  0  0  0  0  0  0  0  0  0  0  0
   -1.8369   -1.9150   -0.3059 N   0  0  0  0  0  0  0  0  0  0  0  0
   -3.3177   -2.4847   -0.9653 S   0  0  0  0  0  6  0  0  0  0  0  0
   -3.2517   -2.2715   -2.3964 O   0  0  0  0  0  0  0  0  0  0  0  0
   -3.5745   -3.7966   -0.4109 O   0  0  0  0  0  0  0  0  0  0  0  0
   -4.5175   -1.3761   -0.2744 C   0  0  0  0  0  0  0  0  0  0  0  0
   -4.8213   -1.4673    1.0899 C   0  0  0  0  0  0  0  0  0  0  0  0
   -5.7633   -0.5984    1.6430 C   0  0  0  0  0  0  0  0  0  0  0  0
   -6.3938    0.3487    0.8340 C   0  0  0  0  0  0  0  0  0  0  0  0
   -6.1073    0.4098   -0.5370 C   0  0  0  0  0  0  0  0  0  0  0  0
   -5.1611   -0.4456   -1.0960 C   0  0  0  0  0  0  0  0  0  0  0  0
   -6.7127    1.2969   -1.3921 O   0  0  0  0  0  0  0  0  0  0  0  0
   -7.9033    1.8447   -0.8105 C   0  0  0  0  0  0  0  0  0  0  0  0
   -7.6418    2.2935    0.6193 C   0  0  0  0  0  0  0  0  0  0  0  0
   -7.2933    1.1799    1.4505 O   0  0  0  0  0  0  0  0  0  0  0  0
   -0.7142   -2.8883   -0.4401 C   0  0  0  0  0  0  0  0  0  0  0  0
    0.4537   -2.3368   -1.2486 C   0  0  0  0  0  0  0  0  0  0  0  0
    3.3475   -0.7012   -0.3148 N   0  0  0  0  0  0  0  0  0  0  0  0
    4.3646   -0.9033    0.5596 C   0  0  0  0  0  0  0  0  0  0  0  0
    4.3197   -1.4934    1.7999 C   0  0  0  0  0  0  0  0  0  0  0  0
    5.5572   -1.5141    2.3673 N   0  0  0  0  0  0  0  0  0  0  0  0
    6.3980   -0.9396    1.5055 N   0  0  0  0  0  0  0  0  0  0  0  0
    5.6779   -0.5531    0.4218 N   0  0  0  0  0  0  0  0  0  0  0  0
    6.3160    0.1040   -0.7004 C   0  0  0  0  0  0  0  0  0  0  0  0
    6.1250    1.6010   -0.6437 C   0  0  0  0  0  0  0  0  0  0  0  0
    6.9126    2.3865    0.2148 C   0  0  0  0  0  0  0  0  0  0  0  0
    6.7238    3.7679    0.2788 C   0  0  0  0  0  0  0  0  0  0  0  0
    5.7482    4.3644   -0.5117 C   0  0  0  0  0  0  0  0  0  0  0  0
    5.5659    5.6896   -0.4483 F   0  0  0  0  0  0  0  0  0  0  0  0
    4.9547    3.6056   -1.3638 C   0  0  0  0  0  0  0  0  0  0  0  0
    5.1394    2.2239   -1.4286 C   0  0  0  0  0  0  0  0  0  0  0  0
    1.1172   -2.0409    1.6932 H   0  0  0  0  0  0  0  0  0  0  0  0
    1.2873   -0.4190   -1.6345 H   0  0  0  0  0  0  0  0  0  0  0  0
    0.0700    0.9109   -0.2062 H   0  0  0  0  0  0  0  0  0  0  0  0
   -0.1479   -0.3174    1.0246 H   0  0  0  0  0  0  0  0  0  0  0  0
   -2.2397    0.1606   -0.1846 H   0  0  0  0  0  0  0  0  0  0  0  0
   -1.5091   -0.3462   -1.7210 H   0  0  0  0  0  0  0  0  0  0  0  0
   -4.3291   -2.2071    1.7185 H   0  0  0  0  0  0  0  0  0  0  0  0
   -6.0012   -0.6533    2.7028 H   0  0  0  0  0  0  0  0  0  0  0  0
   -4.9446   -0.3883   -2.1617 H   0  0  0  0  0  0  0  0  0  0  0  0
   -8.6976    1.0879   -0.8574 H   0  0  0  0  0  0  0  0  0  0  0  0
   -8.2097    2.6976   -1.4249 H   0  0  0  0  0  0  0  0  0  0  0  0
   -8.5426    2.7537    1.0408 H   0  0  0  0  0  0  0  0  0  0  0  0
   -6.8268    3.0283    0.6651 H   0  0  0  0  0  0  0  0  0  0  0  0
   -1.0461   -3.8216   -0.9098 H   0  0  0  0  0  0  0  0  0  0  0  0
   -0.3913   -3.1572    0.5717 H   0  0  0  0  0  0  0  0  0  0  0  0
    0.1199   -2.2164   -2.2884 H   0  0  0  0  0  0  0  0  0  0  0  0
    1.2651   -3.0743   -1.2734 H   0  0  0  0  0  0  0  0  0  0  0  0
    5.8955   -0.3184   -1.6209 H   0  0  0  0  0  0  0  0  0  0  0  0
    7.3832   -0.1489   -0.6900 H   0  0  0  0  0  0  0  0  0  0  0  0
    7.6730    1.9229    0.8443 H   0  0  0  0  0  0  0  0  0  0  0  0
    7.3274    4.3796    0.9428 H   0  0  0  0  0  0  0  0  0  0  0  0
    4.1969    4.0935   -1.9680 H   0  0  0  0  0  0  0  0  0  0  0  0
    4.5060    1.6341   -2.0884 H   0  0  0  0  0  0  0  0  0  0  0  0
  1  2  2  0
  2  3  1  0
  3  4  1  0
  4  5  1  0
  5  6  1  0
  6  7  1  0
  7  8  1  0
  8  9  1  0
  9 10  2  0
  9 11  2  0
  9 12  1  0
 12 13  2  0
 13 14  1  0
 14 15  2  0
 15 16  1  0
 16 17  2  0
 16 18  1  0
 18 19  1  0
 19 20  1  0
 20 21  1  0
  8 22  1  0
 22 23  1  0
  4 24  2  0
 24 25  1  0
 25 26  2  0
 26 27  1  0
 27 28  2  0
 28 29  1  0
 29 30  1  0
 30 31  1  0
 31 32  2  0
 32 33  1  0
 33 34  2  0
 34 35  1  0
 34 36  1  0
 36 37  2  0
 26  2  1  0
 37 31  1  0
 23  5  1  0
 29 25  1  0
 17 12  1  0
 21 15  1  0
  3 38  1  0
  5 39  1  0
  6 40  1  0
  6 41  1  0
  7 42  1  0
  7 43  1  0
 13 44  1  0
 14 45  1  0
 17 46  1  0
 19 47  1  0
 19 48  1  0
 20 49  1  0
 20 50  1  0
 22 51  1  0
 22 52  1  0
 23 53  1  0
 23 54  1  0
 30 55  1  0
 30 56  1  0
 32 57  1  0
 33 58  1  0
 36 59  1  0
 37 60  1  0
M  END
$$$$
