
     RDKit          3D

 47 50  0  0  0  0  0  0  0  0999 V2000
   -6.7175    0.2749   -1.8294 C   0  0  0  0  0  0  0  0  0  0  0  0
   -6.5205    1.1062   -0.5691 C   0  0  0  0  0  0  0  0  0  0  0  0
   -5.0465    1.3926   -0.2868 C   0  0  0  0  0  0  0  0  0  0  0  0
   -4.3860    0.1596   -0.0074 O   0  0  0  0  0  0  0  0  0  0  0  0
   -3.0757    0.2139    0.3846 C   0  0  0  0  0  0  0  0  0  0  0  0
   -2.2858    1.3656    0.3717 C   0  0  0  0  0  0  0  0  0  0  0  0
   -0.9619    1.3252    0.8290 C   0  0  0  0  0  0  0  0  0  0  0  0
   -0.4078    0.1321    1.3042 C   0  0  0  0  0  0  0  0  0  0  0  0
    0.9590    0.0797    1.8316 C   0  0  0  0  0  0  0  0  0  0  0  0
    2.0853    0.2964    1.1376 C   0  0  0  0  0  0  0  0  0  0  0  0
    2.2276    0.6761   -0.5689 S   0  0  0  0  0  0  0  0  0  0  0  0
    3.9337    0.7306   -0.4069 C   0  0  0  0  0  0  0  0  0  0  0  0
    4.9345    0.9680   -1.2031 N   0  0  0  0  0  0  0  0  0  0  0  0
    6.0126    0.8372   -0.3397 C   0  0  0  0  0  0  0  0  0  0  0  0
    7.4899    1.0367   -0.8137 C   0  0  0  0  0  0  0  0  0  0  0  0
    8.6154    0.9327   -0.0184 C   0  0  0  0  0  0  0  0  0  0  0  0
    9.7302    1.1926   -0.8514 C   0  0  0  0  0  0  0  0  0  0  0  0
    9.2194    1.4372   -2.1032 C   0  0  0  0  0  0  0  0  0  0  0  0
    7.8653    1.3460   -2.0917 O   0  0  0  0  0  0  0  0  0  0  0  0
    5.6939    0.5305    0.9361 N   0  0  0  0  0  0  0  0  0  0  0  0
    4.3544    0.4722    0.8464 N   0  0  0  0  0  0  0  0  0  0  0  0
    3.4142    0.2057    1.8180 C   0  0  0  0  0  0  0  0  0  0  0  0
    3.6802   -0.0425    2.9802 O   0  0  0  0  0  0  0  0  0  0  0  0
   -1.1923   -1.0222    1.3189 C   0  0  0  0  0  0  0  0  0  0  0  0
   -2.5041   -0.9849    0.8369 C   0  0  0  0  0  0  0  0  0  0  0  0
   -3.2165   -2.1564    0.9157 O   0  0  0  0  0  0  0  0  0  0  0  0
   -3.4242   -2.7214   -0.3841 C   0  0  0  0  0  0  0  0  0  0  0  0
   -3.9370   -4.1383   -0.1968 C   0  0  0  0  0  0  0  0  0  0  0  0
   -7.7841    0.1045   -2.0054 H   0  0  0  0  0  0  0  0  0  0  0  0
   -6.3066    0.7892   -2.7038 H   0  0  0  0  0  0  0  0  0  0  0  0
   -6.2302   -0.7009   -1.7440 H   0  0  0  0  0  0  0  0  0  0  0  0
   -6.9583    0.5638    0.2771 H   0  0  0  0  0  0  0  0  0  0  0  0
   -7.0605    2.0535   -0.6752 H   0  0  0  0  0  0  0  0  0  0  0  0
   -4.9805    2.0598    0.5818 H   0  0  0  0  0  0  0  0  0  0  0  0
   -4.5932    1.8760   -1.1610 H   0  0  0  0  0  0  0  0  0  0  0  0
   -2.6691    2.3168    0.0179 H   0  0  0  0  0  0  0  0  0  0  0  0
   -0.3779    2.2432    0.8208 H   0  0  0  0  0  0  0  0  0  0  0  0
    1.0189   -0.1799    2.8891 H   0  0  0  0  0  0  0  0  0  0  0  0
    8.6204    0.6984    1.0370 H   0  0  0  0  0  0  0  0  0  0  0  0
   10.7749    1.2004   -0.5746 H   0  0  0  0  0  0  0  0  0  0  0  0
    9.6618    1.6793   -3.0592 H   0  0  0  0  0  0  0  0  0  0  0  0
   -0.7979   -1.9606    1.7010 H   0  0  0  0  0  0  0  0  0  0  0  0
   -4.1679   -2.1461   -0.9446 H   0  0  0  0  0  0  0  0  0  0  0  0
   -2.4855   -2.7498   -0.9522 H   0  0  0  0  0  0  0  0  0  0  0  0
   -3.2143   -4.7408    0.3617 H   0  0  0  0  0  0  0  0  0  0  0  0
   -4.1225   -4.6147   -1.1635 H   0  0  0  0  0  0  0  0  0  0  0  0
   -4.8674   -4.1379    0.3810 H   0  0  0  0  0  0  0  0  0  0  0  0
  1  2  1  0
  2  3  1  0
  3  4  1  0
  4  5  1  0
  5  6  2  0
  6  7  1  0
  7  8  2  0
  8  9  1  0
  9 10  2  3
 10 11  1  0
 11 12  1  0
 12 13  2  0
 13 14  1  0
 14 15  1  0
 15 16  2  0
 16 17  1  0
 17 18  2  0
 18 19  1  0
 14 20  2  0
 20 21  1  0
 21 22  1  0
 22 23  2  0
  8 24  1  0
 24 25  2  0
 25 26  1  0
 26 27  1  0
 27 28  1  0
 25  5  1  0
 22 10  1  0
 21 12  1  0
 19 15  1  0
  1 29  1  0
  1 30  1  0
  1 31  1  0
  2 32  1  0
  2 33  1  0
  3 34  1  0
  3 35  1  0
  6 36  1  0
  7 37  1  0
  9 38  1  0
 16 39  1  0
 17 40  1  0
 18 41  1  0
 24 42  1  0
 27 43  1  0
 27 44  1  0
 28 45  1  0
 28 46  1  0
 28 47  1  0
M  END
$$$$
