
     RDKit          3D

 42 41  0  0  0  0  0  0  0  0999 V2000
   -6.6254    0.2206    1.3528 C   0  0  0  0  0  0  0  0  0  0  0  0
   -5.1753   -0.0941    1.6136 C   0  0  0  0  0  0  0  0  0  0  0  0
   -4.9488   -1.3410    2.4233 C   0  0  0  0  0  0  0  0  0  0  0  0
   -4.2019    0.7016    1.1290 C   0  0  0  0  0  0  0  0  0  0  0  0
   -2.7157    0.5567    1.3212 C   0  0  0  0  0  0  0  0  0  0  0  0
   -2.0430   -0.0177    0.0691 C   0  0  0  0  0  0  0  0  0  0  0  0
   -0.5331   -0.1099    0.2064 C   0  0  0  0  0  0  0  0  0  0  0  0
   -0.0381   -1.1733    1.1506 C   0  0  0  0  0  0  0  0  0  0  0  0
    0.2670    0.6992   -0.5168 C   0  0  0  0  0  0  0  0  0  0  0  0
    1.7719    0.7660   -0.4900 C   0  0  0  0  0  0  0  0  0  0  0  0
    2.3838    0.0911   -1.7262 C   0  0  0  0  0  0  0  0  0  0  0  0
    3.9027    0.1107   -1.8715 C   0  0  0  0  0  0  0  0  0  0  0  0
    4.3687   -0.5846   -3.1277 C   0  0  0  0  0  0  0  0  0  0  0  0
    4.7340    0.6821   -0.9753 C   0  0  0  0  0  0  0  0  0  0  0  0
    6.2259    0.7827   -1.0149 C   0  0  0  0  0  0  0  0  0  0  0  0
    6.7470    0.0254    0.0660 O   0  0  0  0  0  0  0  0  0  0  0  0
   -7.1597    0.3535    2.2992 H   0  0  0  0  0  0  0  0  0  0  0  0
   -6.7535    1.1373    0.7676 H   0  0  0  0  0  0  0  0  0  0  0  0
   -7.0974   -0.5967    0.7978 H   0  0  0  0  0  0  0  0  0  0  0  0
   -5.4828   -2.1843    1.9720 H   0  0  0  0  0  0  0  0  0  0  0  0
   -3.8977   -1.6314    2.4876 H   0  0  0  0  0  0  0  0  0  0  0  0
   -5.3241   -1.2014    3.4422 H   0  0  0  0  0  0  0  0  0  0  0  0
   -4.4885    1.5716    0.5378 H   0  0  0  0  0  0  0  0  0  0  0  0
   -2.4873   -0.0553    2.1992 H   0  0  0  0  0  0  0  0  0  0  0  0
   -2.3050    1.5509    1.5398 H   0  0  0  0  0  0  0  0  0  0  0  0
   -2.4417   -1.0174   -0.1481 H   0  0  0  0  0  0  0  0  0  0  0  0
   -2.3071    0.6017   -0.7987 H   0  0  0  0  0  0  0  0  0  0  0  0
   -0.5766   -2.1118    0.9801 H   0  0  0  0  0  0  0  0  0  0  0  0
   -0.1980   -0.8670    2.1888 H   0  0  0  0  0  0  0  0  0  0  0  0
    1.0238   -1.3982    1.0230 H   0  0  0  0  0  0  0  0  0  0  0  0
   -0.1955    1.4182   -1.1933 H   0  0  0  0  0  0  0  0  0  0  0  0
    2.0553    1.8258   -0.4633 H   0  0  0  0  0  0  0  0  0  0  0  0
    2.1711    0.3202    0.4267 H   0  0  0  0  0  0  0  0  0  0  0  0
    1.9584    0.5608   -2.6237 H   0  0  0  0  0  0  0  0  0  0  0  0
    2.0610   -0.9590   -1.7393 H   0  0  0  0  0  0  0  0  0  0  0  0
    3.9824   -1.6093   -3.1546 H   0  0  0  0  0  0  0  0  0  0  0  0
    5.4541   -0.6537   -3.2173 H   0  0  0  0  0  0  0  0  0  0  0  0
    3.9969   -0.0533   -4.0101 H   0  0  0  0  0  0  0  0  0  0  0  0
    4.3184    1.1588   -0.0896 H   0  0  0  0  0  0  0  0  0  0  0  0
    6.6787    0.4244   -1.9404 H   0  0  0  0  0  0  0  0  0  0  0  0
    6.5300    1.8255   -0.8813 H   0  0  0  0  0  0  0  0  0  0  0  0
    6.3653   -0.8658   -0.0120 H   0  0  0  0  0  0  0  0  0  0  0  0
  1  2  1  0
  2  3  1  0
  2  4  2  3
  4  5  1  0
  5  6  1  0
  6  7  1  0
  7  8  1  0
  7  9  2  3
  9 10  1  0
 10 11  1  0
 11 12  1  0
 12 13  1  0
 12 14  2  3
 14 15  1  0
 15 16  1  0
  1 17  1  0
  1 18  1  0
  1 19  1  0
  3 20  1  0
  3 21  1  0
  3 22  1  0
  4 23  1  0
  5 24  1  0
  5 25  1  0
  6 26  1  0
  6 27  1  0
  8 28  1  0
  8 29  1  0
  8 30  1  0
  9 31  1  0
 10 32  1  0
 10 33  1  0
 11 34  1  0
 11 35  1  0
 13 36  1  0
 13 37  1  0
 13 38  1  0
 14 39  1  0
 15 40  1  0
 15 41  1  0
 16 42  1  0
M  END
$$$$
