
     RDKit          3D

 51 53  0  0  0  0  0  0  0  0999 V2000
    9.8835   -0.7482   -1.4010 C   0  0  0  0  0  0  0  0  0  0  0  0
    8.4658   -0.8175   -1.4784 O   0  0  0  0  0  0  0  0  0  0  0  0
    7.7571   -0.1752   -0.4989 C   0  0  0  0  0  0  0  0  0  0  0  0
    8.3022    0.5567    0.5558 C   0  0  0  0  0  0  0  0  0  0  0  0
    7.4618    1.1623    1.4907 C   0  0  0  0  0  0  0  0  0  0  0  0
    6.0768    1.0379    1.3730 C   0  0  0  0  0  0  0  0  0  0  0  0
    5.5169    0.3076    0.3192 C   0  0  0  0  0  0  0  0  0  0  0  0
    4.1148    0.2297    0.2673 N   0  0  0  0  0  0  0  0  0  0  0  0
    3.3346   -0.4163   -0.6684 C   0  0  0  0  0  0  0  0  0  0  0  0
    3.6722   -1.0609   -1.6506 O   0  0  0  0  0  0  0  0  0  0  0  0
    1.8298   -0.2571   -0.3737 C   0  0  0  0  0  0  0  0  0  0  0  0
    1.4841    0.4025    0.5986 O   0  0  0  0  0  0  0  0  0  0  0  0
    1.0442   -0.9063   -1.3094 N   0  0  0  0  0  0  0  0  0  0  0  0
   -0.3200   -0.8522   -1.4345 N   0  0  0  0  0  0  0  0  0  0  0  0
   -1.0452   -0.5437   -0.4082 C   0  0  0  0  0  0  0  0  0  0  0  0
   -2.4858   -0.4516   -0.5846 C   0  0  0  0  0  0  0  0  0  0  0  0
   -3.2179   -0.6453   -1.7801 C   0  0  0  0  0  0  0  0  0  0  0  0
   -4.5573   -0.4425   -1.5163 C   0  0  0  0  0  0  0  0  0  0  0  0
   -5.6708   -0.4424   -2.5085 C   0  0  0  0  0  0  0  0  0  0  0  0
   -4.6855   -0.1289   -0.1668 N   0  0  0  0  0  0  0  0  0  0  0  0
   -5.9025    0.1951    0.5031 C   0  0  0  0  0  0  0  0  0  0  0  0
   -7.0515   -0.5757    0.2933 C   0  0  0  0  0  0  0  0  0  0  0  0
   -8.2416   -0.2496    0.9491 C   0  0  0  0  0  0  0  0  0  0  0  0
   -8.2925    0.8464    1.8153 C   0  0  0  0  0  0  0  0  0  0  0  0
   -9.7975    1.1886    2.5911 Cl  0  0  0  0  0  0  0  0  0  0  0  0
   -7.1455    1.6200    2.0249 C   0  0  0  0  0  0  0  0  0  0  0  0
   -7.1353    2.9946    3.0731 Cl  0  0  0  0  0  0  0  0  0  0  0  0
   -5.9523    1.2950    1.3699 C   0  0  0  0  0  0  0  0  0  0  0  0
   -3.4143   -0.1697    0.4127 C   0  0  0  0  0  0  0  0  0  0  0  0
   -3.1640   -0.0082    1.8791 C   0  0  0  0  0  0  0  0  0  0  0  0
    6.3654   -0.2947   -0.6117 C   0  0  0  0  0  0  0  0  0  0  0  0
   10.2522   -1.2118   -0.4798 H   0  0  0  0  0  0  0  0  0  0  0  0
   10.2920   -1.3146   -2.2437 H   0  0  0  0  0  0  0  0  0  0  0  0
   10.2338    0.2854   -1.4940 H   0  0  0  0  0  0  0  0  0  0  0  0
    9.3736    0.6752    0.6779 H   0  0  0  0  0  0  0  0  0  0  0  0
    7.8875    1.7337    2.3122 H   0  0  0  0  0  0  0  0  0  0  0  0
    5.4455    1.5196    2.1154 H   0  0  0  0  0  0  0  0  0  0  0  0
    3.5879    0.7096    0.9939 H   0  0  0  0  0  0  0  0  0  0  0  0
    1.5360   -1.2939   -2.1165 H   0  0  0  0  0  0  0  0  0  0  0  0
   -0.6506   -0.3616    0.6013 H   0  0  0  0  0  0  0  0  0  0  0  0
   -2.7982   -0.8828   -2.7506 H   0  0  0  0  0  0  0  0  0  0  0  0
   -6.2161   -1.3901   -2.4793 H   0  0  0  0  0  0  0  0  0  0  0  0
   -6.3675    0.3839   -2.3372 H   0  0  0  0  0  0  0  0  0  0  0  0
   -5.2776   -0.3240   -3.5243 H   0  0  0  0  0  0  0  0  0  0  0  0
   -7.0320   -1.4581   -0.3418 H   0  0  0  0  0  0  0  0  0  0  0  0
   -9.1260   -0.8624    0.7869 H   0  0  0  0  0  0  0  0  0  0  0  0
   -5.0815    1.9308    1.5117 H   0  0  0  0  0  0  0  0  0  0  0  0
   -2.9664    1.0406    2.1206 H   0  0  0  0  0  0  0  0  0  0  0  0
   -4.0035   -0.3659    2.4824 H   0  0  0  0  0  0  0  0  0  0  0  0
   -2.2938   -0.5932    2.1933 H   0  0  0  0  0  0  0  0  0  0  0  0
    5.9748   -0.8710   -1.4447 H   0  0  0  0  0  0  0  0  0  0  0  0
  1  2  1  0
  2  3  1  0
  3  4  2  0
  4  5  1  0
  5  6  2  0
  6  7  1  0
  7  8  1  0
  8  9  1  0
  9 10  2  0
  9 11  1  0
 11 12  2  0
 11 13  1  0
 13 14  1  0
 14 15  2  3
 15 16  1  0
 16 17  1  0
 17 18  2  0
 18 19  1  0
 18 20  1  0
 20 21  1  0
 21 22  2  0
 22 23  1  0
 23 24  2  0
 24 25  1  0
 24 26  1  0
 26 27  1  0
 26 28  2  0
 20 29  1  0
 29 30  1  0
  7 31  2  0
 31  3  1  0
 29 16  2  0
 28 21  1  0
  1 32  1  0
  1 33  1  0
  1 34  1  0
  4 35  1  0
  5 36  1  0
  6 37  1  0
  8 38  1  0
 13 39  1  0
 15 40  1  0
 17 41  1  0
 19 42  1  0
 19 43  1  0
 19 44  1  0
 22 45  1  0
 23 46  1  0
 28 47  1  0
 30 48  1  0
 30 49  1  0
 30 50  1  0
 31 51  1  0
M  END
$$$$
