
     RDKit          3D

 55 60  0  0  0  0  0  0  0  0999 V2000
    2.7151    3.0095    2.3334 O   0  0  0  0  0  0  0  0  0  0  0  0
    3.0786    2.2730    1.4185 C   0  0  0  0  0  0  0  0  0  0  0  0
    4.3041    2.5779    0.6999 C   0  0  0  0  0  0  0  0  0  0  0  0
    5.5420    3.0483    1.2445 C   0  0  0  0  0  0  0  0  0  0  0  0
    6.3878    3.2479    0.1822 C   0  0  0  0  0  0  0  0  0  0  0  0
    5.7493    2.9644   -0.9865 O   0  0  0  0  0  0  0  0  0  0  0  0
    4.4816    2.5912   -0.6699 C   0  0  0  0  0  0  0  0  0  0  0  0
    2.3344    1.1449    1.0471 N   0  0  0  0  0  0  0  0  0  0  0  0
    0.9981    1.0148    1.6152 C   0  0  0  0  0  0  0  0  0  0  0  0
    0.3743   -0.3541    1.3654 C   0  0  0  0  0  0  0  0  0  0  0  0
    0.4275   -0.8312   -0.1153 C   0  0  0  0  0  0  0  0  0  0  0  0
    1.7841   -0.3911   -0.7618 C   0  0  0  0  0  0  0  0  0  0  0  0
    2.8255    0.0061    0.2762 C   0  0  0  0  0  0  0  0  0  0  0  0
    0.4063   -2.2856   -0.0068 O   0  0  0  0  0  0  0  0  0  0  0  0
    0.2144   -2.9787   -1.1706 C   0  0  0  0  0  0  0  0  0  0  0  0
    0.5421   -4.3342   -1.1403 C   0  0  0  0  0  0  0  0  0  0  0  0
    0.4078   -5.1102   -2.2948 C   0  0  0  0  0  0  0  0  0  0  0  0
   -0.0581   -4.5281   -3.4758 C   0  0  0  0  0  0  0  0  0  0  0  0
   -0.2171   -5.4883   -4.8935 Cl  0  0  0  0  0  0  0  0  0  0  0  0
   -0.4025   -3.1788   -3.5115 C   0  0  0  0  0  0  0  0  0  0  0  0
   -0.2740   -2.4120   -2.3489 C   0  0  0  0  0  0  0  0  0  0  0  0
   -0.6788   -0.9929   -2.3392 C   0  0  0  0  0  0  0  0  0  0  0  0
   -0.9351   -0.4267   -3.3966 O   0  0  0  0  0  0  0  0  0  0  0  0
   -0.7977   -0.3591   -0.9559 C   0  0  0  0  0  0  0  0  0  0  0  0
   -2.1750   -0.7252   -0.4074 C   0  0  0  0  0  0  0  0  0  0  0  0
   -2.6042    0.6115    0.0854 C   0  0  0  0  0  0  0  0  0  0  0  0
   -3.8112    0.7902    0.9254 C   0  0  0  0  0  0  0  0  0  0  0  0
   -4.0808    2.0564    1.4618 C   0  0  0  0  0  0  0  0  0  0  0  0
   -5.2080    2.2577    2.2626 C   0  0  0  0  0  0  0  0  0  0  0  0
   -6.0677    1.1946    2.5259 C   0  0  0  0  0  0  0  0  0  0  0  0
   -7.4557    1.4395    3.5113 Cl  0  0  0  0  0  0  0  0  0  0  0  0
   -5.8104   -0.0685    1.9941 C   0  0  0  0  0  0  0  0  0  0  0  0
   -4.6822   -0.2730    1.1925 C   0  0  0  0  0  0  0  0  0  0  0  0
   -1.8407    1.5926   -0.2727 N   0  0  0  0  0  0  0  0  0  0  0  0
   -0.8080    1.0654   -1.0795 O   0  0  0  0  0  0  0  0  0  0  0  0
    5.7743    3.2191    2.2887 H   0  0  0  0  0  0  0  0  0  0  0  0
    7.4131    3.5853    0.0927 H   0  0  0  0  0  0  0  0  0  0  0  0
    3.8330    2.3750   -1.5129 H   0  0  0  0  0  0  0  0  0  0  0  0
    1.0548    1.1892    2.6986 H   0  0  0  0  0  0  0  0  0  0  0  0
    0.3853    1.8214    1.1969 H   0  0  0  0  0  0  0  0  0  0  0  0
   -0.6448   -0.3742    1.7643 H   0  0  0  0  0  0  0  0  0  0  0  0
    0.9120   -1.0850    1.9880 H   0  0  0  0  0  0  0  0  0  0  0  0
    1.6291    0.4714   -1.4223 H   0  0  0  0  0  0  0  0  0  0  0  0
    2.2105   -1.1903   -1.3788 H   0  0  0  0  0  0  0  0  0  0  0  0
    3.0179   -0.8146    0.9767 H   0  0  0  0  0  0  0  0  0  0  0  0
    3.7801    0.2099   -0.2071 H   0  0  0  0  0  0  0  0  0  0  0  0
    0.9156   -4.7872   -0.2235 H   0  0  0  0  0  0  0  0  0  0  0  0
    0.6729   -6.1653   -2.2686 H   0  0  0  0  0  0  0  0  0  0  0  0
   -0.7750   -2.7285   -4.4303 H   0  0  0  0  0  0  0  0  0  0  0  0
   -2.1457   -1.4734    0.3890 H   0  0  0  0  0  0  0  0  0  0  0  0
   -2.8760   -1.0531   -1.1833 H   0  0  0  0  0  0  0  0  0  0  0  0
   -3.4166    2.8957    1.2607 H   0  0  0  0  0  0  0  0  0  0  0  0
   -5.4068    3.2441    2.6735 H   0  0  0  0  0  0  0  0  0  0  0  0
   -6.4862   -0.8957    2.1976 H   0  0  0  0  0  0  0  0  0  0  0  0
   -4.5133   -1.2654    0.7857 H   0  0  0  0  0  0  0  0  0  0  0  0
  1  2  2  0
  2  3  1  0
  3  4  1  0
  4  5  2  0
  5  6  1  0
  6  7  1  0
  2  8  1  0
  8  9  1  0
  9 10  1  0
 10 11  1  0
 11 12  1  0
 12 13  1  0
 11 14  1  0
 14 15  1  0
 15 16  2  0
 16 17  1  0
 17 18  2  0
 18 19  1  0
 18 20  1  0
 20 21  2  0
 21 22  1  0
 22 23  2  0
 22 24  1  0
 24 25  1  0
 25 26  1  0
 26 27  1  0
 27 28  2  0
 28 29  1  0
 29 30  2  0
 30 31  1  0
 30 32  1  0
 32 33  2  0
 26 34  2  0
 34 35  1  0
  7  3  2  0
 13  8  1  0
 21 15  1  0
 35 24  1  0
 24 11  1  0
 33 27  1  0
  4 36  1  0
  5 37  1  0
  7 38  1  0
  9 39  1  0
  9 40  1  0
 10 41  1  0
 10 42  1  0
 12 43  1  0
 12 44  1  0
 13 45  1  0
 13 46  1  0
 16 47  1  0
 17 48  1  0
 20 49  1  0
 25 50  1  0
 25 51  1  0
 28 52  1  0
 29 53  1  0
 32 54  1  0
 33 55  1  0
M  END
$$$$
