
     RDKit          3D

 38 38  0  0  0  0  0  0  0  0999 V2000
    5.7424    2.3829    3.9015 C   0  0  0  0  0  0  0  0  0  0  0  0
    5.5715    2.4265    2.4907 O   0  0  0  0  0  0  0  0  0  0  0  0
    4.4630    1.6275    2.0726 C   0  0  0  0  0  0  0  0  0  0  0  0
    4.2990    1.7628    0.5581 C   0  0  0  0  0  0  0  0  0  0  0  0
    3.3383    0.8279   -0.0038 N   0  0  0  0  0  0  0  0  0  0  0  0
    1.9817    1.0011    0.1647 C   0  0  0  0  0  0  0  0  0  0  0  0
    1.5262    1.9329    0.8237 O   0  0  0  0  0  0  0  0  0  0  0  0
    1.0864   -0.0160   -0.4950 C   0  0  0  0  0  0  0  0  0  0  0  0
    1.6838   -1.0941   -1.1958 C   0  0  0  0  0  0  0  0  0  0  0  0
    2.2350   -1.9513   -1.7520 N   0  0  0  0  0  0  0  0  0  0  0  0
   -0.2447    0.1744   -0.3658 C   0  0  0  0  0  0  0  0  0  0  0  0
   -1.3992   -0.5915   -0.8590 C   0  0  0  0  0  0  0  0  0  0  0  0
   -1.1860   -1.8412   -1.6778 C   0  0  0  0  0  0  0  0  0  0  0  0
   -2.6326   -0.1323   -0.5518 C   0  0  0  0  0  0  0  0  0  0  0  0
   -3.8985   -0.7538   -0.9503 C   0  0  0  0  0  0  0  0  0  0  0  0
   -4.5141   -0.3870   -2.1515 C   0  0  0  0  0  0  0  0  0  0  0  0
   -5.7181   -0.9823   -2.5322 C   0  0  0  0  0  0  0  0  0  0  0  0
   -6.3100   -1.9448   -1.7148 C   0  0  0  0  0  0  0  0  0  0  0  0
   -5.6997   -2.3135   -0.5162 C   0  0  0  0  0  0  0  0  0  0  0  0
   -4.4957   -1.7195   -0.1334 C   0  0  0  0  0  0  0  0  0  0  0  0
    6.6048    3.0019    4.1629 H   0  0  0  0  0  0  0  0  0  0  0  0
    4.8586    2.7838    4.4069 H   0  0  0  0  0  0  0  0  0  0  0  0
    5.9343    1.3578    4.2327 H   0  0  0  0  0  0  0  0  0  0  0  0
    4.6541    0.5805    2.3367 H   0  0  0  0  0  0  0  0  0  0  0  0
    3.5531    1.9550    2.5880 H   0  0  0  0  0  0  0  0  0  0  0  0
    3.9925    2.7848    0.3060 H   0  0  0  0  0  0  0  0  0  0  0  0
    5.2575    1.5859    0.0574 H   0  0  0  0  0  0  0  0  0  0  0  0
    3.7154    0.0579   -0.5442 H   0  0  0  0  0  0  0  0  0  0  0  0
   -0.5466    1.0565    0.2074 H   0  0  0  0  0  0  0  0  0  0  0  0
   -2.1182   -2.3209   -1.9902 H   0  0  0  0  0  0  0  0  0  0  0  0
   -0.6358   -2.5910   -1.1001 H   0  0  0  0  0  0  0  0  0  0  0  0
   -0.6390   -1.6104   -2.5977 H   0  0  0  0  0  0  0  0  0  0  0  0
   -2.7708    0.7718    0.0393 H   0  0  0  0  0  0  0  0  0  0  0  0
   -4.0596    0.3609   -2.7968 H   0  0  0  0  0  0  0  0  0  0  0  0
   -6.1936   -0.6957   -3.4665 H   0  0  0  0  0  0  0  0  0  0  0  0
   -7.2473   -2.4080   -2.0122 H   0  0  0  0  0  0  0  0  0  0  0  0
   -6.1611   -3.0641    0.1203 H   0  0  0  0  0  0  0  0  0  0  0  0
   -4.0269   -2.0153    0.8019 H   0  0  0  0  0  0  0  0  0  0  0  0
  1  2  1  0
  2  3  1  0
  3  4  1  0
  4  5  1  0
  5  6  1  0
  6  7  2  0
  6  8  1  0
  8  9  1  0
  9 10  3  0
  8 11  2  3
 11 12  1  0
 12 13  1  0
 12 14  2  3
 14 15  1  0
 15 16  2  0
 16 17  1  0
 17 18  2  0
 18 19  1  0
 19 20  2  0
 20 15  1  0
  1 21  1  0
  1 22  1  0
  1 23  1  0
  3 24  1  0
  3 25  1  0
  4 26  1  0
  4 27  1  0
  5 28  1  0
 11 29  1  0
 13 30  1  0
 13 31  1  0
 13 32  1  0
 14 33  1  0
 16 34  1  0
 17 35  1  0
 18 36  1  0
 19 37  1  0
 20 38  1  0
M  END
$$$$
