
     RDKit          3D

 42 44  0  0  0  0  0  0  0  0999 V2000
   -0.0153   -0.8272    2.4013 C   0  0  0  0  0  0  0  0  0  0  0  0
   -0.7530   -0.4542    1.1554 C   0  0  0  0  0  0  0  0  0  0  0  0
   -0.3076    0.2314    0.0898 C   0  0  0  0  0  0  0  0  0  0  0  0
    0.8964    0.7513   -0.3086 N   0  0  0  0  0  0  0  0  0  0  0  0
    2.1644    0.4370    0.1453 C   0  0  0  0  0  0  0  0  0  0  0  0
    2.4135   -0.4209    0.9853 O   0  0  0  0  0  0  0  0  0  0  0  0
    3.2435    1.2681   -0.5190 C   0  0  0  0  0  0  0  0  0  0  0  0
    4.5192    0.5786   -0.6438 N   0  0  0  0  0  0  0  0  0  0  0  0
    4.7411   -0.6964   -1.0919 C   0  0  0  0  0  0  0  0  0  0  0  0
    6.1066   -0.8639   -1.1266 C   0  0  0  0  0  0  0  0  0  0  0  0
    6.6284    0.3843   -0.7249 C   0  0  0  0  0  0  0  0  0  0  0  0
    8.0202    0.7780   -0.5961 N   0  0  0  0  0  4  0  0  0  0  0  0
    8.8600   -0.0957   -0.8633 O   0  0  0  0  0  0  0  0  0  0  0  0
    8.2816    1.9360   -0.2419 O   0  0  0  0  0  1  0  0  0  0  0  0
    5.6597    1.2799   -0.4623 N   0  0  0  0  0  0  0  0  0  0  0  0
   -1.5049    0.4400   -0.7869 C   0  0  0  0  0  0  0  0  0  0  0  0
   -1.4323    1.0950   -1.8175 O   0  0  0  0  0  0  0  0  0  0  0  0
   -2.5818   -0.1779   -0.1516 N   0  0  0  0  0  0  0  0  0  0  0  0
   -3.9498    0.1524   -0.3392 C   0  0  0  0  0  0  0  0  0  0  0  0
   -4.8889   -0.0227    0.6892 C   0  0  0  0  0  0  0  0  0  0  0  0
   -6.2361    0.3029    0.5016 C   0  0  0  0  0  0  0  0  0  0  0  0
   -6.6657    0.8144   -0.7179 C   0  0  0  0  0  0  0  0  0  0  0  0
   -5.7489    1.0016   -1.7477 C   0  0  0  0  0  0  0  0  0  0  0  0
   -4.4019    0.6755   -1.5581 C   0  0  0  0  0  0  0  0  0  0  0  0
   -2.1191   -0.7895    1.0501 N   0  0  0  0  0  0  0  0  0  0  0  0
   -2.4660   -2.2201    1.1509 C   0  0  0  0  0  0  0  0  0  0  0  0
    0.4711   -1.8010    2.2885 H   0  0  0  0  0  0  0  0  0  0  0  0
    0.7250   -0.0710    2.6750 H   0  0  0  0  0  0  0  0  0  0  0  0
   -0.7048   -0.8901    3.2521 H   0  0  0  0  0  0  0  0  0  0  0  0
    0.8135    1.3230   -1.1488 H   0  0  0  0  0  0  0  0  0  0  0  0
    3.3995    2.1697    0.0834 H   0  0  0  0  0  0  0  0  0  0  0  0
    2.9535    1.5589   -1.5348 H   0  0  0  0  0  0  0  0  0  0  0  0
    3.9288   -1.3737   -1.3192 H   0  0  0  0  0  0  0  0  0  0  0  0
    6.6530   -1.7539   -1.4071 H   0  0  0  0  0  0  0  0  0  0  0  0
   -4.5819   -0.3857    1.6657 H   0  0  0  0  0  0  0  0  0  0  0  0
   -6.9451    0.1666    1.3143 H   0  0  0  0  0  0  0  0  0  0  0  0
   -7.7111    1.0722   -0.8645 H   0  0  0  0  0  0  0  0  0  0  0  0
   -6.0769    1.4051   -2.7013 H   0  0  0  0  0  0  0  0  0  0  0  0
   -3.7214    0.8255   -2.3922 H   0  0  0  0  0  0  0  0  0  0  0  0
   -2.2432   -2.5922    2.1563 H   0  0  0  0  0  0  0  0  0  0  0  0
   -1.8937   -2.8105    0.4260 H   0  0  0  0  0  0  0  0  0  0  0  0
   -3.5295   -2.4007    0.9673 H   0  0  0  0  0  0  0  0  0  0  0  0
  1  2  1  0
  2  3  2  0
  3  4  1  0
  4  5  1  0
  5  6  2  0
  5  7  1  0
  7  8  1  0
  8  9  1  0
  9 10  2  0
 10 11  1  0
 11 12  1  0
 12 13  2  0
 12 14  1  0
 11 15  2  0
  3 16  1  0
 16 17  2  0
 16 18  1  0
 18 19  1  0
 19 20  2  0
 20 21  1  0
 21 22  2  0
 22 23  1  0
 23 24  2  0
 18 25  1  0
 25 26  1  0
 25  2  1  0
 15  8  1  0
 24 19  1  0
  1 27  1  0
  1 28  1  0
  1 29  1  0
  4 30  1  0
  7 31  1  0
  7 32  1  0
  9 33  1  0
 10 34  1  0
 20 35  1  0
 21 36  1  0
 22 37  1  0
 23 38  1  0
 24 39  1  0
 26 40  1  0
 26 41  1  0
 26 42  1  0
M  CHG  2  12   1  14  -1
M  END
$$$$
