
     RDKit          3D

 59 62  0  0  0  0  0  0  0  0999 V2000
    9.1924   -2.0342    2.3001 C   0  0  0  0  0  0  0  0  0  0  0  0
    7.8768   -1.3906    1.9838 C   0  0  0  0  0  0  0  0  0  0  0  0
    6.8538   -1.3704    2.9365 C   0  0  0  0  0  0  0  0  0  0  0  0
    5.6131   -0.7939    2.6436 C   0  0  0  0  0  0  0  0  0  0  0  0
    5.3776   -0.2241    1.3878 C   0  0  0  0  0  0  0  0  0  0  0  0
    4.1255    0.3693    1.0400 N   0  0  0  0  0  0  0  0  0  0  0  0
    3.8270    0.5325   -0.2753 N   0  0  0  0  0  0  0  0  0  0  0  0
    2.5389    0.8795   -0.2997 C   0  0  0  0  0  0  0  0  0  0  0  0
    1.7212    1.0881   -1.4874 C   0  0  0  0  0  0  0  0  0  0  0  0
    2.1288    0.9211   -2.6341 O   0  0  0  0  0  0  0  0  0  0  0  0
    0.4100    1.5094   -1.1749 N   0  0  0  0  0  0  0  0  0  0  0  0
   -0.5320    1.7479   -2.2626 C   0  0  0  0  0  0  0  0  0  0  0  0
   -1.3261    0.4996   -2.6449 C   0  0  0  0  0  0  0  0  0  0  0  0
   -2.3368    0.0993   -1.5678 C   0  0  0  0  0  0  0  0  0  0  0  0
   -3.2757   -0.9870   -2.0559 C   0  0  0  0  0  0  0  0  0  0  0  0
   -3.0280   -1.7206   -3.0120 O   0  0  0  0  0  0  0  0  0  0  0  0
   -4.4188   -1.0811   -1.2907 N   0  0  0  0  0  0  0  0  0  0  0  0
   -5.4763   -2.0089   -1.6204 C   0  0  0  0  0  0  0  0  0  0  0  0
   -6.7772   -1.3516   -1.3558 C   0  0  0  0  0  0  0  0  0  0  0  0
   -7.6889   -1.4297   -0.3212 C   0  0  0  0  0  0  0  0  0  0  0  0
   -8.7377   -0.5371   -0.6439 C   0  0  0  0  0  0  0  0  0  0  0  0
   -8.4036    0.0308   -1.8566 C   0  0  0  0  0  0  0  0  0  0  0  0
   -9.0623    1.0150   -2.7336 C   0  0  0  0  0  0  0  0  0  0  0  0
   -7.2105   -0.4589   -2.2920 O   0  0  0  0  0  0  0  0  0  0  0  0
   -0.0960    1.6821    0.1194 N   0  0  0  0  0  0  0  0  0  0  0  0
    0.6532    1.4734    1.1655 C   0  0  0  0  0  0  0  0  0  0  0  0
    0.0471    1.6661    2.5263 C   0  0  0  0  0  0  0  0  0  0  0  0
    2.0252    1.0681    0.9869 C   0  0  0  0  0  0  0  0  0  0  0  0
    3.0826    0.8369    1.8491 C   0  0  0  0  0  0  0  0  0  0  0  0
    3.1891    1.0690    3.3087 C   0  0  0  0  0  0  0  0  0  0  0  0
    6.3917   -0.2856    0.4178 C   0  0  0  0  0  0  0  0  0  0  0  0
    7.6296   -0.8607    0.7156 C   0  0  0  0  0  0  0  0  0  0  0  0
    9.1342   -3.1148    2.1334 H   0  0  0  0  0  0  0  0  0  0  0  0
    9.9926   -1.6220    1.6740 H   0  0  0  0  0  0  0  0  0  0  0  0
    9.4702   -1.8492    3.3423 H   0  0  0  0  0  0  0  0  0  0  0  0
    7.0133   -1.8217    3.9150 H   0  0  0  0  0  0  0  0  0  0  0  0
    4.8458   -0.8601    3.4042 H   0  0  0  0  0  0  0  0  0  0  0  0
    0.0251    2.0933   -3.1403 H   0  0  0  0  0  0  0  0  0  0  0  0
   -1.2025    2.5652   -1.9689 H   0  0  0  0  0  0  0  0  0  0  0  0
   -0.6455   -0.3405   -2.8493 H   0  0  0  0  0  0  0  0  0  0  0  0
   -1.8623    0.7064   -3.5841 H   0  0  0  0  0  0  0  0  0  0  0  0
   -1.8211   -0.2874   -0.6777 H   0  0  0  0  0  0  0  0  0  0  0  0
   -2.9335    0.9740   -1.2711 H   0  0  0  0  0  0  0  0  0  0  0  0
   -4.5773   -0.4266   -0.5338 H   0  0  0  0  0  0  0  0  0  0  0  0
   -5.3543   -2.8849   -0.9784 H   0  0  0  0  0  0  0  0  0  0  0  0
   -5.4038   -2.3318   -2.6612 H   0  0  0  0  0  0  0  0  0  0  0  0
   -7.6053   -2.0547    0.5586 H   0  0  0  0  0  0  0  0  0  0  0  0
   -9.6303   -0.3320   -0.0686 H   0  0  0  0  0  0  0  0  0  0  0  0
   -9.9481    1.4381   -2.2504 H   0  0  0  0  0  0  0  0  0  0  0  0
   -9.3766    0.5455   -3.6672 H   0  0  0  0  0  0  0  0  0  0  0  0
   -8.3793    1.8337   -2.9725 H   0  0  0  0  0  0  0  0  0  0  0  0
    0.2781    0.8119    3.1689 H   0  0  0  0  0  0  0  0  0  0  0  0
    0.4397    2.5838    2.9744 H   0  0  0  0  0  0  0  0  0  0  0  0
   -1.0416    1.7562    2.4477 H   0  0  0  0  0  0  0  0  0  0  0  0
    2.8654    0.1877    3.8614 H   0  0  0  0  0  0  0  0  0  0  0  0
    4.2080    1.3381    3.6089 H   0  0  0  0  0  0  0  0  0  0  0  0
    2.5631    1.9050    3.6201 H   0  0  0  0  0  0  0  0  0  0  0  0
    6.2357    0.1221   -0.5815 H   0  0  0  0  0  0  0  0  0  0  0  0
    8.3969   -0.8888   -0.0553 H   0  0  0  0  0  0  0  0  0  0  0  0
  1  2  1  0
  2  3  2  0
  3  4  1  0
  4  5  2  0
  5  6  1  0
  6  7  1  0
  7  8  2  0
  8  9  1  0
  9 10  2  0
  9 11  1  0
 11 12  1  0
 12 13  1  0
 13 14  1  0
 14 15  1  0
 15 16  2  0
 15 17  1  0
 17 18  1  0
 18 19  1  0
 19 20  2  0
 20 21  1  0
 21 22  2  0
 22 23  1  0
 22 24  1  0
 11 25  1  0
 25 26  2  0
 26 27  1  0
 26 28  1  0
 28 29  2  0
 29 30  1  0
  5 31  1  0
 31 32  2  0
 32  2  1  0
 29  6  1  0
 28  8  1  0
 24 19  1  0
  1 33  1  0
  1 34  1  0
  1 35  1  0
  3 36  1  0
  4 37  1  0
 12 38  1  0
 12 39  1  0
 13 40  1  0
 13 41  1  0
 14 42  1  0
 14 43  1  0
 17 44  1  0
 18 45  1  0
 18 46  1  0
 20 47  1  0
 21 48  1  0
 23 49  1  0
 23 50  1  0
 23 51  1  0
 27 52  1  0
 27 53  1  0
 27 54  1  0
 30 55  1  0
 30 56  1  0
 30 57  1  0
 31 58  1  0
 32 59  1  0
M  END
$$$$
