
     RDKit          3D

 51 55  0  0  0  0  0  0  0  0999 V2000
    7.5364   -0.3020   -0.7745 C   0  0  0  0  0  0  0  0  0  0  0  0
    7.2252    0.6498    0.1947 C   0  0  0  0  0  0  0  0  0  0  0  0
    5.9439    1.2004    0.2480 C   0  0  0  0  0  0  0  0  0  0  0  0
    4.9632    0.8054   -0.6717 C   0  0  0  0  0  0  0  0  0  0  0  0
    3.5694    1.3846   -0.5993 C   0  0  0  0  0  0  0  0  0  0  0  0
    2.6520    0.5320    0.2947 C   0  0  0  0  0  0  0  0  0  0  0  0
    1.3150    1.1257    0.4799 N   0  0  0  0  0  0  0  0  0  0  0  0
    0.4702    1.0678   -0.7371 C   0  0  0  0  0  0  0  0  0  0  0  0
   -0.0474   -0.3411   -1.1166 C   0  0  0  0  0  0  0  0  0  0  0  0
   -0.7604   -0.9665    0.0148 N   0  0  0  0  0  0  0  0  0  0  0  0
   -2.1326   -0.7441    0.1342 C   0  0  0  0  0  0  0  0  0  0  0  0
   -2.5963   -0.1557    1.2077 N   0  0  0  0  0  0  0  0  0  0  0  0
   -3.9722    0.1149    1.3417 C   0  0  0  0  0  0  0  0  0  0  0  0
   -4.4104    0.7643    2.4974 C   0  0  0  0  0  0  0  0  0  0  0  0
   -5.7631    1.0659    2.6771 C   0  0  0  0  0  0  0  0  0  0  0  0
   -6.6942    0.7193    1.6972 C   0  0  0  0  0  0  0  0  0  0  0  0
   -6.2791    0.0699    0.5341 C   0  0  0  0  0  0  0  0  0  0  0  0
   -4.9225   -0.2243    0.3682 C   0  0  0  0  0  0  0  0  0  0  0  0
   -4.4201   -0.8844   -0.7644 N   0  0  0  0  0  0  0  0  0  0  0  0
   -5.0865   -1.3646   -1.8671 C   0  0  0  0  0  0  0  0  0  0  0  0
   -4.1718   -1.9975   -2.6811 C   0  0  0  0  0  0  0  0  0  0  0  0
   -2.9076   -1.8843   -2.0576 C   0  0  0  0  0  0  0  0  0  0  0  0
   -3.0771   -1.1598   -0.8910 C   0  0  0  0  0  0  0  0  0  0  0  0
    0.0616   -0.9658    1.2432 C   0  0  0  0  0  0  0  0  0  0  0  0
    0.5778    0.4518    1.5813 C   0  0  0  0  0  0  0  0  0  0  0  0
    5.2847   -0.1559   -1.6395 C   0  0  0  0  0  0  0  0  0  0  0  0
    6.5668   -0.7050   -1.6909 C   0  0  0  0  0  0  0  0  0  0  0  0
    8.5347   -0.7295   -0.8155 H   0  0  0  0  0  0  0  0  0  0  0  0
    7.9806    0.9639    0.9102 H   0  0  0  0  0  0  0  0  0  0  0  0
    5.7144    1.9404    1.0118 H   0  0  0  0  0  0  0  0  0  0  0  0
    3.6224    2.4117   -0.2157 H   0  0  0  0  0  0  0  0  0  0  0  0
    3.1717    1.4607   -1.6178 H   0  0  0  0  0  0  0  0  0  0  0  0
    3.1366    0.4538    1.2774 H   0  0  0  0  0  0  0  0  0  0  0  0
    2.5936   -0.4907   -0.0964 H   0  0  0  0  0  0  0  0  0  0  0  0
   -0.3971    1.7202   -0.5668 H   0  0  0  0  0  0  0  0  0  0  0  0
    0.9914    1.5068   -1.5939 H   0  0  0  0  0  0  0  0  0  0  0  0
   -0.6890   -0.2486   -1.9984 H   0  0  0  0  0  0  0  0  0  0  0  0
    0.7874   -0.9879   -1.4098 H   0  0  0  0  0  0  0  0  0  0  0  0
   -3.6874    1.0378    3.2612 H   0  0  0  0  0  0  0  0  0  0  0  0
   -6.0877    1.5721    3.5827 H   0  0  0  0  0  0  0  0  0  0  0  0
   -7.7457    0.9556    1.8421 H   0  0  0  0  0  0  0  0  0  0  0  0
   -7.0213   -0.1917   -0.2126 H   0  0  0  0  0  0  0  0  0  0  0  0
   -6.1529   -1.2415   -1.9867 H   0  0  0  0  0  0  0  0  0  0  0  0
   -4.3953   -2.4960   -3.6156 H   0  0  0  0  0  0  0  0  0  0  0  0
   -1.9714   -2.2895   -2.4181 H   0  0  0  0  0  0  0  0  0  0  0  0
   -0.5015   -1.3742    2.0912 H   0  0  0  0  0  0  0  0  0  0  0  0
    0.9094   -1.6450    1.0928 H   0  0  0  0  0  0  0  0  0  0  0  0
   -0.2712    1.0922    1.8513 H   0  0  0  0  0  0  0  0  0  0  0  0
    1.2045    0.4081    2.4805 H   0  0  0  0  0  0  0  0  0  0  0  0
    4.5391   -0.4816   -2.3609 H   0  0  0  0  0  0  0  0  0  0  0  0
    6.8098   -1.4475   -2.4464 H   0  0  0  0  0  0  0  0  0  0  0  0
  1  2  2  0
  2  3  1  0
  3  4  2  0
  4  5  1  0
  5  6  1  0
  6  7  1  0
  7  8  1  0
  8  9  1  0
  9 10  1  0
 10 11  1  0
 11 12  2  0
 12 13  1  0
 13 14  2  0
 14 15  1  0
 15 16  2  0
 16 17  1  0
 17 18  2  0
 18 19  1  0
 19 20  1  0
 20 21  2  0
 21 22  1  0
 22 23  2  0
 10 24  1  0
 24 25  1  0
  4 26  1  0
 26 27  2  0
 27  1  1  0
 25  7  1  0
 23 11  1  0
 18 13  1  0
 23 19  1  0
  1 28  1  0
  2 29  1  0
  3 30  1  0
  5 31  1  0
  5 32  1  0
  6 33  1  0
  6 34  1  0
  8 35  1  0
  8 36  1  0
  9 37  1  0
  9 38  1  0
 14 39  1  0
 15 40  1  0
 16 41  1  0
 17 42  1  0
 20 43  1  0
 21 44  1  0
 22 45  1  0
 24 46  1  0
 24 47  1  0
 25 48  1  0
 25 49  1  0
 26 50  1  0
 27 51  1  0
M  END
$$$$
