
     RDKit          3D

 39 42  0  0  0  0  0  0  0  0999 V2000
    5.9873    0.9691   -0.6457 C   0  0  0  0  0  0  0  0  0  0  0  0
    5.8187    0.5231    0.6765 C   0  0  0  0  0  0  0  0  0  0  0  0
    4.5780    0.0577    1.1246 C   0  0  0  0  0  0  0  0  0  0  0  0
    3.5181    0.0466    0.2335 C   0  0  0  0  0  0  0  0  0  0  0  0
    3.6947    0.4961   -1.0935 C   0  0  0  0  0  0  0  0  0  0  0  0
    4.9195    0.9585   -1.5452 C   0  0  0  0  0  0  0  0  0  0  0  0
    2.3940    0.3845   -1.8630 C   0  0  0  0  0  0  0  0  0  0  0  0
    1.4580   -0.1831   -0.8158 C   0  0  0  0  0  0  0  0  0  0  0  0
    0.1156   -0.4978   -0.9501 C   0  0  0  0  0  0  0  0  0  0  0  0
   -0.5683   -1.0113    0.1641 C   0  0  0  0  0  0  0  0  0  0  0  0
   -2.0367   -1.3733    0.0544 C   0  0  0  0  0  0  0  0  0  0  0  0
   -2.8919   -0.2340   -0.3139 N   0  0  0  0  0  0  0  0  0  0  0  0
   -4.2791   -0.6612   -0.5945 C   0  0  0  0  0  0  0  0  0  0  0  0
   -5.2418   -0.4283    0.5801 C   0  0  0  0  0  0  0  0  0  0  0  0
   -5.3278    0.9471    0.9753 O   0  0  0  0  0  0  0  0  0  0  0  0
   -4.1358    1.6914    0.6845 C   0  0  0  0  0  0  0  0  0  0  0  0
   -2.8716    0.8204    0.7270 C   0  0  0  0  0  0  0  0  0  0  0  0
    0.1224   -1.1985    1.3830 C   0  0  0  0  0  0  0  0  0  0  0  0
    1.4798   -0.8781    1.5075 C   0  0  0  0  0  0  0  0  0  0  0  0
    2.1420   -0.3703    0.4037 C   0  0  0  0  0  0  0  0  0  0  0  0
    6.9619    1.3265   -0.9702 H   0  0  0  0  0  0  0  0  0  0  0  0
    6.6648    0.5406    1.3595 H   0  0  0  0  0  0  0  0  0  0  0  0
    4.4584   -0.2841    2.1467 H   0  0  0  0  0  0  0  0  0  0  0  0
    5.0497    1.3029   -2.5656 H   0  0  0  0  0  0  0  0  0  0  0  0
    2.4999   -0.3076   -2.7034 H   0  0  0  0  0  0  0  0  0  0  0  0
    2.0537    1.3706   -2.1924 H   0  0  0  0  0  0  0  0  0  0  0  0
   -0.4019   -0.3419   -1.8923 H   0  0  0  0  0  0  0  0  0  0  0  0
   -2.1047   -2.1519   -0.7173 H   0  0  0  0  0  0  0  0  0  0  0  0
   -2.3879   -1.8349    0.9867 H   0  0  0  0  0  0  0  0  0  0  0  0
   -4.6280   -0.0649   -1.4471 H   0  0  0  0  0  0  0  0  0  0  0  0
   -4.3247   -1.7081   -0.9170 H   0  0  0  0  0  0  0  0  0  0  0  0
   -6.2513   -0.7529    0.3080 H   0  0  0  0  0  0  0  0  0  0  0  0
   -4.9366   -1.0157    1.4540 H   0  0  0  0  0  0  0  0  0  0  0  0
   -4.2549    2.1639   -0.2976 H   0  0  0  0  0  0  0  0  0  0  0  0
   -4.0643    2.4949    1.4247 H   0  0  0  0  0  0  0  0  0  0  0  0
   -2.8078    0.3713    1.7271 H   0  0  0  0  0  0  0  0  0  0  0  0
   -1.9914    1.4563    0.5831 H   0  0  0  0  0  0  0  0  0  0  0  0
   -0.4023   -1.5966    2.2492 H   0  0  0  0  0  0  0  0  0  0  0  0
    1.9925   -1.0269    2.4515 H   0  0  0  0  0  0  0  0  0  0  0  0
  1  2  2  0
  2  3  1  0
  3  4  2  0
  4  5  1  0
  5  6  2  0
  5  7  1  0
  7  8  1  0
  8  9  2  0
  9 10  1  0
 10 11  1  0
 11 12  1  0
 12 13  1  0
 13 14  1  0
 14 15  1  0
 15 16  1  0
 16 17  1  0
 10 18  2  0
 18 19  1  0
 19 20  2  0
  6  1  1  0
 20  8  1  0
 20  4  1  0
 17 12  1  0
  1 21  1  0
  2 22  1  0
  3 23  1  0
  6 24  1  0
  7 25  1  0
  7 26  1  0
  9 27  1  0
 11 28  1  0
 11 29  1  0
 13 30  1  0
 13 31  1  0
 14 32  1  0
 14 33  1  0
 16 34  1  0
 16 35  1  0
 17 36  1  0
 17 37  1  0
 18 38  1  0
 19 39  1  0
M  END
$$$$
