
     RDKit          3D

 58 62  0  0  0  0  0  0  0  0999 V2000
    8.3797    0.2500    3.1083 C   0  0  0  0  0  0  0  0  0  0  0  0
    7.9286   -0.2427    1.8526 O   0  0  0  0  0  0  0  0  0  0  0  0
    6.6156   -0.0233    1.5370 C   0  0  0  0  0  0  0  0  0  0  0  0
    5.6812    0.6406    2.3345 C   0  0  0  0  0  0  0  0  0  0  0  0
    4.3617    0.7988    1.8915 C   0  0  0  0  0  0  0  0  0  0  0  0
    3.9567    0.3003    0.6531 C   0  0  0  0  0  0  0  0  0  0  0  0
    2.6152    0.4789    0.2653 N   0  0  0  0  0  0  0  0  0  0  0  0
    2.1844    0.0166   -0.8820 C   0  0  0  0  0  0  0  0  0  0  0  0
    0.8374    0.1710   -1.2164 N   0  0  0  0  0  0  0  0  0  0  0  0
    0.0553   -1.0765   -1.3926 C   0  0  0  0  0  0  0  0  0  0  0  0
   -1.4676   -0.8321   -1.3081 C   0  0  0  0  0  0  0  0  0  0  0  0
   -1.9093   -0.2442   -0.0229 N   0  0  0  0  0  0  0  0  0  0  0  0
   -3.2224    0.4146   -0.1323 C   0  0  0  0  0  0  0  0  0  0  0  0
   -4.3634   -0.5550   -0.4933 C   0  0  0  0  0  0  0  0  0  0  0  0
   -5.7108    0.1419   -0.5180 C   0  0  0  0  0  0  0  0  0  0  0  0
   -6.0636    0.8600   -1.6760 C   0  0  0  0  0  0  0  0  0  0  0  0
   -7.2803    1.5350   -1.7597 C   0  0  0  0  0  0  0  0  0  0  0  0
   -8.1647    1.5059   -0.6883 C   0  0  0  0  0  0  0  0  0  0  0  0
   -7.8316    0.8016    0.4684 C   0  0  0  0  0  0  0  0  0  0  0  0
   -6.6061    0.1146    0.5763 C   0  0  0  0  0  0  0  0  0  0  0  0
   -6.3000   -0.6392    1.8539 C   0  0  0  0  0  0  0  0  0  0  0  0
   -6.2285   -1.9860    1.6644 F   0  0  0  0  0  0  0  0  0  0  0  0
   -7.2362   -0.4573    2.8299 F   0  0  0  0  0  0  0  0  0  0  0  0
   -5.1159   -0.2698    2.4151 F   0  0  0  0  0  0  0  0  0  0  0  0
   -0.8809    0.6834    0.5130 C   0  0  0  0  0  0  0  0  0  0  0  0
    0.0730    1.2511   -0.5552 C   0  0  0  0  0  0  0  0  0  0  0  0
    3.1338   -0.6455   -1.7634 C   0  0  0  0  0  0  0  0  0  0  0  0
    3.0093   -1.1361   -3.0509 C   0  0  0  0  0  0  0  0  0  0  0  0
    4.2577   -1.6854   -3.4257 C   0  0  0  0  0  0  0  0  0  0  0  0
    5.1217   -1.4927   -2.3697 C   0  0  0  0  0  0  0  0  0  0  0  0
    4.4417   -0.8328   -1.3737 N   0  0  0  0  0  0  0  0  0  0  0  0
    4.9042   -0.3634   -0.1344 C   0  0  0  0  0  0  0  0  0  0  0  0
    6.2246   -0.5283    0.2938 C   0  0  0  0  0  0  0  0  0  0  0  0
    8.2946    1.3406    3.1579 H   0  0  0  0  0  0  0  0  0  0  0  0
    7.8439   -0.2275    3.9354 H   0  0  0  0  0  0  0  0  0  0  0  0
    9.4392   -0.0058    3.2066 H   0  0  0  0  0  0  0  0  0  0  0  0
    5.9411    1.0475    3.3059 H   0  0  0  0  0  0  0  0  0  0  0  0
    3.6387    1.3142    2.5186 H   0  0  0  0  0  0  0  0  0  0  0  0
    0.2776   -1.5176   -2.3686 H   0  0  0  0  0  0  0  0  0  0  0  0
    0.3439   -1.8056   -0.6242 H   0  0  0  0  0  0  0  0  0  0  0  0
   -1.9775   -1.7911   -1.4544 H   0  0  0  0  0  0  0  0  0  0  0  0
   -1.7526   -0.1801   -2.1452 H   0  0  0  0  0  0  0  0  0  0  0  0
   -3.1781    1.2359   -0.8601 H   0  0  0  0  0  0  0  0  0  0  0  0
   -3.4690    0.8711    0.8352 H   0  0  0  0  0  0  0  0  0  0  0  0
   -4.3771   -1.3986    0.2052 H   0  0  0  0  0  0  0  0  0  0  0  0
   -4.1943   -0.9995   -1.4823 H   0  0  0  0  0  0  0  0  0  0  0  0
   -5.3859    0.8949   -2.5274 H   0  0  0  0  0  0  0  0  0  0  0  0
   -7.5375    2.0827   -2.6629 H   0  0  0  0  0  0  0  0  0  0  0  0
   -9.1151    2.0302   -0.7519 H   0  0  0  0  0  0  0  0  0  0  0  0
   -8.5408    0.7908    1.2958 H   0  0  0  0  0  0  0  0  0  0  0  0
   -0.2907    0.1213    1.2481 H   0  0  0  0  0  0  0  0  0  0  0  0
   -1.3393    1.5102    1.0691 H   0  0  0  0  0  0  0  0  0  0  0  0
    0.7325    2.0032   -0.1069 H   0  0  0  0  0  0  0  0  0  0  0  0
   -0.5032    1.7853   -1.3213 H   0  0  0  0  0  0  0  0  0  0  0  0
    2.1168   -1.0971   -3.6601 H   0  0  0  0  0  0  0  0  0  0  0  0
    4.5054   -2.1590   -4.3670 H   0  0  0  0  0  0  0  0  0  0  0  0
    6.1636   -1.7602   -2.2678 H   0  0  0  0  0  0  0  0  0  0  0  0
    6.9638   -1.0397   -0.3140 H   0  0  0  0  0  0  0  0  0  0  0  0
  1  2  1  0
  2  3  1  0
  3  4  2  0
  4  5  1  0
  5  6  2  0
  6  7  1  0
  7  8  2  0
  8  9  1  0
  9 10  1  0
 10 11  1  0
 11 12  1  0
 12 13  1  0
 13 14  1  0
 14 15  1  0
 15 16  2  0
 16 17  1  0
 17 18  2  0
 18 19  1  0
 19 20  2  0
 20 21  1  0
 21 22  1  0
 21 23  1  0
 21 24  1  0
 12 25  1  0
 25 26  1  0
  8 27  1  0
 27 28  2  0
 28 29  1  0
 29 30  2  0
 30 31  1  0
 31 32  1  0
 32 33  2  0
 33  3  1  0
 32  6  1  0
 26  9  1  0
 31 27  1  0
 20 15  1  0
  1 34  1  0
  1 35  1  0
  1 36  1  0
  4 37  1  0
  5 38  1  0
 10 39  1  0
 10 40  1  0
 11 41  1  0
 11 42  1  0
 13 43  1  0
 13 44  1  0
 14 45  1  0
 14 46  1  0
 16 47  1  0
 17 48  1  0
 18 49  1  0
 19 50  1  0
 25 51  1  0
 25 52  1  0
 26 53  1  0
 26 54  1  0
 28 55  1  0
 29 56  1  0
 30 57  1  0
 33 58  1  0
M  END
$$$$
