
     RDKit          3D

 40 42  0  0  0  0  0  0  0  0999 V2000
   -7.0133    0.8685   -1.0198 C   0  0  0  0  0  0  0  0  0  0  0  0
   -6.2418   -0.7249   -0.8445 S   0  0  0  0  0  6  0  0  0  0  0  0
   -7.2934   -1.7105   -0.7087 O   0  0  0  0  0  0  0  0  0  0  0  0
   -5.2050   -0.8635   -1.8423 O   0  0  0  0  0  0  0  0  0  0  0  0
   -5.5564   -0.5890    0.7005 N   0  0  0  0  0  0  0  0  0  0  0  0
   -4.1564   -0.3323    0.7589 C   0  0  0  0  0  0  0  0  0  0  0  0
   -3.2540   -1.3975    0.7684 C   0  0  0  0  0  0  0  0  0  0  0  0
   -1.8793   -1.1460    0.7606 C   0  0  0  0  0  0  0  0  0  0  0  0
   -1.4117    0.1747    0.7279 C   0  0  0  0  0  0  0  0  0  0  0  0
    0.0445    0.4863    0.7160 C   0  0  0  0  0  0  0  0  0  0  0  0
    0.4305    1.4581    1.3526 O   0  0  0  0  0  0  0  0  0  0  0  0
    0.8086   -0.3601   -0.0659 N   0  0  0  0  0  0  0  0  0  0  0  0
    2.2094   -0.3363   -0.2354 C   0  0  0  0  0  0  0  0  0  0  0  0
    2.7539   -1.2416   -1.1583 C   0  0  0  0  0  0  0  0  0  0  0  0
    4.1317   -1.2857   -1.3892 C   0  0  0  0  0  0  0  0  0  0  0  0
    4.9760   -0.4240   -0.6978 C   0  0  0  0  0  0  0  0  0  0  0  0
    4.4462    0.4595    0.2462 C   0  0  0  0  0  0  0  0  0  0  0  0
    3.0673    0.5135    0.4666 C   0  0  0  0  0  0  0  0  0  0  0  0
    5.2231    1.3117    0.9913 O   0  0  0  0  0  0  0  0  0  0  0  0
    6.6043    0.9395    0.9415 C   0  0  0  0  0  0  0  0  0  0  0  0
    7.0245    0.6322   -0.4859 C   0  0  0  0  0  0  0  0  0  0  0  0
    6.3134   -0.5051   -0.9885 O   0  0  0  0  0  0  0  0  0  0  0  0
   -2.3232    1.2380    0.7287 C   0  0  0  0  0  0  0  0  0  0  0  0
   -3.6964    0.9834    0.7299 C   0  0  0  0  0  0  0  0  0  0  0  0
   -6.2421    1.6398   -1.0420 H   0  0  0  0  0  0  0  0  0  0  0  0
   -7.7025    1.0234   -0.1877 H   0  0  0  0  0  0  0  0  0  0  0  0
   -7.5650    0.8717   -1.9625 H   0  0  0  0  0  0  0  0  0  0  0  0
   -5.8758   -1.3784    1.2665 H   0  0  0  0  0  0  0  0  0  0  0  0
   -3.6099   -2.4244    0.7714 H   0  0  0  0  0  0  0  0  0  0  0  0
   -1.1893   -1.9848    0.7990 H   0  0  0  0  0  0  0  0  0  0  0  0
    0.3093   -1.0268   -0.6408 H   0  0  0  0  0  0  0  0  0  0  0  0
    2.1151   -1.9205   -1.7173 H   0  0  0  0  0  0  0  0  0  0  0  0
    4.5425   -1.9825   -2.1144 H   0  0  0  0  0  0  0  0  0  0  0  0
    2.6966    1.2191    1.2027 H   0  0  0  0  0  0  0  0  0  0  0  0
    7.1881    1.7771    1.3360 H   0  0  0  0  0  0  0  0  0  0  0  0
    6.7572    0.0757    1.6004 H   0  0  0  0  0  0  0  0  0  0  0  0
    6.8369    1.4833   -1.1524 H   0  0  0  0  0  0  0  0  0  0  0  0
    8.0930    0.3982   -0.5240 H   0  0  0  0  0  0  0  0  0  0  0  0
   -1.9626    2.2650    0.7207 H   0  0  0  0  0  0  0  0  0  0  0  0
   -4.3941    1.8153    0.7231 H   0  0  0  0  0  0  0  0  0  0  0  0
  1  2  1  0
  2  3  2  0
  2  4  2  0
  2  5  1  0
  5  6  1  0
  6  7  2  0
  7  8  1  0
  8  9  2  0
  9 10  1  0
 10 11  2  0
 10 12  1  0
 12 13  1  0
 13 14  2  0
 14 15  1  0
 15 16  2  0
 16 17  1  0
 17 18  2  0
 17 19  1  0
 19 20  1  0
 20 21  1  0
 21 22  1  0
  9 23  1  0
 23 24  2  0
 24  6  1  0
 18 13  1  0
 22 16  1  0
  1 25  1  0
  1 26  1  0
  1 27  1  0
  5 28  1  0
  7 29  1  0
  8 30  1  0
 12 31  1  0
 14 32  1  0
 15 33  1  0
 18 34  1  0
 20 35  1  0
 20 36  1  0
 21 37  1  0
 21 38  1  0
 23 39  1  0
 24 40  1  0
M  END
$$$$
