
     RDKit          3D

 47 50  0  0  0  0  0  0  0  0999 V2000
   -2.3344   -3.2280    0.5087 C   0  0  0  0  0  0  0  0  0  0  0  0
   -1.5277   -2.0411    0.0646 C   0  0  0  0  0  0  0  0  0  0  0  0
   -0.3150   -2.2453   -0.3696 N   0  0  0  0  0  0  0  0  0  0  0  0
    0.4847   -1.1765   -0.7910 N   0  0  0  0  0  0  0  0  0  0  0  0
    1.8497   -1.4979   -1.1697 C   0  0  0  0  0  0  0  0  0  0  0  0
    2.8153   -1.2630   -0.0057 C   0  0  0  0  0  0  0  0  0  0  0  0
    2.4669   -1.0614    1.1549 O   0  0  0  0  0  0  0  0  0  0  0  0
    4.1446   -1.3266   -0.3758 N   0  0  0  0  0  0  0  0  0  0  0  0
    5.1868   -1.2175    0.6172 C   0  0  0  0  0  0  0  0  0  0  0  0
    6.4912   -1.0445   -0.0895 C   0  0  0  0  0  0  0  0  0  0  0  0
    7.0742    0.1284   -0.5294 C   0  0  0  0  0  0  0  0  0  0  0  0
    8.3263   -0.0952   -1.1708 C   0  0  0  0  0  0  0  0  0  0  0  0
    8.6579   -1.4310   -1.2012 C   0  0  0  0  0  0  0  0  0  0  0  0
    7.4637   -2.4061   -0.4622 S   0  0  0  0  0  0  0  0  0  0  0  0
    0.0939    0.1764   -0.8147 C   0  0  0  0  0  0  0  0  0  0  0  0
    0.8235    1.0834   -1.2117 O   0  0  0  0  0  0  0  0  0  0  0  0
   -1.2670    0.3749   -0.3355 C   0  0  0  0  0  0  0  0  0  0  0  0
   -1.9082    1.5403   -0.2299 N   0  0  0  0  0  0  0  0  0  0  0  0
   -3.1603    1.2198    0.1962 N   0  0  0  0  0  0  0  0  0  0  0  0
   -4.1568    2.2456    0.2141 C   0  0  0  0  0  0  0  0  0  0  0  0
   -3.7463    3.5888    0.1446 C   0  0  0  0  0  0  0  0  0  0  0  0
   -4.6850    4.6232    0.1531 C   0  0  0  0  0  0  0  0  0  0  0  0
   -6.0438    4.3295    0.2155 C   0  0  0  0  0  0  0  0  0  0  0  0
   -6.4641    3.0023    0.2580 C   0  0  0  0  0  0  0  0  0  0  0  0
   -5.5273    1.9624    0.2507 C   0  0  0  0  0  0  0  0  0  0  0  0
   -3.2388   -0.1350    0.5439 C   0  0  0  0  0  0  0  0  0  0  0  0
   -4.3622   -0.7527    1.2946 C   0  0  0  0  0  0  0  0  0  0  0  0
   -2.0525   -0.6972    0.1014 C   0  0  0  0  0  0  0  0  0  0  0  0
   -1.8472   -4.1566    0.1967 H   0  0  0  0  0  0  0  0  0  0  0  0
   -2.4126   -3.2279    1.5991 H   0  0  0  0  0  0  0  0  0  0  0  0
   -3.3334   -3.1949    0.0665 H   0  0  0  0  0  0  0  0  0  0  0  0
    2.1512   -0.8732   -2.0176 H   0  0  0  0  0  0  0  0  0  0  0  0
    1.9043   -2.5502   -1.4688 H   0  0  0  0  0  0  0  0  0  0  0  0
    4.3952   -1.6684   -1.2942 H   0  0  0  0  0  0  0  0  0  0  0  0
    4.9782   -0.3600    1.2669 H   0  0  0  0  0  0  0  0  0  0  0  0
    5.1670   -2.1198    1.2384 H   0  0  0  0  0  0  0  0  0  0  0  0
    6.6196    1.1038   -0.3969 H   0  0  0  0  0  0  0  0  0  0  0  0
    8.9519    0.6846   -1.5878 H   0  0  0  0  0  0  0  0  0  0  0  0
    9.5454   -1.8834   -1.6221 H   0  0  0  0  0  0  0  0  0  0  0  0
   -2.6892    3.8487    0.0950 H   0  0  0  0  0  0  0  0  0  0  0  0
   -4.3505    5.6566    0.1085 H   0  0  0  0  0  0  0  0  0  0  0  0
   -6.7744    5.1342    0.2183 H   0  0  0  0  0  0  0  0  0  0  0  0
   -7.5270    2.7742    0.2823 H   0  0  0  0  0  0  0  0  0  0  0  0
   -5.9128    0.9507    0.2258 H   0  0  0  0  0  0  0  0  0  0  0  0
   -4.0079   -1.5757    1.9214 H   0  0  0  0  0  0  0  0  0  0  0  0
   -4.8332   -0.0452    1.9833 H   0  0  0  0  0  0  0  0  0  0  0  0
   -5.1139   -1.1537    0.6085 H   0  0  0  0  0  0  0  0  0  0  0  0
  1  2  1  0
  2  3  2  0
  3  4  1  0
  4  5  1  0
  5  6  1  0
  6  7  2  0
  6  8  1  0
  8  9  1  0
  9 10  1  0
 10 11  2  0
 11 12  1  0
 12 13  2  0
 13 14  1  0
  4 15  1  0
 15 16  2  0
 15 17  1  0
 17 18  2  0
 18 19  1  0
 19 20  1  0
 20 21  2  0
 21 22  1  0
 22 23  2  0
 23 24  1  0
 24 25  2  0
 19 26  1  0
 26 27  1  0
 26 28  2  0
 28  2  1  0
 14 10  1  0
 28 17  1  0
 25 20  1  0
  1 29  1  0
  1 30  1  0
  1 31  1  0
  5 32  1  0
  5 33  1  0
  8 34  1  0
  9 35  1  0
  9 36  1  0
 11 37  1  0
 12 38  1  0
 13 39  1  0
 21 40  1  0
 22 41  1  0
 23 42  1  0
 24 43  1  0
 25 44  1  0
 27 45  1  0
 27 46  1  0
 27 47  1  0
M  END
$$$$
