
     RDKit          3D

 43 45  0  0  0  0  0  0  0  0999 V2000
    6.6299   -1.2502   -1.2051 C   0  0  0  0  0  0  0  0  0  0  0  0
    5.6874   -0.4710   -0.3350 C   0  0  0  0  0  0  0  0  0  0  0  0
    6.1807    0.3926    0.6494 C   0  0  0  0  0  0  0  0  0  0  0  0
    5.3060    1.1473    1.4376 C   0  0  0  0  0  0  0  0  0  0  0  0
    5.8376    2.0386    2.5208 C   0  0  0  0  0  0  0  0  0  0  0  0
    3.9243    1.0177    1.2383 C   0  0  0  0  0  0  0  0  0  0  0  0
    3.4121    0.1724    0.2443 C   0  0  0  0  0  0  0  0  0  0  0  0
    2.0081    0.1147    0.1109 N   0  0  0  0  0  0  0  0  0  0  0  0
    1.2810   -0.5843   -0.8353 C   0  0  0  0  0  0  0  0  0  0  0  0
    1.7229   -1.2286   -1.7790 O   0  0  0  0  0  0  0  0  0  0  0  0
   -0.1997   -0.4859   -0.6874 C   0  0  0  0  0  0  0  0  0  0  0  0
   -0.9887   -0.4906   -1.8413 C   0  0  0  0  0  0  0  0  0  0  0  0
   -2.3809   -0.3999   -1.7425 C   0  0  0  0  0  0  0  0  0  0  0  0
   -3.0064   -0.3103   -0.4917 C   0  0  0  0  0  0  0  0  0  0  0  0
   -4.4145   -0.2210   -0.4857 N   0  0  0  0  0  0  0  0  0  0  0  0
   -5.2561   -0.0745    0.6109 C   0  0  0  0  0  0  0  0  0  0  0  0
   -4.8621    0.0299    1.7689 O   0  0  0  0  0  0  0  0  0  0  0  0
   -6.6744   -0.0416    0.2698 C   0  0  0  0  0  0  0  0  0  0  0  0
   -7.3838   -0.1986   -0.9116 C   0  0  0  0  0  0  0  0  0  0  0  0
   -8.7583   -0.0574   -0.5934 C   0  0  0  0  0  0  0  0  0  0  0  0
   -8.8141    0.1754    0.7579 C   0  0  0  0  0  0  0  0  0  0  0  0
   -7.5670    0.1860    1.2878 O   0  0  0  0  0  0  0  0  0  0  0  0
   -2.2138   -0.3284    0.6585 C   0  0  0  0  0  0  0  0  0  0  0  0
   -0.8185   -0.4208    0.5649 C   0  0  0  0  0  0  0  0  0  0  0  0
    4.3018   -0.5638   -0.5395 C   0  0  0  0  0  0  0  0  0  0  0  0
    6.1925   -2.2130   -1.4894 H   0  0  0  0  0  0  0  0  0  0  0  0
    6.8577   -0.6817   -2.1120 H   0  0  0  0  0  0  0  0  0  0  0  0
    7.5655   -1.4629   -0.6773 H   0  0  0  0  0  0  0  0  0  0  0  0
    7.2550    0.4761    0.8029 H   0  0  0  0  0  0  0  0  0  0  0  0
    6.8259    2.4291    2.2563 H   0  0  0  0  0  0  0  0  0  0  0  0
    5.1797    2.9003    2.6753 H   0  0  0  0  0  0  0  0  0  0  0  0
    5.9169    1.4807    3.4588 H   0  0  0  0  0  0  0  0  0  0  0  0
    3.2487    1.5925    1.8672 H   0  0  0  0  0  0  0  0  0  0  0  0
    1.4886    0.7062    0.7454 H   0  0  0  0  0  0  0  0  0  0  0  0
   -0.5202   -0.5635   -2.8213 H   0  0  0  0  0  0  0  0  0  0  0  0
   -2.9624   -0.4015   -2.6611 H   0  0  0  0  0  0  0  0  0  0  0  0
   -4.8542   -0.2452   -1.3935 H   0  0  0  0  0  0  0  0  0  0  0  0
   -6.9774   -0.3979   -1.8923 H   0  0  0  0  0  0  0  0  0  0  0  0
   -9.6035   -0.1204   -1.2647 H   0  0  0  0  0  0  0  0  0  0  0  0
   -9.6201    0.3439    1.4590 H   0  0  0  0  0  0  0  0  0  0  0  0
   -2.6476   -0.2881    1.6533 H   0  0  0  0  0  0  0  0  0  0  0  0
   -0.2401   -0.4725    1.4837 H   0  0  0  0  0  0  0  0  0  0  0  0
    3.9416   -1.2300   -1.3176 H   0  0  0  0  0  0  0  0  0  0  0  0
  1  2  1  0
  2  3  2  0
  3  4  1  0
  4  5  1  0
  4  6  2  0
  6  7  1  0
  7  8  1  0
  8  9  1  0
  9 10  2  0
  9 11  1  0
 11 12  2  0
 12 13  1  0
 13 14  2  0
 14 15  1  0
 15 16  1  0
 16 17  2  0
 16 18  1  0
 18 19  2  0
 19 20  1  0
 20 21  2  0
 21 22  1  0
 14 23  1  0
 23 24  2  0
  7 25  2  0
 25  2  1  0
 24 11  1  0
 22 18  1  0
  1 26  1  0
  1 27  1  0
  1 28  1  0
  3 29  1  0
  5 30  1  0
  5 31  1  0
  5 32  1  0
  6 33  1  0
  8 34  1  0
 12 35  1  0
 13 36  1  0
 15 37  1  0
 19 38  1  0
 20 39  1  0
 21 40  1  0
 23 41  1  0
 24 42  1  0
 25 43  1  0
M  END
$$$$
