
     RDKit          3D

 36 36  0  0  0  0  0  0  0  0999 V2000
    0.8813   -6.0234    2.6704 C   0  0  0  0  0  0  0  0  0  0  0  0
    1.1761   -5.4999    1.2761 C   0  0  0  0  0  0  0  0  0  0  0  0
    0.6692   -4.1789    1.0987 O   0  0  0  0  0  0  0  0  0  0  0  0
    1.5215   -3.1681    1.6276 C   0  0  0  0  0  0  0  0  0  0  0  0
    0.8807   -1.8005    1.4160 C   0  0  0  0  0  0  0  0  0  0  0  0
    0.5816   -1.5277   -0.0563 C   0  0  0  0  0  0  0  0  0  0  0  0
    0.1903   -0.1453   -0.2787 N   0  0  0  0  0  0  0  0  0  0  0  0
   -1.0937    0.2912   -0.0324 C   0  0  0  0  0  0  0  0  0  0  0  0
   -2.0005   -0.4296    0.3643 O   0  0  0  0  0  0  0  0  0  0  0  0
   -1.3143    1.7481   -0.2453 C   0  0  0  0  0  0  0  0  0  0  0  0
   -1.9680    2.4512    0.8002 C   0  0  0  0  0  0  0  0  0  0  0  0
   -2.4766    3.0721    1.6393 N   0  0  0  0  0  0  0  0  0  0  0  0
   -0.9201    2.2731   -1.4195 C   0  0  0  0  0  0  0  0  0  0  0  0
   -1.0454    3.6331   -1.8262 C   0  0  0  0  0  0  0  0  0  0  0  0
   -1.9056    4.6640   -1.4454 C   0  0  0  0  0  0  0  0  0  0  0  0
   -1.5833    5.8230   -2.1996 C   0  0  0  0  0  0  0  0  0  0  0  0
   -0.5507    5.4397   -3.0115 C   0  0  0  0  0  0  0  0  0  0  0  0
    0.2033    6.1475   -3.9965 N   0  0  0  0  0  4  0  0  0  0  0  0
    1.1089    5.5376   -4.5792 O   0  0  0  0  0  0  0  0  0  0  0  0
   -0.1151    7.3292   -4.1856 O   0  0  0  0  0  1  0  0  0  0  0  0
   -0.2197    4.1403   -2.8134 O   0  0  0  0  0  0  0  0  0  0  0  0
    1.4231   -5.4555    3.4324 H   0  0  0  0  0  0  0  0  0  0  0  0
   -0.1854   -5.9314    2.8991 H   0  0  0  0  0  0  0  0  0  0  0  0
    1.1723   -7.0744    2.7566 H   0  0  0  0  0  0  0  0  0  0  0  0
    2.2482   -5.5381    1.0530 H   0  0  0  0  0  0  0  0  0  0  0  0
    0.6667   -6.1364    0.5451 H   0  0  0  0  0  0  0  0  0  0  0  0
    2.4927   -3.2083    1.1209 H   0  0  0  0  0  0  0  0  0  0  0  0
    1.6792   -3.3268    2.6991 H   0  0  0  0  0  0  0  0  0  0  0  0
    1.5463   -1.0264    1.8163 H   0  0  0  0  0  0  0  0  0  0  0  0
   -0.0553   -1.7447    1.9852 H   0  0  0  0  0  0  0  0  0  0  0  0
    1.4714   -1.7035   -0.6701 H   0  0  0  0  0  0  0  0  0  0  0  0
   -0.2197   -2.1816   -0.4179 H   0  0  0  0  0  0  0  0  0  0  0  0
    0.9260    0.5217   -0.4736 H   0  0  0  0  0  0  0  0  0  0  0  0
   -0.4373    1.6287   -2.1528 H   0  0  0  0  0  0  0  0  0  0  0  0
   -2.6986    4.6017   -0.7107 H   0  0  0  0  0  0  0  0  0  0  0  0
   -2.0495    6.7982   -2.1567 H   0  0  0  0  0  0  0  0  0  0  0  0
  1  2  1  0
  2  3  1  0
  3  4  1  0
  4  5  1  0
  5  6  1  0
  6  7  1  0
  7  8  1  0
  8  9  2  0
  8 10  1  0
 10 11  1  0
 11 12  3  0
 10 13  2  3
 13 14  1  0
 14 15  2  0
 15 16  1  0
 16 17  2  0
 17 18  1  0
 18 19  2  0
 18 20  1  0
 17 21  1  0
 21 14  1  0
  1 22  1  0
  1 23  1  0
  1 24  1  0
  2 25  1  0
  2 26  1  0
  4 27  1  0
  4 28  1  0
  5 29  1  0
  5 30  1  0
  6 31  1  0
  6 32  1  0
  7 33  1  0
 13 34  1  0
 15 35  1  0
 16 36  1  0
M  CHG  2  18   1  20  -1
M  END
$$$$
