
     RDKit          3D

 58 60  0  0  0  0  0  0  0  0999 V2000
    6.9293    3.1043   -1.5714 C   0  0  0  0  0  0  0  0  0  0  0  0
    5.8112    2.9340   -0.6281 C   0  0  0  0  0  0  0  0  0  0  0  0
    4.9467    1.9072   -0.3453 C   0  0  0  0  0  0  0  0  0  0  0  0
    4.0955    2.4184    0.6579 C   0  0  0  0  0  0  0  0  0  0  0  0
    3.0406    1.8117    1.3031 N   0  0  0  0  0  0  0  0  0  0  0  0
    2.5659    0.5502    1.0260 C   0  0  0  0  0  0  0  0  0  0  0  0
    3.0172   -0.2163    0.1820 O   0  0  0  0  0  0  0  0  0  0  0  0
    1.4263    0.1470    1.9450 C   0  0  0  0  0  0  0  0  0  0  0  0
    0.5914   -0.9851    1.3506 C   0  0  0  0  0  0  0  0  0  0  0  0
   -0.2999   -0.4925    0.2218 C   0  0  0  0  0  0  0  0  0  0  0  0
   -0.3847    0.7111   -0.0399 O   0  0  0  0  0  0  0  0  0  0  0  0
   -1.0534   -1.4347   -0.4657 N   0  0  0  0  0  0  0  0  0  0  0  0
   -1.9264   -0.9498   -1.5361 C   0  0  0  0  0  0  0  0  0  0  0  0
   -3.2381   -0.4266   -0.9485 C   0  0  0  0  0  0  0  0  0  0  0  0
   -4.2359   -1.1353   -0.8367 O   0  0  0  0  0  0  0  0  0  0  0  0
   -3.1649    0.8819   -0.5266 N   0  0  0  0  0  0  0  0  0  0  0  0
   -4.2023    1.4924    0.2698 C   0  0  0  0  0  0  0  0  0  0  0  0
   -3.9335    1.3373    1.7624 C   0  0  0  0  0  0  0  0  0  0  0  0
   -4.7768    2.4282    2.4090 C   0  0  0  0  0  0  0  0  0  0  0  0
   -4.9510    3.5152    1.3480 C   0  0  0  0  0  0  0  0  0  0  0  0
   -4.2506    3.0059    0.0943 C   0  0  0  0  0  0  0  0  0  0  0  0
   -1.1958   -2.8402   -0.0762 C   0  0  0  0  0  0  0  0  0  0  0  0
   -0.0979   -3.7238   -0.6282 C   0  0  0  0  0  0  0  0  0  0  0  0
    0.7099   -4.4793    0.2433 C   0  0  0  0  0  0  0  0  0  0  0  0
    1.7319   -5.2882   -0.2558 C   0  0  0  0  0  0  0  0  0  0  0  0
    1.9379   -5.3614   -1.6278 C   0  0  0  0  0  0  0  0  0  0  0  0
    2.9187   -6.1338   -2.1062 F   0  0  0  0  0  0  0  0  0  0  0  0
    1.1393   -4.6427   -2.5105 C   0  0  0  0  0  0  0  0  0  0  0  0
    0.1229   -3.8273   -2.0124 C   0  0  0  0  0  0  0  0  0  0  0  0
    4.4365    3.6729    0.9777 N   0  0  0  0  0  0  0  0  0  0  0  0
    5.5041    3.9993    0.1598 O   0  0  0  0  0  0  0  0  0  0  0  0
    6.7819    3.9961   -2.1880 H   0  0  0  0  0  0  0  0  0  0  0  0
    7.0063    2.2442   -2.2414 H   0  0  0  0  0  0  0  0  0  0  0  0
    7.8767    3.2034   -1.0335 H   0  0  0  0  0  0  0  0  0  0  0  0
    4.9420    0.9299   -0.8038 H   0  0  0  0  0  0  0  0  0  0  0  0
    2.5772    2.4037    1.9755 H   0  0  0  0  0  0  0  0  0  0  0  0
    0.8025    1.0166    2.1818 H   0  0  0  0  0  0  0  0  0  0  0  0
    1.8807   -0.2024    2.8796 H   0  0  0  0  0  0  0  0  0  0  0  0
   -0.0521   -1.3852    2.1399 H   0  0  0  0  0  0  0  0  0  0  0  0
    1.2398   -1.7833    0.9859 H   0  0  0  0  0  0  0  0  0  0  0  0
   -2.1469   -1.7548   -2.2449 H   0  0  0  0  0  0  0  0  0  0  0  0
   -1.4300   -0.1485   -2.0962 H   0  0  0  0  0  0  0  0  0  0  0  0
   -2.2226    1.2617   -0.4458 H   0  0  0  0  0  0  0  0  0  0  0  0
   -5.1734    1.0536    0.0123 H   0  0  0  0  0  0  0  0  0  0  0  0
   -4.1830    0.3410    2.1382 H   0  0  0  0  0  0  0  0  0  0  0  0
   -2.8745    1.5134    1.9804 H   0  0  0  0  0  0  0  0  0  0  0  0
   -4.2975    2.8157    3.3141 H   0  0  0  0  0  0  0  0  0  0  0  0
   -5.7561    2.0319    2.7001 H   0  0  0  0  0  0  0  0  0  0  0  0
   -6.0156    3.6794    1.1578 H   0  0  0  0  0  0  0  0  0  0  0  0
   -4.5263    4.4703    1.6716 H   0  0  0  0  0  0  0  0  0  0  0  0
   -4.7772    3.3016   -0.8200 H   0  0  0  0  0  0  0  0  0  0  0  0
   -3.2373    3.4263    0.0348 H   0  0  0  0  0  0  0  0  0  0  0  0
   -1.2148   -2.8970    1.0169 H   0  0  0  0  0  0  0  0  0  0  0  0
   -2.1677   -3.2198   -0.4147 H   0  0  0  0  0  0  0  0  0  0  0  0
    0.5595   -4.4318    1.3203 H   0  0  0  0  0  0  0  0  0  0  0  0
    2.3700   -5.8577    0.4156 H   0  0  0  0  0  0  0  0  0  0  0  0
    1.3143   -4.7183   -3.5798 H   0  0  0  0  0  0  0  0  0  0  0  0
   -0.4899   -3.2700   -2.7179 H   0  0  0  0  0  0  0  0  0  0  0  0
  1  2  1  0
  2  3  2  0
  3  4  1  0
  4  5  1  0
  5  6  1  0
  6  7  2  0
  6  8  1  0
  8  9  1  0
  9 10  1  0
 10 11  2  0
 10 12  1  0
 12 13  1  0
 13 14  1  0
 14 15  2  0
 14 16  1  0
 16 17  1  0
 17 18  1  0
 18 19  1  0
 19 20  1  0
 20 21  1  0
 12 22  1  0
 22 23  1  0
 23 24  2  0
 24 25  1  0
 25 26  2  0
 26 27  1  0
 26 28  1  0
 28 29  2  0
  4 30  2  0
 30 31  1  0
 31  2  1  0
 21 17  1  0
 29 23  1  0
  1 32  1  0
  1 33  1  0
  1 34  1  0
  3 35  1  0
  5 36  1  0
  8 37  1  0
  8 38  1  0
  9 39  1  0
  9 40  1  0
 13 41  1  0
 13 42  1  0
 16 43  1  0
 17 44  1  0
 18 45  1  0
 18 46  1  0
 19 47  1  0
 19 48  1  0
 20 49  1  0
 20 50  1  0
 21 51  1  0
 21 52  1  0
 22 53  1  0
 22 54  1  0
 24 55  1  0
 25 56  1  0
 28 57  1  0
 29 58  1  0
M  END
$$$$
