
     RDKit          3D

 56 61  0  0  0  0  0  0  0  0999 V2000
   -5.0277   -2.9102    1.4921 C   0  0  0  0  0  0  0  0  0  0  0  0
   -3.9002   -1.9602    1.7657 C   0  0  0  0  0  0  0  0  0  0  0  0
   -3.9106   -1.1092    2.8873 C   0  0  0  0  0  0  0  0  0  0  0  0
   -5.2311   -1.1160    4.0057 Cl  0  0  0  0  0  0  0  0  0  0  0  0
   -2.8532   -0.2142    3.1456 C   0  0  0  0  0  0  0  0  0  0  0  0
   -1.7506   -0.1427    2.2937 C   0  0  0  0  0  0  0  0  0  0  0  0
   -1.7301   -0.9744    1.1853 C   0  0  0  0  0  0  0  0  0  0  0  0
   -2.7898   -1.8611    0.9360 C   0  0  0  0  0  0  0  0  0  0  0  0
   -2.5372   -2.5718   -0.2351 N   0  0  0  0  0  0  0  0  0  0  0  0
   -1.3164   -2.2140   -0.8129 C   0  0  0  0  0  0  0  0  0  0  0  0
   -0.8744   -2.6897   -1.8479 O   0  0  0  0  0  0  0  0  0  0  0  0
   -0.6952   -1.1279    0.1058 C   0  0  0  0  0  0  0  0  0  0  0  0
    0.6632   -1.5249    0.5885 N   0  0  0  0  0  0  0  0  0  0  0  0
    1.6874   -0.7764   -0.2284 C   0  0  2  0  0  0  0  0  0  0  0  0
    2.9010   -0.3304    0.6100 C   0  0  0  0  0  0  0  0  0  0  0  0
    3.6863   -1.4626    1.2316 C   0  0  0  0  0  0  0  0  0  0  0  0
    3.8066   -1.5590    2.6252 C   0  0  0  0  0  0  0  0  0  0  0  0
    4.5387   -2.5975    3.2036 C   0  0  0  0  0  0  0  0  0  0  0  0
    5.1610   -3.5471    2.3965 C   0  0  0  0  0  0  0  0  0  0  0  0
    5.0543   -3.4578    1.0104 C   0  0  0  0  0  0  0  0  0  0  0  0
    4.3235   -2.4198    0.4296 C   0  0  0  0  0  0  0  0  0  0  0  0
    0.8949    0.3629   -0.7595 C   0  0  0  0  0  0  0  0  0  0  0  0
   -0.4699    0.1625   -0.5652 C   0  0  0  0  0  0  0  0  0  0  0  0
   -1.1526    1.2405   -1.0686 C   0  0  0  0  0  0  0  0  0  0  0  0
   -2.4574    1.5040   -1.0465 O   0  0  0  0  0  0  0  0  0  0  0  0
   -0.1973    2.1351   -1.6040 N   0  0  0  0  0  0  0  0  0  0  0  0
   -0.4684    3.4058   -2.2228 C   0  0  0  0  0  0  0  0  0  0  0  0
   -1.7182    3.6749   -2.7999 C   0  0  0  0  0  0  0  0  0  0  0  0
   -1.9789    4.9124   -3.3988 C   0  0  0  0  0  0  0  0  0  0  0  0
   -0.9971    5.8977   -3.4280 C   0  0  0  0  0  0  0  0  0  0  0  0
    0.2474    5.6462   -2.8591 C   0  0  0  0  0  0  0  0  0  0  0  0
    0.5115    4.4092   -2.2611 C   0  0  0  0  0  0  0  0  0  0  0  0
    1.0762    1.5478   -1.4228 C   0  0  0  0  0  0  0  0  0  0  0  0
    2.1945    2.0893   -1.8996 O   0  0  0  0  0  0  0  0  0  0  0  0
   -5.1511   -3.6056    2.3289 H   0  0  0  0  0  0  0  0  0  0  0  0
   -4.8587   -3.5150    0.5971 H   0  0  0  0  0  0  0  0  0  0  0  0
   -5.9602   -2.3577    1.3370 H   0  0  0  0  0  0  0  0  0  0  0  0
   -2.8922    0.4336    4.0196 H   0  0  0  0  0  0  0  0  0  0  0  0
   -0.9419    0.5542    2.4941 H   0  0  0  0  0  0  0  0  0  0  0  0
   -3.1249   -3.2812   -0.6464 H   0  0  0  0  0  0  0  0  0  0  0  0
    0.7535   -1.2078    1.5505 H   0  0  0  0  0  0  0  0  0  0  0  0
    1.9995   -1.4214   -1.0585 H   0  0  0  0  0  0  0  0  0  0  0  0
    3.5934    0.2481   -0.0154 H   0  0  0  0  0  0  0  0  0  0  0  0
    2.5721    0.3651    1.3949 H   0  0  0  0  0  0  0  0  0  0  0  0
    3.3320   -0.8267    3.2740 H   0  0  0  0  0  0  0  0  0  0  0  0
    4.6238   -2.6656    4.2850 H   0  0  0  0  0  0  0  0  0  0  0  0
    5.7292   -4.3565    2.8470 H   0  0  0  0  0  0  0  0  0  0  0  0
    5.5392   -4.1986    0.3798 H   0  0  0  0  0  0  0  0  0  0  0  0
    4.2555   -2.3696   -0.6546 H   0  0  0  0  0  0  0  0  0  0  0  0
   -2.9123    0.7812   -0.5811 H   0  0  0  0  0  0  0  0  0  0  0  0
   -2.5043    2.9274   -2.8358 H   0  0  0  0  0  0  0  0  0  0  0  0
   -2.9506    5.0993   -3.8486 H   0  0  0  0  0  0  0  0  0  0  0  0
   -1.2009    6.8579   -3.8935 H   0  0  0  0  0  0  0  0  0  0  0  0
    1.0170    6.4135   -2.8737 H   0  0  0  0  0  0  0  0  0  0  0  0
    1.4857    4.2739   -1.8018 H   0  0  0  0  0  0  0  0  0  0  0  0
    2.9058    1.4301   -1.8343 H   0  0  0  0  0  0  0  0  0  0  0  0
  1  2  1  0
  2  3  2  0
  3  4  1  0
  3  5  1  0
  5  6  2  0
  6  7  1  0
  7  8  2  0
  8  9  1  0
  9 10  1  0
 10 11  2  0
 10 12  1  0
 12 13  1  0
 13 14  1  0
 14 15  1  0
 15 16  1  0
 16 17  2  0
 17 18  1  0
 18 19  2  0
 19 20  1  0
 20 21  2  0
 14 22  1  0
 22 23  1  0
 23 24  2  0
 24 25  1  0
 24 26  1  0
 26 27  1  0
 27 28  2  0
 28 29  1  0
 29 30  2  0
 30 31  1  0
 31 32  2  0
 26 33  1  0
 33 34  1  0
  8  2  1  0
 23 12  1  0
 32 27  1  0
 12  7  1  0
 21 16  1  0
 33 22  2  0
  1 35  1  0
  1 36  1  0
  1 37  1  0
  5 38  1  0
  6 39  1  0
  9 40  1  0
 13 41  1  0
 14 42  1  6
 15 43  1  0
 15 44  1  0
 17 45  1  0
 18 46  1  0
 19 47  1  0
 20 48  1  0
 21 49  1  0
 25 50  1  0
 28 51  1  0
 29 52  1  0
 30 53  1  0
 31 54  1  0
 32 55  1  0
 34 56  1  0
M  END
$$$$
