
     RDKit          3D

 41 42  0  0  0  0  0  0  0  0999 V2000
   -4.3803   -1.7200   -1.2134 C   0  0  0  0  0  0  0  0  0  0  0  0
   -4.3446   -1.3423    0.2615 C   0  0  0  0  0  0  0  0  0  0  0  0
   -3.6626   -0.0585    0.4795 N   0  0  0  0  0  0  0  0  0  0  0  0
   -4.5125    1.0763    0.8654 C   0  0  0  0  0  0  0  0  0  0  0  0
   -5.0849    1.7823   -0.3542 C   0  0  0  0  0  0  0  0  0  0  0  0
   -2.2831    0.0766    0.3580 C   0  0  0  0  0  0  0  0  0  0  0  0
   -1.6556    1.3309    0.2767 C   0  0  0  0  0  0  0  0  0  0  0  0
   -0.2633    1.4756    0.1573 C   0  0  0  0  0  0  0  0  0  0  0  0
    0.5680    0.3578    0.1252 C   0  0  0  0  0  0  0  0  0  0  0  0
    2.0263    0.4525   -0.0256 C   0  0  0  0  0  0  0  0  0  0  0  0
    2.7704    1.4213    0.5300 C   0  0  0  0  0  0  0  0  0  0  0  0
    4.2413    1.5449    0.3586 C   0  0  0  0  0  0  0  0  0  0  0  0
    4.7531    2.6605    0.3468 O   0  0  0  0  0  0  0  0  0  0  0  0
    5.0903    0.3461    0.2153 C   0  0  0  0  0  0  0  0  0  0  0  0
    4.8492   -0.8487    0.8972 C   0  0  0  0  0  0  0  0  0  0  0  0
    5.7171   -1.9239    0.7152 C   0  0  0  0  0  0  0  0  0  0  0  0
    6.8008   -1.7611   -0.1342 C   0  0  0  0  0  0  0  0  0  0  0  0
    7.0712   -0.6135   -0.7932 N   0  0  0  0  0  0  0  0  0  0  0  0
    6.2167    0.4209   -0.5935 C   0  0  0  0  0  0  0  0  0  0  0  0
   -0.0282   -0.9006    0.1834 C   0  0  0  0  0  0  0  0  0  0  0  0
   -1.4217   -1.0314    0.3024 C   0  0  0  0  0  0  0  0  0  0  0  0
   -4.9340   -2.6547   -1.3480 H   0  0  0  0  0  0  0  0  0  0  0  0
   -4.8744   -0.9461   -1.8089 H   0  0  0  0  0  0  0  0  0  0  0  0
   -3.3771   -1.8640   -1.6248 H   0  0  0  0  0  0  0  0  0  0  0  0
   -5.3818   -1.2825    0.6145 H   0  0  0  0  0  0  0  0  0  0  0  0
   -3.8894   -2.1398    0.8592 H   0  0  0  0  0  0  0  0  0  0  0  0
   -5.3434    0.7218    1.4885 H   0  0  0  0  0  0  0  0  0  0  0  0
   -3.9758    1.7873    1.5043 H   0  0  0  0  0  0  0  0  0  0  0  0
   -5.7433    1.1168   -0.9212 H   0  0  0  0  0  0  0  0  0  0  0  0
   -5.6747    2.6508   -0.0447 H   0  0  0  0  0  0  0  0  0  0  0  0
   -4.2974    2.1284   -1.0304 H   0  0  0  0  0  0  0  0  0  0  0  0
   -2.2391    2.2466    0.2779 H   0  0  0  0  0  0  0  0  0  0  0  0
    0.1452    2.4797    0.0738 H   0  0  0  0  0  0  0  0  0  0  0  0
    2.4782   -0.3291   -0.6313 H   0  0  0  0  0  0  0  0  0  0  0  0
    2.3283    2.2350    1.0967 H   0  0  0  0  0  0  0  0  0  0  0  0
    4.0102   -0.9494    1.5798 H   0  0  0  0  0  0  0  0  0  0  0  0
    5.5581   -2.8650    1.2307 H   0  0  0  0  0  0  0  0  0  0  0  0
    7.5049   -2.5707   -0.3068 H   0  0  0  0  0  0  0  0  0  0  0  0
    6.4718    1.3358   -1.1235 H   0  0  0  0  0  0  0  0  0  0  0  0
    0.5767   -1.8036    0.1471 H   0  0  0  0  0  0  0  0  0  0  0  0
   -1.8109   -2.0429    0.3606 H   0  0  0  0  0  0  0  0  0  0  0  0
  1  2  1  0
  2  3  1  0
  3  4  1  0
  4  5  1  0
  3  6  1  0
  6  7  2  0
  7  8  1  0
  8  9  2  0
  9 10  1  0
 10 11  2  3
 11 12  1  0
 12 13  2  0
 12 14  1  0
 14 15  2  0
 15 16  1  0
 16 17  2  0
 17 18  1  0
 18 19  2  0
  9 20  1  0
 20 21  2  0
 21  6  1  0
 19 14  1  0
  1 22  1  0
  1 23  1  0
  1 24  1  0
  2 25  1  0
  2 26  1  0
  4 27  1  0
  4 28  1  0
  5 29  1  0
  5 30  1  0
  5 31  1  0
  7 32  1  0
  8 33  1  0
 10 34  1  0
 11 35  1  0
 15 36  1  0
 16 37  1  0
 17 38  1  0
 19 39  1  0
 20 40  1  0
 21 41  1  0
M  END
$$$$
