
     RDKit          3D

 46 48  0  0  0  0  0  0  0  0999 V2000
   -2.4289    1.2911    3.0826 C   0  0  0  0  0  0  0  0  0  0  0  0
   -1.4808    0.7014    2.0519 C   0  0  0  0  0  0  0  0  0  0  0  0
   -2.1764    0.3822    0.7979 N   0  0  0  0  0  4  0  0  0  0  0  0
   -2.2514    1.2246   -0.2243 C   0  0  0  0  0  0  0  0  0  0  0  0
   -1.6723    2.5131   -0.3345 C   0  0  0  0  0  0  0  0  0  0  0  0
   -0.3693    2.7214   -0.5927 C   0  0  0  0  0  0  0  0  0  0  0  0
    0.6495    1.7060   -0.7769 C   0  0  0  0  0  0  0  0  0  0  0  0
    1.9419    1.9865   -1.0188 C   0  0  0  0  0  0  0  0  0  0  0  0
    2.9643    1.0391   -1.1741 N   0  0  0  0  0  0  0  0  0  0  0  0
    4.3335    1.3986   -1.0486 C   0  0  0  0  0  0  0  0  0  0  0  0
    4.6411    2.7898   -0.5367 C   0  0  0  0  0  0  0  0  0  0  0  0
    5.2797    0.6577   -1.3262 O   0  0  0  0  0  0  0  0  0  0  0  0
    2.6827   -0.3364   -1.5299 C   0  0  0  0  0  0  0  0  0  0  0  0
    3.3633   -1.3973   -0.9157 C   0  0  0  0  0  0  0  0  0  0  0  0
    3.0707   -2.7239   -1.2466 C   0  0  0  0  0  0  0  0  0  0  0  0
    2.0999   -3.0093   -2.2032 C   0  0  0  0  0  0  0  0  0  0  0  0
    1.4263   -1.9693   -2.8374 C   0  0  0  0  0  0  0  0  0  0  0  0
    1.7176   -0.6432   -2.5051 C   0  0  0  0  0  0  0  0  0  0  0  0
   -3.1966    0.5702   -1.4965 S   0  0  0  0  0  0  0  0  0  0  0  0
   -3.4538   -0.8995   -0.6422 C   0  0  0  0  0  0  0  0  0  0  0  0
   -4.1705   -2.0353   -1.0495 C   0  0  0  0  0  0  0  0  0  0  0  0
   -4.2493   -3.1153   -0.1674 C   0  0  0  0  0  0  0  0  0  0  0  0
   -3.6374   -3.0644    1.0808 C   0  0  0  0  0  0  0  0  0  0  0  0
   -2.9242   -1.9281    1.4824 C   0  0  0  0  0  0  0  0  0  0  0  0
   -2.8296   -0.8311    0.6012 C   0  0  0  0  0  0  0  0  0  0  0  0
   -1.8913    1.5205    4.0075 H   0  0  0  0  0  0  0  0  0  0  0  0
   -3.2380    0.5939    3.3203 H   0  0  0  0  0  0  0  0  0  0  0  0
   -2.8835    2.2149    2.7108 H   0  0  0  0  0  0  0  0  0  0  0  0
   -0.6605    1.4015    1.8705 H   0  0  0  0  0  0  0  0  0  0  0  0
   -1.0054   -0.2037    2.4450 H   0  0  0  0  0  0  0  0  0  0  0  0
   -2.3384    3.3724   -0.2704 H   0  0  0  0  0  0  0  0  0  0  0  0
   -0.0381    3.7571   -0.6957 H   0  0  0  0  0  0  0  0  0  0  0  0
    0.3424    0.6684   -0.6920 H   0  0  0  0  0  0  0  0  0  0  0  0
    2.2500    3.0279   -1.0510 H   0  0  0  0  0  0  0  0  0  0  0  0
    4.4320    3.5315   -1.3118 H   0  0  0  0  0  0  0  0  0  0  0  0
    4.0773    3.0040    0.3751 H   0  0  0  0  0  0  0  0  0  0  0  0
    5.7048    2.8508   -0.2843 H   0  0  0  0  0  0  0  0  0  0  0  0
    4.1303   -1.2101   -0.1672 H   0  0  0  0  0  0  0  0  0  0  0  0
    3.6180   -3.5330   -0.7680 H   0  0  0  0  0  0  0  0  0  0  0  0
    1.8912   -4.0417   -2.4739 H   0  0  0  0  0  0  0  0  0  0  0  0
    0.6971   -2.1899   -3.6131 H   0  0  0  0  0  0  0  0  0  0  0  0
    1.2172    0.1487   -3.0569 H   0  0  0  0  0  0  0  0  0  0  0  0
   -4.6550   -2.0809   -2.0225 H   0  0  0  0  0  0  0  0  0  0  0  0
   -4.8003   -4.0089   -0.4620 H   0  0  0  0  0  0  0  0  0  0  0  0
   -3.7160   -3.9210    1.7505 H   0  0  0  0  0  0  0  0  0  0  0  0
   -2.4637   -1.9311    2.4661 H   0  0  0  0  0  0  0  0  0  0  0  0
  1  2  1  0
  2  3  1  0
  3  4  2  0
  4  5  1  0
  5  6  2  3
  6  7  1  0
  7  8  2  3
  8  9  1  0
  9 10  1  0
 10 11  1  0
 10 12  2  0
  9 13  1  0
 13 14  2  0
 14 15  1  0
 15 16  2  0
 16 17  1  0
 17 18  2  0
  4 19  1  0
 19 20  1  0
 20 21  2  0
 21 22  1  0
 22 23  2  0
 23 24  1  0
 24 25  2  0
 25  3  1  0
 18 13  1  0
 25 20  1  0
  1 26  1  0
  1 27  1  0
  1 28  1  0
  2 29  1  0
  2 30  1  0
  5 31  1  0
  6 32  1  0
  7 33  1  0
  8 34  1  0
 11 35  1  0
 11 36  1  0
 11 37  1  0
 14 38  1  0
 15 39  1  0
 16 40  1  0
 17 41  1  0
 18 42  1  0
 21 43  1  0
 22 44  1  0
 23 45  1  0
 24 46  1  0
M  CHG  1   3   1
M  END
$$$$
