
     RDKit          3D

 54 57  0  0  0  0  0  0  0  0999 V2000
   -6.2277    0.0957    1.0475 C   0  0  0  0  0  0  0  0  0  0  0  0
   -5.8826    1.1652    0.1780 O   0  0  0  0  0  0  0  0  0  0  0  0
   -4.5602    1.3052   -0.1545 C   0  0  0  0  0  0  0  0  0  0  0  0
   -3.5437    0.4128    0.2074 C   0  0  0  0  0  0  0  0  0  0  0  0
   -2.1987    0.6211   -0.1691 C   0  0  0  0  0  0  0  0  0  0  0  0
   -1.1559   -0.3496    0.2218 C   0  0  0  0  0  0  0  0  0  0  0  0
    0.1446    0.0166    0.5187 C   0  0  0  0  0  0  0  0  0  0  0  0
    1.0526   -0.9838    0.8671 C   0  0  0  0  0  0  0  0  0  0  0  0
    2.4414   -0.5444    1.1284 C   0  0  0  0  0  0  0  0  0  0  0  0
    2.6252    0.2708    2.0223 O   0  0  0  0  0  0  0  0  0  0  0  0
    3.3723   -1.0890    0.2653 N   0  0  0  0  0  0  0  0  0  0  0  0
    4.7669   -0.8830    0.2740 C   0  0  0  0  0  0  0  0  0  0  0  0
    5.4336   -0.1088    1.2248 C   0  0  0  0  0  0  0  0  0  0  0  0
    6.8231    0.0384    1.1687 C   0  0  0  0  0  0  0  0  0  0  0  0
    7.5460   -0.5892    0.1641 C   0  0  0  0  0  0  0  0  0  0  0  0
    8.8974   -0.4177    0.1498 O   0  0  0  0  0  0  0  0  0  0  0  0
    6.9022   -1.3665   -0.7906 C   0  0  0  0  0  0  0  0  0  0  0  0
    5.5130   -1.5120   -0.7326 C   0  0  0  0  0  0  0  0  0  0  0  0
    0.6578   -2.3344    0.9630 C   0  0  0  0  0  0  0  0  0  0  0  0
    1.4954   -3.4035    1.3742 C   0  0  0  0  0  0  0  0  0  0  0  0
    1.0155   -4.7101    1.4316 C   0  0  0  0  0  0  0  0  0  0  0  0
   -0.3039   -4.9674    1.0892 C   0  0  0  0  0  0  0  0  0  0  0  0
   -1.1361   -3.9146    0.7022 C   0  0  0  0  0  0  0  0  0  0  0  0
   -0.6837   -2.6033    0.6402 C   0  0  0  0  0  0  0  0  0  0  0  0
   -1.5535   -1.6455    0.2766 N   0  0  0  0  0  0  0  0  0  0  0  0
   -1.9002    1.7652   -0.9296 C   0  0  0  0  0  0  0  0  0  0  0  0
   -2.9011    2.6737   -1.2835 C   0  0  0  0  0  0  0  0  0  0  0  0
   -2.6181    3.7742   -2.0523 O   0  0  0  0  0  0  0  0  0  0  0  0
   -1.6907    4.6479   -1.4096 C   0  0  0  0  0  0  0  0  0  0  0  0
   -4.2290    2.4275   -0.9247 C   0  0  0  0  0  0  0  0  0  0  0  0
   -5.1991    3.3410   -1.2666 O   0  0  0  0  0  0  0  0  0  0  0  0
   -5.7832    2.9738   -2.5169 C   0  0  0  0  0  0  0  0  0  0  0  0
   -7.2997    0.1676    1.2560 H   0  0  0  0  0  0  0  0  0  0  0  0
   -6.0469   -0.8729    0.5705 H   0  0  0  0  0  0  0  0  0  0  0  0
   -5.6980    0.1732    2.0026 H   0  0  0  0  0  0  0  0  0  0  0  0
   -3.7710   -0.4747    0.7923 H   0  0  0  0  0  0  0  0  0  0  0  0
    0.4625    1.0543    0.4966 H   0  0  0  0  0  0  0  0  0  0  0  0
    3.0174   -1.6895   -0.4697 H   0  0  0  0  0  0  0  0  0  0  0  0
    4.9038    0.3949    2.0270 H   0  0  0  0  0  0  0  0  0  0  0  0
    7.3348    0.6447    1.9110 H   0  0  0  0  0  0  0  0  0  0  0  0
    9.2660   -0.8930   -0.6120 H   0  0  0  0  0  0  0  0  0  0  0  0
    7.4571   -1.8626   -1.5802 H   0  0  0  0  0  0  0  0  0  0  0  0
    5.0247   -2.1229   -1.4870 H   0  0  0  0  0  0  0  0  0  0  0  0
    2.5265   -3.2238    1.6750 H   0  0  0  0  0  0  0  0  0  0  0  0
    1.6668   -5.5195    1.7520 H   0  0  0  0  0  0  0  0  0  0  0  0
   -0.6952   -5.9806    1.1327 H   0  0  0  0  0  0  0  0  0  0  0  0
   -2.1734   -4.1237    0.4474 H   0  0  0  0  0  0  0  0  0  0  0  0
   -0.8875    1.9403   -1.2811 H   0  0  0  0  0  0  0  0  0  0  0  0
   -1.7704    5.6298   -1.8871 H   0  0  0  0  0  0  0  0  0  0  0  0
   -0.6656    4.2872   -1.5490 H   0  0  0  0  0  0  0  0  0  0  0  0
   -1.9117    4.7719   -0.3415 H   0  0  0  0  0  0  0  0  0  0  0  0
   -6.5447    3.7206   -2.7622 H   0  0  0  0  0  0  0  0  0  0  0  0
   -5.0381    2.9746   -3.3212 H   0  0  0  0  0  0  0  0  0  0  0  0
   -6.2769    1.9970   -2.4572 H   0  0  0  0  0  0  0  0  0  0  0  0
  1  2  1  0
  2  3  1  0
  3  4  2  0
  4  5  1  0
  5  6  1  0
  6  7  2  0
  7  8  1  0
  8  9  1  0
  9 10  2  0
  9 11  1  0
 11 12  1  0
 12 13  2  0
 13 14  1  0
 14 15  2  0
 15 16  1  0
 15 17  1  0
 17 18  2  0
  8 19  2  0
 19 20  1  0
 20 21  2  0
 21 22  1  0
 22 23  2  0
 23 24  1  0
 24 25  2  0
  5 26  2  0
 26 27  1  0
 27 28  1  0
 28 29  1  0
 27 30  2  0
 30 31  1  0
 31 32  1  0
 30  3  1  0
 25  6  1  0
 18 12  1  0
 24 19  1  0
  1 33  1  0
  1 34  1  0
  1 35  1  0
  4 36  1  0
  7 37  1  0
 11 38  1  0
 13 39  1  0
 14 40  1  0
 16 41  1  0
 17 42  1  0
 18 43  1  0
 20 44  1  0
 21 45  1  0
 22 46  1  0
 23 47  1  0
 26 48  1  0
 29 49  1  0
 29 50  1  0
 29 51  1  0
 32 52  1  0
 32 53  1  0
 32 54  1  0
M  END
$$$$
