
     RDKit          3D

 59 62  0  0  0  0  0  0  0  0999 V2000
   -6.4801    1.2297    0.3675 C   0  0  0  0  0  0  0  0  0  0  0  0
   -6.2750    1.0320   -1.1246 C   0  0  0  0  0  0  0  0  0  0  0  0
   -5.3295   -0.0352   -1.4127 N   0  0  0  0  0  0  0  0  0  0  0  0
   -5.6747   -1.3617   -1.5892 C   0  0  0  0  0  0  0  0  0  0  0  0
   -6.9196   -2.0122   -1.5351 C   0  0  0  0  0  0  0  0  0  0  0  0
   -6.9557   -3.3913   -1.7620 C   0  0  0  0  0  0  0  0  0  0  0  0
   -5.7917   -4.1023   -2.0335 C   0  0  0  0  0  0  0  0  0  0  0  0
   -4.5571   -3.4480   -2.0812 C   0  0  0  0  0  0  0  0  0  0  0  0
   -4.4931   -2.0560   -1.8549 C   0  0  0  0  0  0  0  0  0  0  0  0
   -3.4189   -1.1123   -1.8254 C   0  0  0  0  0  0  0  0  0  0  0  0
   -2.0206   -1.2265   -2.0112 C   0  0  0  0  0  0  0  0  0  0  0  0
   -1.2034   -0.0966   -1.9125 C   0  0  0  0  0  0  0  0  0  0  0  0
    0.1960   -0.1206   -2.0832 N   0  0  0  0  0  0  0  0  0  0  0  0
    1.0092   -1.2159   -2.3317 C   0  0  0  0  0  0  0  0  0  0  0  0
    0.6348   -2.3802   -2.4432 O   0  0  0  0  0  0  0  0  0  0  0  0
    2.5002   -0.8247   -2.4719 C   0  0  0  0  0  0  0  0  0  0  0  0
    3.3179   -1.9887   -3.0216 C   0  0  0  0  0  0  0  0  0  0  0  0
    3.0928   -0.4681   -1.2118 O   0  0  0  0  0  0  0  0  0  0  0  0
    2.8716    0.7943   -0.7797 C   0  0  0  0  0  0  0  0  0  0  0  0
    2.1825    1.6254   -1.3534 O   0  0  0  0  0  0  0  0  0  0  0  0
    3.5814    1.0494    0.5010 C   0  0  0  0  0  0  0  0  0  0  0  0
    3.6090    2.3568    0.9973 C   0  0  0  0  0  0  0  0  0  0  0  0
    4.2625    2.6409    2.2018 C   0  0  0  0  0  0  0  0  0  0  0  0
    4.8937    1.6251    2.9321 C   0  0  0  0  0  0  0  0  0  0  0  0
    5.5218    1.9973    4.1404 N   0  0  0  0  0  0  0  0  0  0  0  0
    6.2050    1.1718    5.0224 C   0  0  0  0  0  0  0  0  0  0  0  0
    6.3881   -0.0349    4.8925 O   0  0  0  0  0  0  0  0  0  0  0  0
    6.7375    1.8986    6.2369 C   0  0  0  0  0  0  0  0  0  0  0  0
    8.0790    2.4110    5.9662 C   0  0  0  0  0  0  0  0  0  0  0  0
    9.1305    2.8602    5.7636 N   0  0  0  0  0  0  0  0  0  0  0  0
    4.8618    0.3212    2.4337 C   0  0  0  0  0  0  0  0  0  0  0  0
    4.2108    0.0324    1.2264 C   0  0  0  0  0  0  0  0  0  0  0  0
   -1.7826    1.1435   -1.6298 C   0  0  0  0  0  0  0  0  0  0  0  0
   -3.1628    1.2862   -1.4409 C   0  0  0  0  0  0  0  0  0  0  0  0
   -3.9648    0.1403   -1.5456 C   0  0  0  0  0  0  0  0  0  0  0  0
   -6.8792    0.3235    0.8355 H   0  0  0  0  0  0  0  0  0  0  0  0
   -5.5378    1.4752    0.8682 H   0  0  0  0  0  0  0  0  0  0  0  0
   -7.1854    2.0462    0.5492 H   0  0  0  0  0  0  0  0  0  0  0  0
   -5.9040    1.9518   -1.5888 H   0  0  0  0  0  0  0  0  0  0  0  0
   -7.2228    0.7931   -1.6170 H   0  0  0  0  0  0  0  0  0  0  0  0
   -7.8363   -1.4715   -1.3229 H   0  0  0  0  0  0  0  0  0  0  0  0
   -7.9084   -3.9145   -1.7262 H   0  0  0  0  0  0  0  0  0  0  0  0
   -5.8382   -5.1736   -2.2091 H   0  0  0  0  0  0  0  0  0  0  0  0
   -3.6508   -4.0090   -2.2911 H   0  0  0  0  0  0  0  0  0  0  0  0
   -1.6163   -2.2076   -2.2289 H   0  0  0  0  0  0  0  0  0  0  0  0
    0.6712    0.7770   -1.9844 H   0  0  0  0  0  0  0  0  0  0  0  0
    2.5810    0.0069   -3.1846 H   0  0  0  0  0  0  0  0  0  0  0  0
    4.3647   -1.6933   -3.1491 H   0  0  0  0  0  0  0  0  0  0  0  0
    3.3115   -2.8373   -2.3285 H   0  0  0  0  0  0  0  0  0  0  0  0
    2.9299   -2.3285   -3.9870 H   0  0  0  0  0  0  0  0  0  0  0  0
    3.1265    3.1640    0.4482 H   0  0  0  0  0  0  0  0  0  0  0  0
    4.2662    3.6693    2.5553 H   0  0  0  0  0  0  0  0  0  0  0  0
    5.4754    2.9847    4.3650 H   0  0  0  0  0  0  0  0  0  0  0  0
    6.0575    2.7129    6.5126 H   0  0  0  0  0  0  0  0  0  0  0  0
    6.7481    1.1985    7.0802 H   0  0  0  0  0  0  0  0  0  0  0  0
    5.3335   -0.5054    2.9572 H   0  0  0  0  0  0  0  0  0  0  0  0
    4.2032   -0.9973    0.8741 H   0  0  0  0  0  0  0  0  0  0  0  0
   -1.1612    2.0333   -1.5485 H   0  0  0  0  0  0  0  0  0  0  0  0
   -3.5850    2.2609   -1.2193 H   0  0  0  0  0  0  0  0  0  0  0  0
  1  2  1  0
  2  3  1  0
  3  4  1  0
  4  5  2  0
  5  6  1  0
  6  7  2  0
  7  8  1  0
  8  9  2  0
  9 10  1  0
 10 11  2  0
 11 12  1  0
 12 13  1  0
 13 14  1  0
 14 15  2  0
 14 16  1  0
 16 17  1  0
 16 18  1  0
 18 19  1  0
 19 20  2  0
 19 21  1  0
 21 22  2  0
 22 23  1  0
 23 24  2  0
 24 25  1  0
 25 26  1  0
 26 27  2  0
 26 28  1  0
 28 29  1  0
 29 30  3  0
 24 31  1  0
 31 32  2  0
 12 33  2  0
 33 34  1  0
 34 35  2  0
 35  3  1  0
  9  4  1  0
 35 10  1  0
 32 21  1  0
  1 36  1  0
  1 37  1  0
  1 38  1  0
  2 39  1  0
  2 40  1  0
  5 41  1  0
  6 42  1  0
  7 43  1  0
  8 44  1  0
 11 45  1  0
 13 46  1  0
 16 47  1  0
 17 48  1  0
 17 49  1  0
 17 50  1  0
 22 51  1  0
 23 52  1  0
 25 53  1  0
 28 54  1  0
 28 55  1  0
 31 56  1  0
 32 57  1  0
 33 58  1  0
 34 59  1  0
M  END
$$$$
