
     RDKit          3D

 41 43  0  0  0  0  0  0  0  0999 V2000
   -2.9967    1.9053   -1.7323 C   0  0  0  0  0  0  0  0  0  0  0  0
   -2.3865    1.5172   -0.4861 N   0  0  0  0  0  0  0  0  0  0  0  0
   -1.2408    2.0209    0.0662 C   0  0  0  0  0  0  0  0  0  0  0  0
   -0.3439    3.3420   -0.5966 S   0  0  0  0  0  0  0  0  0  0  0  0
    0.9279    3.5718    0.6842 C   0  0  0  0  0  0  0  0  0  0  0  0
    1.9526    2.4494    0.7787 C   0  0  0  0  0  0  0  0  0  0  0  0
    2.6002    2.2817    1.8138 O   0  0  0  0  0  0  0  0  0  0  0  0
    2.1551    1.7318   -0.3958 N   0  0  0  0  0  0  0  0  0  0  0  0
    3.1380    0.7927   -0.5830 N   0  0  0  0  0  0  0  0  0  0  0  0
    3.4024   -0.0017    0.4085 C   0  0  0  0  0  0  0  0  0  0  0  0
    4.4549   -0.9931    0.3423 C   0  0  0  0  0  0  0  0  0  0  0  0
    4.8140   -1.8929    1.3296 C   0  0  0  0  0  0  0  0  0  0  0  0
    5.9069   -2.7238    0.9363 C   0  0  0  0  0  0  0  0  0  0  0  0
    6.3331   -2.4218   -0.3392 C   0  0  0  0  0  0  0  0  0  0  0  0
    7.4120   -3.0537   -1.0542 N   0  0  0  0  0  4  0  0  0  0  0  0
    7.6738   -2.6601   -2.1980 O   0  0  0  0  0  0  0  0  0  0  0  0
    8.0059   -3.9623   -0.4566 O   0  0  0  0  0  1  0  0  0  0  0  0
    5.4367   -1.1684   -1.0513 S   0  0  0  0  0  0  0  0  0  0  0  0
   -0.9364    1.3502    1.1485 N   0  0  0  0  0  0  0  0  0  0  0  0
   -1.9061    0.3969    1.3305 N   0  0  0  0  0  0  0  0  0  0  0  0
   -2.8071    0.5213    0.3716 C   0  0  0  0  0  0  0  0  0  0  0  0
   -4.0131   -0.2930    0.2430 C   0  0  0  0  0  0  0  0  0  0  0  0
   -5.2743    0.2860    0.0413 C   0  0  0  0  0  0  0  0  0  0  0  0
   -6.4141   -0.5173   -0.0658 C   0  0  0  0  0  0  0  0  0  0  0  0
   -6.2993   -1.9021    0.0392 C   0  0  0  0  0  0  0  0  0  0  0  0
   -7.7027   -2.8876   -0.0923 Cl  0  0  0  0  0  0  0  0  0  0  0  0
   -5.0565   -2.4907    0.2579 C   0  0  0  0  0  0  0  0  0  0  0  0
   -3.9181   -1.6868    0.3658 C   0  0  0  0  0  0  0  0  0  0  0  0
   -3.5844    1.0777   -2.1351 H   0  0  0  0  0  0  0  0  0  0  0  0
   -3.6356    2.7720   -1.5462 H   0  0  0  0  0  0  0  0  0  0  0  0
   -2.2214    2.1513   -2.4618 H   0  0  0  0  0  0  0  0  0  0  0  0
    0.4429    3.6930    1.6582 H   0  0  0  0  0  0  0  0  0  0  0  0
    1.4723    4.4943    0.4583 H   0  0  0  0  0  0  0  0  0  0  0  0
    1.8102    2.1451   -1.2578 H   0  0  0  0  0  0  0  0  0  0  0  0
    2.8188    0.0105    1.3464 H   0  0  0  0  0  0  0  0  0  0  0  0
    4.3210   -1.9490    2.2942 H   0  0  0  0  0  0  0  0  0  0  0  0
    6.3503   -3.4930    1.5591 H   0  0  0  0  0  0  0  0  0  0  0  0
   -5.3885    1.3662   -0.0105 H   0  0  0  0  0  0  0  0  0  0  0  0
   -7.3871   -0.0574   -0.2184 H   0  0  0  0  0  0  0  0  0  0  0  0
   -4.9650   -3.5697    0.3535 H   0  0  0  0  0  0  0  0  0  0  0  0
   -2.9513   -2.1528    0.5521 H   0  0  0  0  0  0  0  0  0  0  0  0
  1  2  1  0
  2  3  1  0
  3  4  1  0
  4  5  1  0
  5  6  1  0
  6  7  2  0
  6  8  1  0
  8  9  1  0
  9 10  2  3
 10 11  1  0
 11 12  2  0
 12 13  1  0
 13 14  2  0
 14 15  1  0
 15 16  2  0
 15 17  1  0
 14 18  1  0
  3 19  2  0
 19 20  1  0
 20 21  2  0
 21 22  1  0
 22 23  2  0
 23 24  1  0
 24 25  2  0
 25 26  1  0
 25 27  1  0
 27 28  2  0
 21  2  1  0
 28 22  1  0
 18 11  1  0
  1 29  1  0
  1 30  1  0
  1 31  1  0
  5 32  1  0
  5 33  1  0
  8 34  1  0
 10 35  1  0
 12 36  1  0
 13 37  1  0
 23 38  1  0
 24 39  1  0
 27 40  1  0
 28 41  1  0
M  CHG  2  15   1  17  -1
M  END
$$$$
