
     RDKit          3D

 44 44  0  0  0  0  0  0  0  0999 V2000
   -4.2424    0.2359    2.2038 C   0  0  0  0  0  0  0  0  0  0  0  0
   -4.0102    1.3291    1.1703 C   0  0  0  0  0  0  0  0  0  0  0  0
   -3.8292    0.7594   -0.1719 N   0  0  0  0  0  0  0  0  0  0  0  0
   -5.0498    0.6122   -0.9741 C   0  0  0  0  0  0  0  0  0  0  0  0
   -5.2749    1.8342   -1.8530 C   0  0  0  0  0  0  0  0  0  0  0  0
   -2.5816    0.3531   -0.6375 C   0  0  0  0  0  0  0  0  0  0  0  0
   -2.3792   -0.0879   -1.9560 C   0  0  0  0  0  0  0  0  0  0  0  0
   -1.1253   -0.4995   -2.4272 C   0  0  0  0  0  0  0  0  0  0  0  0
   -0.0170   -0.4803   -1.5879 C   0  0  0  0  0  0  0  0  0  0  0  0
   -0.1668   -0.0456   -0.2778 C   0  0  0  0  0  0  0  0  0  0  0  0
    0.8243    0.0270    0.6635 O   0  0  0  0  0  0  0  0  0  0  0  0
    2.1553   -0.2137    0.2242 C   0  0  0  0  0  0  0  0  0  0  0  0
    3.1590   -0.0373    1.3743 C   0  0  0  0  0  0  0  0  0  0  0  0
    2.7858    0.1718    2.5308 O   0  0  0  0  0  0  0  0  0  0  0  0
    4.5228   -0.1066    1.0581 N   0  0  0  0  0  0  0  0  0  0  0  0
    5.4734    0.0893    2.1469 C   0  0  0  0  0  0  0  0  0  0  0  0
    5.0758   -0.5018   -0.2458 C   0  0  0  0  0  0  0  0  0  0  0  0
    5.6899   -1.9045   -0.2752 C   0  0  0  0  0  0  0  0  0  0  0  0
    4.6571   -2.9443   -0.2912 C   0  0  0  0  0  0  0  0  0  0  0  0
    3.8327   -3.7587   -0.3357 N   0  0  0  0  0  0  0  0  0  0  0  0
   -1.4336    0.3569    0.1771 C   0  0  0  0  0  0  0  0  0  0  0  0
   -3.3924   -0.4498    2.2684 H   0  0  0  0  0  0  0  0  0  0  0  0
   -4.3969    0.6784    3.1928 H   0  0  0  0  0  0  0  0  0  0  0  0
   -5.1286   -0.3577    1.9561 H   0  0  0  0  0  0  0  0  0  0  0  0
   -3.1701    1.9708    1.4583 H   0  0  0  0  0  0  0  0  0  0  0  0
   -4.8821    1.9958    1.1713 H   0  0  0  0  0  0  0  0  0  0  0  0
   -5.9170    0.5003   -0.3106 H   0  0  0  0  0  0  0  0  0  0  0  0
   -5.0375   -0.3054   -1.5729 H   0  0  0  0  0  0  0  0  0  0  0  0
   -6.1986    1.7201   -2.4290 H   0  0  0  0  0  0  0  0  0  0  0  0
   -5.3626    2.7426   -1.2479 H   0  0  0  0  0  0  0  0  0  0  0  0
   -4.4519    1.9843   -2.5582 H   0  0  0  0  0  0  0  0  0  0  0  0
   -3.1981   -0.1190   -2.6674 H   0  0  0  0  0  0  0  0  0  0  0  0
   -1.0234   -0.8381   -3.4549 H   0  0  0  0  0  0  0  0  0  0  0  0
    0.9334   -0.8178   -1.9833 H   0  0  0  0  0  0  0  0  0  0  0  0
    2.4100    0.5114   -0.5570 H   0  0  0  0  0  0  0  0  0  0  0  0
    2.2433   -1.2429   -0.1363 H   0  0  0  0  0  0  0  0  0  0  0  0
    5.0402    0.6730    2.9638 H   0  0  0  0  0  0  0  0  0  0  0  0
    5.7714   -0.8889    2.5344 H   0  0  0  0  0  0  0  0  0  0  0  0
    6.3520    0.6219    1.7717 H   0  0  0  0  0  0  0  0  0  0  0  0
    5.8544    0.2327   -0.4857 H   0  0  0  0  0  0  0  0  0  0  0  0
    4.3181   -0.4114   -1.0287 H   0  0  0  0  0  0  0  0  0  0  0  0
    6.3684   -2.0580    0.5700 H   0  0  0  0  0  0  0  0  0  0  0  0
    6.2928   -2.0005   -1.1860 H   0  0  0  0  0  0  0  0  0  0  0  0
   -1.4907    0.6697    1.2155 H   0  0  0  0  0  0  0  0  0  0  0  0
  1  2  1  0
  2  3  1  0
  3  4  1  0
  4  5  1  0
  3  6  1  0
  6  7  2  0
  7  8  1  0
  8  9  2  0
  9 10  1  0
 10 11  1  0
 11 12  1  0
 12 13  1  0
 13 14  2  0
 13 15  1  0
 15 16  1  0
 15 17  1  0
 17 18  1  0
 18 19  1  0
 19 20  3  0
 10 21  2  0
 21  6  1  0
  1 22  1  0
  1 23  1  0
  1 24  1  0
  2 25  1  0
  2 26  1  0
  4 27  1  0
  4 28  1  0
  5 29  1  0
  5 30  1  0
  5 31  1  0
  7 32  1  0
  8 33  1  0
  9 34  1  0
 12 35  1  0
 12 36  1  0
 16 37  1  0
 16 38  1  0
 16 39  1  0
 17 40  1  0
 17 41  1  0
 18 42  1  0
 18 43  1  0
 21 44  1  0
M  END
$$$$
