
     RDKit          3D

 45 48  0  0  0  0  0  0  0  0999 V2000
    0.1090    1.4721    3.5483 C   0  0  0  0  0  0  0  0  0  0  0  0
    1.1280    1.0864    2.4920 C   0  0  0  0  0  0  0  0  0  0  0  0
    1.1672   -0.3415    2.4230 O   0  0  0  0  0  0  0  0  0  0  0  0
    2.2321   -0.7779    1.6737 C   0  0  0  0  0  0  0  0  0  0  0  0
    3.5078   -0.7560    2.2503 C   0  0  0  0  0  0  0  0  0  0  0  0
    4.6012   -1.2679    1.5519 C   0  0  0  0  0  0  0  0  0  0  0  0
    4.4204   -1.8042    0.2828 C   0  0  0  0  0  0  0  0  0  0  0  0
    3.1411   -1.8638   -0.2759 C   0  0  0  0  0  0  0  0  0  0  0  0
    2.0199   -1.3561    0.4102 C   0  0  0  0  0  0  0  0  0  0  0  0
    0.6932   -1.4407   -0.1979 C   0  0  0  0  0  0  0  0  0  0  0  0
    0.2289   -2.6787   -0.4811 N   0  0  0  0  0  0  0  0  0  0  0  0
   -0.9981   -2.7356   -1.0521 C   0  0  0  0  0  0  0  0  0  0  0  0
   -1.5422   -4.0894   -1.3444 C   0  0  0  0  0  0  0  0  0  0  0  0
   -0.7522   -5.1388   -0.9616 N   0  0  0  0  0  0  0  0  0  0  0  0
   -2.6264   -4.2571   -1.8884 O   0  0  0  0  0  0  0  0  0  0  0  0
   -1.7093   -1.6115   -1.3502 C   0  0  0  0  0  0  0  0  0  0  0  0
   -2.9609   -1.4128   -1.9113 N   0  0  0  0  0  0  0  0  0  0  0  0
   -3.2060   -0.0347   -1.9856 C   0  0  0  0  0  0  0  0  0  0  0  0
   -4.2336    0.4368   -2.4452 O   0  0  0  0  0  0  0  0  0  0  0  0
   -2.0454    0.6111   -1.4567 N   0  0  0  0  0  0  0  0  0  0  0  0
   -1.8239    2.0086   -1.3405 C   0  0  0  0  0  0  0  0  0  0  0  0
   -2.8843    2.9126   -1.5156 C   0  0  0  0  0  0  0  0  0  0  0  0
   -2.7026    4.2981   -1.3926 C   0  0  0  0  0  0  0  0  0  0  0  0
   -1.4436    4.8127   -1.1139 C   0  0  0  0  0  0  0  0  0  0  0  0
   -0.3680    3.9407   -0.9628 C   0  0  0  0  0  0  0  0  0  0  0  0
   -0.5607    2.5593   -1.0674 C   0  0  0  0  0  0  0  0  0  0  0  0
   -1.1325   -0.3987   -1.0591 C   0  0  0  0  0  0  0  0  0  0  0  0
    0.0650   -0.2799   -0.4806 N   0  0  0  0  0  0  0  0  0  0  0  0
    0.4098    1.0828    4.5240 H   0  0  0  0  0  0  0  0  0  0  0  0
   -0.8689    1.0429    3.3210 H   0  0  0  0  0  0  0  0  0  0  0  0
    0.0116    2.5592    3.6298 H   0  0  0  0  0  0  0  0  0  0  0  0
    0.8252    1.5045    1.5226 H   0  0  0  0  0  0  0  0  0  0  0  0
    2.1038    1.5069    2.7690 H   0  0  0  0  0  0  0  0  0  0  0  0
    3.6487   -0.3525    3.2497 H   0  0  0  0  0  0  0  0  0  0  0  0
    5.5914   -1.2419    2.0003 H   0  0  0  0  0  0  0  0  0  0  0  0
    5.2720   -2.1920   -0.2687 H   0  0  0  0  0  0  0  0  0  0  0  0
    3.0173   -2.2973   -1.2659 H   0  0  0  0  0  0  0  0  0  0  0  0
    0.1218   -4.9738   -0.4707 H   0  0  0  0  0  0  0  0  0  0  0  0
   -1.0698   -6.0878   -1.1242 H   0  0  0  0  0  0  0  0  0  0  0  0
   -3.5957   -2.1400   -2.2217 H   0  0  0  0  0  0  0  0  0  0  0  0
   -3.8938    2.5707   -1.7282 H   0  0  0  0  0  0  0  0  0  0  0  0
   -3.5504    4.9679   -1.5241 H   0  0  0  0  0  0  0  0  0  0  0  0
   -1.2946    5.8839   -1.0382 H   0  0  0  0  0  0  0  0  0  0  0  0
    0.6247    4.3332   -0.7615 H   0  0  0  0  0  0  0  0  0  0  0  0
    0.3230    1.9402   -0.9625 H   0  0  0  0  0  0  0  0  0  0  0  0
  1  2  1  0
  2  3  1  0
  3  4  1  0
  4  5  2  0
  5  6  1  0
  6  7  2  0
  7  8  1  0
  8  9  2  0
  9 10  1  0
 10 11  2  0
 11 12  1  0
 12 13  1  0
 13 14  1  0
 13 15  2  0
 12 16  2  0
 16 17  1  0
 17 18  1  0
 18 19  2  0
 18 20  1  0
 20 21  1  0
 21 22  2  0
 22 23  1  0
 23 24  2  0
 24 25  1  0
 25 26  2  0
 20 27  1  0
 27 28  2  0
  9  4  1  0
 28 10  1  0
 27 16  1  0
 26 21  1  0
  1 29  1  0
  1 30  1  0
  1 31  1  0
  2 32  1  0
  2 33  1  0
  5 34  1  0
  6 35  1  0
  7 36  1  0
  8 37  1  0
 14 38  1  0
 14 39  1  0
 17 40  1  0
 22 41  1  0
 23 42  1  0
 24 43  1  0
 25 44  1  0
 26 45  1  0
M  END
$$$$
