
     RDKit          3D

 52 54  0  0  0  0  0  0  0  0999 V2000
   -4.0355    1.2595    1.0914 C   0  0  0  0  0  0  0  0  0  0  0  0
   -3.7634   -0.1351    0.7687 N   0  0  0  0  0  0  0  0  0  0  0  0
   -4.8518   -0.8805    0.1343 C   0  0  0  0  0  0  0  0  0  0  0  0
   -5.1367   -0.4685   -1.2925 C   0  0  0  0  0  0  0  0  0  0  0  0
   -6.4670   -0.3750   -1.7323 C   0  0  0  0  0  0  0  0  0  0  0  0
   -6.7600   -0.0302   -3.0534 C   0  0  0  0  0  0  0  0  0  0  0  0
   -5.7281    0.2167   -3.9552 C   0  0  0  0  0  0  0  0  0  0  0  0
   -4.4035    0.1163   -3.5375 C   0  0  0  0  0  0  0  0  0  0  0  0
   -4.1085   -0.2288   -2.2168 C   0  0  0  0  0  0  0  0  0  0  0  0
   -2.4716   -0.6197    0.9482 C   0  0  0  0  0  0  0  0  0  0  0  0
   -1.5706    0.0748    1.4276 O   0  0  0  0  0  0  0  0  0  0  0  0
   -2.1918   -2.0791    0.5538 C   0  0  0  0  0  0  0  0  0  0  0  0
   -0.8004   -2.4028    0.6286 O   0  0  0  0  0  0  0  0  0  0  0  0
   -0.0588   -1.8843   -0.3914 C   0  0  0  0  0  0  0  0  0  0  0  0
   -0.5176   -1.3195   -1.3792 O   0  0  0  0  0  0  0  0  0  0  0  0
    1.4155   -2.1430   -0.1527 C   0  0  0  0  0  0  0  0  0  0  0  0
    2.2104   -1.4896   -1.1975 N   0  0  0  0  0  0  0  0  0  0  0  0
    3.8549   -1.7268   -1.2465 S   0  0  0  0  0  6  0  0  0  0  0  0
    4.1211   -3.0768   -0.8012 O   0  0  0  0  0  0  0  0  0  0  0  0
    4.3076   -1.2445   -2.5316 O   0  0  0  0  0  0  0  0  0  0  0  0
    4.4323   -0.5926   -0.0134 C   0  0  0  0  0  0  0  0  0  0  0  0
    4.9592   -1.0721    1.1857 C   0  0  0  0  0  0  0  0  0  0  0  0
    5.4170   -0.1654    2.1429 C   0  0  0  0  0  0  0  0  0  0  0  0
    5.3576    1.2190    1.9085 C   0  0  0  0  0  0  0  0  0  0  0  0
    5.8151    2.1406    2.8635 C   0  0  0  0  0  0  0  0  0  0  0  0
    5.7533    3.5133    2.6175 C   0  0  0  0  0  0  0  0  0  0  0  0
    5.2343    3.9824    1.4143 C   0  0  0  0  0  0  0  0  0  0  0  0
    4.7752    3.0806    0.4532 C   0  0  0  0  0  0  0  0  0  0  0  0
    4.8293    1.6971    0.6847 C   0  0  0  0  0  0  0  0  0  0  0  0
    4.3714    0.7802   -0.2727 C   0  0  0  0  0  0  0  0  0  0  0  0
   -4.1244    1.8313    0.1633 H   0  0  0  0  0  0  0  0  0  0  0  0
   -3.2416    1.7026    1.6984 H   0  0  0  0  0  0  0  0  0  0  0  0
   -4.9736    1.3212    1.6509 H   0  0  0  0  0  0  0  0  0  0  0  0
   -5.7414   -0.7235    0.7571 H   0  0  0  0  0  0  0  0  0  0  0  0
   -4.6551   -1.9558    0.1508 H   0  0  0  0  0  0  0  0  0  0  0  0
   -7.2900   -0.5687   -1.0475 H   0  0  0  0  0  0  0  0  0  0  0  0
   -7.7942    0.0437   -3.3798 H   0  0  0  0  0  0  0  0  0  0  0  0
   -5.9549    0.4854   -4.9835 H   0  0  0  0  0  0  0  0  0  0  0  0
   -3.5950    0.3064   -4.2392 H   0  0  0  0  0  0  0  0  0  0  0  0
   -3.0632   -0.2973   -1.9225 H   0  0  0  0  0  0  0  0  0  0  0  0
   -2.7079   -2.7251    1.2716 H   0  0  0  0  0  0  0  0  0  0  0  0
   -2.5706   -2.3056   -0.4475 H   0  0  0  0  0  0  0  0  0  0  0  0
    1.5658   -3.2260   -0.1888 H   0  0  0  0  0  0  0  0  0  0  0  0
    1.6920   -1.7436    0.8269 H   0  0  0  0  0  0  0  0  0  0  0  0
    1.7547   -1.2657   -2.0846 H   0  0  0  0  0  0  0  0  0  0  0  0
    5.0212   -2.1397    1.3831 H   0  0  0  0  0  0  0  0  0  0  0  0
    5.8261   -0.5468    3.0764 H   0  0  0  0  0  0  0  0  0  0  0  0
    6.2251    1.7952    3.8100 H   0  0  0  0  0  0  0  0  0  0  0  0
    6.1111    4.2155    3.3661 H   0  0  0  0  0  0  0  0  0  0  0  0
    5.1862    5.0512    1.2221 H   0  0  0  0  0  0  0  0  0  0  0  0
    4.3735    3.4677   -0.4809 H   0  0  0  0  0  0  0  0  0  0  0  0
    3.9675    1.1314   -1.2204 H   0  0  0  0  0  0  0  0  0  0  0  0
  1  2  1  0
  2  3  1  0
  3  4  1  0
  4  5  2  0
  5  6  1  0
  6  7  2  0
  7  8  1  0
  8  9  2  0
  2 10  1  0
 10 11  2  0
 10 12  1  0
 12 13  1  0
 13 14  1  0
 14 15  2  0
 14 16  1  0
 16 17  1  0
 17 18  1  0
 18 19  2  0
 18 20  2  0
 18 21  1  0
 21 22  2  0
 22 23  1  0
 23 24  2  0
 24 25  1  0
 25 26  2  0
 26 27  1  0
 27 28  2  0
 28 29  1  0
 29 30  2  0
  9  4  1  0
 30 21  1  0
 29 24  1  0
  1 31  1  0
  1 32  1  0
  1 33  1  0
  3 34  1  0
  3 35  1  0
  5 36  1  0
  6 37  1  0
  7 38  1  0
  8 39  1  0
  9 40  1  0
 12 41  1  0
 12 42  1  0
 16 43  1  0
 16 44  1  0
 17 45  1  0
 22 46  1  0
 23 47  1  0
 25 48  1  0
 26 49  1  0
 27 50  1  0
 28 51  1  0
 30 52  1  0
M  END
$$$$
