
     RDKit          3D

 53 56  0  0  0  0  0  0  0  0999 V2000
   -7.1160    2.0435   -1.4532 C   0  0  0  0  0  0  0  0  0  0  0  0
   -6.0357    1.4715   -0.7254 O   0  0  0  0  0  0  0  0  0  0  0  0
   -6.2647    0.2648   -0.1208 C   0  0  0  0  0  0  0  0  0  0  0  0
   -7.4568   -0.4596   -0.1639 C   0  0  0  0  0  0  0  0  0  0  0  0
   -7.5585   -1.6815    0.5058 C   0  0  0  0  0  0  0  0  0  0  0  0
   -6.4700   -2.1823    1.2191 C   0  0  0  0  0  0  0  0  0  0  0  0
   -5.2659   -1.4675    1.2660 C   0  0  0  0  0  0  0  0  0  0  0  0
   -4.1348   -2.0388    2.0585 C   0  0  0  0  0  0  0  0  0  0  0  0
   -4.3511   -2.9874    2.8151 O   0  0  0  0  0  0  0  0  0  0  0  0
   -2.7507   -1.4151    1.9591 C   0  0  0  0  0  0  0  0  0  0  0  0
   -2.3218   -1.3797    0.6043 O   0  0  0  0  0  0  0  0  0  0  0  0
   -1.1160   -0.7911    0.3497 C   0  0  0  0  0  0  0  0  0  0  0  0
   -0.7917   -0.6817   -1.0034 C   0  0  0  0  0  0  0  0  0  0  0  0
    0.4163   -0.0983   -1.4097 C   0  0  0  0  0  0  0  0  0  0  0  0
    1.3323    0.3902   -0.4694 C   0  0  0  0  0  0  0  0  0  0  0  0
    2.6259    1.0111   -0.8211 C   0  0  0  0  0  0  0  0  0  0  0  0
    2.9441    1.1328   -2.2896 C   0  0  0  0  0  0  0  0  0  0  0  0
    3.4539    1.4178    0.1695 C   0  0  0  0  0  0  0  0  0  0  0  0
    4.8149    2.0566   -0.0364 C   0  0  0  0  0  0  0  0  0  0  0  0
    5.9420    1.0511   -0.1639 C   0  0  0  0  0  0  0  0  0  0  0  0
    6.4176    0.3638    0.9650 C   0  0  0  0  0  0  0  0  0  0  0  0
    7.4493   -0.5698    0.8489 C   0  0  0  0  0  0  0  0  0  0  0  0
    8.0227   -0.8257   -0.3952 C   0  0  0  0  0  0  0  0  0  0  0  0
    7.5679   -0.1441   -1.5234 C   0  0  0  0  0  0  0  0  0  0  0  0
    6.5352    0.7898   -1.4091 C   0  0  0  0  0  0  0  0  0  0  0  0
    3.0574    1.3060    1.6039 C   0  0  0  0  0  0  0  0  0  0  0  0
    3.7678    1.7228    2.5137 O   0  0  0  0  0  0  0  0  0  0  0  0
    1.8377    0.7186    1.8880 O   0  0  0  0  0  0  0  0  0  0  0  0
    0.9853    0.2631    0.8720 C   0  0  0  0  0  0  0  0  0  0  0  0
   -0.2164   -0.3160    1.2969 C   0  0  0  0  0  0  0  0  0  0  0  0
   -5.1730   -0.2424    0.5944 C   0  0  0  0  0  0  0  0  0  0  0  0
   -7.4098    1.4013   -2.2911 H   0  0  0  0  0  0  0  0  0  0  0  0
   -6.7727    2.9972   -1.8664 H   0  0  0  0  0  0  0  0  0  0  0  0
   -7.9660    2.2516   -0.7962 H   0  0  0  0  0  0  0  0  0  0  0  0
   -8.3254   -0.1029   -0.7077 H   0  0  0  0  0  0  0  0  0  0  0  0
   -8.4887   -2.2444    0.4745 H   0  0  0  0  0  0  0  0  0  0  0  0
   -6.5656   -3.1345    1.7379 H   0  0  0  0  0  0  0  0  0  0  0  0
   -2.7964   -0.4119    2.3996 H   0  0  0  0  0  0  0  0  0  0  0  0
   -2.0683   -2.0430    2.5450 H   0  0  0  0  0  0  0  0  0  0  0  0
   -1.4835   -1.0578   -1.7548 H   0  0  0  0  0  0  0  0  0  0  0  0
    0.6149   -0.0478   -2.4771 H   0  0  0  0  0  0  0  0  0  0  0  0
    3.0271    0.1411   -2.7484 H   0  0  0  0  0  0  0  0  0  0  0  0
    2.1623    1.6994   -2.8084 H   0  0  0  0  0  0  0  0  0  0  0  0
    3.8779    1.6556   -2.4966 H   0  0  0  0  0  0  0  0  0  0  0  0
    5.0608    2.7495    0.7799 H   0  0  0  0  0  0  0  0  0  0  0  0
    4.8004    2.7117   -0.9159 H   0  0  0  0  0  0  0  0  0  0  0  0
    5.9930    0.5554    1.9497 H   0  0  0  0  0  0  0  0  0  0  0  0
    7.8061   -1.0937    1.7335 H   0  0  0  0  0  0  0  0  0  0  0  0
    8.8263   -1.5515   -0.4841 H   0  0  0  0  0  0  0  0  0  0  0  0
    8.0202   -0.3385   -2.4931 H   0  0  0  0  0  0  0  0  0  0  0  0
    6.2052    1.3167   -2.3025 H   0  0  0  0  0  0  0  0  0  0  0  0
   -0.4045   -0.3859    2.3633 H   0  0  0  0  0  0  0  0  0  0  0  0
   -4.2607    0.3470    0.6136 H   0  0  0  0  0  0  0  0  0  0  0  0
  1  2  1  0
  2  3  1  0
  3  4  2  0
  4  5  1  0
  5  6  2  0
  6  7  1  0
  7  8  1  0
  8  9  2  0
  8 10  1  0
 10 11  1  0
 11 12  1  0
 12 13  2  0
 13 14  1  0
 14 15  2  0
 15 16  1  0
 16 17  1  0
 16 18  2  0
 18 19  1  0
 19 20  1  0
 20 21  2  0
 21 22  1  0
 22 23  2  0
 23 24  1  0
 24 25  2  0
 18 26  1  0
 26 27  2  0
 26 28  1  0
 28 29  1  0
 29 30  2  0
  7 31  2  0
 31  3  1  0
 30 12  1  0
 29 15  1  0
 25 20  1  0
  1 32  1  0
  1 33  1  0
  1 34  1  0
  4 35  1  0
  5 36  1  0
  6 37  1  0
 10 38  1  0
 10 39  1  0
 13 40  1  0
 14 41  1  0
 17 42  1  0
 17 43  1  0
 17 44  1  0
 19 45  1  0
 19 46  1  0
 21 47  1  0
 22 48  1  0
 23 49  1  0
 24 50  1  0
 25 51  1  0
 30 52  1  0
 31 53  1  0
M  END
$$$$
