
     RDKit          3D

 54 58  0  0  0  0  0  0  0  0999 V2000
    3.8092    1.0743   -2.0622 O   0  0  0  0  0  0  0  0  0  0  0  0
    3.0829    0.1734   -1.6443 C   0  0  0  0  0  0  0  0  0  0  0  0
    2.0723   -0.5174   -2.5493 C   0  0  0  0  0  0  0  0  0  0  0  0
    0.6384   -1.2220   -1.6734 S   0  0  0  0  0  0  0  0  0  0  0  0
   -0.2390    0.2427   -1.2284 C   0  0  0  0  0  0  0  0  0  0  0  0
    0.4690    1.3211   -1.1088 N   0  0  0  0  0  0  0  0  0  0  0  0
   -0.2348    2.4626   -0.7200 C   0  0  0  0  0  0  0  0  0  0  0  0
   -1.5676    2.4341   -0.4519 C   0  0  0  0  0  0  0  0  0  0  0  0
   -2.1600    3.9462    0.0181 S   0  0  0  0  0  0  0  0  0  0  0  0
   -0.5961    4.6754   -0.1377 C   0  0  0  0  0  0  0  0  0  0  0  0
   -0.2582    6.0212    0.1029 C   0  0  0  0  0  0  0  0  0  0  0  0
    1.0675    6.4255   -0.0782 C   0  0  0  0  0  0  0  0  0  0  0  0
    2.0373    5.5184   -0.4875 C   0  0  0  0  0  0  0  0  0  0  0  0
    1.6995    4.1840   -0.7254 C   0  0  0  0  0  0  0  0  0  0  0  0
    0.3654    3.7429   -0.5510 C   0  0  0  0  0  0  0  0  0  0  0  0
   -2.3534    1.2419   -0.5603 C   0  0  0  0  0  0  0  0  0  0  0  0
   -3.5490    1.1769   -0.2780 O   0  0  0  0  0  0  0  0  0  0  0  0
   -1.6147    0.1329   -1.0083 N   0  0  0  0  0  0  0  0  0  0  0  0
   -2.3734   -1.1183   -1.1500 C   0  0  0  0  0  0  0  0  0  0  0  0
   -2.4248   -1.9053    0.1650 C   0  0  0  0  0  0  0  0  0  0  0  0
   -3.2071   -3.1846    0.0111 C   0  0  0  0  0  0  0  0  0  0  0  0
   -4.5946   -3.1921    0.2067 C   0  0  0  0  0  0  0  0  0  0  0  0
   -5.3242   -4.3699    0.0401 C   0  0  0  0  0  0  0  0  0  0  0  0
   -4.6752   -5.5481   -0.3262 C   0  0  0  0  0  0  0  0  0  0  0  0
   -3.2964   -5.5496   -0.5283 C   0  0  0  0  0  0  0  0  0  0  0  0
   -2.5645   -4.3727   -0.3629 C   0  0  0  0  0  0  0  0  0  0  0  0
    3.1908   -0.3216   -0.3676 N   0  0  0  0  0  0  0  0  0  0  0  0
    4.0536    0.3052    0.6018 C   0  0  0  0  0  0  0  0  0  0  0  0
    3.7625   -0.2611    1.9403 C   0  0  0  0  0  0  0  0  0  0  0  0
    2.9565    0.1442    2.9858 C   0  0  0  0  0  0  0  0  0  0  0  0
    3.1065   -0.8287    4.0051 C   0  0  0  0  0  0  0  0  0  0  0  0
    3.9832   -1.7691    3.5123 C   0  0  0  0  0  0  0  0  0  0  0  0
    4.3835   -1.4347    2.2586 O   0  0  0  0  0  0  0  0  0  0  0  0
    2.5926   -1.3319   -3.0645 H   0  0  0  0  0  0  0  0  0  0  0  0
    1.7205    0.1938   -3.3037 H   0  0  0  0  0  0  0  0  0  0  0  0
   -1.0139    6.7348    0.4216 H   0  0  0  0  0  0  0  0  0  0  0  0
    1.3406    7.4621    0.1022 H   0  0  0  0  0  0  0  0  0  0  0  0
    3.0655    5.8439   -0.6288 H   0  0  0  0  0  0  0  0  0  0  0  0
    2.4634    3.4792   -1.0510 H   0  0  0  0  0  0  0  0  0  0  0  0
   -1.9537   -1.7297   -1.9550 H   0  0  0  0  0  0  0  0  0  0  0  0
   -3.3943   -0.8798   -1.4756 H   0  0  0  0  0  0  0  0  0  0  0  0
   -1.4126   -2.1363    0.5190 H   0  0  0  0  0  0  0  0  0  0  0  0
   -2.8759   -1.2942    0.9576 H   0  0  0  0  0  0  0  0  0  0  0  0
   -5.1159   -2.2790    0.4900 H   0  0  0  0  0  0  0  0  0  0  0  0
   -6.3998   -4.3681    0.1964 H   0  0  0  0  0  0  0  0  0  0  0  0
   -5.2443   -6.4650   -0.4555 H   0  0  0  0  0  0  0  0  0  0  0  0
   -2.7915   -6.4697   -0.8139 H   0  0  0  0  0  0  0  0  0  0  0  0
   -1.4894   -4.3907   -0.5264 H   0  0  0  0  0  0  0  0  0  0  0  0
    2.5139   -1.0074   -0.0529 H   0  0  0  0  0  0  0  0  0  0  0  0
    5.0919    0.1202    0.3080 H   0  0  0  0  0  0  0  0  0  0  0  0
    3.8809    1.3874    0.5874 H   0  0  0  0  0  0  0  0  0  0  0  0
    2.3383    1.0332    3.0092 H   0  0  0  0  0  0  0  0  0  0  0  0
    2.6344   -0.8464    4.9783 H   0  0  0  0  0  0  0  0  0  0  0  0
    4.4042   -2.6837    3.9090 H   0  0  0  0  0  0  0  0  0  0  0  0
  1  2  2  0
  2  3  1  0
  3  4  1  0
  4  5  1  0
  5  6  2  0
  6  7  1  0
  7  8  2  0
  8  9  1  0
  9 10  1  0
 10 11  2  0
 11 12  1  0
 12 13  2  0
 13 14  1  0
 14 15  2  0
  8 16  1  0
 16 17  2  0
 16 18  1  0
 18 19  1  0
 19 20  1  0
 20 21  1  0
 21 22  2  0
 22 23  1  0
 23 24  2  0
 24 25  1  0
 25 26  2  0
  2 27  1  0
 27 28  1  0
 28 29  1  0
 29 30  2  0
 30 31  1  0
 31 32  2  0
 32 33  1  0
 18  5  1  0
 26 21  1  0
 33 29  1  0
 15  7  1  0
 15 10  1  0
  3 34  1  0
  3 35  1  0
 11 36  1  0
 12 37  1  0
 13 38  1  0
 14 39  1  0
 19 40  1  0
 19 41  1  0
 20 42  1  0
 20 43  1  0
 22 44  1  0
 23 45  1  0
 24 46  1  0
 25 47  1  0
 26 48  1  0
 27 49  1  0
 28 50  1  0
 28 51  1  0
 30 52  1  0
 31 53  1  0
 32 54  1  0
M  END
$$$$
