
     RDKit          3D

 52 55  0  0  0  0  0  0  0  0999 V2000
    2.0371    2.9547    4.8702 C   0  0  0  0  0  0  0  0  0  0  0  0
    2.5597    3.0130    3.5440 O   0  0  0  0  0  0  0  0  0  0  0  0
    2.3595    1.9143    2.7584 C   0  0  0  0  0  0  0  0  0  0  0  0
    2.8919    2.0106    1.4742 C   0  0  0  0  0  0  0  0  0  0  0  0
    2.7478    0.9589    0.5677 C   0  0  0  0  0  0  0  0  0  0  0  0
    2.0854   -0.2190    0.9402 C   0  0  0  0  0  0  0  0  0  0  0  0
    1.9868   -1.2372   -0.0258 N   0  0  0  0  0  0  0  0  0  0  0  0
    1.4487   -2.4983    0.1354 C   0  0  0  0  0  0  0  0  0  0  0  0
    1.0210   -2.9764    1.1800 O   0  0  0  0  0  0  0  0  0  0  0  0
    1.4310   -3.3025   -1.1585 C   0  0  0  0  0  0  0  0  0  0  0  0
   -0.1873   -3.1799   -1.9667 S   0  0  0  0  0  0  0  0  0  0  0  0
   -0.2586   -1.4425   -2.2362 C   0  0  0  0  0  0  0  0  0  0  0  0
    0.7922   -0.9121   -2.7929 N   0  0  0  0  0  0  0  0  0  0  0  0
    0.7622    0.4380   -2.9837 C   0  0  0  0  0  0  0  0  0  0  0  0
   -0.2412    1.2378   -2.6367 C   0  0  0  0  0  0  0  0  0  0  0  0
   -1.4554    0.6579   -2.0284 C   0  0  0  0  0  0  0  0  0  0  0  0
   -2.4394    1.3634   -1.7977 O   0  0  0  0  0  0  0  0  0  0  0  0
   -1.3848   -0.7273   -1.8310 N   0  0  0  0  0  0  0  0  0  0  0  0
   -2.4867   -1.3325   -1.1485 C   0  0  0  0  0  0  0  0  0  0  0  0
   -3.3046   -2.2639   -1.8088 C   0  0  0  0  0  0  0  0  0  0  0  0
   -4.3987   -2.8300   -1.1488 C   0  0  0  0  0  0  0  0  0  0  0  0
   -4.6807   -2.4755    0.1736 C   0  0  0  0  0  0  0  0  0  0  0  0
   -3.8735   -1.5475    0.8398 C   0  0  0  0  0  0  0  0  0  0  0  0
   -2.7915   -0.9611    0.1770 C   0  0  0  0  0  0  0  0  0  0  0  0
   -1.9407   -0.0993    0.8264 O   0  0  0  0  0  0  0  0  0  0  0  0
   -2.6264    1.0099    1.4140 C   0  0  0  0  0  0  0  0  0  0  0  0
   -0.0197    2.9049   -2.9692 S   0  0  0  0  0  0  0  0  0  0  0  0
    1.5345    2.5953   -3.8734 C   0  0  0  0  0  0  0  0  0  0  0  0
    1.9181    1.1343   -3.6300 C   0  0  0  0  0  0  0  0  0  0  0  0
    1.5532   -0.3144    2.2225 C   0  0  0  0  0  0  0  0  0  0  0  0
    1.6816    0.7512    3.1269 C   0  0  0  0  0  0  0  0  0  0  0  0
    0.9438    2.8712    4.8537 H   0  0  0  0  0  0  0  0  0  0  0  0
    2.4879    2.1331    5.4371 H   0  0  0  0  0  0  0  0  0  0  0  0
    2.2940    3.8906    5.3752 H   0  0  0  0  0  0  0  0  0  0  0  0
    3.4218    2.9138    1.1778 H   0  0  0  0  0  0  0  0  0  0  0  0
    3.1798    1.0691   -0.4217 H   0  0  0  0  0  0  0  0  0  0  0  0
    2.2991   -0.9933   -0.9609 H   0  0  0  0  0  0  0  0  0  0  0  0
    2.2303   -2.9844   -1.8341 H   0  0  0  0  0  0  0  0  0  0  0  0
    1.6280   -4.3499   -0.9102 H   0  0  0  0  0  0  0  0  0  0  0  0
   -3.1080   -2.5437   -2.8405 H   0  0  0  0  0  0  0  0  0  0  0  0
   -5.0295   -3.5536   -1.6649 H   0  0  0  0  0  0  0  0  0  0  0  0
   -5.5229   -2.9293    0.6918 H   0  0  0  0  0  0  0  0  0  0  0  0
   -4.0827   -1.3072    1.8807 H   0  0  0  0  0  0  0  0  0  0  0  0
   -3.4198    1.3894    0.7616 H   0  0  0  0  0  0  0  0  0  0  0  0
   -3.0309    0.7335    2.3966 H   0  0  0  0  0  0  0  0  0  0  0  0
   -1.9038    1.8171    1.5689 H   0  0  0  0  0  0  0  0  0  0  0  0
    1.3665    2.7750   -4.9397 H   0  0  0  0  0  0  0  0  0  0  0  0
    2.3178    3.2750   -3.5271 H   0  0  0  0  0  0  0  0  0  0  0  0
    2.1688    0.6607   -4.5781 H   0  0  0  0  0  0  0  0  0  0  0  0
    2.8018    1.0697   -2.9939 H   0  0  0  0  0  0  0  0  0  0  0  0
    1.0085   -1.1973    2.5519 H   0  0  0  0  0  0  0  0  0  0  0  0
    1.2279    0.6359    4.1021 H   0  0  0  0  0  0  0  0  0  0  0  0
  1  2  1  0
  2  3  1  0
  3  4  2  0
  4  5  1  0
  5  6  2  0
  6  7  1  0
  7  8  1  0
  8  9  2  0
  8 10  1  0
 10 11  1  0
 11 12  1  0
 12 13  2  0
 13 14  1  0
 14 15  2  0
 15 16  1  0
 16 17  2  0
 16 18  1  0
 18 19  1  0
 19 20  2  0
 20 21  1  0
 21 22  2  0
 22 23  1  0
 23 24  2  0
 24 25  1  0
 25 26  1  0
 15 27  1  0
 27 28  1  0
 28 29  1  0
  6 30  1  0
 30 31  2  0
 31  3  1  0
 18 12  1  0
 24 19  1  0
 29 14  1  0
  1 32  1  0
  1 33  1  0
  1 34  1  0
  4 35  1  0
  5 36  1  0
  7 37  1  0
 10 38  1  0
 10 39  1  0
 20 40  1  0
 21 41  1  0
 22 42  1  0
 23 43  1  0
 26 44  1  0
 26 45  1  0
 26 46  1  0
 28 47  1  0
 28 48  1  0
 29 49  1  0
 29 50  1  0
 30 51  1  0
 31 52  1  0
M  END
$$$$
