
     RDKit          3D

 60 65  0  0  0  0  0  0  0  0999 V2000
    5.5514   -4.0229   -0.8132 C   0  0  0  0  0  0  0  0  0  0  0  0
    5.4362   -2.6019   -0.7258 O   0  0  0  0  0  0  0  0  0  0  0  0
    4.1941   -2.0785   -0.9656 C   0  0  0  0  0  0  0  0  0  0  0  0
    3.0023   -2.7988   -1.0200 C   0  0  0  0  0  0  0  0  0  0  0  0
    1.7917   -2.1402   -1.2700 C   0  0  0  0  0  0  0  0  0  0  0  0
    1.7451   -0.7517   -1.4613 C   0  0  0  0  0  0  0  0  0  0  0  0
    2.9545   -0.0463   -1.4310 C   0  0  0  0  0  0  0  0  0  0  0  0
    4.1601   -0.6979   -1.1562 C   0  0  0  0  0  0  0  0  0  0  0  0
    3.0462    1.3064   -1.6222 O   0  0  0  0  0  0  0  0  0  0  0  0
    1.9396    1.8758   -2.3186 C   0  0  0  0  0  0  0  0  0  0  0  0
    0.6013    1.4828   -1.7198 C   0  0  0  0  0  0  0  0  0  0  0  0
    0.4364   -0.0346   -1.7310 C   0  0  0  0  0  0  0  0  0  0  0  0
   -0.5826   -0.2823   -0.7036 N   0  0  0  0  0  0  0  0  0  0  0  0
   -1.4523   -1.3408   -0.8433 C   0  0  0  0  0  0  0  0  0  0  0  0
   -1.4693   -2.0183   -1.8731 O   0  0  0  0  0  0  0  0  0  0  0  0
   -2.3726   -1.7303    0.2581 C   0  0  0  0  0  0  0  0  0  0  0  0
   -3.4650   -2.5383   -0.1268 C   0  0  0  0  0  0  0  0  0  0  0  0
   -4.3242   -3.1059    0.8159 C   0  0  0  0  0  0  0  0  0  0  0  0
   -4.1012   -2.8966    2.1726 C   0  0  0  0  0  0  0  0  0  0  0  0
   -4.9958   -3.5119    3.2064 C   0  0  0  0  0  0  0  0  0  0  0  0
   -3.0152   -2.1004    2.5616 C   0  0  0  0  0  0  0  0  0  0  0  0
   -2.1606   -1.4887    1.6201 C   0  0  0  0  0  0  0  0  0  0  0  0
   -1.1614   -0.6829    2.1830 N   0  0  0  0  0  0  0  0  0  0  0  0
   -0.4367    0.3466    1.6606 C   0  0  0  0  0  0  0  0  0  0  0  0
    0.3302    0.9222    2.4384 O   0  0  0  0  0  0  0  0  0  0  0  0
   -0.7148    0.8533    0.2348 C   0  0  0  0  0  0  0  0  0  0  0  0
   -2.1051    1.5099    0.1492 C   0  0  0  0  0  0  0  0  0  0  0  0
    0.4312    1.8331   -0.2216 C   0  0  0  0  0  0  0  0  0  0  0  0
    0.2635    3.3181    0.0716 C   0  0  0  0  0  0  0  0  0  0  0  0
    0.8830    3.8573    1.2123 C   0  0  0  0  0  0  0  0  0  0  0  0
    0.7728    5.2151    1.5230 C   0  0  0  0  0  0  0  0  0  0  0  0
    0.0367    6.0594    0.6989 C   0  0  0  0  0  0  0  0  0  0  0  0
   -0.5892    5.5446   -0.4332 C   0  0  0  0  0  0  0  0  0  0  0  0
   -0.4764    4.1863   -0.7456 C   0  0  0  0  0  0  0  0  0  0  0  0
    5.1821   -4.3941   -1.7796 H   0  0  0  0  0  0  0  0  0  0  0  0
    5.0379   -4.5081    0.0253 H   0  0  0  0  0  0  0  0  0  0  0  0
    6.6146   -4.2808   -0.7457 H   0  0  0  0  0  0  0  0  0  0  0  0
    2.9742   -3.8714   -0.8693 H   0  0  0  0  0  0  0  0  0  0  0  0
    0.8815   -2.7357   -1.3160 H   0  0  0  0  0  0  0  0  0  0  0  0
    5.0825   -0.1247   -1.1127 H   0  0  0  0  0  0  0  0  0  0  0  0
    2.0628    2.9638   -2.2887 H   0  0  0  0  0  0  0  0  0  0  0  0
    1.9979    1.5811   -3.3750 H   0  0  0  0  0  0  0  0  0  0  0  0
   -0.2073    1.9238   -2.3150 H   0  0  0  0  0  0  0  0  0  0  0  0
    0.0752   -0.3585   -2.7159 H   0  0  0  0  0  0  0  0  0  0  0  0
   -3.6374   -2.7567   -1.1792 H   0  0  0  0  0  0  0  0  0  0  0  0
   -5.1493   -3.7260    0.4757 H   0  0  0  0  0  0  0  0  0  0  0  0
   -5.4307   -2.7327    3.8416 H   0  0  0  0  0  0  0  0  0  0  0  0
   -5.8198   -4.0655    2.7458 H   0  0  0  0  0  0  0  0  0  0  0  0
   -4.4266   -4.2096    3.8289 H   0  0  0  0  0  0  0  0  0  0  0  0
   -2.8554   -1.9346    3.6256 H   0  0  0  0  0  0  0  0  0  0  0  0
   -0.9947   -0.7691    3.1794 H   0  0  0  0  0  0  0  0  0  0  0  0
   -2.3180    1.8586   -0.8675 H   0  0  0  0  0  0  0  0  0  0  0  0
   -2.1867    2.3572    0.8374 H   0  0  0  0  0  0  0  0  0  0  0  0
   -2.9233    0.8376    0.4203 H   0  0  0  0  0  0  0  0  0  0  0  0
    1.3592    1.5294    0.2846 H   0  0  0  0  0  0  0  0  0  0  0  0
    1.4687    3.2200    1.8740 H   0  0  0  0  0  0  0  0  0  0  0  0
    1.2660    5.6082    2.4086 H   0  0  0  0  0  0  0  0  0  0  0  0
   -0.0496    7.1163    0.9391 H   0  0  0  0  0  0  0  0  0  0  0  0
   -1.1692    6.2015   -1.0757 H   0  0  0  0  0  0  0  0  0  0  0  0
   -0.9885    3.8284   -1.6345 H   0  0  0  0  0  0  0  0  0  0  0  0
  1  2  1  0
  2  3  1  0
  3  4  2  0
  4  5  1  0
  5  6  2  0
  6  7  1  0
  7  8  2  0
  7  9  1  0
  9 10  1  0
 10 11  1  0
 11 12  1  0
 12 13  1  0
 13 14  1  0
 14 15  2  0
 14 16  1  0
 16 17  2  0
 17 18  1  0
 18 19  2  0
 19 20  1  0
 19 21  1  0
 21 22  2  0
 22 23  1  0
 23 24  1  0
 24 25  2  0
 24 26  1  0
 26 27  1  0
 26 28  1  0
 28 29  1  0
 29 30  2  0
 30 31  1  0
 31 32  2  0
 32 33  1  0
 33 34  2  0
  8  3  1  0
 28 11  1  0
 34 29  1  0
 12  6  1  0
 26 13  1  0
 22 16  1  0
  1 35  1  0
  1 36  1  0
  1 37  1  0
  4 38  1  0
  5 39  1  0
  8 40  1  0
 10 41  1  0
 10 42  1  0
 11 43  1  0
 12 44  1  0
 17 45  1  0
 18 46  1  0
 20 47  1  0
 20 48  1  0
 20 49  1  0
 21 50  1  0
 23 51  1  0
 27 52  1  0
 27 53  1  0
 27 54  1  0
 28 55  1  0
 30 56  1  0
 31 57  1  0
 32 58  1  0
 33 59  1  0
 34 60  1  0
M  END
$$$$
