
     RDKit          3D

 51 54  0  0  0  0  0  0  0  0999 V2000
   -2.1330   -4.8185    0.1885 C   0  0  0  0  0  0  0  0  0  0  0  0
   -1.2967   -4.2266    1.1736 O   0  0  0  0  0  0  0  0  0  0  0  0
   -0.9577   -2.9073    1.0156 C   0  0  0  0  0  0  0  0  0  0  0  0
   -1.3485   -2.1140   -0.0618 C   0  0  0  0  0  0  0  0  0  0  0  0
   -0.9432   -0.7718   -0.1376 C   0  0  0  0  0  0  0  0  0  0  0  0
   -1.3688    0.0412   -1.2868 C   0  0  0  0  0  0  0  0  0  0  0  0
   -2.0451   -0.4808   -2.1709 O   0  0  0  0  0  0  0  0  0  0  0  0
   -0.9671    1.3669   -1.2988 N   0  0  0  0  0  0  0  0  0  0  0  0
   -1.4352    2.1943   -2.4027 C   0  0  0  0  0  0  0  0  0  0  0  0
   -2.7861    2.7319   -2.0758 C   0  0  0  0  0  0  0  0  0  0  0  0
   -4.0663    2.2497   -2.2603 C   0  0  0  0  0  0  0  0  0  0  0  0
   -4.9420    3.2267   -1.7298 C   0  0  0  0  0  0  0  0  0  0  0  0
   -4.1428    4.2406   -1.2569 C   0  0  0  0  0  0  0  0  0  0  0  0
   -2.8330    3.9493   -1.4621 O   0  0  0  0  0  0  0  0  0  0  0  0
   -0.1368    1.9534   -0.3580 C   0  0  0  0  0  0  0  0  0  0  0  0
    0.2684    3.1118   -0.4733 O   0  0  0  0  0  0  0  0  0  0  0  0
    0.2621    1.1601    0.7154 N   0  0  0  0  0  0  0  0  0  0  0  0
    1.1601    1.7608    1.7120 C   0  0  0  0  0  0  0  0  0  0  0  0
    2.5999    1.2443    1.6973 C   0  0  0  0  0  0  0  0  0  0  0  0
    3.3112    1.2827    2.7008 O   0  0  0  0  0  0  0  0  0  0  0  0
    3.1831    0.7089    0.4468 C   0  0  0  0  0  0  0  0  0  0  0  0
    3.7937   -0.5499    0.4827 C   0  0  0  0  0  0  0  0  0  0  0  0
    4.3278   -1.0949   -0.6850 C   0  0  0  0  0  0  0  0  0  0  0  0
    4.2618   -0.3785   -1.8811 C   0  0  0  0  0  0  0  0  0  0  0  0
    3.6749    0.8872   -1.9010 C   0  0  0  0  0  0  0  0  0  0  0  0
    3.5926    1.8561   -3.5220 Br  0  0  0  0  0  0  0  0  0  0  0  0
    3.1438    1.4442   -0.7393 C   0  0  0  0  0  0  0  0  0  0  0  0
   -0.1485   -0.1980    0.8493 C   0  0  0  0  0  0  0  0  0  0  0  0
    0.2324   -1.0006    1.9390 C   0  0  0  0  0  0  0  0  0  0  0  0
   -0.1575   -2.3457    2.0261 C   0  0  0  0  0  0  0  0  0  0  0  0
    0.1891   -3.1872    3.0539 O   0  0  0  0  0  0  0  0  0  0  0  0
    1.0384   -2.6855    4.0767 C   0  0  0  0  0  0  0  0  0  0  0  0
   -3.1044   -4.3155    0.1407 H   0  0  0  0  0  0  0  0  0  0  0  0
   -1.6426   -4.8288   -0.7904 H   0  0  0  0  0  0  0  0  0  0  0  0
   -2.3110   -5.8576    0.4817 H   0  0  0  0  0  0  0  0  0  0  0  0
   -1.9671   -2.5138   -0.8600 H   0  0  0  0  0  0  0  0  0  0  0  0
   -0.7393    3.0169   -2.6009 H   0  0  0  0  0  0  0  0  0  0  0  0
   -1.4882    1.5964   -3.3201 H   0  0  0  0  0  0  0  0  0  0  0  0
   -4.3270    1.3040   -2.7171 H   0  0  0  0  0  0  0  0  0  0  0  0
   -6.0217    3.1965   -1.6948 H   0  0  0  0  0  0  0  0  0  0  0  0
   -4.3396    5.1870   -0.7726 H   0  0  0  0  0  0  0  0  0  0  0  0
    0.7295    1.5929    2.7060 H   0  0  0  0  0  0  0  0  0  0  0  0
    1.2160    2.8477    1.5875 H   0  0  0  0  0  0  0  0  0  0  0  0
    3.8509   -1.1080    1.4150 H   0  0  0  0  0  0  0  0  0  0  0  0
    4.7966   -2.0761   -0.6633 H   0  0  0  0  0  0  0  0  0  0  0  0
    4.6782   -0.8106   -2.7880 H   0  0  0  0  0  0  0  0  0  0  0  0
    2.7176    2.4437   -0.7606 H   0  0  0  0  0  0  0  0  0  0  0  0
    0.8366   -0.5852    2.7355 H   0  0  0  0  0  0  0  0  0  0  0  0
    2.0041   -2.3688    3.6690 H   0  0  0  0  0  0  0  0  0  0  0  0
    1.2270   -3.4990    4.7838 H   0  0  0  0  0  0  0  0  0  0  0  0
    0.5537   -1.8725    4.6269 H   0  0  0  0  0  0  0  0  0  0  0  0
  1  2  1  0
  2  3  1  0
  3  4  2  0
  4  5  1  0
  5  6  1  0
  6  7  2  0
  6  8  1  0
  8  9  1  0
  9 10  1  0
 10 11  2  0
 11 12  1  0
 12 13  2  0
 13 14  1  0
  8 15  1  0
 15 16  2  0
 15 17  1  0
 17 18  1  0
 18 19  1  0
 19 20  2  0
 19 21  1  0
 21 22  2  0
 22 23  1  0
 23 24  2  0
 24 25  1  0
 25 26  1  0
 25 27  2  0
 17 28  1  0
 28 29  1  0
 29 30  2  0
 30 31  1  0
 31 32  1  0
 30  3  1  0
 28  5  2  0
 14 10  1  0
 27 21  1  0
  1 33  1  0
  1 34  1  0
  1 35  1  0
  4 36  1  0
  9 37  1  0
  9 38  1  0
 11 39  1  0
 12 40  1  0
 13 41  1  0
 18 42  1  0
 18 43  1  0
 22 44  1  0
 23 45  1  0
 24 46  1  0
 27 47  1  0
 29 48  1  0
 32 49  1  0
 32 50  1  0
 32 51  1  0
M  END
$$$$
