
     RDKit          3D

 38 41  0  0  0  0  0  0  0  0999 V2000
   -3.1049    4.3232   -0.2733 O   0  0  0  0  0  0  0  0  0  0  0  0
   -3.4403    3.1992   -0.6355 C   0  0  0  0  0  0  0  0  0  0  0  0
   -2.9892    1.9794    0.0077 C   0  0  0  0  0  0  0  0  0  0  0  0
   -2.1725    1.9288    1.1215 C   0  0  0  0  0  0  0  0  0  0  0  0
   -1.9560    0.6148    1.4390 N   0  0  0  0  0  0  0  0  0  0  0  0
   -1.1295    0.1641    2.5502 C   0  0  0  0  0  0  0  0  0  0  0  0
    0.1386   -0.5479    2.1104 C   0  0  0  0  0  0  0  0  0  0  0  0
    0.4672   -1.5998    2.6553 O   0  0  0  0  0  0  0  0  0  0  0  0
    0.8626    0.1259    1.1392 N   0  0  0  0  0  0  0  0  0  0  0  0
    2.0899   -0.2555    0.5560 C   0  0  0  0  0  0  0  0  0  0  0  0
    2.8184   -1.3995    0.9352 C   0  0  0  0  0  0  0  0  0  0  0  0
    4.0343   -1.7205    0.3156 C   0  0  0  0  0  0  0  0  0  0  0  0
    4.4938   -0.8826   -0.6740 C   0  0  0  0  0  0  0  0  0  0  0  0
    3.7912    0.2352   -1.0495 C   0  0  0  0  0  0  0  0  0  0  0  0
    2.5922    0.5757   -0.4571 C   0  0  0  0  0  0  0  0  0  0  0  0
    4.4119    0.9295   -2.0410 O   0  0  0  0  0  0  0  0  0  0  0  0
    5.5866    0.1163   -2.2463 C   0  0  0  0  0  0  0  0  0  0  0  0
    5.6450   -1.0353   -1.3794 O   0  0  0  0  0  0  0  0  0  0  0  0
   -2.6282   -0.2047    0.5564 C   0  0  0  0  0  0  0  0  0  0  0  0
   -2.7086   -1.6046    0.4806 C   0  0  0  0  0  0  0  0  0  0  0  0
   -3.4727   -2.1651   -0.5460 C   0  0  0  0  0  0  0  0  0  0  0  0
   -4.1354   -1.3600   -1.4658 C   0  0  0  0  0  0  0  0  0  0  0  0
   -4.0501    0.0339   -1.3831 C   0  0  0  0  0  0  0  0  0  0  0  0
   -3.2843    0.6287   -0.3568 C   0  0  0  0  0  0  0  0  0  0  0  0
   -4.1160    3.0641   -1.4961 H   0  0  0  0  0  0  0  0  0  0  0  0
   -1.7422    2.7356    1.7038 H   0  0  0  0  0  0  0  0  0  0  0  0
   -0.8583    1.0297    3.1636 H   0  0  0  0  0  0  0  0  0  0  0  0
   -1.7453   -0.5109    3.1544 H   0  0  0  0  0  0  0  0  0  0  0  0
    0.4438    0.9658    0.7539 H   0  0  0  0  0  0  0  0  0  0  0  0
    2.4649   -2.0658    1.7161 H   0  0  0  0  0  0  0  0  0  0  0  0
    4.5939   -2.6019    0.6081 H   0  0  0  0  0  0  0  0  0  0  0  0
    2.0688    1.4667   -0.7850 H   0  0  0  0  0  0  0  0  0  0  0  0
    6.4752    0.7334   -2.0701 H   0  0  0  0  0  0  0  0  0  0  0  0
    5.5976   -0.2271   -3.2872 H   0  0  0  0  0  0  0  0  0  0  0  0
   -2.1945   -2.2475    1.1901 H   0  0  0  0  0  0  0  0  0  0  0  0
   -3.5475   -3.2477   -0.6253 H   0  0  0  0  0  0  0  0  0  0  0  0
   -4.7247   -1.8175   -2.2571 H   0  0  0  0  0  0  0  0  0  0  0  0
   -4.5756    0.6438   -2.1124 H   0  0  0  0  0  0  0  0  0  0  0  0
  1  2  2  0
  2  3  1  0
  3  4  2  0
  4  5  1  0
  5  6  1  0
  6  7  1  0
  7  8  2  0
  7  9  1  0
  9 10  1  0
 10 11  2  0
 11 12  1  0
 12 13  2  0
 13 14  1  0
 14 15  2  0
 14 16  1  0
 16 17  1  0
 17 18  1  0
  5 19  1  0
 19 20  2  0
 20 21  1  0
 21 22  2  0
 22 23  1  0
 23 24  2  0
 24  3  1  0
 15 10  1  0
 24 19  1  0
 18 13  1  0
  2 25  1  0
  4 26  1  0
  6 27  1  0
  6 28  1  0
  9 29  1  0
 11 30  1  0
 12 31  1  0
 15 32  1  0
 17 33  1  0
 17 34  1  0
 20 35  1  0
 21 36  1  0
 22 37  1  0
 23 38  1  0
M  END
$$$$
