
     RDKit          3D

 36 39  0  0  0  0  0  0  0  0999 V2000
   -6.7872   -0.6565    1.3818 C   0  0  0  0  0  0  0  0  0  0  0  0
   -5.4199   -0.6471    0.7654 C   0  0  0  0  0  0  0  0  0  0  0  0
   -4.4355   -1.1753    1.2636 O   0  0  0  0  0  0  0  0  0  0  0  0
   -5.4788    0.0492   -0.4385 O   0  0  0  0  0  0  0  0  0  0  0  0
   -4.2785    0.1600   -1.1545 C   0  0  0  0  0  0  0  0  0  0  0  0
   -4.2845   -0.2791   -2.4768 C   0  0  0  0  0  0  0  0  0  0  0  0
   -3.1311   -0.1441   -3.2469 C   0  0  0  0  0  0  0  0  0  0  0  0
   -1.9855    0.4359   -2.6948 C   0  0  0  0  0  0  0  0  0  0  0  0
   -1.9871    0.8857   -1.3674 C   0  0  0  0  0  0  0  0  0  0  0  0
   -0.7979    1.5043   -0.7748 C   0  0  0  0  0  0  0  0  0  0  0  0
    0.3463    0.8714   -0.4790 C   0  0  0  0  0  0  0  0  0  0  0  0
    0.7137   -0.8272   -0.7186 S   0  0  0  0  0  0  0  0  0  0  0  0
    2.2708   -0.5776   -0.0454 C   0  0  0  0  0  0  0  0  0  0  0  0
    3.3126   -1.3215    0.1856 N   0  0  0  0  0  0  0  0  0  0  0  0
    4.1902   -0.4039    0.7441 C   0  0  0  0  0  0  0  0  0  0  0  0
    5.6275   -0.8053    1.2131 C   0  0  0  0  0  0  0  0  0  0  0  0
    6.5608    0.0440    1.7772 C   0  0  0  0  0  0  0  0  0  0  0  0
    7.7122   -0.7352    2.0461 C   0  0  0  0  0  0  0  0  0  0  0  0
    7.4131   -2.0106    1.6306 C   0  0  0  0  0  0  0  0  0  0  0  0
    6.1547   -2.0642    1.1249 O   0  0  0  0  0  0  0  0  0  0  0  0
    3.7153    0.8560    0.8502 N   0  0  0  0  0  0  0  0  0  0  0  0
    2.4846    0.6972    0.3335 N   0  0  0  0  0  0  0  0  0  0  0  0
    1.4795    1.6208    0.1450 C   0  0  0  0  0  0  0  0  0  0  0  0
    1.5643    2.7979    0.4446 O   0  0  0  0  0  0  0  0  0  0  0  0
   -3.1491    0.7627   -0.5992 C   0  0  0  0  0  0  0  0  0  0  0  0
   -6.7526   -1.1995    2.3307 H   0  0  0  0  0  0  0  0  0  0  0  0
   -7.4904   -1.1629    0.7161 H   0  0  0  0  0  0  0  0  0  0  0  0
   -7.1118    0.3682    1.5790 H   0  0  0  0  0  0  0  0  0  0  0  0
   -5.1778   -0.7242   -2.9051 H   0  0  0  0  0  0  0  0  0  0  0  0
   -3.1222   -0.4887   -4.2779 H   0  0  0  0  0  0  0  0  0  0  0  0
   -1.0955    0.5352   -3.3124 H   0  0  0  0  0  0  0  0  0  0  0  0
   -0.9062    2.5648   -0.5487 H   0  0  0  0  0  0  0  0  0  0  0  0
    6.4175    1.0990    1.9681 H   0  0  0  0  0  0  0  0  0  0  0  0
    8.6431   -0.4083    2.4876 H   0  0  0  0  0  0  0  0  0  0  0  0
    7.9572   -2.9450    1.6256 H   0  0  0  0  0  0  0  0  0  0  0  0
   -3.1719    1.1179    0.4274 H   0  0  0  0  0  0  0  0  0  0  0  0
  1  2  1  0
  2  3  2  0
  2  4  1  0
  4  5  1  0
  5  6  2  0
  6  7  1  0
  7  8  2  0
  8  9  1  0
  9 10  1  0
 10 11  2  3
 11 12  1  0
 12 13  1  0
 13 14  2  0
 14 15  1  0
 15 16  1  0
 16 17  2  0
 17 18  1  0
 18 19  2  0
 19 20  1  0
 15 21  2  0
 21 22  1  0
 22 23  1  0
 23 24  2  0
  9 25  2  0
 25  5  1  0
 23 11  1  0
 22 13  1  0
 20 16  1  0
  1 26  1  0
  1 27  1  0
  1 28  1  0
  6 29  1  0
  7 30  1  0
  8 31  1  0
 10 32  1  0
 17 33  1  0
 18 34  1  0
 19 35  1  0
 25 36  1  0
M  END
$$$$
