
     RDKit          3D

 57 59  0  0  0  0  0  0  0  0999 V2000
   -7.8403   -3.0161    0.0400 C   0  0  0  0  0  0  0  0  0  0  0  0
   -7.5633   -1.6657   -0.3150 O   0  0  0  0  0  0  0  0  0  0  0  0
   -6.3051   -1.2012   -0.0477 C   0  0  0  0  0  0  0  0  0  0  0  0
   -6.1395    0.1743   -0.2410 C   0  0  0  0  0  0  0  0  0  0  0  0
   -4.9069    0.7851   -0.0005 C   0  0  0  0  0  0  0  0  0  0  0  0
   -3.8238    0.0070    0.4112 C   0  0  0  0  0  0  0  0  0  0  0  0
   -2.2599    0.7844    0.7798 S   0  0  0  0  0  6  0  0  0  0  0  0
   -1.5623   -0.0943    1.6987 O   0  0  0  0  0  0  0  0  0  0  0  0
   -2.5537    2.1621    1.1168 O   0  0  0  0  0  0  0  0  0  0  0  0
   -1.4325    0.7560   -0.6754 N   0  0  0  0  0  0  0  0  0  0  0  0
   -1.0699   -0.5153   -1.2949 C   0  0  0  0  0  0  0  0  0  0  0  0
   -0.6547   -0.0786   -2.6825 C   0  0  0  0  0  0  0  0  0  0  0  0
   -1.5144    1.0288   -2.9889 O   0  0  0  0  0  0  0  0  0  0  0  0
   -1.8351    1.6826   -1.7385 C   0  0  0  0  0  0  0  0  0  0  0  0
   -1.0865    3.0373   -1.6617 C   0  0  0  0  0  0  0  0  0  0  0  0
    0.3619    2.9035   -1.6343 N   0  0  0  0  0  0  0  0  0  0  0  0
    1.0483    2.7210   -0.4555 C   0  0  0  0  0  0  0  0  0  0  0  0
    0.6223    2.9054    0.6753 O   0  0  0  0  0  0  0  0  0  0  0  0
    2.4858    2.1935   -0.6560 C   0  0  0  0  0  0  0  0  0  0  0  0
    2.8779    1.9114   -1.7802 O   0  0  0  0  0  0  0  0  0  0  0  0
    3.1829    2.0671    0.5197 N   0  0  0  0  0  0  0  0  0  0  0  0
    4.4877    1.4568    0.5955 C   0  0  0  0  0  0  0  0  0  0  0  0
    4.4837    0.0279    1.1002 C   0  0  0  0  0  0  0  0  0  0  0  0
    3.2961   -0.6774    1.3720 C   0  0  0  0  0  0  0  0  0  0  0  0
    3.3344   -1.9982    1.8262 C   0  0  0  0  0  0  0  0  0  0  0  0
    4.5582   -2.6340    2.0049 C   0  0  0  0  0  0  0  0  0  0  0  0
    5.7485   -1.9520    1.7406 C   0  0  0  0  0  0  0  0  0  0  0  0
    5.7204   -0.6258    1.2943 C   0  0  0  0  0  0  0  0  0  0  0  0
    6.8332    0.1235    1.0143 O   0  0  0  0  0  0  0  0  0  0  0  0
    8.1047   -0.4791    1.2164 C   0  0  0  0  0  0  0  0  0  0  0  0
   -3.9826   -1.3662    0.6260 C   0  0  0  0  0  0  0  0  0  0  0  0
   -5.2222   -1.9696    0.3865 C   0  0  0  0  0  0  0  0  0  0  0  0
   -7.2546   -3.7132   -0.5694 H   0  0  0  0  0  0  0  0  0  0  0  0
   -8.8992   -3.2028   -0.1641 H   0  0  0  0  0  0  0  0  0  0  0  0
   -7.6732   -3.1883    1.1093 H   0  0  0  0  0  0  0  0  0  0  0  0
   -6.9883    0.7765   -0.5633 H   0  0  0  0  0  0  0  0  0  0  0  0
   -4.8122    1.8614   -0.1218 H   0  0  0  0  0  0  0  0  0  0  0  0
   -0.2600   -1.0243   -0.7698 H   0  0  0  0  0  0  0  0  0  0  0  0
   -1.9370   -1.1761   -1.3675 H   0  0  0  0  0  0  0  0  0  0  0  0
   -0.7785   -0.8683   -3.4304 H   0  0  0  0  0  0  0  0  0  0  0  0
    0.3842    0.2679   -2.7082 H   0  0  0  0  0  0  0  0  0  0  0  0
   -2.9130    1.8605   -1.7526 H   0  0  0  0  0  0  0  0  0  0  0  0
   -1.3159    3.6286   -2.5543 H   0  0  0  0  0  0  0  0  0  0  0  0
   -1.4021    3.6024   -0.7801 H   0  0  0  0  0  0  0  0  0  0  0  0
    0.8450    2.6027   -2.4776 H   0  0  0  0  0  0  0  0  0  0  0  0
    2.6785    2.2845    1.3755 H   0  0  0  0  0  0  0  0  0  0  0  0
    4.9571    1.4862   -0.3954 H   0  0  0  0  0  0  0  0  0  0  0  0
    5.0718    2.0830    1.2832 H   0  0  0  0  0  0  0  0  0  0  0  0
    2.3230   -0.2103    1.2399 H   0  0  0  0  0  0  0  0  0  0  0  0
    2.4069   -2.5297    2.0349 H   0  0  0  0  0  0  0  0  0  0  0  0
    4.5919   -3.6650    2.3480 H   0  0  0  0  0  0  0  0  0  0  0  0
    6.6816   -2.4837    1.8932 H   0  0  0  0  0  0  0  0  0  0  0  0
    8.2430   -1.3406    0.5543 H   0  0  0  0  0  0  0  0  0  0  0  0
    8.8716    0.2604    0.9580 H   0  0  0  0  0  0  0  0  0  0  0  0
    8.2497   -0.7567    2.2669 H   0  0  0  0  0  0  0  0  0  0  0  0
   -3.1521   -1.9717    0.9869 H   0  0  0  0  0  0  0  0  0  0  0  0
   -5.3116   -3.0373    0.5561 H   0  0  0  0  0  0  0  0  0  0  0  0
  1  2  1  0
  2  3  1  0
  3  4  2  0
  4  5  1  0
  5  6  2  0
  6  7  1  0
  7  8  2  0
  7  9  2  0
  7 10  1  0
 10 11  1  0
 11 12  1  0
 12 13  1  0
 13 14  1  0
 14 15  1  0
 15 16  1  0
 16 17  1  0
 17 18  2  0
 17 19  1  0
 19 20  2  0
 19 21  1  0
 21 22  1  0
 22 23  1  0
 23 24  2  0
 24 25  1  0
 25 26  2  0
 26 27  1  0
 27 28  2  0
 28 29  1  0
 29 30  1  0
  6 31  1  0
 31 32  2  0
 32  3  1  0
 14 10  1  0
 28 23  1  0
  1 33  1  0
  1 34  1  0
  1 35  1  0
  4 36  1  0
  5 37  1  0
 11 38  1  0
 11 39  1  0
 12 40  1  0
 12 41  1  0
 14 42  1  0
 15 43  1  0
 15 44  1  0
 16 45  1  0
 21 46  1  0
 22 47  1  0
 22 48  1  0
 24 49  1  0
 25 50  1  0
 26 51  1  0
 27 52  1  0
 30 53  1  0
 30 54  1  0
 30 55  1  0
 31 56  1  0
 32 57  1  0
M  END
$$$$
