
     RDKit          3D

 52 51  0  0  0  0  0  0  0  0999 V2000
   -1.9855    3.3931    0.8498 C   0  0  0  0  0  0  0  0  0  0  0  0
   -2.4840    2.6928    0.0106 C   0  0  0  0  0  0  0  0  0  0  0  0
   -3.0853    1.8480   -1.0240 C   0  0  0  0  0  0  0  0  0  0  0  0
   -4.0327    0.7899   -0.4313 N   0  0  0  0  0  4  0  0  0  0  0  0
   -4.5997   -0.0414   -1.5800 C   0  0  0  0  0  0  0  0  0  0  0  0
   -5.2125    1.4934    0.2523 C   0  0  0  0  0  0  0  0  0  0  0  0
   -3.3510   -0.1154    0.6165 C   0  0  0  0  0  0  0  0  0  0  0  0
   -2.1247   -0.8615    0.0851 C   0  0  0  0  0  0  0  0  0  0  0  0
   -1.5344   -1.8333    1.1153 C   0  0  0  0  0  0  0  0  0  0  0  0
   -1.0650   -1.2180    2.4372 C   0  0  0  0  0  0  0  0  0  0  0  0
   -0.1008   -0.0298    2.3574 C   0  0  0  0  0  0  0  0  0  0  0  0
    1.3688   -0.3740    2.0949 C   0  0  0  0  0  0  0  0  0  0  0  0
    1.6906   -0.7372    0.6457 C   0  0  0  0  0  0  0  0  0  0  0  0
    3.2038   -0.7873    0.4102 C   0  0  0  0  0  0  0  0  0  0  0  0
    3.5279   -1.2103   -1.0242 C   0  0  0  0  0  0  0  0  0  0  0  0
    5.0295   -1.3434   -1.2949 C   0  0  0  0  0  0  0  0  0  0  0  0
    5.8507   -0.0624   -1.1279 C   0  0  0  0  0  0  0  0  0  0  0  0
    5.3970    1.0722   -2.0324 C   0  0  0  0  0  0  0  0  0  0  0  0
   -1.5330    4.0232    1.5841 H   0  0  0  0  0  0  0  0  0  0  0  0
   -2.3200    1.3218   -1.6037 H   0  0  0  0  0  0  0  0  0  0  0  0
   -3.6773    2.4527   -1.7212 H   0  0  0  0  0  0  0  0  0  0  0  0
   -5.2209   -0.8377   -1.1600 H   0  0  0  0  0  0  0  0  0  0  0  0
   -3.7746   -0.4598   -2.1615 H   0  0  0  0  0  0  0  0  0  0  0  0
   -5.2011    0.6144   -2.2170 H   0  0  0  0  0  0  0  0  0  0  0  0
   -5.9337    0.7297    0.5593 H   0  0  0  0  0  0  0  0  0  0  0  0
   -5.6720    2.1807   -0.4641 H   0  0  0  0  0  0  0  0  0  0  0  0
   -4.8501    2.0348    1.1298 H   0  0  0  0  0  0  0  0  0  0  0  0
   -4.1131   -0.8288    0.9522 H   0  0  0  0  0  0  0  0  0  0  0  0
   -3.0882    0.5202    1.4685 H   0  0  0  0  0  0  0  0  0  0  0  0
   -1.3481   -0.1628   -0.2383 H   0  0  0  0  0  0  0  0  0  0  0  0
   -2.3958   -1.4533   -0.7956 H   0  0  0  0  0  0  0  0  0  0  0  0
   -0.7119   -2.3825    0.6491 H   0  0  0  0  0  0  0  0  0  0  0  0
   -2.2916   -2.5928    1.3487 H   0  0  0  0  0  0  0  0  0  0  0  0
   -0.6156   -2.0086    3.0512 H   0  0  0  0  0  0  0  0  0  0  0  0
   -1.9542   -0.8885    2.9894 H   0  0  0  0  0  0  0  0  0  0  0  0
   -0.1337    0.4640    3.3383 H   0  0  0  0  0  0  0  0  0  0  0  0
   -0.4490    0.7202    1.6411 H   0  0  0  0  0  0  0  0  0  0  0  0
    1.9636    0.5064    2.3712 H   0  0  0  0  0  0  0  0  0  0  0  0
    1.6889   -1.1839    2.7616 H   0  0  0  0  0  0  0  0  0  0  0  0
    1.2431   -0.0010   -0.0324 H   0  0  0  0  0  0  0  0  0  0  0  0
    1.2668   -1.7144    0.4014 H   0  0  0  0  0  0  0  0  0  0  0  0
    3.6632   -1.4925    1.1128 H   0  0  0  0  0  0  0  0  0  0  0  0
    3.6291    0.2011    0.6165 H   0  0  0  0  0  0  0  0  0  0  0  0
    3.0780   -0.5051   -1.7322 H   0  0  0  0  0  0  0  0  0  0  0  0
    3.0613   -2.1834   -1.2221 H   0  0  0  0  0  0  0  0  0  0  0  0
    5.1640   -1.7172   -2.3176 H   0  0  0  0  0  0  0  0  0  0  0  0
    5.4455   -2.1102   -0.6300 H   0  0  0  0  0  0  0  0  0  0  0  0
    6.8980   -0.2934   -1.3584 H   0  0  0  0  0  0  0  0  0  0  0  0
    5.8318    0.2699   -0.0842 H   0  0  0  0  0  0  0  0  0  0  0  0
    4.4033    1.4331   -1.7512 H   0  0  0  0  0  0  0  0  0  0  0  0
    5.3653    0.7523   -3.0781 H   0  0  0  0  0  0  0  0  0  0  0  0
    6.0894    1.9160   -1.9555 H   0  0  0  0  0  0  0  0  0  0  0  0
  1  2  3  0
  2  3  1  0
  3  4  1  0
  4  5  1  0
  4  6  1  0
  4  7  1  0
  7  8  1  0
  8  9  1  0
  9 10  1  0
 10 11  1  0
 11 12  1  0
 12 13  1  0
 13 14  1  0
 14 15  1  0
 15 16  1  0
 16 17  1  0
 17 18  1  0
  1 19  1  0
  3 20  1  0
  3 21  1  0
  5 22  1  0
  5 23  1  0
  5 24  1  0
  6 25  1  0
  6 26  1  0
  6 27  1  0
  7 28  1  0
  7 29  1  0
  8 30  1  0
  8 31  1  0
  9 32  1  0
  9 33  1  0
 10 34  1  0
 10 35  1  0
 11 36  1  0
 11 37  1  0
 12 38  1  0
 12 39  1  0
 13 40  1  0
 13 41  1  0
 14 42  1  0
 14 43  1  0
 15 44  1  0
 15 45  1  0
 16 46  1  0
 16 47  1  0
 17 48  1  0
 17 49  1  0
 18 50  1  0
 18 51  1  0
 18 52  1  0
M  CHG  1   4   1
M  END
$$$$
