
     RDKit          3D

 59 64  0  0  0  0  0  0  0  0999 V2000
    3.3727    1.9672    2.1703 O   0  0  0  0  0  0  0  0  0  0  0  0
    3.2708    1.0084    1.4086 C   0  0  0  0  0  0  0  0  0  0  0  0
    4.4868    0.3351    0.8774 C   0  0  0  0  0  0  0  0  0  0  0  0
    5.6589    0.9878    0.8978 C   0  0  0  0  0  0  0  0  0  0  0  0
    6.8711    0.4028    0.4246 C   0  0  0  0  0  0  0  0  0  0  0  0
    7.1506   -0.8649   -0.0629 C   0  0  0  0  0  0  0  0  0  0  0  0
    8.5165   -1.0379   -0.4358 C   0  0  0  0  0  0  0  0  0  0  0  0
    9.2543    0.1017   -0.2229 C   0  0  0  0  0  0  0  0  0  0  0  0
    8.3066    1.3659    0.4207 S   0  0  0  0  0  0  0  0  0  0  0  0
    2.0453    0.4890    1.0110 N   0  0  0  0  0  0  0  0  0  0  0  0
    0.8402    1.0392    1.6206 C   0  0  0  0  0  0  0  0  0  0  0  0
   -0.2618   -0.0081    1.7499 C   0  0  0  0  0  0  0  0  0  0  0  0
   -0.6164   -0.7145    0.4058 C   0  0  0  0  0  0  0  0  0  0  0  0
    0.4585   -0.4076   -0.6675 C   0  0  0  0  0  0  0  0  0  0  0  0
    1.8649   -0.4681   -0.0780 C   0  0  0  0  0  0  0  0  0  0  0  0
   -0.5194   -2.1326    0.7322 O   0  0  0  0  0  0  0  0  0  0  0  0
   -1.1605   -3.0248   -0.0763 C   0  0  0  0  0  0  0  0  0  0  0  0
   -0.8578   -4.3710    0.1346 C   0  0  0  0  0  0  0  0  0  0  0  0
   -1.4441   -5.3523   -0.6672 C   0  0  0  0  0  0  0  0  0  0  0  0
   -2.3302   -4.9803   -1.6737 C   0  0  0  0  0  0  0  0  0  0  0  0
   -2.8842   -5.9249   -2.4440 F   0  0  0  0  0  0  0  0  0  0  0  0
   -2.6500   -3.6466   -1.8892 C   0  0  0  0  0  0  0  0  0  0  0  0
   -2.0674   -2.6742   -1.0735 C   0  0  0  0  0  0  0  0  0  0  0  0
   -2.3935   -1.2542   -1.2526 C   0  0  0  0  0  0  0  0  0  0  0  0
   -2.8882   -0.8676   -2.3075 O   0  0  0  0  0  0  0  0  0  0  0  0
   -2.0498   -0.3495   -0.0764 C   0  0  0  0  0  0  0  0  0  0  0  0
   -2.2686    1.1170   -0.4137 C   0  0  0  0  0  0  0  0  0  0  0  0
   -3.6609    1.2638    0.1012 C   0  0  0  0  0  0  0  0  0  0  0  0
   -4.5040    2.4368   -0.2289 C   0  0  0  0  0  0  0  0  0  0  0  0
   -5.8268    2.4705    0.2306 C   0  0  0  0  0  0  0  0  0  0  0  0
   -6.6460    3.5629   -0.0606 C   0  0  0  0  0  0  0  0  0  0  0  0
   -6.1480    4.6267   -0.8105 C   0  0  0  0  0  0  0  0  0  0  0  0
   -4.8314    4.6005   -1.2690 C   0  0  0  0  0  0  0  0  0  0  0  0
   -4.0079    3.5090   -0.9794 C   0  0  0  0  0  0  0  0  0  0  0  0
   -4.0515    0.3066    0.8821 N   0  0  0  0  0  0  0  0  0  0  0  0
   -3.0018   -0.6337    0.9633 O   0  0  0  0  0  0  0  0  0  0  0  0
    4.3931   -0.6798    0.5230 H   0  0  0  0  0  0  0  0  0  0  0  0
    5.6964    2.0057    1.2853 H   0  0  0  0  0  0  0  0  0  0  0  0
    6.4124   -1.6516   -0.1519 H   0  0  0  0  0  0  0  0  0  0  0  0
    8.9343   -1.9531   -0.8370 H   0  0  0  0  0  0  0  0  0  0  0  0
   10.3078    0.2547   -0.4125 H   0  0  0  0  0  0  0  0  0  0  0  0
    1.0696    1.4450    2.6123 H   0  0  0  0  0  0  0  0  0  0  0  0
    0.5151    1.8813    0.9996 H   0  0  0  0  0  0  0  0  0  0  0  0
   -1.1403    0.4714    2.1962 H   0  0  0  0  0  0  0  0  0  0  0  0
    0.0676   -0.7543    2.4864 H   0  0  0  0  0  0  0  0  0  0  0  0
    0.4079   -1.1246   -1.4947 H   0  0  0  0  0  0  0  0  0  0  0  0
    0.2997    0.5886   -1.0979 H   0  0  0  0  0  0  0  0  0  0  0  0
    2.5933   -0.2581   -0.8687 H   0  0  0  0  0  0  0  0  0  0  0  0
    2.0791   -1.4666    0.3198 H   0  0  0  0  0  0  0  0  0  0  0  0
   -0.1627   -4.6571    0.9203 H   0  0  0  0  0  0  0  0  0  0  0  0
   -1.2156   -6.4029   -0.5143 H   0  0  0  0  0  0  0  0  0  0  0  0
   -3.3517   -3.3788   -2.6736 H   0  0  0  0  0  0  0  0  0  0  0  0
   -1.6311    1.7933    0.1610 H   0  0  0  0  0  0  0  0  0  0  0  0
   -2.1799    1.3495   -1.4771 H   0  0  0  0  0  0  0  0  0  0  0  0
   -6.2294    1.6461    0.8163 H   0  0  0  0  0  0  0  0  0  0  0  0
   -7.6724    3.5811    0.2977 H   0  0  0  0  0  0  0  0  0  0  0  0
   -6.7869    5.4767   -1.0380 H   0  0  0  0  0  0  0  0  0  0  0  0
   -4.4461    5.4325   -1.8540 H   0  0  0  0  0  0  0  0  0  0  0  0
   -2.9875    3.5229   -1.3491 H   0  0  0  0  0  0  0  0  0  0  0  0
  1  2  2  0
  2  3  1  0
  3  4  2  3
  4  5  1  0
  5  6  2  0
  6  7  1  0
  7  8  2  0
  8  9  1  0
  2 10  1  0
 10 11  1  0
 11 12  1  0
 12 13  1  0
 13 14  1  0
 14 15  1  0
 13 16  1  0
 16 17  1  0
 17 18  2  0
 18 19  1  0
 19 20  2  0
 20 21  1  0
 20 22  1  0
 22 23  2  0
 23 24  1  0
 24 25  2  0
 24 26  1  0
 26 27  1  0
 27 28  1  0
 28 29  1  0
 29 30  2  0
 30 31  1  0
 31 32  2  0
 32 33  1  0
 33 34  2  0
 28 35  2  0
 35 36  1  0
  9  5  1  0
 15 10  1  0
 23 17  1  0
 36 26  1  0
 26 13  1  0
 34 29  1  0
  3 37  1  0
  4 38  1  0
  6 39  1  0
  7 40  1  0
  8 41  1  0
 11 42  1  0
 11 43  1  0
 12 44  1  0
 12 45  1  0
 14 46  1  0
 14 47  1  0
 15 48  1  0
 15 49  1  0
 18 50  1  0
 19 51  1  0
 22 52  1  0
 27 53  1  0
 27 54  1  0
 30 55  1  0
 31 56  1  0
 32 57  1  0
 33 58  1  0
 34 59  1  0
M  END
$$$$
