
     RDKit          3D

 39 40  0  0  0  0  0  0  0  0999 V2000
    0.2181    1.3679   -1.0637 O   0  0  0  0  0  0  0  0  0  0  0  0
   -0.6616    1.0153   -0.2796 C   0  0  0  0  0  0  0  0  0  0  0  0
   -2.0489    0.8859   -0.8100 C   0  0  0  0  0  0  0  0  0  0  0  0
   -3.0958    0.4287   -0.1074 C   0  0  0  0  0  0  0  0  0  0  0  0
   -4.4463    0.3083   -0.6753 C   0  0  0  0  0  0  0  0  0  0  0  0
   -5.2207   -0.8154   -0.3531 C   0  0  0  0  0  0  0  0  0  0  0  0
   -6.5188   -0.9545   -0.8535 C   0  0  0  0  0  0  0  0  0  0  0  0
   -7.0469    0.0401   -1.6690 C   0  0  0  0  0  0  0  0  0  0  0  0
   -8.3072   -0.0522   -2.1791 O   0  0  0  0  0  0  0  0  0  0  0  0
   -6.3015    1.1682   -1.9864 C   0  0  0  0  0  0  0  0  0  0  0  0
   -5.0044    1.3058   -1.4863 C   0  0  0  0  0  0  0  0  0  0  0  0
   -0.3858    0.6904    1.1661 C   0  0  0  0  0  0  0  0  0  0  0  0
    1.0068    1.0262    1.6394 C   0  0  0  0  0  0  0  0  0  0  0  0
    1.1870    1.8217    2.5616 O   0  0  0  0  0  0  0  0  0  0  0  0
    2.1487    0.2948    1.0163 C   0  0  0  0  0  0  0  0  0  0  0  0
    3.3928    0.4568    1.4906 C   0  0  0  0  0  0  0  0  0  0  0  0
    4.5742   -0.2122    0.9301 C   0  0  0  0  0  0  0  0  0  0  0  0
    4.5480   -1.5465    0.5016 C   0  0  0  0  0  0  0  0  0  0  0  0
    5.7019   -2.1513   -0.0030 C   0  0  0  0  0  0  0  0  0  0  0  0
    6.8856   -1.4279   -0.0722 C   0  0  0  0  0  0  0  0  0  0  0  0
    7.9864   -2.0561   -0.5739 O   0  0  0  0  0  0  0  0  0  0  0  0
    6.9392   -0.1089    0.3630 C   0  0  0  0  0  0  0  0  0  0  0  0
    5.7838    0.4942    0.8691 C   0  0  0  0  0  0  0  0  0  0  0  0
   -2.1458    1.1845   -1.8507 H   0  0  0  0  0  0  0  0  0  0  0  0
   -3.0004    0.0987    0.9230 H   0  0  0  0  0  0  0  0  0  0  0  0
   -4.8171   -1.6001    0.2833 H   0  0  0  0  0  0  0  0  0  0  0  0
   -7.0958   -1.8369   -0.5959 H   0  0  0  0  0  0  0  0  0  0  0  0
   -8.6997   -0.8930   -1.8924 H   0  0  0  0  0  0  0  0  0  0  0  0
   -6.7294    1.9424   -2.6170 H   0  0  0  0  0  0  0  0  0  0  0  0
   -4.4453    2.2059   -1.7312 H   0  0  0  0  0  0  0  0  0  0  0  0
   -1.0836    1.2624    1.7889 H   0  0  0  0  0  0  0  0  0  0  0  0
   -0.5568   -0.3772    1.3421 H   0  0  0  0  0  0  0  0  0  0  0  0
    1.9266   -0.3463    0.1715 H   0  0  0  0  0  0  0  0  0  0  0  0
    3.5801    1.1358    2.3209 H   0  0  0  0  0  0  0  0  0  0  0  0
    3.6371   -2.1353    0.5641 H   0  0  0  0  0  0  0  0  0  0  0  0
    5.6767   -3.1845   -0.3372 H   0  0  0  0  0  0  0  0  0  0  0  0
    8.7256   -1.4262   -0.5788 H   0  0  0  0  0  0  0  0  0  0  0  0
    7.8600    0.4637    0.3187 H   0  0  0  0  0  0  0  0  0  0  0  0
    5.8331    1.5270    1.2077 H   0  0  0  0  0  0  0  0  0  0  0  0
  1  2  2  0
  2  3  1  0
  3  4  2  3
  4  5  1  0
  5  6  2  0
  6  7  1  0
  7  8  2  0
  8  9  1  0
  8 10  1  0
 10 11  2  0
  2 12  1  0
 12 13  1  0
 13 14  2  0
 13 15  1  0
 15 16  2  3
 16 17  1  0
 17 18  2  0
 18 19  1  0
 19 20  2  0
 20 21  1  0
 20 22  1  0
 22 23  2  0
 11  5  1  0
 23 17  1  0
  3 24  1  0
  4 25  1  0
  6 26  1  0
  7 27  1  0
  9 28  1  0
 10 29  1  0
 11 30  1  0
 12 31  1  0
 12 32  1  0
 15 33  1  0
 16 34  1  0
 18 35  1  0
 19 36  1  0
 21 37  1  0
 22 38  1  0
 23 39  1  0
M  END
$$$$
