
     RDKit          3D

 61 65  0  0  0  0  0  0  0  0999 V2000
   -6.8512    3.7420   -2.6401 C   0  0  0  0  0  0  0  0  0  0  0  0
   -6.1789    2.5785   -1.9755 C   0  0  0  0  0  0  0  0  0  0  0  0
   -6.9150    1.6882   -1.1910 C   0  0  0  0  0  0  0  0  0  0  0  0
   -6.2924    0.5836   -0.6000 C   0  0  0  0  0  0  0  0  0  0  0  0
   -4.9204    0.3300   -0.7751 C   0  0  0  0  0  0  0  0  0  0  0  0
   -4.2817   -0.8381   -0.1344 C   0  0  0  0  0  0  0  0  0  0  0  0
   -2.9706   -0.8288    0.3087 C   0  0  0  0  0  0  0  0  0  0  0  0
   -2.4577   -1.9864    0.8990 C   0  0  0  0  0  0  0  0  0  0  0  0
   -1.0472   -1.9507    1.3522 C   0  0  0  0  0  0  0  0  0  0  0  0
   -0.8057   -2.1301    2.5374 O   0  0  0  0  0  0  0  0  0  0  0  0
   -0.1484   -1.7017    0.3318 N   0  0  0  0  0  0  0  0  0  0  0  0
    1.2500   -1.5624    0.4380 C   0  0  0  0  0  0  0  0  0  0  0  0
    1.9561   -1.6650    1.6401 C   0  0  0  0  0  0  0  0  0  0  0  0
    3.3453   -1.4984    1.6659 C   0  0  0  0  0  0  0  0  0  0  0  0
    4.0293   -1.2162    0.4825 C   0  0  0  0  0  0  0  0  0  0  0  0
    5.7907   -1.0113    0.5141 S   0  0  0  0  0  6  0  0  0  0  0  0
    6.3008   -1.0786   -0.8377 O   0  0  0  0  0  0  0  0  0  0  0  0
    6.3105   -1.8879    1.5437 O   0  0  0  0  0  0  0  0  0  0  0  0
    5.9607    0.5450    1.1159 N   0  0  0  0  0  0  0  0  0  0  0  0
    5.9122    1.6204    0.1487 C   0  0  0  0  0  0  0  0  0  0  0  0
    5.0727    1.6688   -0.9188 O   0  0  0  0  0  0  0  0  0  0  0  0
    5.2472    2.8566   -1.5986 N   0  0  0  0  0  0  0  0  0  0  0  0
    6.1970    3.5188   -0.9296 C   0  0  0  0  0  0  0  0  0  0  0  0
    6.6277    4.8537   -1.4080 C   0  0  0  0  0  0  0  0  0  0  0  0
    6.6619    2.7759    0.1937 C   0  0  0  0  0  0  0  0  0  0  0  0
    7.7035    3.1640    1.1713 C   0  0  0  0  0  0  0  0  0  0  0  0
    3.3415   -1.1299   -0.7285 C   0  0  0  0  0  0  0  0  0  0  0  0
    1.9548   -1.2993   -0.7454 C   0  0  0  0  0  0  0  0  0  0  0  0
   -3.2532   -3.1377    1.0645 C   0  0  0  0  0  0  0  0  0  0  0  0
   -2.8157   -4.3505    1.6553 C   0  0  0  0  0  0  0  0  0  0  0  0
   -3.6728   -5.4429    1.7694 C   0  0  0  0  0  0  0  0  0  0  0  0
   -4.9724   -5.3428    1.2942 C   0  0  0  0  0  0  0  0  0  0  0  0
   -5.4048   -4.1506    0.7092 C   0  0  0  0  0  0  0  0  0  0  0  0
   -4.5717   -3.0464    0.5855 C   0  0  0  0  0  0  0  0  0  0  0  0
   -5.0632   -1.9372    0.0053 N   0  0  0  0  0  0  0  0  0  0  0  0
   -4.2008    1.2249   -1.5868 C   0  0  0  0  0  0  0  0  0  0  0  0
   -4.8202    2.3304   -2.1816 C   0  0  0  0  0  0  0  0  0  0  0  0
   -7.2492    3.4385   -3.6127 H   0  0  0  0  0  0  0  0  0  0  0  0
   -6.1466    4.5678   -2.7887 H   0  0  0  0  0  0  0  0  0  0  0  0
   -7.6719    4.1223   -2.0230 H   0  0  0  0  0  0  0  0  0  0  0  0
   -7.9798    1.8433   -1.0323 H   0  0  0  0  0  0  0  0  0  0  0  0
   -6.8923   -0.0908    0.0095 H   0  0  0  0  0  0  0  0  0  0  0  0
   -2.3607    0.0657    0.2339 H   0  0  0  0  0  0  0  0  0  0  0  0
   -0.5281   -1.6283   -0.6044 H   0  0  0  0  0  0  0  0  0  0  0  0
    1.4537   -1.8768    2.5796 H   0  0  0  0  0  0  0  0  0  0  0  0
    3.8775   -1.5895    2.6102 H   0  0  0  0  0  0  0  0  0  0  0  0
    6.5966    0.6038    1.9052 H   0  0  0  0  0  0  0  0  0  0  0  0
    7.3046    4.7496   -2.2623 H   0  0  0  0  0  0  0  0  0  0  0  0
    7.1498    5.4108   -0.6230 H   0  0  0  0  0  0  0  0  0  0  0  0
    5.7665    5.4540   -1.7223 H   0  0  0  0  0  0  0  0  0  0  0  0
    7.2566    3.7131    2.0063 H   0  0  0  0  0  0  0  0  0  0  0  0
    8.4633    3.8013    0.7075 H   0  0  0  0  0  0  0  0  0  0  0  0
    8.2185    2.2850    1.5729 H   0  0  0  0  0  0  0  0  0  0  0  0
    3.8699   -0.9232   -1.6572 H   0  0  0  0  0  0  0  0  0  0  0  0
    1.4367   -1.2165   -1.6983 H   0  0  0  0  0  0  0  0  0  0  0  0
   -1.8019   -4.4470    2.0412 H   0  0  0  0  0  0  0  0  0  0  0  0
   -3.3256   -6.3635    2.2317 H   0  0  0  0  0  0  0  0  0  0  0  0
   -5.6536   -6.1856    1.3765 H   0  0  0  0  0  0  0  0  0  0  0  0
   -6.4254   -4.0805    0.3383 H   0  0  0  0  0  0  0  0  0  0  0  0
   -3.1447    1.0650   -1.7885 H   0  0  0  0  0  0  0  0  0  0  0  0
   -4.2317    2.9934   -2.8121 H   0  0  0  0  0  0  0  0  0  0  0  0
  1  2  1  0
  2  3  2  0
  3  4  1  0
  4  5  2  0
  5  6  1  0
  6  7  2  0
  7  8  1  0
  8  9  1  0
  9 10  2  0
  9 11  1  0
 11 12  1  0
 12 13  2  0
 13 14  1  0
 14 15  2  0
 15 16  1  0
 16 17  2  0
 16 18  2  0
 16 19  1  0
 19 20  1  0
 20 21  1  0
 21 22  1  0
 22 23  2  0
 23 24  1  0
 23 25  1  0
 25 26  1  0
 15 27  1  0
 27 28  2  0
  8 29  2  0
 29 30  1  0
 30 31  2  0
 31 32  1  0
 32 33  2  0
 33 34  1  0
 34 35  2  0
  5 36  1  0
 36 37  2  0
 37  2  1  0
 35  6  1  0
 28 12  1  0
 34 29  1  0
 25 20  2  0
  1 38  1  0
  1 39  1  0
  1 40  1  0
  3 41  1  0
  4 42  1  0
  7 43  1  0
 11 44  1  0
 13 45  1  0
 14 46  1  0
 19 47  1  0
 24 48  1  0
 24 49  1  0
 24 50  1  0
 26 51  1  0
 26 52  1  0
 26 53  1  0
 27 54  1  0
 28 55  1  0
 30 56  1  0
 31 57  1  0
 32 58  1  0
 33 59  1  0
 36 60  1  0
 37 61  1  0
M  END
$$$$
