
     RDKit          3D

 57 62  0  0  0  0  0  0  0  0999 V2000
    4.3434   -3.7066   -2.6214 C   0  0  0  0  0  0  0  0  0  0  0  0
    3.2139   -3.1057   -2.0013 O   0  0  0  0  0  0  0  0  0  0  0  0
    3.4442   -2.3557   -0.8795 C   0  0  0  0  0  0  0  0  0  0  0  0
    4.7070   -2.0829   -0.3208 C   0  0  0  0  0  0  0  0  0  0  0  0
    4.8277   -1.3007    0.8331 C   0  0  0  0  0  0  0  0  0  0  0  0
    3.6687   -0.8099    1.3951 C   0  0  0  0  0  0  0  0  0  0  0  0
    2.4040   -1.0638    0.8580 C   0  0  0  0  0  0  0  0  0  0  0  0
    2.2851   -1.8408   -0.2838 C   0  0  0  0  0  0  0  0  0  0  0  0
    1.3690   -0.3880    1.7107 C   0  0  0  0  0  0  0  0  0  0  0  0
    0.3047   -1.2821    2.2793 N   0  0  0  0  0  0  0  0  0  0  0  0
   -1.0335   -0.9301    1.6533 C   0  0  2  0  0  0  0  0  0  0  0  0
   -1.5135   -2.1203    0.8033 C   0  0  0  0  0  0  0  0  0  0  0  0
   -2.9852   -2.0845    0.4549 C   0  0  0  0  0  0  0  0  0  0  0  0
   -3.9547   -2.3240    1.4393 C   0  0  0  0  0  0  0  0  0  0  0  0
   -5.3125   -2.2996    1.1166 C   0  0  0  0  0  0  0  0  0  0  0  0
   -5.7148   -2.0385   -0.1920 C   0  0  0  0  0  0  0  0  0  0  0  0
   -4.7598   -1.8037   -1.1793 C   0  0  0  0  0  0  0  0  0  0  0  0
   -3.4012   -1.8280   -0.8585 C   0  0  0  0  0  0  0  0  0  0  0  0
   -0.7224    0.3004    0.8918 C   0  0  0  0  0  0  0  0  0  0  0  0
    0.6388    0.5914    0.8957 C   0  0  0  0  0  0  0  0  0  0  0  0
    0.8551    1.7165    0.1400 C   0  0  0  0  0  0  0  0  0  0  0  0
    1.9878    2.3586   -0.1374 O   0  0  0  0  0  0  0  0  0  0  0  0
   -0.4081    2.1903   -0.2638 N   0  0  0  0  0  0  0  0  0  0  0  0
   -0.6707    3.4173   -0.9524 C   0  0  0  0  0  0  0  0  0  0  0  0
    0.2478    3.9285   -1.8773 C   0  0  0  0  0  0  0  0  0  0  0  0
   -0.0206    5.1244   -2.5491 C   0  0  0  0  0  0  0  0  0  0  0  0
   -1.1988    5.8232   -2.2942 C   0  0  0  0  0  0  0  0  0  0  0  0
   -2.1100    5.3312   -1.3629 C   0  0  0  0  0  0  0  0  0  0  0  0
   -1.8488    4.1343   -0.6912 C   0  0  0  0  0  0  0  0  0  0  0  0
   -1.3744    1.2567    0.1624 C   0  0  0  0  0  0  0  0  0  0  0  0
   -2.6676    1.3095   -0.1489 O   0  0  0  0  0  0  0  0  0  0  0  0
    2.2322    0.2473    2.8401 C   0  0  0  0  0  0  0  0  0  0  0  0
    1.8472    0.8501    3.8300 O   0  0  0  0  0  0  0  0  0  0  0  0
    3.5658   -0.0273    2.5367 N   0  0  0  0  0  0  0  0  0  0  0  0
    3.9857   -4.2848   -3.4785 H   0  0  0  0  0  0  0  0  0  0  0  0
    4.8474   -4.3993   -1.9393 H   0  0  0  0  0  0  0  0  0  0  0  0
    5.0362   -2.9464   -2.9968 H   0  0  0  0  0  0  0  0  0  0  0  0
    5.6172   -2.4719   -0.7660 H   0  0  0  0  0  0  0  0  0  0  0  0
    5.8016   -1.0982    1.2647 H   0  0  0  0  0  0  0  0  0  0  0  0
    1.3126   -2.0509   -0.7163 H   0  0  0  0  0  0  0  0  0  0  0  0
    0.2176   -0.9969    3.2583 H   0  0  0  0  0  0  0  0  0  0  0  0
   -1.7398   -0.7097    2.4622 H   0  0  0  0  0  0  0  0  0  0  0  0
   -0.9240   -2.2043   -0.1181 H   0  0  0  0  0  0  0  0  0  0  0  0
   -1.3410   -3.0584    1.3498 H   0  0  0  0  0  0  0  0  0  0  0  0
   -3.6574   -2.5343    2.4642 H   0  0  0  0  0  0  0  0  0  0  0  0
   -6.0563   -2.4842    1.8870 H   0  0  0  0  0  0  0  0  0  0  0  0
   -6.7724   -2.0161   -0.4410 H   0  0  0  0  0  0  0  0  0  0  0  0
   -5.0720   -1.5980   -2.1994 H   0  0  0  0  0  0  0  0  0  0  0  0
   -2.6686   -1.6354   -1.6386 H   0  0  0  0  0  0  0  0  0  0  0  0
    2.7261    1.8476    0.2374 H   0  0  0  0  0  0  0  0  0  0  0  0
    1.1661    3.3992   -2.1168 H   0  0  0  0  0  0  0  0  0  0  0  0
    0.6937    5.5098   -3.2718 H   0  0  0  0  0  0  0  0  0  0  0  0
   -1.4005    6.7567   -2.8131 H   0  0  0  0  0  0  0  0  0  0  0  0
   -3.0177    5.8888   -1.1448 H   0  0  0  0  0  0  0  0  0  0  0  0
   -2.5528    3.8110    0.0732 H   0  0  0  0  0  0  0  0  0  0  0  0
   -2.7761    1.8373   -0.9592 H   0  0  0  0  0  0  0  0  0  0  0  0
    4.3287    0.2510    3.1353 H   0  0  0  0  0  0  0  0  0  0  0  0
  1  2  1  0
  2  3  1  0
  3  4  2  0
  4  5  1  0
  5  6  2  0
  6  7  1  0
  7  8  2  0
  7  9  1  0
  9 10  1  0
 10 11  1  0
 11 12  1  0
 12 13  1  0
 13 14  2  0
 14 15  1  0
 15 16  2  0
 16 17  1  0
 17 18  2  0
 11 19  1  0
 19 20  1  0
 20 21  2  0
 21 22  1  0
 21 23  1  0
 23 24  1  0
 24 25  2  0
 25 26  1  0
 26 27  2  0
 27 28  1  0
 28 29  2  0
 23 30  1  0
 30 31  1  0
  9 32  1  0
 32 33  2  0
 32 34  1  0
  8  3  1  0
 20  9  1  0
 29 24  1  0
 34  6  1  0
 18 13  1  0
 30 19  2  0
  1 35  1  0
  1 36  1  0
  1 37  1  0
  4 38  1  0
  5 39  1  0
  8 40  1  0
 10 41  1  0
 11 42  1  1
 12 43  1  0
 12 44  1  0
 14 45  1  0
 15 46  1  0
 16 47  1  0
 17 48  1  0
 18 49  1  0
 22 50  1  0
 25 51  1  0
 26 52  1  0
 27 53  1  0
 28 54  1  0
 29 55  1  0
 31 56  1  0
 34 57  1  0
M  END
$$$$
