
     RDKit          3D

 36 37  0  0  0  0  0  0  0  0999 V2000
   -1.5632    0.1827    3.2592 O   0  0  0  0  0  0  0  0  0  0  0  0
   -1.0374   -0.3360    2.2796 C   0  0  0  0  0  0  0  0  0  0  0  0
    0.2904   -1.0958    2.3671 C   0  0  0  0  0  0  0  0  0  0  0  0
    1.4238   -0.3217    1.9694 O   0  0  0  0  0  0  0  0  0  0  0  0
    1.5770   -0.1591    0.6348 C   0  0  0  0  0  0  0  0  0  0  0  0
    0.8156   -0.5852   -0.2206 O   0  0  0  0  0  0  0  0  0  0  0  0
    2.8040    0.6218    0.3300 C   0  0  0  0  0  0  0  0  0  0  0  0
    3.6200    1.1572    1.3351 C   0  0  0  0  0  0  0  0  0  0  0  0
    4.7604    1.8811    0.9864 C   0  0  0  0  0  0  0  0  0  0  0  0
    5.7613    2.5366    2.2230 Cl  0  0  0  0  0  0  0  0  0  0  0  0
    5.0995    2.0785   -0.3497 C   0  0  0  0  0  0  0  0  0  0  0  0
    4.2848    1.5456   -1.3449 C   0  0  0  0  0  0  0  0  0  0  0  0
    4.6955    1.7822   -2.9983 Cl  0  0  0  0  0  0  0  0  0  0  0  0
    3.1407    0.8202   -1.0154 C   0  0  0  0  0  0  0  0  0  0  0  0
   -1.5948   -0.3107    1.0157 N   0  0  0  0  0  0  0  0  0  0  0  0
   -2.7175    0.5620    0.6948 C   0  0  0  0  0  0  0  0  0  0  0  0
   -3.7857   -0.1527   -0.1376 C   0  0  0  0  0  0  0  0  0  0  0  0
   -3.2666   -0.6680   -1.3933 N   0  0  0  0  0  0  0  0  0  0  0  0
   -2.7136   -1.9132   -1.5769 C   0  0  0  0  0  0  0  0  0  0  0  0
   -2.5490   -2.7759   -0.5353 O   0  0  0  0  0  0  0  0  0  0  0  0
   -2.3302   -2.1754   -2.8292 C   0  0  0  0  0  0  0  0  0  0  0  0
   -2.6281   -0.8260   -3.8790 S   0  0  0  0  0  0  0  0  0  0  0  0
   -3.2927    0.1212   -2.5371 C   0  0  0  0  0  0  0  0  0  0  0  0
   -3.6868    1.2711   -2.6429 O   0  0  0  0  0  0  0  0  0  0  0  0
    0.2307   -2.0276    1.7906 H   0  0  0  0  0  0  0  0  0  0  0  0
    0.4410   -1.3879    3.4123 H   0  0  0  0  0  0  0  0  0  0  0  0
    3.3769    1.0198    2.3862 H   0  0  0  0  0  0  0  0  0  0  0  0
    5.9902    2.6432   -0.6127 H   0  0  0  0  0  0  0  0  0  0  0  0
    2.5137    0.4099   -1.8055 H   0  0  0  0  0  0  0  0  0  0  0  0
   -0.9438   -0.5025    0.2480 H   0  0  0  0  0  0  0  0  0  0  0  0
   -3.1707    0.9500    1.6125 H   0  0  0  0  0  0  0  0  0  0  0  0
   -2.3033    1.4126    0.1420 H   0  0  0  0  0  0  0  0  0  0  0  0
   -4.2368   -0.9752    0.4299 H   0  0  0  0  0  0  0  0  0  0  0  0
   -4.5914    0.5580   -0.3572 H   0  0  0  0  0  0  0  0  0  0  0  0
   -2.5456   -2.2462    0.2796 H   0  0  0  0  0  0  0  0  0  0  0  0
   -1.8684   -3.0946   -3.1605 H   0  0  0  0  0  0  0  0  0  0  0  0
  1  2  2  0
  2  3  1  0
  3  4  1  0
  4  5  1  0
  5  6  2  0
  5  7  1  0
  7  8  2  0
  8  9  1  0
  9 10  1  0
  9 11  2  0
 11 12  1  0
 12 13  1  0
 12 14  2  0
  2 15  1  0
 15 16  1  0
 16 17  1  0
 17 18  1  0
 18 19  1  0
 19 20  1  0
 19 21  2  0
 21 22  1  0
 22 23  1  0
 23 24  2  0
 14  7  1  0
 23 18  1  0
  3 25  1  0
  3 26  1  0
  8 27  1  0
 11 28  1  0
 14 29  1  0
 15 30  1  0
 16 31  1  0
 16 32  1  0
 17 33  1  0
 17 34  1  0
 20 35  1  0
 21 36  1  0
M  END
$$$$
