
     RDKit          3D

 24 24  0  0  0  0  0  0  0  0999 V2000
   -4.7152   -0.9948   -0.1335 C   0  0  0  0  0  0  0  0  0  0  0  0
   -3.4748   -0.2446   -0.2067 N   0  0  0  0  0  0  0  0  0  0  0  0
   -2.1977   -0.8021   -0.1853 C   0  0  0  0  0  0  0  0  0  0  0  0
   -1.9056   -2.4479   -0.1842 S   0  0  0  0  0  0  0  0  0  0  0  0
   -1.2630    0.2248   -0.2353 N   0  0  0  0  0  0  0  0  0  0  0  0
    0.1256    0.2374    0.0215 C   0  0  0  0  0  0  0  0  0  0  0  0
    0.7875   -0.6954    0.8183 C   0  0  0  0  0  0  0  0  0  0  0  0
    2.1652   -0.5894    1.0462 C   0  0  0  0  0  0  0  0  0  0  0  0
    2.9039    0.4559    0.4844 C   0  0  0  0  0  0  0  0  0  0  0  0
    4.3730    0.5823    0.7562 C   0  0  0  0  0  0  0  0  0  0  0  0
    2.2363    1.4150   -0.2807 C   0  0  0  0  0  0  0  0  0  0  0  0
    0.8601    1.3071   -0.5063 C   0  0  0  0  0  0  0  0  0  0  0  0
   -5.5442   -0.2977   -0.2782 H   0  0  0  0  0  0  0  0  0  0  0  0
   -4.7418   -1.7586   -0.9146 H   0  0  0  0  0  0  0  0  0  0  0  0
   -4.7955   -1.4613    0.8520 H   0  0  0  0  0  0  0  0  0  0  0  0
   -3.5242    0.6970    0.1584 H   0  0  0  0  0  0  0  0  0  0  0  0
   -1.6118    1.0477   -0.7087 H   0  0  0  0  0  0  0  0  0  0  0  0
    0.2580   -1.5027    1.3115 H   0  0  0  0  0  0  0  0  0  0  0  0
    2.6531   -1.3314    1.6747 H   0  0  0  0  0  0  0  0  0  0  0  0
    4.5366    1.1720    1.6635 H   0  0  0  0  0  0  0  0  0  0  0  0
    4.8844    1.0702   -0.0802 H   0  0  0  0  0  0  0  0  0  0  0  0
    4.8322   -0.4033    0.8866 H   0  0  0  0  0  0  0  0  0  0  0  0
    2.7818    2.2526   -0.7092 H   0  0  0  0  0  0  0  0  0  0  0  0
    0.3761    2.0674   -1.1136 H   0  0  0  0  0  0  0  0  0  0  0  0
  1  2  1  0
  2  3  1  0
  3  4  2  0
  3  5  1  0
  5  6  1  0
  6  7  2  0
  7  8  1  0
  8  9  2  0
  9 10  1  0
  9 11  1  0
 11 12  2  0
 12  6  1  0
  1 13  1  0
  1 14  1  0
  1 15  1  0
  2 16  1  0
  5 17  1  0
  7 18  1  0
  8 19  1  0
 10 20  1  0
 10 21  1  0
 10 22  1  0
 11 23  1  0
 12 24  1  0
M  END
$$$$
