
     RDKit          3D

 53 56  0  0  0  0  0  0  0  0999 V2000
   -7.6415    2.4473   -2.3067 C   0  0  0  0  0  0  0  0  0  0  0  0
   -6.4714    1.7822   -1.6447 C   0  0  0  0  0  0  0  0  0  0  0  0
   -6.0297    0.5302   -2.0792 C   0  0  0  0  0  0  0  0  0  0  0  0
   -4.9180   -0.0744   -1.4850 C   0  0  0  0  0  0  0  0  0  0  0  0
   -4.2283    0.5605   -0.4385 C   0  0  0  0  0  0  0  0  0  0  0  0
   -3.0943   -0.0938    0.1360 N   0  0  0  0  0  0  0  0  0  0  0  0
   -2.5210   -1.1208   -0.5484 N   0  0  0  0  0  0  0  0  0  0  0  0
   -1.3880   -1.3869    0.1028 C   0  0  0  0  0  0  0  0  0  0  0  0
   -0.3830   -2.3705   -0.2788 C   0  0  0  0  0  0  0  0  0  0  0  0
   -0.4495   -3.0568   -1.2950 O   0  0  0  0  0  0  0  0  0  0  0  0
    0.6749   -2.4524    0.6503 N   0  0  0  0  0  0  0  0  0  0  0  0
    1.7479   -3.4150    0.4006 C   0  0  0  0  0  0  0  0  0  0  0  0
    2.9219   -2.8044   -0.3664 C   0  0  0  0  0  0  0  0  0  0  0  0
    3.7720   -3.4995   -0.9183 O   0  0  0  0  0  0  0  0  0  0  0  0
    3.0239   -1.4321   -0.2807 N   0  0  0  0  0  0  0  0  0  0  0  0
    4.1354   -0.6955   -0.8494 C   0  0  0  0  0  0  0  0  0  0  0  0
    5.3927   -0.7730    0.0211 C   0  0  0  0  0  0  0  0  0  0  0  0
    6.4719    0.1419   -0.4800 C   0  0  0  0  0  0  0  0  0  0  0  0
    6.7440    1.4375   -0.0866 C   0  0  0  0  0  0  0  0  0  0  0  0
    7.8513    1.9951   -0.7888 C   0  0  0  0  0  0  0  0  0  0  0  0
    8.3890    1.1060   -1.6917 C   0  0  0  0  0  0  0  0  0  0  0  0
    7.5630   -0.3904   -1.6889 S   0  0  0  0  0  0  0  0  0  0  0  0
    0.8116   -1.6481    1.7925 N   0  0  0  0  0  0  0  0  0  0  0  0
   -0.1041   -0.7743    2.1118 C   0  0  0  0  0  0  0  0  0  0  0  0
    0.0958    0.0462    3.3542 C   0  0  0  0  0  0  0  0  0  0  0  0
   -1.2613   -0.6202    1.2657 C   0  0  0  0  0  0  0  0  0  0  0  0
   -2.4162    0.1412    1.3397 C   0  0  0  0  0  0  0  0  0  0  0  0
   -2.9285    0.9901    2.4465 C   0  0  0  0  0  0  0  0  0  0  0  0
   -4.6482    1.8317   -0.0330 C   0  0  0  0  0  0  0  0  0  0  0  0
   -5.7617    2.4347   -0.6319 C   0  0  0  0  0  0  0  0  0  0  0  0
   -8.1688    3.0999   -1.6029 H   0  0  0  0  0  0  0  0  0  0  0  0
   -7.3002    3.0458   -3.1569 H   0  0  0  0  0  0  0  0  0  0  0  0
   -8.3628    1.7045   -2.6630 H   0  0  0  0  0  0  0  0  0  0  0  0
   -6.5441    0.0128   -2.8864 H   0  0  0  0  0  0  0  0  0  0  0  0
   -4.6064   -1.0531   -1.8486 H   0  0  0  0  0  0  0  0  0  0  0  0
    2.1164   -3.7858    1.3630 H   0  0  0  0  0  0  0  0  0  0  0  0
    1.3618   -4.2594   -0.1791 H   0  0  0  0  0  0  0  0  0  0  0  0
    2.3902   -0.9722    0.3667 H   0  0  0  0  0  0  0  0  0  0  0  0
    4.3380   -1.0897   -1.8520 H   0  0  0  0  0  0  0  0  0  0  0  0
    3.8009    0.3422   -0.9593 H   0  0  0  0  0  0  0  0  0  0  0  0
    5.7583   -1.8060    0.0729 H   0  0  0  0  0  0  0  0  0  0  0  0
    5.1391   -0.4937    1.0523 H   0  0  0  0  0  0  0  0  0  0  0  0
    6.1763    1.9640    0.6712 H   0  0  0  0  0  0  0  0  0  0  0  0
    8.2356    2.9964   -0.6385 H   0  0  0  0  0  0  0  0  0  0  0  0
    9.2298    1.2598   -2.3540 H   0  0  0  0  0  0  0  0  0  0  0  0
   -0.5864   -0.3017    4.1343 H   0  0  0  0  0  0  0  0  0  0  0  0
    1.1219   -0.0607    3.7187 H   0  0  0  0  0  0  0  0  0  0  0  0
   -0.0898    1.1029    3.1452 H   0  0  0  0  0  0  0  0  0  0  0  0
   -4.0212    0.9827    2.4967 H   0  0  0  0  0  0  0  0  0  0  0  0
   -2.5717    2.0192    2.3440 H   0  0  0  0  0  0  0  0  0  0  0  0
   -2.5905    0.6137    3.4160 H   0  0  0  0  0  0  0  0  0  0  0  0
   -4.1126    2.4128    0.7073 H   0  0  0  0  0  0  0  0  0  0  0  0
   -6.0644    3.4290   -0.3090 H   0  0  0  0  0  0  0  0  0  0  0  0
  1  2  1  0
  2  3  2  0
  3  4  1  0
  4  5  2  0
  5  6  1  0
  6  7  1  0
  7  8  2  0
  8  9  1  0
  9 10  2  0
  9 11  1  0
 11 12  1  0
 12 13  1  0
 13 14  2  0
 13 15  1  0
 15 16  1  0
 16 17  1  0
 17 18  1  0
 18 19  2  0
 19 20  1  0
 20 21  2  0
 21 22  1  0
 11 23  1  0
 23 24  2  0
 24 25  1  0
 24 26  1  0
 26 27  2  0
 27 28  1  0
  5 29  1  0
 29 30  2  0
 30  2  1  0
 27  6  1  0
 26  8  1  0
 22 18  1  0
  1 31  1  0
  1 32  1  0
  1 33  1  0
  3 34  1  0
  4 35  1  0
 12 36  1  0
 12 37  1  0
 15 38  1  0
 16 39  1  0
 16 40  1  0
 17 41  1  0
 17 42  1  0
 19 43  1  0
 20 44  1  0
 21 45  1  0
 25 46  1  0
 25 47  1  0
 25 48  1  0
 28 49  1  0
 28 50  1  0
 28 51  1  0
 29 52  1  0
 30 53  1  0
M  END
$$$$
