
     RDKit          3D

 60 63  0  0  0  0  0  0  0  0999 V2000
   -3.8814    5.7835    2.1531 C   0  0  0  0  0  0  0  0  0  0  0  0
   -3.1915    4.6844    2.7342 O   0  0  0  0  0  0  0  0  0  0  0  0
   -2.7548    3.7073    1.8839 C   0  0  0  0  0  0  0  0  0  0  0  0
   -2.8682    3.7176    0.4938 C   0  0  0  0  0  0  0  0  0  0  0  0
   -2.3728    2.6487   -0.2624 C   0  0  0  0  0  0  0  0  0  0  0  0
   -1.7709    1.5569    0.3745 C   0  0  0  0  0  0  0  0  0  0  0  0
   -1.2727    0.4744   -0.3917 N   0  0  0  0  0  0  0  0  0  0  0  0
   -1.4710   -0.8853   -0.1810 C   0  0  0  0  0  0  0  0  0  0  0  0
   -2.4000   -1.4955    0.8167 C   0  0  0  0  0  0  0  0  0  0  0  0
   -3.8432   -1.2277    0.5014 C   0  0  0  0  0  0  0  0  0  0  0  0
   -4.7574   -0.4490    1.1921 C   0  0  0  0  0  0  0  0  0  0  0  0
   -5.9810   -0.4865    0.4882 C   0  0  0  0  0  0  0  0  0  0  0  0
   -5.7955   -1.2955   -0.6090 C   0  0  0  0  0  0  0  0  0  0  0  0
   -4.5058   -1.7623   -0.5851 N   0  0  0  0  0  0  0  0  0  0  0  0
   -3.9544   -2.6653   -1.5749 C   0  0  0  0  0  0  0  0  0  0  0  0
   -0.8269   -1.5731   -1.1080 N   0  0  0  0  0  0  0  0  0  0  0  0
   -0.2221   -0.6910   -1.9579 N   0  0  0  0  0  0  0  0  0  0  0  0
   -0.4845    0.5205   -1.5278 C   0  0  0  0  0  0  0  0  0  0  0  0
    0.2809    1.9313   -2.1915 S   0  0  0  0  0  0  0  0  0  0  0  0
    1.4958    2.3061   -0.8912 C   0  0  0  0  0  0  0  0  0  0  0  0
    2.2782    1.0842   -0.4377 C   0  0  0  0  0  0  0  0  0  0  0  0
    2.3916    0.7999    0.7538 O   0  0  0  0  0  0  0  0  0  0  0  0
    2.8780    0.3642   -1.4505 N   0  0  0  0  0  0  0  0  0  0  0  0
    3.5464   -0.8960   -1.1736 C   0  0  0  0  0  0  0  0  0  0  0  0
    4.9510   -0.6909   -0.6008 C   0  0  0  0  0  0  0  0  0  0  0  0
    5.6692   -2.0005   -0.3843 C   0  0  0  0  0  0  0  0  0  0  0  0
    6.5799   -2.4816   -1.3362 C   0  0  0  0  0  0  0  0  0  0  0  0
    7.2335   -3.7001   -1.1365 C   0  0  0  0  0  0  0  0  0  0  0  0
    6.9818   -4.4480    0.0127 C   0  0  0  0  0  0  0  0  0  0  0  0
    6.0735   -3.9805    0.9623 C   0  0  0  0  0  0  0  0  0  0  0  0
    5.4188   -2.7631    0.7655 C   0  0  0  0  0  0  0  0  0  0  0  0
   -1.6491    1.5447    1.7663 C   0  0  0  0  0  0  0  0  0  0  0  0
   -2.1393    2.6205    2.5113 C   0  0  0  0  0  0  0  0  0  0  0  0
   -4.1882    6.4494    2.9642 H   0  0  0  0  0  0  0  0  0  0  0  0
   -3.2260    6.3511    1.4858 H   0  0  0  0  0  0  0  0  0  0  0  0
   -4.7863    5.4546    1.6327 H   0  0  0  0  0  0  0  0  0  0  0  0
   -3.3428    4.5382   -0.0345 H   0  0  0  0  0  0  0  0  0  0  0  0
   -2.5083    2.6724   -1.3424 H   0  0  0  0  0  0  0  0  0  0  0  0
   -2.1642   -1.1597    1.8305 H   0  0  0  0  0  0  0  0  0  0  0  0
   -2.2370   -2.5806    0.8355 H   0  0  0  0  0  0  0  0  0  0  0  0
   -4.5586    0.0995    2.1033 H   0  0  0  0  0  0  0  0  0  0  0  0
   -6.8999    0.0232    0.7500 H   0  0  0  0  0  0  0  0  0  0  0  0
   -6.4795   -1.5789   -1.3978 H   0  0  0  0  0  0  0  0  0  0  0  0
   -3.3646   -2.0777   -2.2828 H   0  0  0  0  0  0  0  0  0  0  0  0
   -4.7735   -3.1666   -2.1012 H   0  0  0  0  0  0  0  0  0  0  0  0
   -3.3380   -3.4154   -1.0743 H   0  0  0  0  0  0  0  0  0  0  0  0
    0.9802    2.7374   -0.0274 H   0  0  0  0  0  0  0  0  0  0  0  0
    2.2027    3.0535   -1.2664 H   0  0  0  0  0  0  0  0  0  0  0  0
    2.4519    0.4568   -2.3679 H   0  0  0  0  0  0  0  0  0  0  0  0
    3.5956   -1.4446   -2.1207 H   0  0  0  0  0  0  0  0  0  0  0  0
    2.9224   -1.4786   -0.4861 H   0  0  0  0  0  0  0  0  0  0  0  0
    5.5365   -0.0570   -1.2788 H   0  0  0  0  0  0  0  0  0  0  0  0
    4.9079   -0.1439    0.3487 H   0  0  0  0  0  0  0  0  0  0  0  0
    6.7880   -1.9094   -2.2396 H   0  0  0  0  0  0  0  0  0  0  0  0
    7.9398   -4.0650   -1.8786 H   0  0  0  0  0  0  0  0  0  0  0  0
    7.4917   -5.3957    0.1682 H   0  0  0  0  0  0  0  0  0  0  0  0
    5.8749   -4.5630    1.8598 H   0  0  0  0  0  0  0  0  0  0  0  0
    4.7087   -2.4124    1.5137 H   0  0  0  0  0  0  0  0  0  0  0  0
   -1.1357    0.7427    2.2913 H   0  0  0  0  0  0  0  0  0  0  0  0
   -2.0338    2.6172    3.5947 H   0  0  0  0  0  0  0  0  0  0  0  0
  1  2  1  0
  2  3  1  0
  3  4  2  0
  4  5  1  0
  5  6  2  0
  6  7  1  0
  7  8  1  0
  8  9  1  0
  9 10  1  0
 10 11  2  0
 11 12  1  0
 12 13  2  0
 13 14  1  0
 14 15  1  0
  8 16  2  0
 16 17  1  0
 17 18  2  0
 18 19  1  0
 19 20  1  0
 20 21  1  0
 21 22  2  0
 21 23  1  0
 23 24  1  0
 24 25  1  0
 25 26  1  0
 26 27  2  0
 27 28  1  0
 28 29  2  0
 29 30  1  0
 30 31  2  0
  6 32  1  0
 32 33  2  0
 33  3  1  0
 18  7  1  0
 31 26  1  0
 14 10  1  0
  1 34  1  0
  1 35  1  0
  1 36  1  0
  4 37  1  0
  5 38  1  0
  9 39  1  0
  9 40  1  0
 11 41  1  0
 12 42  1  0
 13 43  1  0
 15 44  1  0
 15 45  1  0
 15 46  1  0
 20 47  1  0
 20 48  1  0
 23 49  1  0
 24 50  1  0
 24 51  1  0
 25 52  1  0
 25 53  1  0
 27 54  1  0
 28 55  1  0
 29 56  1  0
 30 57  1  0
 31 58  1  0
 32 59  1  0
 33 60  1  0
M  END
$$$$
