
     RDKit          3D

 47 50  0  0  0  0  0  0  0  0999 V2000
   -2.1753   -3.1374    0.6721 C   0  0  0  0  0  0  0  0  0  0  0  0
   -1.3748   -1.8664    0.6487 C   0  0  0  0  0  0  0  0  0  0  0  0
   -0.0836   -1.9458    0.8143 N   0  0  0  0  0  0  0  0  0  0  0  0
    0.7133   -0.7945    0.7975 N   0  0  0  0  0  0  0  0  0  0  0  0
    2.1475   -1.0005    0.9023 C   0  0  0  0  0  0  0  0  0  0  0  0
    2.8024   -1.0599   -0.4794 C   0  0  0  0  0  0  0  0  0  0  0  0
    2.1886   -1.0236   -1.5426 O   0  0  0  0  0  0  0  0  0  0  0  0
    4.1790   -1.1722   -0.4256 N   0  0  0  0  0  0  0  0  0  0  0  0
    4.9413   -1.3402   -1.6400 C   0  0  0  0  0  0  0  0  0  0  0  0
    6.3934   -1.2697   -1.2970 C   0  0  0  0  0  0  0  0  0  0  0  0
    7.2031   -0.1517   -1.2284 C   0  0  0  0  0  0  0  0  0  0  0  0
    8.5427   -0.4739   -0.8643 C   0  0  0  0  0  0  0  0  0  0  0  0
    8.7115   -1.8259   -0.6644 C   0  0  0  0  0  0  0  0  0  0  0  0
    7.2619   -2.6978   -0.9136 S   0  0  0  0  0  0  0  0  0  0  0  0
    0.2436    0.5217    0.6205 C   0  0  0  0  0  0  0  0  0  0  0  0
    0.9774    1.5086    0.6294 O   0  0  0  0  0  0  0  0  0  0  0  0
   -1.2019    0.5822    0.4496 C   0  0  0  0  0  0  0  0  0  0  0  0
   -1.9324    1.6820    0.2548 N   0  0  0  0  0  0  0  0  0  0  0  0
   -3.2227    1.2504    0.2275 N   0  0  0  0  0  0  0  0  0  0  0  0
   -4.2680    2.2257    0.2430 C   0  0  0  0  0  0  0  0  0  0  0  0
   -3.9565    3.5576   -0.0830 C   0  0  0  0  0  0  0  0  0  0  0  0
   -4.9458    4.5437   -0.0737 C   0  0  0  0  0  0  0  0  0  0  0  0
   -6.2519    4.2164    0.2795 C   0  0  0  0  0  0  0  0  0  0  0  0
   -6.5672    2.9058    0.6301 C   0  0  0  0  0  0  0  0  0  0  0  0
   -5.5804    1.9134    0.6188 C   0  0  0  0  0  0  0  0  0  0  0  0
   -3.2820   -0.1487    0.2031 C   0  0  0  0  0  0  0  0  0  0  0  0
   -4.5020   -0.9384   -0.1050 C   0  0  0  0  0  0  0  0  0  0  0  0
   -1.9882   -0.5750    0.4542 C   0  0  0  0  0  0  0  0  0  0  0  0
   -2.5022   -3.3815   -0.3421 H   0  0  0  0  0  0  0  0  0  0  0  0
   -3.0456   -3.0258    1.3241 H   0  0  0  0  0  0  0  0  0  0  0  0
   -1.5644   -3.9642    1.0471 H   0  0  0  0  0  0  0  0  0  0  0  0
    2.5978   -0.1800    1.4719 H   0  0  0  0  0  0  0  0  0  0  0  0
    2.3372   -1.9423    1.4287 H   0  0  0  0  0  0  0  0  0  0  0  0
    4.6261   -1.4026    0.4519 H   0  0  0  0  0  0  0  0  0  0  0  0
    4.6687   -2.3005   -2.0922 H   0  0  0  0  0  0  0  0  0  0  0  0
    4.6664   -0.5489   -2.3461 H   0  0  0  0  0  0  0  0  0  0  0  0
    6.8488    0.8528   -1.4309 H   0  0  0  0  0  0  0  0  0  0  0  0
    9.3408    0.2503   -0.7561 H   0  0  0  0  0  0  0  0  0  0  0  0
    9.6173   -2.3463   -0.3840 H   0  0  0  0  0  0  0  0  0  0  0  0
   -2.9423    3.8426   -0.3619 H   0  0  0  0  0  0  0  0  0  0  0  0
   -4.6917    5.5671   -0.3404 H   0  0  0  0  0  0  0  0  0  0  0  0
   -7.0204    4.9852    0.2919 H   0  0  0  0  0  0  0  0  0  0  0  0
   -7.5827    2.6571    0.9289 H   0  0  0  0  0  0  0  0  0  0  0  0
   -5.8687    0.9254    0.9562 H   0  0  0  0  0  0  0  0  0  0  0  0
   -5.0397   -1.1964    0.8121 H   0  0  0  0  0  0  0  0  0  0  0  0
   -5.1729   -0.4078   -0.7868 H   0  0  0  0  0  0  0  0  0  0  0  0
   -4.2452   -1.8702   -0.6163 H   0  0  0  0  0  0  0  0  0  0  0  0
  1  2  1  0
  2  3  2  0
  3  4  1  0
  4  5  1  0
  5  6  1  0
  6  7  2  0
  6  8  1  0
  8  9  1  0
  9 10  1  0
 10 11  2  0
 11 12  1  0
 12 13  2  0
 13 14  1  0
  4 15  1  0
 15 16  2  0
 15 17  1  0
 17 18  2  0
 18 19  1  0
 19 20  1  0
 20 21  2  0
 21 22  1  0
 22 23  2  0
 23 24  1  0
 24 25  2  0
 19 26  1  0
 26 27  1  0
 26 28  2  0
 28  2  1  0
 14 10  1  0
 28 17  1  0
 25 20  1  0
  1 29  1  0
  1 30  1  0
  1 31  1  0
  5 32  1  0
  5 33  1  0
  8 34  1  0
  9 35  1  0
  9 36  1  0
 11 37  1  0
 12 38  1  0
 13 39  1  0
 21 40  1  0
 22 41  1  0
 23 42  1  0
 24 43  1  0
 25 44  1  0
 27 45  1  0
 27 46  1  0
 27 47  1  0
M  END
$$$$
