
     RDKit          3D

 49 52  0  0  0  0  0  0  0  0999 V2000
    3.0244    1.4689    3.2464 C   0  0  0  0  0  0  0  0  0  0  0  0
    3.0153   -0.0202    3.0019 C   0  0  0  0  0  0  0  0  0  0  0  0
    3.0403   -0.8700    4.1254 C   0  0  0  0  0  0  0  0  0  0  0  0
    3.0100   -2.2540    3.9665 C   0  0  0  0  0  0  0  0  0  0  0  0
    3.0412   -3.2751    5.3509 Cl  0  0  0  0  0  0  0  0  0  0  0  0
    2.9458   -2.8111    2.6922 C   0  0  0  0  0  0  0  0  0  0  0  0
    2.9282   -1.9791    1.5677 C   0  0  0  0  0  0  0  0  0  0  0  0
    2.9644   -0.5832    1.7016 C   0  0  0  0  0  0  0  0  0  0  0  0
    2.9723    0.2850    0.5823 N   0  0  0  0  0  0  0  0  0  0  0  0
    2.9579   -0.0485   -0.7661 C   0  0  0  0  0  0  0  0  0  0  0  0
    2.8399   -1.1799   -1.2317 O   0  0  0  0  0  0  0  0  0  0  0  0
    3.1031    1.1660   -1.6825 C   0  0  0  0  0  0  0  0  0  0  0  0
    1.7137    1.2560   -2.8513 S   0  0  0  0  0  0  0  0  0  0  0  0
    0.4079    1.1967   -1.7219 C   0  0  0  0  0  0  0  0  0  0  0  0
    0.2277    2.0370   -0.7326 N   0  0  0  0  0  0  0  0  0  0  0  0
   -0.8940    1.6304   -0.0486 N   0  0  0  0  0  0  0  0  0  0  0  0
   -1.3671    0.5396   -0.6232 C   0  0  0  0  0  0  0  0  0  0  0  0
   -2.5688   -0.2641   -0.2189 C   0  0  0  0  0  0  0  0  0  0  0  0
   -3.4616    0.4337    0.7694 C   0  0  0  0  0  0  0  0  0  0  0  0
   -3.2241    0.6965    2.1035 C   0  0  0  0  0  0  0  0  0  0  0  0
   -4.3160    1.3665    2.7293 C   0  0  0  0  0  0  0  0  0  0  0  0
   -5.3558    1.5828    1.8565 C   0  0  0  0  0  0  0  0  0  0  0  0
   -5.0037    1.0092    0.2841 S   0  0  0  0  0  0  0  0  0  0  0  0
   -0.5386    0.2106   -1.6810 N   0  0  0  0  0  0  0  0  0  0  0  0
   -0.6020   -0.9902   -2.4939 C   0  0  0  0  0  0  0  0  0  0  0  0
   -1.5515   -0.8286   -3.6235 C   0  0  0  0  0  0  0  0  0  0  0  0
   -1.6402    0.0449   -4.6890 C   0  0  0  0  0  0  0  0  0  0  0  0
   -2.7794   -0.3477   -5.4358 C   0  0  0  0  0  0  0  0  0  0  0  0
   -3.3037   -1.4376   -4.7854 C   0  0  0  0  0  0  0  0  0  0  0  0
   -2.5688   -1.7355   -3.6824 O   0  0  0  0  0  0  0  0  0  0  0  0
    2.0498    1.9018    2.9719 H   0  0  0  0  0  0  0  0  0  0  0  0
    3.8210    1.9505    2.6677 H   0  0  0  0  0  0  0  0  0  0  0  0
    3.2093    1.7068    4.3049 H   0  0  0  0  0  0  0  0  0  0  0  0
    3.0836   -0.4478    5.1324 H   0  0  0  0  0  0  0  0  0  0  0  0
    2.9103   -3.8898    2.5575 H   0  0  0  0  0  0  0  0  0  0  0  0
    2.8697   -2.4651    0.5938 H   0  0  0  0  0  0  0  0  0  0  0  0
    2.9229    1.2760    0.7994 H   0  0  0  0  0  0  0  0  0  0  0  0
    3.1697    2.1020   -1.1187 H   0  0  0  0  0  0  0  0  0  0  0  0
    4.0369    1.0493   -2.2434 H   0  0  0  0  0  0  0  0  0  0  0  0
   -2.2271   -1.2059    0.2303 H   0  0  0  0  0  0  0  0  0  0  0  0
   -3.1406   -0.5344   -1.1176 H   0  0  0  0  0  0  0  0  0  0  0  0
   -2.2997    0.4350    2.6041 H   0  0  0  0  0  0  0  0  0  0  0  0
   -4.3337    1.6755    3.7659 H   0  0  0  0  0  0  0  0  0  0  0  0
   -6.3017    2.0674    2.0600 H   0  0  0  0  0  0  0  0  0  0  0  0
   -0.9020   -1.8171   -1.8409 H   0  0  0  0  0  0  0  0  0  0  0  0
    0.3983   -1.2363   -2.8630 H   0  0  0  0  0  0  0  0  0  0  0  0
   -0.9662    0.8632   -4.9036 H   0  0  0  0  0  0  0  0  0  0  0  0
   -3.1626    0.1026   -6.3417 H   0  0  0  0  0  0  0  0  0  0  0  0
   -4.1549   -2.0850   -4.9690 H   0  0  0  0  0  0  0  0  0  0  0  0
  1  2  1  0
  2  3  2  0
  3  4  1  0
  4  5  1  0
  4  6  2  0
  6  7  1  0
  7  8  2  0
  8  9  1  0
  9 10  1  0
 10 11  2  0
 10 12  1  0
 12 13  1  0
 13 14  1  0
 14 15  2  0
 15 16  1  0
 16 17  2  0
 17 18  1  0
 18 19  1  0
 19 20  2  0
 20 21  1  0
 21 22  2  0
 22 23  1  0
 17 24  1  0
 24 25  1  0
 25 26  1  0
 26 27  2  0
 27 28  1  0
 28 29  2  0
 29 30  1  0
  8  2  1  0
 24 14  1  0
 30 26  1  0
 23 19  1  0
  1 31  1  0
  1 32  1  0
  1 33  1  0
  3 34  1  0
  6 35  1  0
  7 36  1  0
  9 37  1  0
 12 38  1  0
 12 39  1  0
 18 40  1  0
 18 41  1  0
 20 42  1  0
 21 43  1  0
 22 44  1  0
 25 45  1  0
 25 46  1  0
 27 47  1  0
 28 48  1  0
 29 49  1  0
M  END
$$$$
