
     RDKit          3D

 53 54  0  0  0  0  0  0  0  0999 V2000
   -3.7227   -0.5943    2.4878 C   0  0  0  0  0  0  0  0  0  0  0  0
   -4.8155   -0.1956    1.5094 C   0  0  0  0  0  0  0  0  0  0  0  0
   -5.0481   -1.3074    0.5525 N   0  0  0  0  0  0  0  0  0  0  0  0
   -6.1000   -2.2694    0.9792 C   0  0  0  0  0  0  0  0  0  0  0  0
   -7.5136   -1.7782    0.7136 C   0  0  0  0  0  0  0  0  0  0  0  0
   -5.0231   -0.9159   -1.1048 S   0  0  0  0  0  6  0  0  0  0  0  0
   -5.2245   -2.1285   -1.8685 O   0  0  0  0  0  0  0  0  0  0  0  0
   -5.8639    0.2471   -1.2962 O   0  0  0  0  0  0  0  0  0  0  0  0
   -3.3301   -0.4288   -1.3520 C   0  0  0  0  0  0  0  0  0  0  0  0
   -2.3245   -1.3911   -1.2180 C   0  0  0  0  0  0  0  0  0  0  0  0
   -0.9895   -1.0262   -1.4105 C   0  0  0  0  0  0  0  0  0  0  0  0
   -0.6613    0.2968   -1.7439 C   0  0  0  0  0  0  0  0  0  0  0  0
    0.7436    0.7395   -1.9552 C   0  0  0  0  0  0  0  0  0  0  0  0
    1.0642    1.8967   -2.1784 O   0  0  0  0  0  0  0  0  0  0  0  0
    1.5988   -0.3103   -1.8750 O   0  0  0  0  0  0  0  0  0  0  0  0
    2.9708    0.0608   -1.9921 C   0  0  0  0  0  0  0  0  0  0  0  0
    3.4873    0.7986   -0.7522 C   0  0  0  0  0  0  0  0  0  0  0  0
    3.0650    0.5720    0.3817 O   0  0  0  0  0  0  0  0  0  0  0  0
    4.5026    1.6961   -1.0011 N   0  0  0  0  0  0  0  0  0  0  0  0
    4.9853    2.6290    0.0085 C   0  0  0  0  0  0  0  0  0  0  0  0
    5.4327    2.0159    1.3469 C   0  0  0  0  0  0  0  0  0  0  0  0
    6.3401    0.8939    1.1963 N   0  0  0  0  0  0  0  0  0  0  0  0
    6.0495   -0.4166    1.4944 C   0  0  0  0  0  0  0  0  0  0  0  0
    4.8094   -0.8075    1.9039 O   0  0  0  0  0  0  0  0  0  0  0  0
    7.0742   -1.2607    1.3453 C   0  0  0  0  0  0  0  0  0  0  0  0
    8.4980   -0.4425    0.7854 S   0  0  0  0  0  0  0  0  0  0  0  0
    7.6476    1.1116    0.7810 C   0  0  0  0  0  0  0  0  0  0  0  0
    8.1642    2.1695    0.4585 O   0  0  0  0  0  0  0  0  0  0  0  0
   -1.6824    1.2504   -1.8823 C   0  0  0  0  0  0  0  0  0  0  0  0
   -3.0186    0.8899   -1.6908 C   0  0  0  0  0  0  0  0  0  0  0  0
   -3.5267    0.2213    3.1908 H   0  0  0  0  0  0  0  0  0  0  0  0
   -2.7897   -0.8240    1.9629 H   0  0  0  0  0  0  0  0  0  0  0  0
   -4.0075   -1.4794    3.0653 H   0  0  0  0  0  0  0  0  0  0  0  0
   -4.5036    0.7169    0.9920 H   0  0  0  0  0  0  0  0  0  0  0  0
   -5.7331    0.0510    2.0530 H   0  0  0  0  0  0  0  0  0  0  0  0
   -5.9316   -3.2269    0.4734 H   0  0  0  0  0  0  0  0  0  0  0  0
   -5.9848   -2.4732    2.0502 H   0  0  0  0  0  0  0  0  0  0  0  0
   -7.7164   -1.6900   -0.3579 H   0  0  0  0  0  0  0  0  0  0  0  0
   -8.2385   -2.4872    1.1265 H   0  0  0  0  0  0  0  0  0  0  0  0
   -7.6978   -0.8023    1.1722 H   0  0  0  0  0  0  0  0  0  0  0  0
   -2.5769   -2.4188   -0.9631 H   0  0  0  0  0  0  0  0  0  0  0  0
   -0.2171   -1.7834   -1.2953 H   0  0  0  0  0  0  0  0  0  0  0  0
    3.1323    0.6469   -2.9044 H   0  0  0  0  0  0  0  0  0  0  0  0
    3.5550   -0.8606   -2.0884 H   0  0  0  0  0  0  0  0  0  0  0  0
    4.6379    1.9827   -1.9637 H   0  0  0  0  0  0  0  0  0  0  0  0
    5.8222    3.1644   -0.4531 H   0  0  0  0  0  0  0  0  0  0  0  0
    4.1896    3.3599    0.1908 H   0  0  0  0  0  0  0  0  0  0  0  0
    4.5727    1.7347    1.9617 H   0  0  0  0  0  0  0  0  0  0  0  0
    5.9590    2.7944    1.9144 H   0  0  0  0  0  0  0  0  0  0  0  0
    4.1449   -0.2140    1.4937 H   0  0  0  0  0  0  0  0  0  0  0  0
    7.0360   -2.3238    1.5350 H   0  0  0  0  0  0  0  0  0  0  0  0
   -1.4398    2.2797   -2.1431 H   0  0  0  0  0  0  0  0  0  0  0  0
   -3.8011    1.6369   -1.8075 H   0  0  0  0  0  0  0  0  0  0  0  0
  1  2  1  0
  2  3  1  0
  3  4  1  0
  4  5  1  0
  3  6  1  0
  6  7  2  0
  6  8  2  0
  6  9  1  0
  9 10  2  0
 10 11  1  0
 11 12  2  0
 12 13  1  0
 13 14  2  0
 13 15  1  0
 15 16  1  0
 16 17  1  0
 17 18  2  0
 17 19  1  0
 19 20  1  0
 20 21  1  0
 21 22  1  0
 22 23  1  0
 23 24  1  0
 23 25  2  0
 25 26  1  0
 26 27  1  0
 27 28  2  0
 12 29  1  0
 29 30  2  0
 30  9  1  0
 27 22  1  0
  1 31  1  0
  1 32  1  0
  1 33  1  0
  2 34  1  0
  2 35  1  0
  4 36  1  0
  4 37  1  0
  5 38  1  0
  5 39  1  0
  5 40  1  0
 10 41  1  0
 11 42  1  0
 16 43  1  0
 16 44  1  0
 19 45  1  0
 20 46  1  0
 20 47  1  0
 21 48  1  0
 21 49  1  0
 24 50  1  0
 25 51  1  0
 29 52  1  0
 30 53  1  0
M  END
$$$$
