
     RDKit          3D

 65 68  0  0  0  0  0  0  0  0999 V2000
    8.0554    2.8266    2.1285 C   0  0  0  0  0  0  0  0  0  0  0  0
    6.8044    2.1590    2.5243 C   0  0  0  0  0  0  0  0  0  0  0  0
    6.1969    0.9758    2.1837 C   0  0  0  0  0  0  0  0  0  0  0  0
    5.0052    0.9551    2.9417 C   0  0  0  0  0  0  0  0  0  0  0  0
    4.0172   -0.0026    2.9906 N   0  0  0  0  0  0  0  0  0  0  0  0
    3.9795   -1.1394    2.2202 C   0  0  0  0  0  0  0  0  0  0  0  0
    4.8115   -1.4656    1.3736 O   0  0  0  0  0  0  0  0  0  0  0  0
    2.7793   -2.0243    2.5062 C   0  0  0  0  0  0  0  0  0  0  0  0
    2.0075   -2.2996    1.2175 C   0  0  0  0  0  0  0  0  0  0  0  0
    1.2200   -1.0738    0.7766 C   0  0  0  0  0  0  0  0  0  0  0  0
    1.2774   -0.0317    1.4355 O   0  0  0  0  0  0  0  0  0  0  0  0
    0.4547   -1.1645   -0.3813 N   0  0  0  0  0  0  0  0  0  0  0  0
    0.3616   -2.3775   -1.2049 C   0  0  0  0  0  0  0  0  0  0  0  0
   -0.8965   -3.1596   -0.9729 C   0  0  0  0  0  0  0  0  0  0  0  0
   -1.5626   -3.4404    0.2057 C   0  0  0  0  0  0  0  0  0  0  0  0
   -2.7160   -4.2519    0.0065 C   0  0  0  0  0  0  0  0  0  0  0  0
   -2.8826   -4.5939   -1.3146 C   0  0  0  0  0  0  0  0  0  0  0  0
   -1.6512   -3.9427   -2.3043 S   0  0  0  0  0  0  0  0  0  0  0  0
   -0.3309    0.0450   -0.7305 C   0  0  0  0  0  0  0  0  0  0  0  0
   -1.5941    0.2318    0.1733 C   0  0  0  0  0  0  0  0  0  0  0  0
   -1.9335   -0.5563    1.0547 O   0  0  0  0  0  0  0  0  0  0  0  0
   -2.2958    1.4052   -0.0651 N   0  0  0  0  0  0  0  0  0  0  0  0
   -3.5209    1.6999    0.6436 C   0  0  0  0  0  0  0  0  0  0  0  0
   -4.7065    0.8434    0.1859 C   0  0  0  0  0  0  0  0  0  0  0  0
   -5.9469    1.7284    0.3310 C   0  0  0  0  0  0  0  0  0  0  0  0
   -5.4510    3.0676    0.8652 C   0  0  0  0  0  0  0  0  0  0  0  0
   -3.9983    3.1307    0.4278 C   0  0  0  0  0  0  0  0  0  0  0  0
   -0.6120    0.2050   -2.2234 C   0  0  0  0  0  0  0  0  0  0  0  0
   -1.8037   -0.2476   -2.8132 C   0  0  0  0  0  0  0  0  0  0  0  0
   -2.0184   -0.0961   -4.1838 C   0  0  0  0  0  0  0  0  0  0  0  0
   -1.0468    0.5038   -4.9836 C   0  0  0  0  0  0  0  0  0  0  0  0
    0.1441    0.9496   -4.4156 C   0  0  0  0  0  0  0  0  0  0  0  0
    0.3634    0.7983   -3.0453 C   0  0  0  0  0  0  0  0  0  0  0  0
    4.9029    2.0561    3.6964 N   0  0  0  0  0  0  0  0  0  0  0  0
    6.0339    2.8069    3.4358 O   0  0  0  0  0  0  0  0  0  0  0  0
    7.8881    3.8913    1.9488 H   0  0  0  0  0  0  0  0  0  0  0  0
    8.4574    2.3907    1.2102 H   0  0  0  0  0  0  0  0  0  0  0  0
    8.8075    2.7243    2.9149 H   0  0  0  0  0  0  0  0  0  0  0  0
    6.5629    0.2407    1.4845 H   0  0  0  0  0  0  0  0  0  0  0  0
    3.2269    0.2522    3.5678 H   0  0  0  0  0  0  0  0  0  0  0  0
    2.1300   -1.5880    3.2740 H   0  0  0  0  0  0  0  0  0  0  0  0
    3.1680   -2.9661    2.9122 H   0  0  0  0  0  0  0  0  0  0  0  0
    2.7018   -2.5937    0.4235 H   0  0  0  0  0  0  0  0  0  0  0  0
    1.3056   -3.1175    1.4038 H   0  0  0  0  0  0  0  0  0  0  0  0
    1.2020   -3.0412   -0.9874 H   0  0  0  0  0  0  0  0  0  0  0  0
    0.4863   -2.1029   -2.2567 H   0  0  0  0  0  0  0  0  0  0  0  0
   -1.2547   -3.0598    1.1728 H   0  0  0  0  0  0  0  0  0  0  0  0
   -3.3888   -4.5654    0.7953 H   0  0  0  0  0  0  0  0  0  0  0  0
   -3.6638   -5.2018   -1.7478 H   0  0  0  0  0  0  0  0  0  0  0  0
    0.2905    0.9135   -0.4597 H   0  0  0  0  0  0  0  0  0  0  0  0
   -2.0906    1.9226   -0.9110 H   0  0  0  0  0  0  0  0  0  0  0  0
   -3.3475    1.5278    1.7128 H   0  0  0  0  0  0  0  0  0  0  0  0
   -4.7876   -0.0667    0.7886 H   0  0  0  0  0  0  0  0  0  0  0  0
   -4.5991    0.5282   -0.8589 H   0  0  0  0  0  0  0  0  0  0  0  0
   -6.6928    1.2847    0.9993 H   0  0  0  0  0  0  0  0  0  0  0  0
   -6.4248    1.8610   -0.6461 H   0  0  0  0  0  0  0  0  0  0  0  0
   -6.0381    3.9071    0.4876 H   0  0  0  0  0  0  0  0  0  0  0  0
   -5.5093    3.0776    1.9583 H   0  0  0  0  0  0  0  0  0  0  0  0
   -3.9320    3.4182   -0.6287 H   0  0  0  0  0  0  0  0  0  0  0  0
   -3.4200    3.8548    1.0078 H   0  0  0  0  0  0  0  0  0  0  0  0
   -2.5747   -0.7329   -2.2130 H   0  0  0  0  0  0  0  0  0  0  0  0
   -2.9438   -0.4549   -4.6298 H   0  0  0  0  0  0  0  0  0  0  0  0
   -1.2162    0.6188   -6.0515 H   0  0  0  0  0  0  0  0  0  0  0  0
    0.9050    1.4124   -5.0405 H   0  0  0  0  0  0  0  0  0  0  0  0
    1.3048    1.1441   -2.6189 H   0  0  0  0  0  0  0  0  0  0  0  0
  1  2  1  0
  2  3  2  0
  3  4  1  0
  4  5  1  0
  5  6  1  0
  6  7  2  0
  6  8  1  0
  8  9  1  0
  9 10  1  0
 10 11  2  0
 10 12  1  0
 12 13  1  0
 13 14  1  0
 14 15  2  0
 15 16  1  0
 16 17  2  0
 17 18  1  0
 12 19  1  0
 19 20  1  0
 20 21  2  0
 20 22  1  0
 22 23  1  0
 23 24  1  0
 24 25  1  0
 25 26  1  0
 26 27  1  0
 19 28  1  0
 28 29  2  0
 29 30  1  0
 30 31  2  0
 31 32  1  0
 32 33  2  0
  4 34  2  0
 34 35  1  0
 35  2  1  0
 18 14  1  0
 27 23  1  0
 33 28  1  0
  1 36  1  0
  1 37  1  0
  1 38  1  0
  3 39  1  0
  5 40  1  0
  8 41  1  0
  8 42  1  0
  9 43  1  0
  9 44  1  0
 13 45  1  0
 13 46  1  0
 15 47  1  0
 16 48  1  0
 17 49  1  0
 19 50  1  0
 22 51  1  0
 23 52  1  0
 24 53  1  0
 24 54  1  0
 25 55  1  0
 25 56  1  0
 26 57  1  0
 26 58  1  0
 27 59  1  0
 27 60  1  0
 29 61  1  0
 30 62  1  0
 31 63  1  0
 32 64  1  0
 33 65  1  0
M  END
$$$$
