
     RDKit          3D

 36 37  0  0  0  0  0  0  0  0999 V2000
   -4.1446   -0.2227    1.9315 C   0  0  0  0  0  0  0  0  0  0  0  0
   -2.6824    0.1110    2.1593 C   0  0  0  0  0  0  0  0  0  0  0  0
   -2.0881    0.5878    0.9423 O   0  0  0  0  0  0  0  0  0  0  0  0
   -1.6016   -0.3672    0.1127 C   0  0  0  0  0  0  0  0  0  0  0  0
   -1.6302   -1.5731    0.3056 O   0  0  0  0  0  0  0  0  0  0  0  0
   -0.9682    0.2447   -1.0831 C   0  0  0  0  0  0  0  0  0  0  0  0
   -1.3071    1.5500   -1.4779 C   0  0  0  0  0  0  0  0  0  0  0  0
   -0.7345    2.1132   -2.6192 C   0  0  0  0  0  0  0  0  0  0  0  0
    0.1702    1.3764   -3.3784 C   0  0  0  0  0  0  0  0  0  0  0  0
    0.5119    0.0786   -2.9948 C   0  0  0  0  0  0  0  0  0  0  0  0
   -0.0417   -0.4942   -1.8443 C   0  0  0  0  0  0  0  0  0  0  0  0
    0.3712   -1.8161   -1.4595 N   0  0  0  0  0  0  0  0  0  0  0  0
    1.9827   -2.0659   -0.9970 S   0  0  0  0  0  6  0  0  0  0  0  0
    2.0712   -3.3856   -0.4121 O   0  0  0  0  0  0  0  0  0  0  0  0
    2.8427   -1.7013   -2.1057 O   0  0  0  0  0  0  0  0  0  0  0  0
    2.2359   -0.8747    0.2804 C   0  0  0  0  0  0  0  0  0  0  0  0
    3.0238    0.2578    0.0458 C   0  0  0  0  0  0  0  0  0  0  0  0
    3.2162    1.1868    1.0700 C   0  0  0  0  0  0  0  0  0  0  0  0
    2.6309    0.9809    2.3208 C   0  0  0  0  0  0  0  0  0  0  0  0
    1.8540   -0.1555    2.5494 C   0  0  0  0  0  0  0  0  0  0  0  0
    1.6630   -1.0822    1.5277 C   0  0  0  0  0  0  0  0  0  0  0  0
    0.8923   -2.1487    1.7725 F   0  0  0  0  0  0  0  0  0  0  0  0
   -4.6222   -0.5305    2.8659 H   0  0  0  0  0  0  0  0  0  0  0  0
   -4.6788    0.6447    1.5303 H   0  0  0  0  0  0  0  0  0  0  0  0
   -4.2542   -1.0301    1.2006 H   0  0  0  0  0  0  0  0  0  0  0  0
   -2.1318   -0.7473    2.5616 H   0  0  0  0  0  0  0  0  0  0  0  0
   -2.5988    0.9191    2.8933 H   0  0  0  0  0  0  0  0  0  0  0  0
   -2.0262    2.1364   -0.9100 H   0  0  0  0  0  0  0  0  0  0  0  0
   -1.0030    3.1229   -2.9222 H   0  0  0  0  0  0  0  0  0  0  0  0
    0.6094    1.8077   -4.2754 H   0  0  0  0  0  0  0  0  0  0  0  0
    1.2091   -0.4859   -3.6112 H   0  0  0  0  0  0  0  0  0  0  0  0
   -0.2670   -2.3072   -0.8145 H   0  0  0  0  0  0  0  0  0  0  0  0
    3.4878    0.4236   -0.9246 H   0  0  0  0  0  0  0  0  0  0  0  0
    3.8272    2.0698    0.8944 H   0  0  0  0  0  0  0  0  0  0  0  0
    2.7846    1.7039    3.1187 H   0  0  0  0  0  0  0  0  0  0  0  0
    1.3961   -0.3268    3.5192 H   0  0  0  0  0  0  0  0  0  0  0  0
  1  2  1  0
  2  3  1  0
  3  4  1  0
  4  5  2  0
  4  6  1  0
  6  7  2  0
  7  8  1  0
  8  9  2  0
  9 10  1  0
 10 11  2  0
 11 12  1  0
 12 13  1  0
 13 14  2  0
 13 15  2  0
 13 16  1  0
 16 17  2  0
 17 18  1  0
 18 19  2  0
 19 20  1  0
 20 21  2  0
 21 22  1  0
 11  6  1  0
 21 16  1  0
  1 23  1  0
  1 24  1  0
  1 25  1  0
  2 26  1  0
  2 27  1  0
  7 28  1  0
  8 29  1  0
  9 30  1  0
 10 31  1  0
 12 32  1  0
 17 33  1  0
 18 34  1  0
 19 35  1  0
 20 36  1  0
M  END
$$$$
