
     RDKit          3D

 36 38  0  0  0  0  0  0  0  0999 V2000
   -5.1617   -0.8078   -0.7360 C   0  0  0  0  0  0  0  0  0  0  0  0
   -4.0316    0.1215   -0.3934 C   0  0  0  0  0  0  0  0  0  0  0  0
   -4.3067    1.3868    0.1561 C   0  0  0  0  0  0  0  0  0  0  0  0
   -3.2716    2.2508    0.5143 C   0  0  0  0  0  0  0  0  0  0  0  0
   -1.9644    1.8307    0.3247 C   0  0  0  0  0  0  0  0  0  0  0  0
   -1.6576    0.5665   -0.2191 C   0  0  0  0  0  0  0  0  0  0  0  0
   -2.6991   -0.2919   -0.5662 C   0  0  0  0  0  0  0  0  0  0  0  0
   -0.2564    0.2905   -0.3277 N   0  0  0  0  0  0  0  0  0  0  0  0
    0.0786   -0.4117   -1.5711 C   0  0  0  0  0  0  0  0  0  0  0  0
    0.4799    1.3811    0.1642 C   0  0  0  0  0  0  0  0  0  0  0  0
    1.8022    1.4648    0.3990 C   0  0  0  0  0  0  0  0  0  0  0  0
    2.7676    0.3785    0.2443 C   0  0  0  0  0  0  0  0  0  0  0  0
    3.7833    0.5104   -0.7117 C   0  0  0  0  0  0  0  0  0  0  0  0
    4.7049   -0.5117   -0.8957 C   0  0  0  0  0  0  0  0  0  0  0  0
    4.6065   -1.6554   -0.1203 C   0  0  0  0  0  0  0  0  0  0  0  0
    3.5994   -1.7496    0.8313 C   0  0  0  0  0  0  0  0  0  0  0  0
    2.7099   -0.7439    1.0160 N   0  0  0  0  0  4  0  0  0  0  0  0
    1.6950   -0.9034    2.0814 C   0  0  0  0  0  0  0  0  0  0  0  0
   -0.4990    2.7754    0.6902 S   0  0  0  0  0  0  0  0  0  0  0  0
   -4.8877   -1.4646   -1.5682 H   0  0  0  0  0  0  0  0  0  0  0  0
   -6.0494   -0.2459   -1.0448 H   0  0  0  0  0  0  0  0  0  0  0  0
   -5.4155   -1.4230    0.1327 H   0  0  0  0  0  0  0  0  0  0  0  0
   -5.3376    1.7048    0.3061 H   0  0  0  0  0  0  0  0  0  0  0  0
   -3.4921    3.2293    0.9299 H   0  0  0  0  0  0  0  0  0  0  0  0
   -2.5022   -1.2851   -0.9567 H   0  0  0  0  0  0  0  0  0  0  0  0
   -0.3584   -1.4157   -1.5899 H   0  0  0  0  0  0  0  0  0  0  0  0
   -0.2659    0.1481   -2.4488 H   0  0  0  0  0  0  0  0  0  0  0  0
    1.1568   -0.5532   -1.6782 H   0  0  0  0  0  0  0  0  0  0  0  0
    2.2325    2.3889    0.7832 H   0  0  0  0  0  0  0  0  0  0  0  0
    3.8510    1.4077   -1.3259 H   0  0  0  0  0  0  0  0  0  0  0  0
    5.4922   -0.4161   -1.6423 H   0  0  0  0  0  0  0  0  0  0  0  0
    5.3164   -2.4698   -0.2517 H   0  0  0  0  0  0  0  0  0  0  0  0
    3.5006   -2.6320    1.4584 H   0  0  0  0  0  0  0  0  0  0  0  0
    1.5238    0.0536    2.5783 H   0  0  0  0  0  0  0  0  0  0  0  0
    0.7862   -1.3002    1.6252 H   0  0  0  0  0  0  0  0  0  0  0  0
    2.0699   -1.6085    2.8291 H   0  0  0  0  0  0  0  0  0  0  0  0
  1  2  1  0
  2  3  2  0
  3  4  1  0
  4  5  2  0
  5  6  1  0
  6  7  2  0
  6  8  1  0
  8  9  1  0
  8 10  1  0
 10 11  2  3
 11 12  1  0
 12 13  2  0
 13 14  1  0
 14 15  2  0
 15 16  1  0
 16 17  2  0
 17 18  1  0
 10 19  1  0
  7  2  1  0
 17 12  1  0
 19  5  1  0
  1 20  1  0
  1 21  1  0
  1 22  1  0
  3 23  1  0
  4 24  1  0
  7 25  1  0
  9 26  1  0
  9 27  1  0
  9 28  1  0
 11 29  1  0
 13 30  1  0
 14 31  1  0
 15 32  1  0
 16 33  1  0
 18 34  1  0
 18 35  1  0
 18 36  1  0
M  CHG  1  17   1
M  END
$$$$
