
     RDKit          3D

 62 67  0  0  0  0  0  0  0  0999 V2000
   -1.6944   -1.3830    3.8537 C   0  0  0  0  0  0  0  0  0  0  0  0
   -2.5573   -1.1228    2.7558 O   0  0  0  0  0  0  0  0  0  0  0  0
   -2.9198   -2.1872    1.9683 C   0  0  0  0  0  0  0  0  0  0  0  0
   -2.6160   -3.5229    2.2586 C   0  0  0  0  0  0  0  0  0  0  0  0
   -3.0340   -4.5488    1.4057 C   0  0  0  0  0  0  0  0  0  0  0  0
   -3.7604   -4.2530    0.2562 C   0  0  0  0  0  0  0  0  0  0  0  0
   -4.0723   -2.9281   -0.0431 C   0  0  0  0  0  0  0  0  0  0  0  0
   -3.6600   -1.8869    0.8058 C   0  0  0  0  0  0  0  0  0  0  0  0
   -3.9951   -0.5029    0.4426 C   0  0  0  0  0  0  0  0  0  0  0  0
   -5.5850    0.0507    0.7353 S   0  0  0  0  0  0  0  0  0  0  0  0
   -5.2485    1.6224    0.1227 C   0  0  0  0  0  0  0  0  0  0  0  0
   -6.1568    2.7013    0.0433 C   0  0  0  0  0  0  0  0  0  0  0  0
   -5.6731    3.8780   -0.4902 C   0  0  0  0  0  0  0  0  0  0  0  0
   -4.3823    4.0077   -0.9242 C   0  0  0  0  0  0  0  0  0  0  0  0
   -3.4772    2.9669   -0.8552 C   0  0  0  0  0  0  0  0  0  0  0  0
   -3.9174    1.7278   -0.3120 C   0  0  0  0  0  0  0  0  0  0  0  0
   -3.2038    0.4846   -0.1191 C   0  0  0  0  0  0  0  0  0  0  0  0
   -1.8053    0.2458   -0.4527 C   0  0  0  0  0  0  0  0  0  0  0  0
   -1.4640   -0.4470   -1.6164 C   0  0  0  0  0  0  0  0  0  0  0  0
   -0.1194   -0.6560   -1.9317 C   0  0  0  0  0  0  0  0  0  0  0  0
    0.8932   -0.1759   -1.0959 C   0  0  0  0  0  0  0  0  0  0  0  0
    2.1628   -0.4489   -1.5249 O   0  0  0  0  0  0  0  0  0  0  0  0
    3.2410    0.0298   -0.7146 C   0  0  0  0  0  0  0  0  0  0  0  0
    4.5593   -0.3562   -1.4061 C   0  0  0  0  0  0  0  0  0  0  0  0
    5.7550    0.1048   -0.6821 N   0  0  0  0  0  0  0  0  0  0  0  0
    6.0456   -0.6917    0.5310 C   0  0  0  0  0  0  0  0  0  0  0  0
    7.2042   -1.6880    0.3560 C   0  0  0  0  0  0  0  0  0  0  0  0
    8.4368   -1.0591   -0.0166 O   0  0  0  0  0  0  0  0  0  0  0  0
    8.2478    0.1295   -0.7974 C   0  0  0  0  0  0  0  0  0  0  0  0
    6.9290    0.1229   -1.5836 C   0  0  0  0  0  0  0  0  0  0  0  0
    0.5502    0.5177    0.0654 C   0  0  0  0  0  0  0  0  0  0  0  0
   -0.7954    0.7294    0.3851 C   0  0  0  0  0  0  0  0  0  0  0  0
   -4.1190    5.2493   -1.4147 O   0  0  0  0  0  0  0  0  0  0  0  0
   -5.4001    5.8875   -1.2380 C   0  0  0  0  0  0  0  0  0  0  0  0
   -6.3929    5.0224   -0.6501 O   0  0  0  0  0  0  0  0  0  0  0  0
   -2.1931   -2.0001    4.6083 H   0  0  0  0  0  0  0  0  0  0  0  0
   -0.7560   -1.8404    3.5228 H   0  0  0  0  0  0  0  0  0  0  0  0
   -1.4485   -0.4238    4.3193 H   0  0  0  0  0  0  0  0  0  0  0  0
   -2.0582   -3.8022    3.1462 H   0  0  0  0  0  0  0  0  0  0  0  0
   -2.7917   -5.5818    1.6429 H   0  0  0  0  0  0  0  0  0  0  0  0
   -4.0845   -5.0514   -0.4061 H   0  0  0  0  0  0  0  0  0  0  0  0
   -4.6380   -2.7052   -0.9453 H   0  0  0  0  0  0  0  0  0  0  0  0
   -7.1815    2.6090    0.3834 H   0  0  0  0  0  0  0  0  0  0  0  0
   -2.4592    3.0948   -1.2087 H   0  0  0  0  0  0  0  0  0  0  0  0
   -2.2361   -0.8257   -2.2812 H   0  0  0  0  0  0  0  0  0  0  0  0
    0.1412   -1.1969   -2.8380 H   0  0  0  0  0  0  0  0  0  0  0  0
    3.1884    1.1222   -0.6266 H   0  0  0  0  0  0  0  0  0  0  0  0
    3.1817   -0.4283    0.2787 H   0  0  0  0  0  0  0  0  0  0  0  0
    4.5355    0.0997   -2.4059 H   0  0  0  0  0  0  0  0  0  0  0  0
    4.5918   -1.4403   -1.5790 H   0  0  0  0  0  0  0  0  0  0  0  0
    6.3248    0.0227    1.3160 H   0  0  0  0  0  0  0  0  0  0  0  0
    5.1621   -1.2243    0.8988 H   0  0  0  0  0  0  0  0  0  0  0  0
    6.9576   -2.4385   -0.4045 H   0  0  0  0  0  0  0  0  0  0  0  0
    7.3820   -2.2242    1.2940 H   0  0  0  0  0  0  0  0  0  0  0  0
    8.2963    0.9927   -0.1230 H   0  0  0  0  0  0  0  0  0  0  0  0
    9.0959    0.2071   -1.4856 H   0  0  0  0  0  0  0  0  0  0  0  0
    6.9215   -0.7590   -2.2378 H   0  0  0  0  0  0  0  0  0  0  0  0
    6.8774    1.0141   -2.2187 H   0  0  0  0  0  0  0  0  0  0  0  0
    1.3005    0.9076    0.7447 H   0  0  0  0  0  0  0  0  0  0  0  0
   -1.0527    1.2657    1.2960 H   0  0  0  0  0  0  0  0  0  0  0  0
   -5.7626    6.2237   -2.2162 H   0  0  0  0  0  0  0  0  0  0  0  0
   -5.2700    6.7629   -0.5913 H   0  0  0  0  0  0  0  0  0  0  0  0
  1  2  1  0
  2  3  1  0
  3  4  2  0
  4  5  1  0
  5  6  2  0
  6  7  1  0
  7  8  2  0
  8  9  1  0
  9 10  1  0
 10 11  1  0
 11 12  2  0
 12 13  1  0
 13 14  2  0
 14 15  1  0
 15 16  2  0
 16 17  1  0
 17 18  1  0
 18 19  2  0
 19 20  1  0
 20 21  2  0
 21 22  1  0
 22 23  1  0
 23 24  1  0
 24 25  1  0
 25 26  1  0
 26 27  1  0
 27 28  1  0
 28 29  1  0
 29 30  1  0
 21 31  1  0
 31 32  2  0
 14 33  1  0
 33 34  1  0
 34 35  1  0
  8  3  1  0
 17  9  2  0
 32 18  1  0
 16 11  1  0
 30 25  1  0
 35 13  1  0
  1 36  1  0
  1 37  1  0
  1 38  1  0
  4 39  1  0
  5 40  1  0
  6 41  1  0
  7 42  1  0
 12 43  1  0
 15 44  1  0
 19 45  1  0
 20 46  1  0
 23 47  1  0
 23 48  1  0
 24 49  1  0
 24 50  1  0
 26 51  1  0
 26 52  1  0
 27 53  1  0
 27 54  1  0
 29 55  1  0
 29 56  1  0
 30 57  1  0
 30 58  1  0
 31 59  1  0
 32 60  1  0
 34 61  1  0
 34 62  1  0
M  END
$$$$
