
     RDKit          3D

 50 53  0  0  0  0  0  0  0  0999 V2000
   -3.0123    3.5130    1.3371 C   0  0  0  0  0  0  0  0  0  0  0  0
   -2.0624    2.5508    0.7883 N   0  0  0  0  0  0  0  0  0  0  0  0
   -1.4755    1.6893    1.8396 C   0  0  0  0  0  0  0  0  0  0  0  0
   -1.9667    0.2238    1.8302 C   0  0  0  0  0  0  0  0  0  0  0  0
   -1.6796   -0.4029    0.5225 N   0  0  0  0  0  0  0  0  0  0  0  0
   -2.2194   -1.6961    0.3297 C   0  0  0  0  0  0  0  0  0  0  0  0
   -3.5625   -2.0024    0.5903 C   0  0  0  0  0  0  0  0  0  0  0  0
   -4.0606   -3.2843    0.3484 C   0  0  0  0  0  0  0  0  0  0  0  0
   -3.2251   -4.2736   -0.1638 C   0  0  0  0  0  0  0  0  0  0  0  0
   -1.8866   -3.9886   -0.4395 C   0  0  0  0  0  0  0  0  0  0  0  0
   -1.3808   -2.7104   -0.1984 C   0  0  0  0  0  0  0  0  0  0  0  0
   -0.0447   -2.3351   -0.4375 N   0  0  0  0  0  0  0  0  0  0  0  0
    0.9919   -3.0720   -0.9613 C   0  0  0  0  0  0  0  0  0  0  0  0
    0.9219   -4.2439   -1.3187 O   0  0  0  0  0  0  0  0  0  0  0  0
    2.2251   -2.3116   -1.0673 C   0  0  0  0  0  0  0  0  0  0  0  0
    3.4682   -2.6720   -1.5478 C   0  0  0  0  0  0  0  0  0  0  0  0
    4.2994   -1.5332   -1.4219 C   0  0  0  0  0  0  0  0  0  0  0  0
    3.5242   -0.5314   -0.8711 C   0  0  0  0  0  0  0  0  0  0  0  0
    3.7703    0.8607   -0.5023 C   0  0  0  0  0  0  0  0  0  0  0  0
    4.9391    1.5095   -0.9280 C   0  0  0  0  0  0  0  0  0  0  0  0
    5.1912    2.8395   -0.5768 C   0  0  0  0  0  0  0  0  0  0  0  0
    4.2814    3.5410    0.2166 C   0  0  0  0  0  0  0  0  0  0  0  0
    4.6626    5.1760    0.6231 Cl  0  0  0  0  0  0  0  0  0  0  0  0
    3.1140    2.9088    0.6531 C   0  0  0  0  0  0  0  0  0  0  0  0
    1.9537    3.7097    1.6543 Cl  0  0  0  0  0  0  0  0  0  0  0  0
    2.8599    1.5796    0.2890 C   0  0  0  0  0  0  0  0  0  0  0  0
    2.2602   -1.0044   -0.6527 O   0  0  0  0  0  0  0  0  0  0  0  0
   -1.8822    0.4841   -0.6523 C   0  0  0  0  0  0  0  0  0  0  0  0
   -2.6860    1.7524   -0.2884 C   0  0  0  0  0  0  0  0  0  0  0  0
   -3.4084    4.1587    0.5454 H   0  0  0  0  0  0  0  0  0  0  0  0
   -3.8552    3.0222    1.8367 H   0  0  0  0  0  0  0  0  0  0  0  0
   -2.5173    4.1714    2.0599 H   0  0  0  0  0  0  0  0  0  0  0  0
   -1.6238    2.1163    2.8391 H   0  0  0  0  0  0  0  0  0  0  0  0
   -0.3917    1.6797    1.6752 H   0  0  0  0  0  0  0  0  0  0  0  0
   -3.0361    0.2139    2.0718 H   0  0  0  0  0  0  0  0  0  0  0  0
   -1.4415   -0.3334    2.6155 H   0  0  0  0  0  0  0  0  0  0  0  0
   -4.2441   -1.2452    0.9633 H   0  0  0  0  0  0  0  0  0  0  0  0
   -5.1041   -3.5081    0.5529 H   0  0  0  0  0  0  0  0  0  0  0  0
   -3.6136   -5.2706   -0.3550 H   0  0  0  0  0  0  0  0  0  0  0  0
   -1.2643   -4.7818   -0.8396 H   0  0  0  0  0  0  0  0  0  0  0  0
    0.1542   -1.3717   -0.1754 H   0  0  0  0  0  0  0  0  0  0  0  0
    3.7280   -3.6453   -1.9429 H   0  0  0  0  0  0  0  0  0  0  0  0
    5.3410   -1.4598   -1.7005 H   0  0  0  0  0  0  0  0  0  0  0  0
    5.6692    0.9906   -1.5457 H   0  0  0  0  0  0  0  0  0  0  0  0
    6.1037    3.3198   -0.9232 H   0  0  0  0  0  0  0  0  0  0  0  0
    1.9460    1.1010    0.6363 H   0  0  0  0  0  0  0  0  0  0  0  0
   -0.8919    0.7785   -1.0227 H   0  0  0  0  0  0  0  0  0  0  0  0
   -2.3862   -0.0347   -1.4788 H   0  0  0  0  0  0  0  0  0  0  0  0
   -3.7000    1.4436    0.0017 H   0  0  0  0  0  0  0  0  0  0  0  0
   -2.7824    2.3785   -1.1833 H   0  0  0  0  0  0  0  0  0  0  0  0
  1  2  1  0
  2  3  1  0
  3  4  1  0
  4  5  1  0
  5  6  1  0
  6  7  2  0
  7  8  1  0
  8  9  2  0
  9 10  1  0
 10 11  2  0
 11 12  1  0
 12 13  1  0
 13 14  2  0
 13 15  1  0
 15 16  2  0
 16 17  1  0
 17 18  2  0
 18 19  1  0
 19 20  2  0
 20 21  1  0
 21 22  2  0
 22 23  1  0
 22 24  1  0
 24 25  1  0
 24 26  2  0
 18 27  1  0
  5 28  1  0
 28 29  1  0
 29  2  1  0
 11  6  1  0
 27 15  1  0
 26 19  1  0
  1 30  1  0
  1 31  1  0
  1 32  1  0
  3 33  1  0
  3 34  1  0
  4 35  1  0
  4 36  1  0
  7 37  1  0
  8 38  1  0
  9 39  1  0
 10 40  1  0
 12 41  1  0
 16 42  1  0
 17 43  1  0
 20 44  1  0
 21 45  1  0
 26 46  1  0
 28 47  1  0
 28 48  1  0
 29 49  1  0
 29 50  1  0
M  END
$$$$
