
     RDKit          3D

 60 65  0  0  0  0  0  0  0  0999 V2000
    2.5328   -0.8556   -3.7396 C   0  0  0  0  0  0  0  0  0  0  0  0
    3.6777   -0.1805   -3.0833 C   0  0  0  0  0  0  0  0  0  0  0  0
    4.3972    0.7101   -3.7782 N   0  0  0  0  0  0  0  0  0  0  0  0
    5.4333    1.0883   -2.9477 O   0  0  0  0  0  0  0  0  0  0  0  0
    5.3223    0.4405   -1.7596 C   0  0  0  0  0  0  0  0  0  0  0  0
    6.3750    0.7093   -0.7618 C   0  0  0  0  0  0  0  0  0  0  0  0
    4.1928   -0.3490   -1.7694 C   0  0  0  0  0  0  0  0  0  0  0  0
    3.7560   -1.1906   -0.6765 C   0  0  0  0  0  0  0  0  0  0  0  0
    4.5515   -1.9370   -0.1088 O   0  0  0  0  0  0  0  0  0  0  0  0
    2.4158   -1.1117   -0.2868 N   0  0  0  0  0  0  0  0  0  0  0  0
    1.5398    0.0213   -0.5893 C   0  0  0  0  0  0  0  0  0  0  0  0
    0.6172    0.3254    0.5855 C   0  0  0  0  0  0  0  0  0  0  0  0
   -0.3149   -0.8663    0.9549 C   0  0  0  0  0  0  0  0  0  0  0  0
    0.4261   -2.2094    0.6539 C   0  0  0  0  0  0  0  0  0  0  0  0
    1.9422   -2.0621    0.7120 C   0  0  0  0  0  0  0  0  0  0  0  0
   -0.5060   -0.7356    2.3904 O   0  0  0  0  0  0  0  0  0  0  0  0
   -1.4792   -1.5193    2.9469 C   0  0  0  0  0  0  0  0  0  0  0  0
   -1.4335   -1.6642    4.3340 C   0  0  0  0  0  0  0  0  0  0  0  0
   -2.3730   -2.4695    4.9801 C   0  0  0  0  0  0  0  0  0  0  0  0
   -3.3525   -3.1205    4.2352 C   0  0  0  0  0  0  0  0  0  0  0  0
   -4.2492   -3.8931    4.8609 F   0  0  0  0  0  0  0  0  0  0  0  0
   -3.4193   -2.9754    2.8557 C   0  0  0  0  0  0  0  0  0  0  0  0
   -2.4817   -2.1612    2.2166 C   0  0  0  0  0  0  0  0  0  0  0  0
   -2.5477   -1.9458    0.7591 C   0  0  0  0  0  0  0  0  0  0  0  0
   -3.2886   -2.6393    0.0726 O   0  0  0  0  0  0  0  0  0  0  0  0
   -1.6944   -0.7967    0.2334 C   0  0  0  0  0  0  0  0  0  0  0  0
   -2.4952    0.4879    0.4283 C   0  0  0  0  0  0  0  0  0  0  0  0
   -2.3061    1.1017   -0.9152 C   0  0  0  0  0  0  0  0  0  0  0  0
   -2.7261    2.4918   -1.2126 C   0  0  0  0  0  0  0  0  0  0  0  0
   -2.4733    3.0188   -2.4870 C   0  0  0  0  0  0  0  0  0  0  0  0
   -2.8558    4.3264   -2.7990 C   0  0  0  0  0  0  0  0  0  0  0  0
   -3.4934    5.1079   -1.8385 C   0  0  0  0  0  0  0  0  0  0  0  0
   -3.9645    6.7171   -2.2189 Cl  0  0  0  0  0  0  0  0  0  0  0  0
   -3.7531    4.5919   -0.5695 C   0  0  0  0  0  0  0  0  0  0  0  0
   -3.3706    3.2834   -0.2543 C   0  0  0  0  0  0  0  0  0  0  0  0
   -1.7454    0.3313   -1.7905 N   0  0  0  0  0  0  0  0  0  0  0  0
   -1.5261   -0.9237   -1.1810 O   0  0  0  0  0  0  0  0  0  0  0  0
    2.8066   -1.1911   -4.7460 H   0  0  0  0  0  0  0  0  0  0  0  0
    1.6839   -0.1700   -3.8276 H   0  0  0  0  0  0  0  0  0  0  0  0
    2.2092   -1.7365   -3.1772 H   0  0  0  0  0  0  0  0  0  0  0  0
    5.9358    0.8978    0.2231 H   0  0  0  0  0  0  0  0  0  0  0  0
    6.9696    1.5858   -1.0372 H   0  0  0  0  0  0  0  0  0  0  0  0
    7.0503   -0.1485   -0.6805 H   0  0  0  0  0  0  0  0  0  0  0  0
    2.1380    0.9096   -0.8145 H   0  0  0  0  0  0  0  0  0  0  0  0
    0.9641   -0.2349   -1.4810 H   0  0  0  0  0  0  0  0  0  0  0  0
    0.0515    1.2391    0.3838 H   0  0  0  0  0  0  0  0  0  0  0  0
    1.2409    0.5790    1.4550 H   0  0  0  0  0  0  0  0  0  0  0  0
    0.1362   -2.9940    1.3615 H   0  0  0  0  0  0  0  0  0  0  0  0
    0.1652   -2.5716   -0.3484 H   0  0  0  0  0  0  0  0  0  0  0  0
    2.2675   -1.7110    1.6984 H   0  0  0  0  0  0  0  0  0  0  0  0
    2.4162   -3.0349    0.5378 H   0  0  0  0  0  0  0  0  0  0  0  0
   -0.6597   -1.1643    4.9116 H   0  0  0  0  0  0  0  0  0  0  0  0
   -2.3449   -2.5989    6.0583 H   0  0  0  0  0  0  0  0  0  0  0  0
   -4.1986   -3.4868    2.2973 H   0  0  0  0  0  0  0  0  0  0  0  0
   -2.1135    1.1210    1.2329 H   0  0  0  0  0  0  0  0  0  0  0  0
   -3.5656    0.3123    0.5842 H   0  0  0  0  0  0  0  0  0  0  0  0
   -1.9802    2.4163   -3.2482 H   0  0  0  0  0  0  0  0  0  0  0  0
   -2.6544    4.7243   -3.7907 H   0  0  0  0  0  0  0  0  0  0  0  0
   -4.2551    5.2028    0.1773 H   0  0  0  0  0  0  0  0  0  0  0  0
   -3.5932    2.9083    0.7411 H   0  0  0  0  0  0  0  0  0  0  0  0
  1  2  1  0
  2  3  2  0
  3  4  1  0
  4  5  1  0
  5  6  1  0
  5  7  2  0
  7  8  1  0
  8  9  2  0
  8 10  1  0
 10 11  1  0
 11 12  1  0
 12 13  1  0
 13 14  1  0
 14 15  1  0
 13 16  1  0
 16 17  1  0
 17 18  2  0
 18 19  1  0
 19 20  2  0
 20 21  1  0
 20 22  1  0
 22 23  2  0
 23 24  1  0
 24 25  2  0
 24 26  1  0
 26 27  1  0
 27 28  1  0
 28 29  1  0
 29 30  2  0
 30 31  1  0
 31 32  2  0
 32 33  1  0
 32 34  1  0
 34 35  2  0
 28 36  2  0
 36 37  1  0
  7  2  1  0
 15 10  1  0
 23 17  1  0
 37 26  1  0
 26 13  1  0
 35 29  1  0
  1 38  1  0
  1 39  1  0
  1 40  1  0
  6 41  1  0
  6 42  1  0
  6 43  1  0
 11 44  1  0
 11 45  1  0
 12 46  1  0
 12 47  1  0
 14 48  1  0
 14 49  1  0
 15 50  1  0
 15 51  1  0
 18 52  1  0
 19 53  1  0
 22 54  1  0
 27 55  1  0
 27 56  1  0
 30 57  1  0
 31 58  1  0
 34 59  1  0
 35 60  1  0
M  END
$$$$
