
     RDKit          3D

 52 56  0  0  0  0  0  0  0  0999 V2000
    1.7288   -1.9488   -1.2585 O   0  0  0  0  0  0  0  0  0  0  0  0
    1.8061   -0.8675   -1.8390 C   0  0  0  0  0  0  0  0  0  0  0  0
    1.2806   -0.7319   -3.2610 C   0  0  0  0  0  0  0  0  0  0  0  0
    0.1306    0.6550   -3.5027 S   0  0  0  0  0  0  0  0  0  0  0  0
   -0.7680    0.6465   -2.0160 C   0  0  0  0  0  0  0  0  0  0  0  0
   -0.6120    1.5750   -1.1032 N   0  0  0  0  0  0  0  0  0  0  0  0
   -1.2580    1.1591    0.0259 N   0  0  0  0  0  0  0  0  0  0  0  0
   -1.8275   -0.0082   -0.2217 C   0  0  0  0  0  0  0  0  0  0  0  0
   -2.7159   -0.7341    0.7344 C   0  0  0  0  0  0  0  0  0  0  0  0
   -3.9314    0.0737    1.1044 C   0  0  0  0  0  0  0  0  0  0  0  0
   -4.0791    0.9610    2.1545 C   0  0  0  0  0  0  0  0  0  0  0  0
   -5.3779    1.5429    2.1912 C   0  0  0  0  0  0  0  0  0  0  0  0
   -6.1794    1.0829    1.1683 C   0  0  0  0  0  0  0  0  0  0  0  0
   -5.3690   -0.0484    0.1751 S   0  0  0  0  0  0  0  0  0  0  0  0
   -1.5435   -0.3895   -1.5272 N   0  0  0  0  0  0  0  0  0  0  0  0
   -1.9264   -1.5788   -2.1937 C   0  0  0  0  0  0  0  0  0  0  0  0
   -2.4551   -1.5146   -3.4890 C   0  0  0  0  0  0  0  0  0  0  0  0
   -2.8168   -2.6910   -4.1486 C   0  0  0  0  0  0  0  0  0  0  0  0
   -2.6397   -3.9257   -3.5254 C   0  0  0  0  0  0  0  0  0  0  0  0
   -2.0988   -3.9896   -2.2410 C   0  0  0  0  0  0  0  0  0  0  0  0
   -1.7409   -2.8187   -1.5709 C   0  0  0  0  0  0  0  0  0  0  0  0
    2.3615    0.2918   -1.3311 N   0  0  0  0  0  0  0  0  0  0  0  0
    2.9442    0.4741   -0.0598 C   0  0  0  0  0  0  0  0  0  0  0  0
    3.2851   -0.5754    0.7986 C   0  0  0  0  0  0  0  0  0  0  0  0
    3.8637   -0.3132    2.0453 C   0  0  0  0  0  0  0  0  0  0  0  0
    4.1065    0.9990    2.4398 C   0  0  0  0  0  0  0  0  0  0  0  0
    3.7519    2.0541    1.5955 C   0  0  0  0  0  0  0  0  0  0  0  0
    3.1940    1.7924    0.3440 C   0  0  0  0  0  0  0  0  0  0  0  0
    3.9188    3.3735    1.9341 O   0  0  0  0  0  0  0  0  0  0  0  0
    4.1300    3.5203    3.3430 C   0  0  0  0  0  0  0  0  0  0  0  0
    5.1638    2.5189    3.8317 C   0  0  0  0  0  0  0  0  0  0  0  0
    4.6843    1.1785    3.6701 O   0  0  0  0  0  0  0  0  0  0  0  0
    0.7753   -1.6621   -3.5396 H   0  0  0  0  0  0  0  0  0  0  0  0
    2.1350   -0.6076   -3.9343 H   0  0  0  0  0  0  0  0  0  0  0  0
   -2.1357   -0.9470    1.6426 H   0  0  0  0  0  0  0  0  0  0  0  0
   -3.0434   -1.7075    0.3601 H   0  0  0  0  0  0  0  0  0  0  0  0
   -3.2835    1.1912    2.8553 H   0  0  0  0  0  0  0  0  0  0  0  0
   -5.7043    2.2700    2.9261 H   0  0  0  0  0  0  0  0  0  0  0  0
   -7.2021    1.3585    0.9536 H   0  0  0  0  0  0  0  0  0  0  0  0
   -2.6269   -0.5632   -3.9880 H   0  0  0  0  0  0  0  0  0  0  0  0
   -3.2417   -2.6451   -5.1495 H   0  0  0  0  0  0  0  0  0  0  0  0
   -2.9191   -4.8405   -4.0425 H   0  0  0  0  0  0  0  0  0  0  0  0
   -1.9433   -4.9558   -1.7664 H   0  0  0  0  0  0  0  0  0  0  0  0
   -1.2706   -2.9011   -0.5920 H   0  0  0  0  0  0  0  0  0  0  0  0
    2.1554    1.1445   -1.8458 H   0  0  0  0  0  0  0  0  0  0  0  0
    3.1243   -1.6123    0.5231 H   0  0  0  0  0  0  0  0  0  0  0  0
    4.1272   -1.1374    2.7035 H   0  0  0  0  0  0  0  0  0  0  0  0
    2.9251    2.6323   -0.2913 H   0  0  0  0  0  0  0  0  0  0  0  0
    3.1691    3.3862    3.8568 H   0  0  0  0  0  0  0  0  0  0  0  0
    4.4730    4.5438    3.5238 H   0  0  0  0  0  0  0  0  0  0  0  0
    6.1099    2.6185    3.2851 H   0  0  0  0  0  0  0  0  0  0  0  0
    5.3661    2.6715    4.8960 H   0  0  0  0  0  0  0  0  0  0  0  0
  1  2  2  0
  2  3  1  0
  3  4  1  0
  4  5  1  0
  5  6  2  0
  6  7  1  0
  7  8  2  0
  8  9  1  0
  9 10  1  0
 10 11  2  0
 11 12  1  0
 12 13  2  0
 13 14  1  0
  8 15  1  0
 15 16  1  0
 16 17  2  0
 17 18  1  0
 18 19  2  0
 19 20  1  0
 20 21  2  0
  2 22  1  0
 22 23  1  0
 23 24  2  0
 24 25  1  0
 25 26  2  0
 26 27  1  0
 27 28  2  0
 27 29  1  0
 29 30  1  0
 30 31  1  0
 31 32  1  0
 15  5  1  0
 21 16  1  0
 28 23  1  0
 14 10  1  0
 32 26  1  0
  3 33  1  0
  3 34  1  0
  9 35  1  0
  9 36  1  0
 11 37  1  0
 12 38  1  0
 13 39  1  0
 17 40  1  0
 18 41  1  0
 19 42  1  0
 20 43  1  0
 21 44  1  0
 22 45  1  0
 24 46  1  0
 25 47  1  0
 28 48  1  0
 30 49  1  0
 30 50  1  0
 31 51  1  0
 31 52  1  0
M  END
$$$$
