
     RDKit          3D

 60 62  0  0  0  0  0  0  0  0999 V2000
   -4.8660    2.9306   -2.0928 C   0  0  0  0  0  0  0  0  0  0  0  0
   -3.5885    3.3217   -1.3651 C   0  0  0  0  0  0  0  0  0  0  0  0
   -2.8566    2.1169   -0.8326 C   0  0  0  0  0  0  0  0  0  0  0  0
   -1.9472    1.4215   -1.6363 C   0  0  0  0  0  0  0  0  0  0  0  0
   -1.2859    0.2919   -1.1430 C   0  0  0  0  0  0  0  0  0  0  0  0
   -1.5116   -0.1545    0.1646 C   0  0  0  0  0  0  0  0  0  0  0  0
   -0.7622   -1.2637    0.6024 N   0  0  0  0  0  0  0  0  0  0  0  0
   -0.7624   -1.8556    1.8514 C   0  0  0  0  0  0  0  0  0  0  0  0
   -1.5343   -1.5995    2.7714 O   0  0  0  0  0  0  0  0  0  0  0  0
    0.3719   -2.8821    2.0341 C   0  0  0  0  0  0  0  0  0  0  0  0
    1.1540   -3.0978    0.7841 N   0  0  0  0  0  0  0  0  0  0  0  0
    2.7684   -2.6061    0.7394 S   0  0  0  0  0  6  0  0  0  0  0  0
    3.3734   -3.3879   -0.3152 O   0  0  0  0  0  0  0  0  0  0  0  0
    3.2999   -2.5854    2.0806 O   0  0  0  0  0  0  0  0  0  0  0  0
    2.6060   -0.9377    0.1561 C   0  0  0  0  0  0  0  0  0  0  0  0
    2.7485   -0.6665   -1.2151 C   0  0  0  0  0  0  0  0  0  0  0  0
    2.5365    0.6313   -1.7035 C   0  0  0  0  0  0  0  0  0  0  0  0
    2.1787    1.6348   -0.8158 C   0  0  0  0  0  0  0  0  0  0  0  0
    2.0850    1.3544    0.5541 C   0  0  0  0  0  0  0  0  0  0  0  0
    2.3026    0.0806    1.0626 C   0  0  0  0  0  0  0  0  0  0  0  0
    1.6567    2.5600    1.3310 C   0  0  0  0  0  0  0  0  0  0  0  0
    1.7482    3.6562    0.2706 C   0  0  0  0  0  0  0  0  0  0  0  0
    1.8799    2.9929   -1.0354 N   0  0  0  0  0  0  0  0  0  0  0  0
    1.7448    3.7402   -2.1840 C   0  0  0  0  0  0  0  0  0  0  0  0
    1.7242    3.0502   -3.5193 C   0  0  0  0  0  0  0  0  0  0  0  0
    1.6154    4.9698   -2.1415 O   0  0  0  0  0  0  0  0  0  0  0  0
   -0.1648   -4.2166    2.6019 C   0  0  0  0  0  0  0  0  0  0  0  0
   -1.1359   -4.9378    1.6579 C   0  0  0  0  0  0  0  0  0  0  0  0
    0.9778   -5.1565    3.0035 C   0  0  0  0  0  0  0  0  0  0  0  0
   -2.4235    0.5356    0.9640 C   0  0  0  0  0  0  0  0  0  0  0  0
   -3.0955    1.6576    0.4674 C   0  0  0  0  0  0  0  0  0  0  0  0
   -4.6624    2.2588   -2.9334 H   0  0  0  0  0  0  0  0  0  0  0  0
   -5.3698    3.8221   -2.4806 H   0  0  0  0  0  0  0  0  0  0  0  0
   -5.5630    2.4189   -1.4183 H   0  0  0  0  0  0  0  0  0  0  0  0
   -2.9319    3.8881   -2.0368 H   0  0  0  0  0  0  0  0  0  0  0  0
   -3.8333    4.0008   -0.5357 H   0  0  0  0  0  0  0  0  0  0  0  0
   -1.7490    1.7525   -2.6534 H   0  0  0  0  0  0  0  0  0  0  0  0
   -0.5826   -0.2233   -1.7947 H   0  0  0  0  0  0  0  0  0  0  0  0
   -0.0912   -1.6562   -0.0512 H   0  0  0  0  0  0  0  0  0  0  0  0
    1.0143   -2.4240    2.7973 H   0  0  0  0  0  0  0  0  0  0  0  0
    1.0172   -3.9763    0.2782 H   0  0  0  0  0  0  0  0  0  0  0  0
    3.0142   -1.4611   -1.9114 H   0  0  0  0  0  0  0  0  0  0  0  0
    2.6700    0.8001   -2.7635 H   0  0  0  0  0  0  0  0  0  0  0  0
    2.2011   -0.1158    2.1261 H   0  0  0  0  0  0  0  0  0  0  0  0
    2.3118    2.7660    2.1797 H   0  0  0  0  0  0  0  0  0  0  0  0
    0.6236    2.4359    1.6751 H   0  0  0  0  0  0  0  0  0  0  0  0
    2.6387    4.2781    0.4203 H   0  0  0  0  0  0  0  0  0  0  0  0
    0.8701    4.3132    0.2833 H   0  0  0  0  0  0  0  0  0  0  0  0
    2.7368    2.7603   -3.8087 H   0  0  0  0  0  0  0  0  0  0  0  0
    1.0477    2.1918   -3.5036 H   0  0  0  0  0  0  0  0  0  0  0  0
    1.3399    3.7442   -4.2743 H   0  0  0  0  0  0  0  0  0  0  0  0
   -0.7241   -3.9859    3.5181 H   0  0  0  0  0  0  0  0  0  0  0  0
   -1.9804   -4.2953    1.3866 H   0  0  0  0  0  0  0  0  0  0  0  0
   -0.6476   -5.2641    0.7347 H   0  0  0  0  0  0  0  0  0  0  0  0
   -1.5469   -5.8308    2.1437 H   0  0  0  0  0  0  0  0  0  0  0  0
    1.6753   -4.6545    3.6817 H   0  0  0  0  0  0  0  0  0  0  0  0
    1.5411   -5.5068    2.1342 H   0  0  0  0  0  0  0  0  0  0  0  0
    0.5882   -6.0362    3.5235 H   0  0  0  0  0  0  0  0  0  0  0  0
   -2.6392    0.2282    1.9830 H   0  0  0  0  0  0  0  0  0  0  0  0
   -3.8060    2.1728    1.1119 H   0  0  0  0  0  0  0  0  0  0  0  0
  1  2  1  0
  2  3  1  0
  3  4  2  0
  4  5  1  0
  5  6  2  0
  6  7  1  0
  7  8  1  0
  8  9  2  0
  8 10  1  0
 10 11  1  0
 11 12  1  0
 12 13  2  0
 12 14  2  0
 12 15  1  0
 15 16  2  0
 16 17  1  0
 17 18  2  0
 18 19  1  0
 19 20  2  0
 19 21  1  0
 21 22  1  0
 22 23  1  0
 23 24  1  0
 24 25  1  0
 24 26  2  0
 10 27  1  0
 27 28  1  0
 27 29  1  0
  6 30  1  0
 30 31  2  0
 31  3  1  0
 20 15  1  0
 23 18  1  0
  1 32  1  0
  1 33  1  0
  1 34  1  0
  2 35  1  0
  2 36  1  0
  4 37  1  0
  5 38  1  0
  7 39  1  0
 10 40  1  0
 11 41  1  0
 16 42  1  0
 17 43  1  0
 20 44  1  0
 21 45  1  0
 21 46  1  0
 22 47  1  0
 22 48  1  0
 25 49  1  0
 25 50  1  0
 25 51  1  0
 27 52  1  0
 28 53  1  0
 28 54  1  0
 28 55  1  0
 29 56  1  0
 29 57  1  0
 29 58  1  0
 30 59  1  0
 31 60  1  0
M  END
$$$$
