
     RDKit          3D

 73 75  0  0  0  0  0  0  0  0999 V2000
   -0.5849   -1.7142   -2.8333 C   0  0  0  0  0  0  0  0  0  0  0  0
   -1.2717   -0.3613   -2.9790 C   0  0  0  0  0  0  0  0  0  0  0  0
   -2.2626    0.0303   -1.8695 C   0  0  0  0  0  0  0  0  0  0  0  0
   -1.5427   -0.0065   -0.1781 S   0  0  0  0  0  0  0  0  0  0  0  0
   -0.4746    1.3855   -0.2196 C   0  0  0  0  0  0  0  0  0  0  0  0
   -0.7221    2.3100   -1.0865 N   0  0  0  0  0  0  0  0  0  0  0  0
    0.1128    3.4284   -1.1418 C   0  0  0  0  0  0  0  0  0  0  0  0
   -0.1755    4.4389   -2.0619 C   0  0  0  0  0  0  0  0  0  0  0  0
    0.6417    5.5722   -2.1593 C   0  0  0  0  0  0  0  0  0  0  0  0
    0.4275    6.6084   -3.0343 O   0  0  0  0  0  0  0  0  0  0  0  0
   -0.7291    6.5502   -3.8573 C   0  0  0  0  0  0  0  0  0  0  0  0
    1.7735    5.6917   -1.3250 C   0  0  0  0  0  0  0  0  0  0  0  0
    2.5256    6.8283   -1.4858 O   0  0  0  0  0  0  0  0  0  0  0  0
    3.7256    6.9390   -0.7333 C   0  0  0  0  0  0  0  0  0  0  0  0
    2.0583    4.6832   -0.4020 C   0  0  0  0  0  0  0  0  0  0  0  0
    1.2230    3.5631   -0.3198 C   0  0  0  0  0  0  0  0  0  0  0  0
    1.4928    2.4825    0.6418 C   0  0  0  0  0  0  0  0  0  0  0  0
    2.5017    2.5438    1.3426 O   0  0  0  0  0  0  0  0  0  0  0  0
    0.5766    1.4309    0.6837 N   0  0  0  0  0  0  0  0  0  0  0  0
    0.8658    0.3801    1.6698 C   0  0  0  0  0  0  0  0  0  0  0  0
    1.8354   -0.6698    1.1127 C   0  0  0  0  0  0  0  0  0  0  0  0
    2.1360   -1.7422    2.1293 C   0  0  0  0  0  0  0  0  0  0  0  0
    1.4541   -2.9613    2.1008 C   0  0  0  0  0  0  0  0  0  0  0  0
    1.7202   -3.9431    3.0587 C   0  0  0  0  0  0  0  0  0  0  0  0
    2.6679   -3.7175    4.0627 C   0  0  0  0  0  0  0  0  0  0  0  0
    2.9897   -4.6226    5.0438 O   0  0  0  0  0  0  0  0  0  0  0  0
    2.3109   -5.8698    5.0393 C   0  0  0  0  0  0  0  0  0  0  0  0
    3.3575   -2.4892    4.1031 C   0  0  0  0  0  0  0  0  0  0  0  0
    4.2669   -2.3408    5.1210 O   0  0  0  0  0  0  0  0  0  0  0  0
    4.9596   -1.1043    5.2124 C   0  0  0  0  0  0  0  0  0  0  0  0
    3.0871   -1.5133    3.1359 C   0  0  0  0  0  0  0  0  0  0  0  0
   -3.5196   -0.8483   -1.9316 C   0  0  0  0  0  0  0  0  0  0  0  0
   -4.4970   -0.5284   -2.6068 O   0  0  0  0  0  0  0  0  0  0  0  0
   -3.4562   -2.0491   -1.2566 N   0  0  0  0  0  0  0  0  0  0  0  0
   -4.6023   -2.9329   -1.1713 C   0  0  0  0  0  0  0  0  0  0  0  0
   -4.9015   -3.6678   -2.4820 C   0  0  0  0  0  0  0  0  0  0  0  0
   -5.8950   -4.6799   -2.2977 O   0  0  0  0  0  0  0  0  0  0  0  0
   -7.2188   -4.1600   -2.3295 C   0  0  0  0  0  0  0  0  0  0  0  0
   -1.3064   -2.5359   -2.8388 H   0  0  0  0  0  0  0  0  0  0  0  0
    0.0103   -1.7783   -1.9189 H   0  0  0  0  0  0  0  0  0  0  0  0
    0.0963   -1.8733   -3.6757 H   0  0  0  0  0  0  0  0  0  0  0  0
   -0.4943    0.4079   -3.0632 H   0  0  0  0  0  0  0  0  0  0  0  0
   -1.8030   -0.3568   -3.9399 H   0  0  0  0  0  0  0  0  0  0  0  0
   -2.6261    1.0479   -2.0552 H   0  0  0  0  0  0  0  0  0  0  0  0
   -1.0489    4.3103   -2.6928 H   0  0  0  0  0  0  0  0  0  0  0  0
   -1.6432    6.5217   -3.2548 H   0  0  0  0  0  0  0  0  0  0  0  0
   -0.6802    5.6998   -4.5450 H   0  0  0  0  0  0  0  0  0  0  0  0
   -0.7574    7.4631   -4.4595 H   0  0  0  0  0  0  0  0  0  0  0  0
    4.2159    7.8738   -1.0218 H   0  0  0  0  0  0  0  0  0  0  0  0
    4.4138    6.1185   -0.9612 H   0  0  0  0  0  0  0  0  0  0  0  0
    3.5130    6.9919    0.3392 H   0  0  0  0  0  0  0  0  0  0  0  0
    2.9144    4.7429    0.2626 H   0  0  0  0  0  0  0  0  0  0  0  0
    1.3001    0.8479    2.5631 H   0  0  0  0  0  0  0  0  0  0  0  0
   -0.0599   -0.0912    2.0148 H   0  0  0  0  0  0  0  0  0  0  0  0
    1.4251   -1.1254    0.2031 H   0  0  0  0  0  0  0  0  0  0  0  0
    2.7759   -0.1980    0.8005 H   0  0  0  0  0  0  0  0  0  0  0  0
    0.7106   -3.1607    1.3322 H   0  0  0  0  0  0  0  0  0  0  0  0
    1.1691   -4.8751    2.9944 H   0  0  0  0  0  0  0  0  0  0  0  0
    2.6878   -6.4589    5.8810 H   0  0  0  0  0  0  0  0  0  0  0  0
    2.5193   -6.4307    4.1219 H   0  0  0  0  0  0  0  0  0  0  0  0
    1.2340   -5.7341    5.1861 H   0  0  0  0  0  0  0  0  0  0  0  0
    5.6184   -1.1548    6.0839 H   0  0  0  0  0  0  0  0  0  0  0  0
    4.2654   -0.2723    5.3706 H   0  0  0  0  0  0  0  0  0  0  0  0
    5.5874   -0.9371    4.3313 H   0  0  0  0  0  0  0  0  0  0  0  0
    3.6063   -0.5590    3.1440 H   0  0  0  0  0  0  0  0  0  0  0  0
   -2.7310   -2.1368   -0.5529 H   0  0  0  0  0  0  0  0  0  0  0  0
   -4.3955   -3.6610   -0.3789 H   0  0  0  0  0  0  0  0  0  0  0  0
   -5.4699   -2.3464   -0.8477 H   0  0  0  0  0  0  0  0  0  0  0  0
   -5.1936   -2.9820   -3.2857 H   0  0  0  0  0  0  0  0  0  0  0  0
   -3.9915   -4.1780   -2.8194 H   0  0  0  0  0  0  0  0  0  0  0  0
   -7.3828   -3.4517   -1.5134 H   0  0  0  0  0  0  0  0  0  0  0  0
   -7.9164   -4.9932   -2.2077 H   0  0  0  0  0  0  0  0  0  0  0  0
   -7.4194   -3.6791   -3.2921 H   0  0  0  0  0  0  0  0  0  0  0  0
  1  2  1  0
  2  3  1  0
  3  4  1  0
  4  5  1  0
  5  6  2  0
  6  7  1  0
  7  8  2  0
  8  9  1  0
  9 10  1  0
 10 11  1  0
  9 12  2  0
 12 13  1  0
 13 14  1  0
 12 15  1  0
 15 16  2  0
 16 17  1  0
 17 18  2  0
 17 19  1  0
 19 20  1  0
 20 21  1  0
 21 22  1  0
 22 23  2  0
 23 24  1  0
 24 25  2  0
 25 26  1  0
 26 27  1  0
 25 28  1  0
 28 29  1  0
 29 30  1  0
 28 31  2  0
  3 32  1  0
 32 33  2  0
 32 34  1  0
 34 35  1  0
 35 36  1  0
 36 37  1  0
 37 38  1  0
 19  5  1  0
 31 22  1  0
 16  7  1  0
  1 39  1  0
  1 40  1  0
  1 41  1  0
  2 42  1  0
  2 43  1  0
  3 44  1  0
  8 45  1  0
 11 46  1  0
 11 47  1  0
 11 48  1  0
 14 49  1  0
 14 50  1  0
 14 51  1  0
 15 52  1  0
 20 53  1  0
 20 54  1  0
 21 55  1  0
 21 56  1  0
 23 57  1  0
 24 58  1  0
 27 59  1  0
 27 60  1  0
 27 61  1  0
 30 62  1  0
 30 63  1  0
 30 64  1  0
 31 65  1  0
 34 66  1  0
 35 67  1  0
 35 68  1  0
 36 69  1  0
 36 70  1  0
 38 71  1  0
 38 72  1  0
 38 73  1  0
M  END
$$$$
