
     RDKit          3D

 43 43  0  0  0  0  0  0  0  0999 V2000
   -5.1654    2.3129    0.5037 C   0  0  0  0  0  0  0  0  0  0  0  0
   -4.4857    1.8836    1.7667 C   0  0  0  0  0  0  0  0  0  0  0  0
   -4.4786    3.1083    3.0002 Cl  0  0  0  0  0  0  0  0  0  0  0  0
   -3.8953    0.7066    2.0411 C   0  0  0  0  0  0  0  0  0  0  0  0
   -3.7922   -0.4915    1.1538 C   0  0  0  0  0  0  0  0  0  0  0  0
   -2.3748   -0.8185    0.6560 N   0  0  0  0  0  4  0  0  0  0  0  0
   -1.4417   -1.1366    1.8186 C   0  0  0  0  0  0  0  0  0  0  0  0
   -2.4728   -2.0581   -0.2440 C   0  0  0  0  0  0  0  0  0  0  0  0
   -1.8087    0.3936   -0.1623 C   0  0  0  0  0  0  0  0  0  0  0  0
   -0.4426    0.1787   -0.8078 C   0  0  0  0  0  0  0  0  0  0  0  0
   -0.2072   -0.7098   -1.6151 O   0  0  0  0  0  0  0  0  0  0  0  0
    0.4631    1.0671   -0.3220 O   0  0  0  0  0  0  0  0  0  0  0  0
    1.7922    0.9748   -0.8756 C   0  0  0  0  0  0  0  0  0  0  0  0
    2.5912   -0.1255   -0.1733 C   0  0  0  0  0  0  0  0  0  0  0  0
    3.9883   -0.2548   -0.7163 C   0  0  0  0  0  0  0  0  0  0  0  0
    4.2084   -0.8433   -1.9720 C   0  0  0  0  0  0  0  0  0  0  0  0
    5.5023   -0.9593   -2.4816 C   0  0  0  0  0  0  0  0  0  0  0  0
    6.5878   -0.4943   -1.7408 C   0  0  0  0  0  0  0  0  0  0  0  0
    6.3801    0.0921   -0.4919 C   0  0  0  0  0  0  0  0  0  0  0  0
    5.0861    0.2143    0.0175 C   0  0  0  0  0  0  0  0  0  0  0  0
   -6.2256    2.5156    0.6955 H   0  0  0  0  0  0  0  0  0  0  0  0
   -5.1114    1.5566   -0.2852 H   0  0  0  0  0  0  0  0  0  0  0  0
   -4.7034    3.2246    0.1066 H   0  0  0  0  0  0  0  0  0  0  0  0
   -3.4807    0.5741    3.0413 H   0  0  0  0  0  0  0  0  0  0  0  0
   -4.4214   -0.3998    0.2607 H   0  0  0  0  0  0  0  0  0  0  0  0
   -4.1442   -1.3714    1.7063 H   0  0  0  0  0  0  0  0  0  0  0  0
   -1.2919   -0.2289    2.4106 H   0  0  0  0  0  0  0  0  0  0  0  0
   -1.9008   -1.9250    2.4242 H   0  0  0  0  0  0  0  0  0  0  0  0
   -0.4836   -1.4800    1.4179 H   0  0  0  0  0  0  0  0  0  0  0  0
   -3.0180   -1.7845   -1.1531 H   0  0  0  0  0  0  0  0  0  0  0  0
   -1.4677   -2.4178   -0.4765 H   0  0  0  0  0  0  0  0  0  0  0  0
   -3.0121   -2.8363    0.3062 H   0  0  0  0  0  0  0  0  0  0  0  0
   -2.5353    0.6191   -0.9522 H   0  0  0  0  0  0  0  0  0  0  0  0
   -1.7594    1.2476    0.5222 H   0  0  0  0  0  0  0  0  0  0  0  0
    1.7393    0.8287   -1.9634 H   0  0  0  0  0  0  0  0  0  0  0  0
    2.2691    1.9491   -0.7151 H   0  0  0  0  0  0  0  0  0  0  0  0
    2.0824   -1.0927   -0.2622 H   0  0  0  0  0  0  0  0  0  0  0  0
    2.6137    0.0767    0.9067 H   0  0  0  0  0  0  0  0  0  0  0  0
    3.3749   -1.2189   -2.5629 H   0  0  0  0  0  0  0  0  0  0  0  0
    5.6664   -1.4153   -3.4556 H   0  0  0  0  0  0  0  0  0  0  0  0
    7.5965   -0.5892   -2.1362 H   0  0  0  0  0  0  0  0  0  0  0  0
    7.2302    0.4504    0.0860 H   0  0  0  0  0  0  0  0  0  0  0  0
    4.9484    0.6772    0.9953 H   0  0  0  0  0  0  0  0  0  0  0  0
  1  2  1  0
  2  3  1  0
  2  4  2  3
  4  5  1  0
  5  6  1  0
  6  7  1  0
  6  8  1  0
  6  9  1  0
  9 10  1  0
 10 11  2  0
 10 12  1  0
 12 13  1  0
 13 14  1  0
 14 15  1  0
 15 16  2  0
 16 17  1  0
 17 18  2  0
 18 19  1  0
 19 20  2  0
 20 15  1  0
  1 21  1  0
  1 22  1  0
  1 23  1  0
  4 24  1  0
  5 25  1  0
  5 26  1  0
  7 27  1  0
  7 28  1  0
  7 29  1  0
  8 30  1  0
  8 31  1  0
  8 32  1  0
  9 33  1  0
  9 34  1  0
 13 35  1  0
 13 36  1  0
 14 37  1  0
 14 38  1  0
 16 39  1  0
 17 40  1  0
 18 41  1  0
 19 42  1  0
 20 43  1  0
M  CHG  1   6   1
M  END
$$$$
