
     RDKit          3D

 53 56  0  0  0  0  0  0  0  0999 V2000
   -8.2141    0.8575   -0.1719 C   0  0  0  0  0  0  0  0  0  0  0  0
   -6.7373    0.6413   -0.0220 C   0  0  0  0  0  0  0  0  0  0  0  0
   -6.1406   -0.5589   -0.4142 C   0  0  0  0  0  0  0  0  0  0  0  0
   -4.7631   -0.7459   -0.2671 C   0  0  0  0  0  0  0  0  0  0  0  0
   -3.9514    0.2714    0.2623 C   0  0  0  0  0  0  0  0  0  0  0  0
   -2.5487    0.0321    0.3986 N   0  0  0  0  0  0  0  0  0  0  0  0
   -2.0966   -1.2491    0.3202 N   0  0  0  0  0  0  0  0  0  0  0  0
   -0.8179   -1.1909    0.6930 C   0  0  0  0  0  0  0  0  0  0  0  0
    0.0943   -2.3194    0.8235 C   0  0  0  0  0  0  0  0  0  0  0  0
   -0.2285   -3.4868    0.6163 O   0  0  0  0  0  0  0  0  0  0  0  0
    1.3932   -1.9236    1.2017 N   0  0  0  0  0  0  0  0  0  0  0  0
    2.4352   -2.9463    1.2987 C   0  0  0  0  0  0  0  0  0  0  0  0
    3.2173   -3.1095   -0.0076 C   0  0  0  0  0  0  0  0  0  0  0  0
    3.9662   -4.0628   -0.2068 O   0  0  0  0  0  0  0  0  0  0  0  0
    3.1035   -2.0543   -0.8884 N   0  0  0  0  0  0  0  0  0  0  0  0
    3.9430   -1.9326   -2.0631 C   0  0  0  0  0  0  0  0  0  0  0  0
    5.3393   -1.3830   -1.7514 C   0  0  0  0  0  0  0  0  0  0  0  0
    5.2931    0.0240   -1.2146 C   0  0  0  0  0  0  0  0  0  0  0  0
    5.2005    1.2093   -1.9201 C   0  0  0  0  0  0  0  0  0  0  0  0
    5.1761    2.3498   -1.0655 C   0  0  0  0  0  0  0  0  0  0  0  0
    5.2638    1.9977    0.2640 C   0  0  0  0  0  0  0  0  0  0  0  0
    5.3687    0.3051    0.4747 S   0  0  0  0  0  0  0  0  0  0  0  0
    1.8034   -0.5999    1.4162 N   0  0  0  0  0  0  0  0  0  0  0  0
    0.9650    0.3923    1.3042 C   0  0  0  0  0  0  0  0  0  0  0  0
    1.4656    1.7817    1.5751 C   0  0  0  0  0  0  0  0  0  0  0  0
   -0.3963    0.1246    0.9131 C   0  0  0  0  0  0  0  0  0  0  0  0
   -1.4871    0.9216    0.6100 C   0  0  0  0  0  0  0  0  0  0  0  0
   -1.5744    2.3973    0.4472 C   0  0  0  0  0  0  0  0  0  0  0  0
   -4.5553    1.4627    0.6773 C   0  0  0  0  0  0  0  0  0  0  0  0
   -5.9354    1.6465    0.5279 C   0  0  0  0  0  0  0  0  0  0  0  0
   -8.7071   -0.0198   -0.6037 H   0  0  0  0  0  0  0  0  0  0  0  0
   -8.4044    1.7092   -0.8328 H   0  0  0  0  0  0  0  0  0  0  0  0
   -8.6685    1.0511    0.8050 H   0  0  0  0  0  0  0  0  0  0  0  0
   -6.7389   -1.3632   -0.8365 H   0  0  0  0  0  0  0  0  0  0  0  0
   -4.3342   -1.6955   -0.5833 H   0  0  0  0  0  0  0  0  0  0  0  0
    3.1360   -2.6574    2.0891 H   0  0  0  0  0  0  0  0  0  0  0  0
    1.9883   -3.9114    1.5551 H   0  0  0  0  0  0  0  0  0  0  0  0
    2.7089   -1.2053   -0.4922 H   0  0  0  0  0  0  0  0  0  0  0  0
    4.0383   -2.9192   -2.5292 H   0  0  0  0  0  0  0  0  0  0  0  0
    3.4139   -1.2791   -2.7615 H   0  0  0  0  0  0  0  0  0  0  0  0
    5.8618   -2.0433   -1.0478 H   0  0  0  0  0  0  0  0  0  0  0  0
    5.9316   -1.3855   -2.6752 H   0  0  0  0  0  0  0  0  0  0  0  0
    5.1548    1.2563   -3.0019 H   0  0  0  0  0  0  0  0  0  0  0  0
    5.1139    3.3758   -1.4065 H   0  0  0  0  0  0  0  0  0  0  0  0
    5.2814    2.6525    1.1245 H   0  0  0  0  0  0  0  0  0  0  0  0
    1.6244    2.3029    0.6283 H   0  0  0  0  0  0  0  0  0  0  0  0
    2.4152    1.7392    2.1137 H   0  0  0  0  0  0  0  0  0  0  0  0
    0.7473    2.3343    2.1862 H   0  0  0  0  0  0  0  0  0  0  0  0
   -0.6196    2.8108    0.1093 H   0  0  0  0  0  0  0  0  0  0  0  0
   -1.8328    2.8812    1.3956 H   0  0  0  0  0  0  0  0  0  0  0  0
   -2.3007    2.6777   -0.3222 H   0  0  0  0  0  0  0  0  0  0  0  0
   -4.0036    2.2572    1.1643 H   0  0  0  0  0  0  0  0  0  0  0  0
   -6.3878    2.5796    0.8581 H   0  0  0  0  0  0  0  0  0  0  0  0
  1  2  1  0
  2  3  2  0
  3  4  1  0
  4  5  2  0
  5  6  1  0
  6  7  1  0
  7  8  2  0
  8  9  1  0
  9 10  2  0
  9 11  1  0
 11 12  1  0
 12 13  1  0
 13 14  2  0
 13 15  1  0
 15 16  1  0
 16 17  1  0
 17 18  1  0
 18 19  2  0
 19 20  1  0
 20 21  2  0
 21 22  1  0
 11 23  1  0
 23 24  2  0
 24 25  1  0
 24 26  1  0
 26 27  2  0
 27 28  1  0
  5 29  1  0
 29 30  2  0
 30  2  1  0
 27  6  1  0
 26  8  1  0
 22 18  1  0
  1 31  1  0
  1 32  1  0
  1 33  1  0
  3 34  1  0
  4 35  1  0
 12 36  1  0
 12 37  1  0
 15 38  1  0
 16 39  1  0
 16 40  1  0
 17 41  1  0
 17 42  1  0
 19 43  1  0
 20 44  1  0
 21 45  1  0
 25 46  1  0
 25 47  1  0
 25 48  1  0
 28 49  1  0
 28 50  1  0
 28 51  1  0
 29 52  1  0
 30 53  1  0
M  END
$$$$
