
     RDKit          3D

 39 42  0  0  0  0  0  0  0  0999 V2000
    6.1575    0.2507   -0.4949 C   0  0  0  0  0  0  0  0  0  0  0  0
    5.8400   -0.6499    0.5364 C   0  0  0  0  0  0  0  0  0  0  0  0
    4.5134   -1.0157    0.7870 C   0  0  0  0  0  0  0  0  0  0  0  0
    3.5187   -0.4689   -0.0059 C   0  0  0  0  0  0  0  0  0  0  0  0
    3.8446    0.4354   -1.0402 C   0  0  0  0  0  0  0  0  0  0  0  0
    5.1554    0.8029   -1.2952 C   0  0  0  0  0  0  0  0  0  0  0  0
    2.5888    0.8878   -1.7566 C   0  0  0  0  0  0  0  0  0  0  0  0
    1.5092    0.1338   -1.0062 C   0  0  0  0  0  0  0  0  0  0  0  0
    0.1404    0.1567   -1.2251 C   0  0  0  0  0  0  0  0  0  0  0  0
   -0.6831   -0.6241   -0.3984 C   0  0  0  0  0  0  0  0  0  0  0  0
   -2.1836   -0.6453   -0.6186 C   0  0  0  0  0  0  0  0  0  0  0  0
   -2.9587   -0.4007    0.6070 N   0  0  0  0  0  0  0  0  0  0  0  0
   -2.8385    0.9889    1.1010 C   0  0  0  0  0  0  0  0  0  0  0  0
   -4.0364    1.8777    0.7301 C   0  0  0  0  0  0  0  0  0  0  0  0
   -5.2881    1.3806    1.2235 O   0  0  0  0  0  0  0  0  0  0  0  0
   -5.3003   -0.0437    1.3933 C   0  0  0  0  0  0  0  0  0  0  0  0
   -4.3775   -0.7604    0.3978 C   0  0  0  0  0  0  0  0  0  0  0  0
   -0.1002   -1.4186    0.6165 C   0  0  0  0  0  0  0  0  0  0  0  0
    1.2829   -1.4344    0.8295 C   0  0  0  0  0  0  0  0  0  0  0  0
    2.0828   -0.6544    0.0141 C   0  0  0  0  0  0  0  0  0  0  0  0
    7.1967    0.5195   -0.6700 H   0  0  0  0  0  0  0  0  0  0  0  0
    6.6370   -1.0674    1.1473 H   0  0  0  0  0  0  0  0  0  0  0  0
    4.2786   -1.7113    1.5853 H   0  0  0  0  0  0  0  0  0  0  0  0
    5.4009    1.4980   -2.0909 H   0  0  0  0  0  0  0  0  0  0  0  0
    2.4506    1.9677   -1.6509 H   0  0  0  0  0  0  0  0  0  0  0  0
    2.6125    0.5849   -2.8075 H   0  0  0  0  0  0  0  0  0  0  0  0
   -0.2777    0.7683   -2.0183 H   0  0  0  0  0  0  0  0  0  0  0  0
   -2.4654    0.0760   -1.3971 H   0  0  0  0  0  0  0  0  0  0  0  0
   -2.4203   -1.6422   -1.0149 H   0  0  0  0  0  0  0  0  0  0  0  0
   -1.9091    1.4690    0.7760 H   0  0  0  0  0  0  0  0  0  0  0  0
   -2.7834    0.9298    2.1955 H   0  0  0  0  0  0  0  0  0  0  0  0
   -4.1175    1.9822   -0.3581 H   0  0  0  0  0  0  0  0  0  0  0  0
   -3.8999    2.8825    1.1426 H   0  0  0  0  0  0  0  0  0  0  0  0
   -5.0168   -0.2711    2.4277 H   0  0  0  0  0  0  0  0  0  0  0  0
   -6.3334   -0.3797    1.2583 H   0  0  0  0  0  0  0  0  0  0  0  0
   -4.4898   -1.8447    0.5056 H   0  0  0  0  0  0  0  0  0  0  0  0
   -4.6959   -0.4870   -0.6171 H   0  0  0  0  0  0  0  0  0  0  0  0
   -0.7411   -2.0265    1.2535 H   0  0  0  0  0  0  0  0  0  0  0  0
    1.7066   -2.0467    1.6179 H   0  0  0  0  0  0  0  0  0  0  0  0
  1  2  2  0
  2  3  1  0
  3  4  2  0
  4  5  1  0
  5  6  2  0
  5  7  1  0
  7  8  1  0
  8  9  2  0
  9 10  1  0
 10 11  1  0
 11 12  1  0
 12 13  1  0
 13 14  1  0
 14 15  1  0
 15 16  1  0
 16 17  1  0
 10 18  2  0
 18 19  1  0
 19 20  2  0
  6  1  1  0
 20  8  1  0
 20  4  1  0
 17 12  1  0
  1 21  1  0
  2 22  1  0
  3 23  1  0
  6 24  1  0
  7 25  1  0
  7 26  1  0
  9 27  1  0
 11 28  1  0
 11 29  1  0
 13 30  1  0
 13 31  1  0
 14 32  1  0
 14 33  1  0
 16 34  1  0
 16 35  1  0
 17 36  1  0
 17 37  1  0
 18 38  1  0
 19 39  1  0
M  END
$$$$
