
     RDKit          3D

 63 66  0  0  0  0  0  0  0  0999 V2000
   -6.1496    3.5527    0.5617 C   0  0  0  0  0  0  0  0  0  0  0  0
   -5.0076    2.8668   -0.1834 C   0  0  0  0  0  0  0  0  0  0  0  0
   -5.4457    1.5021   -0.7257 C   0  0  0  0  0  0  0  0  0  0  0  0
   -4.2747    0.7477   -1.3650 C   0  0  0  0  0  0  0  0  0  0  0  0
   -3.0905    0.6203   -0.5043 N   0  0  0  0  0  0  0  0  0  0  0  0
   -3.2396   -0.3654    0.5742 C   0  0  0  0  0  0  0  0  0  0  0  0
   -2.9004   -1.7211    0.0607 C   0  0  0  0  0  0  0  0  0  0  0  0
   -1.6521   -2.2453   -0.2497 C   0  0  0  0  0  0  0  0  0  0  0  0
   -0.3351   -1.6269   -0.0922 C   0  0  0  0  0  0  0  0  0  0  0  0
   -0.1605   -0.5978    0.5542 O   0  0  0  0  0  0  0  0  0  0  0  0
    0.6661   -2.3698   -0.7149 N   0  0  0  0  0  0  0  0  0  0  0  0
    2.0192   -2.1701   -0.5996 N   0  0  0  0  0  0  0  0  0  0  0  0
    2.4511   -0.9531   -0.4958 C   0  0  0  0  0  0  0  0  0  0  0  0
    3.8874   -0.6535   -0.3181 C   0  0  0  0  0  0  0  0  0  0  0  0
    4.8340   -1.6754   -0.2413 C   0  0  0  0  0  0  0  0  0  0  0  0
    6.1831   -1.3552   -0.0722 C   0  0  0  0  0  0  0  0  0  0  0  0
    6.5984   -0.0224    0.0181 C   0  0  0  0  0  0  0  0  0  0  0  0
    7.9445    0.1366    0.1862 O   0  0  0  0  0  0  0  0  0  0  0  0
    8.5064    1.4522    0.1518 C   0  0  0  0  0  0  0  0  0  0  0  0
    9.9439    1.3015   -0.3417 C   0  0  0  0  0  0  0  0  0  0  0  0
    8.4983    2.0584    1.5523 C   0  0  0  0  0  0  0  0  0  0  0  0
    5.6449    0.9939   -0.0533 C   0  0  0  0  0  0  0  0  0  0  0  0
    4.2905    0.6807   -0.2223 C   0  0  0  0  0  0  0  0  0  0  0  0
   -1.8060   -3.5061   -0.7598 N   0  0  0  0  0  0  0  0  0  0  0  0
   -3.0930   -3.7970   -0.7599 N   0  0  0  0  0  0  0  0  0  0  0  0
   -3.7956   -2.7436   -0.2419 N   0  0  0  0  0  0  0  0  0  0  0  0
   -5.2022   -2.8283   -0.0769 C   0  0  0  0  0  0  0  0  0  0  0  0
   -5.8948   -1.8601    0.5219 N   0  0  0  0  0  0  0  0  0  0  0  0
   -7.2093   -2.3204    0.5108 O   0  0  0  0  0  0  0  0  0  0  0  0
   -7.3004   -3.5708   -0.0887 N   0  0  0  0  0  0  0  0  0  0  0  0
   -6.0583   -3.8813   -0.4570 C   0  0  0  0  0  0  0  0  0  0  0  0
   -5.7179   -5.0205   -1.0894 N   0  0  0  0  0  0  0  0  0  0  0  0
   -2.6700    1.9354    0.0005 C   0  0  0  0  0  0  0  0  0  0  0  0
   -3.7809    2.7029    0.7204 C   0  0  0  0  0  0  0  0  0  0  0  0
   -6.4695    2.9655    1.4291 H   0  0  0  0  0  0  0  0  0  0  0  0
   -7.0158    3.6867   -0.0944 H   0  0  0  0  0  0  0  0  0  0  0  0
   -5.8417    4.5413    0.9176 H   0  0  0  0  0  0  0  0  0  0  0  0
   -4.7282    3.5028   -1.0341 H   0  0  0  0  0  0  0  0  0  0  0  0
   -6.2356    1.6386   -1.4743 H   0  0  0  0  0  0  0  0  0  0  0  0
   -5.8837    0.9051    0.0819 H   0  0  0  0  0  0  0  0  0  0  0  0
   -4.6126   -0.2351   -1.7119 H   0  0  0  0  0  0  0  0  0  0  0  0
   -3.9736    1.2814   -2.2763 H   0  0  0  0  0  0  0  0  0  0  0  0
   -2.5235   -0.1539    1.3801 H   0  0  0  0  0  0  0  0  0  0  0  0
   -4.2084   -0.2981    1.0691 H   0  0  0  0  0  0  0  0  0  0  0  0
    0.4076   -3.3059   -1.0204 H   0  0  0  0  0  0  0  0  0  0  0  0
    1.7865   -0.0754   -0.5653 H   0  0  0  0  0  0  0  0  0  0  0  0
    4.5330   -2.7176   -0.3102 H   0  0  0  0  0  0  0  0  0  0  0  0
    6.9195   -2.1533   -0.0115 H   0  0  0  0  0  0  0  0  0  0  0  0
    7.9852    2.0990   -0.5630 H   0  0  0  0  0  0  0  0  0  0  0  0
    9.9577    0.8483   -1.3389 H   0  0  0  0  0  0  0  0  0  0  0  0
   10.4511    2.2698   -0.3926 H   0  0  0  0  0  0  0  0  0  0  0  0
   10.5186    0.6370    0.3131 H   0  0  0  0  0  0  0  0  0  0  0  0
    8.9740    3.0442    1.5589 H   0  0  0  0  0  0  0  0  0  0  0  0
    7.4777    2.1680    1.9316 H   0  0  0  0  0  0  0  0  0  0  0  0
    9.0255    1.4105    2.2616 H   0  0  0  0  0  0  0  0  0  0  0  0
    5.9149    2.0412    0.0285 H   0  0  0  0  0  0  0  0  0  0  0  0
    3.5610    1.4855   -0.2725 H   0  0  0  0  0  0  0  0  0  0  0  0
   -6.3827   -5.7866   -1.1160 H   0  0  0  0  0  0  0  0  0  0  0  0
   -4.7425   -5.3052   -1.1681 H   0  0  0  0  0  0  0  0  0  0  0  0
   -2.3172    2.5339   -0.8498 H   0  0  0  0  0  0  0  0  0  0  0  0
   -1.7995    1.8353    0.6601 H   0  0  0  0  0  0  0  0  0  0  0  0
   -4.0568    2.1805    1.6451 H   0  0  0  0  0  0  0  0  0  0  0  0
   -3.4044    3.6895    1.0162 H   0  0  0  0  0  0  0  0  0  0  0  0
  1  2  1  0
  2  3  1  0
  3  4  1  0
  4  5  1  0
  5  6  1  0
  6  7  1  0
  7  8  2  0
  8  9  1  0
  9 10  2  0
  9 11  1  0
 11 12  1  0
 12 13  2  3
 13 14  1  0
 14 15  2  0
 15 16  1  0
 16 17  2  0
 17 18  1  0
 18 19  1  0
 19 20  1  0
 19 21  1  0
 17 22  1  0
 22 23  2  0
  8 24  1  0
 24 25  2  0
 25 26  1  0
 26 27  1  0
 27 28  2  0
 28 29  1  0
 29 30  1  0
 30 31  2  0
 31 32  1  0
  5 33  1  0
 33 34  1  0
 34  2  1  0
 26  7  1  0
 31 27  1  0
 23 14  1  0
  1 35  1  0
  1 36  1  0
  1 37  1  0
  2 38  1  0
  3 39  1  0
  3 40  1  0
  4 41  1  0
  4 42  1  0
  6 43  1  0
  6 44  1  0
 11 45  1  0
 13 46  1  0
 15 47  1  0
 16 48  1  0
 19 49  1  0
 20 50  1  0
 20 51  1  0
 20 52  1  0
 21 53  1  0
 21 54  1  0
 21 55  1  0
 22 56  1  0
 23 57  1  0
 32 58  1  0
 32 59  1  0
 33 60  1  0
 33 61  1  0
 34 62  1  0
 34 63  1  0
M  END
$$$$
