
     RDKit          3D

 51 54  0  0  0  0  0  0  0  0999 V2000
   -3.5037   -4.3400    2.2381 C   0  0  0  0  0  0  0  0  0  0  0  0
   -2.2585   -4.3794    1.5505 O   0  0  0  0  0  0  0  0  0  0  0  0
   -1.7324   -3.1869    1.1349 C   0  0  0  0  0  0  0  0  0  0  0  0
   -2.2566   -1.9302    1.4215 C   0  0  0  0  0  0  0  0  0  0  0  0
   -1.6274   -0.7675    0.9356 C   0  0  0  0  0  0  0  0  0  0  0  0
   -2.1962    0.5470    1.2741 C   0  0  0  0  0  0  0  0  0  0  0  0
   -3.2182    0.5984    1.9591 O   0  0  0  0  0  0  0  0  0  0  0  0
   -1.5259    1.6626    0.7985 N   0  0  0  0  0  0  0  0  0  0  0  0
   -2.0799    2.9677    1.1297 C   0  0  0  0  0  0  0  0  0  0  0  0
   -3.1045    3.3475    0.1148 C   0  0  0  0  0  0  0  0  0  0  0  0
   -4.4391    3.0315   -0.0486 C   0  0  0  0  0  0  0  0  0  0  0  0
   -4.8706    3.7064   -1.2148 C   0  0  0  0  0  0  0  0  0  0  0  0
   -3.7760    4.3921   -1.6865 C   0  0  0  0  0  0  0  0  0  0  0  0
   -2.7005    4.1821   -0.8857 O   0  0  0  0  0  0  0  0  0  0  0  0
   -0.3692    1.6279    0.0381 C   0  0  0  0  0  0  0  0  0  0  0  0
    0.2274    2.6535   -0.2989 O   0  0  0  0  0  0  0  0  0  0  0  0
    0.1068    0.3721   -0.3293 N   0  0  0  0  0  0  0  0  0  0  0  0
    1.3322    0.3503   -1.1349 C   0  0  0  0  0  0  0  0  0  0  0  0
    2.5766    0.3217   -0.2464 C   0  0  0  0  0  0  0  0  0  0  0  0
    2.5570   -0.1017    0.9102 O   0  0  0  0  0  0  0  0  0  0  0  0
    3.8767    0.7837   -0.8201 C   0  0  0  0  0  0  0  0  0  0  0  0
    4.9326    1.0546    0.0644 C   0  0  0  0  0  0  0  0  0  0  0  0
    6.1736    1.4806   -0.4185 C   0  0  0  0  0  0  0  0  0  0  0  0
    6.3703    1.6332   -1.7893 C   0  0  0  0  0  0  0  0  0  0  0  0
    5.3239    1.3579   -2.6693 C   0  0  0  0  0  0  0  0  0  0  0  0
    5.5975    1.5568   -4.5305 Br  0  0  0  0  0  0  0  0  0  0  0  0
    4.0779    0.9328   -2.1969 C   0  0  0  0  0  0  0  0  0  0  0  0
   -0.4805   -0.8313    0.1477 C   0  0  0  0  0  0  0  0  0  0  0  0
    0.0473   -2.0974   -0.1311 C   0  0  0  0  0  0  0  0  0  0  0  0
   -0.5633   -3.2525    0.3716 C   0  0  0  0  0  0  0  0  0  0  0  0
   -0.0208   -4.4654    0.0237 O   0  0  0  0  0  0  0  0  0  0  0  0
    0.9192   -4.8817    1.0160 C   0  0  0  0  0  0  0  0  0  0  0  0
   -4.2847   -3.8845    1.6190 H   0  0  0  0  0  0  0  0  0  0  0  0
   -3.8049   -5.3717    2.4466 H   0  0  0  0  0  0  0  0  0  0  0  0
   -3.4056   -3.8231    3.1981 H   0  0  0  0  0  0  0  0  0  0  0  0
   -3.1520   -1.8200    2.0224 H   0  0  0  0  0  0  0  0  0  0  0  0
   -2.5427    2.9354    2.1236 H   0  0  0  0  0  0  0  0  0  0  0  0
   -1.2897    3.7259    1.1725 H   0  0  0  0  0  0  0  0  0  0  0  0
   -5.0207    2.3867    0.5973 H   0  0  0  0  0  0  0  0  0  0  0  0
   -5.8567    3.6953   -1.6578 H   0  0  0  0  0  0  0  0  0  0  0  0
   -3.6052    5.0403   -2.5341 H   0  0  0  0  0  0  0  0  0  0  0  0
    1.3362   -0.5002   -1.8221 H   0  0  0  0  0  0  0  0  0  0  0  0
    1.3565    1.2529   -1.7553 H   0  0  0  0  0  0  0  0  0  0  0  0
    4.7918    0.9382    1.1383 H   0  0  0  0  0  0  0  0  0  0  0  0
    6.9853    1.6919    0.2756 H   0  0  0  0  0  0  0  0  0  0  0  0
    7.3406    1.9618   -2.1601 H   0  0  0  0  0  0  0  0  0  0  0  0
    3.2911    0.7151   -2.9139 H   0  0  0  0  0  0  0  0  0  0  0  0
    0.9443   -2.2356   -0.7214 H   0  0  0  0  0  0  0  0  0  0  0  0
    1.8265   -4.2675    0.9774 H   0  0  0  0  0  0  0  0  0  0  0  0
    0.4890   -4.8562    2.0243 H   0  0  0  0  0  0  0  0  0  0  0  0
    1.2054   -5.9113    0.7950 H   0  0  0  0  0  0  0  0  0  0  0  0
  1  2  1  0
  2  3  1  0
  3  4  2  0
  4  5  1  0
  5  6  1  0
  6  7  2  0
  6  8  1  0
  8  9  1  0
  9 10  1  0
 10 11  2  0
 11 12  1  0
 12 13  2  0
 13 14  1  0
  8 15  1  0
 15 16  2  0
 15 17  1  0
 17 18  1  0
 18 19  1  0
 19 20  2  0
 19 21  1  0
 21 22  2  0
 22 23  1  0
 23 24  2  0
 24 25  1  0
 25 26  1  0
 25 27  2  0
 17 28  1  0
 28 29  1  0
 29 30  2  0
 30 31  1  0
 31 32  1  0
 30  3  1  0
 28  5  2  0
 14 10  1  0
 27 21  1  0
  1 33  1  0
  1 34  1  0
  1 35  1  0
  4 36  1  0
  9 37  1  0
  9 38  1  0
 11 39  1  0
 12 40  1  0
 13 41  1  0
 18 42  1  0
 18 43  1  0
 22 44  1  0
 23 45  1  0
 24 46  1  0
 27 47  1  0
 29 48  1  0
 32 49  1  0
 32 50  1  0
 32 51  1  0
M  END
$$$$
