
     RDKit          3D

 40 41  0  0  0  0  0  0  0  0999 V2000
    7.7366   -0.9345   -0.5453 C   0  0  0  0  0  0  0  0  0  0  0  0
    7.1156   -0.6244    0.6956 O   0  0  0  0  0  0  0  0  0  0  0  0
    5.7979   -0.2625    0.6554 C   0  0  0  0  0  0  0  0  0  0  0  0
    5.2416    0.0562    1.8955 C   0  0  0  0  0  0  0  0  0  0  0  0
    3.9025    0.4438    1.9994 C   0  0  0  0  0  0  0  0  0  0  0  0
    3.0933    0.5050    0.8611 C   0  0  0  0  0  0  0  0  0  0  0  0
    1.6983    0.9367    1.0027 C   0  0  0  0  0  0  0  0  0  0  0  0
    0.6735    0.3486    0.3660 C   0  0  0  0  0  0  0  0  0  0  0  0
   -0.7160    0.8442    0.5839 C   0  0  0  0  0  0  0  0  0  0  0  0
   -0.9362    1.8225    1.2843 O   0  0  0  0  0  0  0  0  0  0  0  0
   -1.6520    0.0734   -0.0818 N   0  0  0  0  0  0  0  0  0  0  0  0
   -3.0297    0.2244   -0.1252 C   0  0  0  0  0  0  0  0  0  0  0  0
   -3.6565    1.2279    0.4992 C   0  0  0  0  0  0  0  0  0  0  0  0
   -5.1145    1.3731    0.4362 C   0  0  0  0  0  0  0  0  0  0  0  0
   -5.6402    2.3457    0.9720 O   0  0  0  0  0  0  0  0  0  0  0  0
   -5.7929    0.3871   -0.2382 N   0  0  0  0  0  0  0  0  0  0  0  0
   -7.2383    0.4777   -0.3216 C   0  0  0  0  0  0  0  0  0  0  0  0
   -5.1748   -0.6350   -0.9393 C   0  0  0  0  0  0  0  0  0  0  0  0
   -5.8282   -1.4404   -1.6072 O   0  0  0  0  0  0  0  0  0  0  0  0
   -3.7791   -0.6981   -0.8524 N   0  0  0  0  0  0  0  0  0  0  0  0
   -3.1352   -1.7919   -1.5742 C   0  0  0  0  0  0  0  0  0  0  0  0
    3.6576    0.1996   -0.3835 C   0  0  0  0  0  0  0  0  0  0  0  0
    5.0007   -0.1863   -0.4859 C   0  0  0  0  0  0  0  0  0  0  0  0
    8.7798   -1.1944   -0.3414 H   0  0  0  0  0  0  0  0  0  0  0  0
    7.2634   -1.8019   -1.0173 H   0  0  0  0  0  0  0  0  0  0  0  0
    7.7340   -0.0686   -1.2155 H   0  0  0  0  0  0  0  0  0  0  0  0
    5.8573    0.0061    2.7905 H   0  0  0  0  0  0  0  0  0  0  0  0
    3.4999    0.6895    2.9797 H   0  0  0  0  0  0  0  0  0  0  0  0
    1.5236    1.7629    1.6907 H   0  0  0  0  0  0  0  0  0  0  0  0
    0.8299   -0.4914   -0.2977 H   0  0  0  0  0  0  0  0  0  0  0  0
   -1.2822   -0.7116   -0.5926 H   0  0  0  0  0  0  0  0  0  0  0  0
   -3.1640    1.9979    1.0769 H   0  0  0  0  0  0  0  0  0  0  0  0
   -7.6830   -0.5137   -0.1881 H   0  0  0  0  0  0  0  0  0  0  0  0
   -7.5048    0.8484   -1.3167 H   0  0  0  0  0  0  0  0  0  0  0  0
   -7.6511    1.1526    0.4333 H   0  0  0  0  0  0  0  0  0  0  0  0
   -3.8468   -2.4301   -2.1047 H   0  0  0  0  0  0  0  0  0  0  0  0
   -2.4452   -1.3771   -2.3163 H   0  0  0  0  0  0  0  0  0  0  0  0
   -2.5928   -2.4228   -0.8624 H   0  0  0  0  0  0  0  0  0  0  0  0
    3.0663    0.2735   -1.2928 H   0  0  0  0  0  0  0  0  0  0  0  0
    5.3921   -0.4124   -1.4721 H   0  0  0  0  0  0  0  0  0  0  0  0
  1  2  1  0
  2  3  1  0
  3  4  2  0
  4  5  1  0
  5  6  2  0
  6  7  1  0
  7  8  2  3
  8  9  1  0
  9 10  2  0
  9 11  1  0
 11 12  1  0
 12 13  2  0
 13 14  1  0
 14 15  2  0
 14 16  1  0
 16 17  1  0
 16 18  1  0
 18 19  2  0
 18 20  1  0
 20 21  1  0
  6 22  1  0
 22 23  2  0
 23  3  1  0
 20 12  1  0
  1 24  1  0
  1 25  1  0
  1 26  1  0
  4 27  1  0
  5 28  1  0
  7 29  1  0
  8 30  1  0
 11 31  1  0
 13 32  1  0
 17 33  1  0
 17 34  1  0
 17 35  1  0
 21 36  1  0
 21 37  1  0
 21 38  1  0
 22 39  1  0
 23 40  1  0
M  END
$$$$
