
     RDKit          3D

 60 64  0  0  0  0  0  0  0  0999 V2000
   -2.2913    0.9767   -1.9754 C   0  0  0  0  0  0  0  0  0  0  0  0
   -2.3441    0.8072   -0.5271 N   0  0  0  0  0  0  0  0  0  0  0  0
   -3.5360    1.1667    0.1094 C   0  0  0  0  0  0  0  0  0  0  0  0
   -4.4677    1.7079   -0.4886 O   0  0  0  0  0  0  0  0  0  0  0  0
   -3.6777    0.8352    1.5647 C   0  0  0  0  0  0  0  0  0  0  0  0
   -4.8236    0.3828    2.1075 C   0  0  0  0  0  0  0  0  0  0  0  0
   -6.0585    0.0466    1.3914 C   0  0  0  0  0  0  0  0  0  0  0  0
   -7.2311    0.7577    1.6681 C   0  0  0  0  0  0  0  0  0  0  0  0
   -8.4225    0.4391    1.0094 C   0  0  0  0  0  0  0  0  0  0  0  0
   -8.4599   -0.5970    0.0640 C   0  0  0  0  0  0  0  0  0  0  0  0
   -9.7506   -0.9488   -0.6345 C   0  0  0  0  0  0  0  0  0  0  0  0
   -9.5638   -1.5332   -1.8518 F   0  0  0  0  0  0  0  0  0  0  0  0
  -10.5053   -1.8246    0.0865 F   0  0  0  0  0  0  0  0  0  0  0  0
  -10.5489    0.1318   -0.8615 F   0  0  0  0  0  0  0  0  0  0  0  0
   -7.2849   -1.3206   -0.1936 C   0  0  0  0  0  0  0  0  0  0  0  0
   -6.0937   -1.0013    0.4651 C   0  0  0  0  0  0  0  0  0  0  0  0
   -2.3093    1.1318    2.5723 S   0  0  0  0  0  0  0  0  0  0  0  0
   -1.0862    0.3396    1.5543 C   0  0  0  0  0  0  0  0  0  0  0  0
    0.0459   -0.1789    2.2082 C   0  0  0  0  0  0  0  0  0  0  0  0
    1.0760   -0.7695    1.4824 C   0  0  0  0  0  0  0  0  0  0  0  0
    0.9772   -0.8229    0.0949 C   0  0  0  0  0  0  0  0  0  0  0  0
    2.0485   -1.4553   -0.6961 C   0  0  0  0  0  0  0  0  0  0  0  0
    1.7986   -2.5463   -1.2001 O   0  0  0  0  0  0  0  0  0  0  0  0
    3.2563   -0.7828   -0.8372 N   0  0  0  0  0  0  0  0  0  0  0  0
    4.4069   -1.5389   -1.3548 C   0  0  0  0  0  0  0  0  0  0  0  0
    5.3886   -0.6643   -2.1578 C   0  0  0  0  0  0  0  0  0  0  0  0
    5.7448    0.5889   -1.4538 N   0  0  0  0  0  0  0  0  0  0  0  0
    6.7380    0.4553   -0.4721 C   0  0  0  0  0  0  0  0  0  0  0  0
    7.3160    1.5947    0.0933 C   0  0  0  0  0  0  0  0  0  0  0  0
    8.3128    1.4696    1.0611 C   0  0  0  0  0  0  0  0  0  0  0  0
    8.7263    0.2045    1.4446 C   0  0  0  0  0  0  0  0  0  0  0  0
    8.1281   -0.8787    0.8304 C   0  0  0  0  0  0  0  0  0  0  0  0
    7.1603   -0.7756   -0.1090 N   0  0  0  0  0  0  0  0  0  0  0  0
    4.5518    1.3519   -1.0379 C   0  0  0  0  0  0  0  0  0  0  0  0
    3.5905    0.4958   -0.1890 C   0  0  0  0  0  0  0  0  0  0  0  0
   -0.1515   -0.3261   -0.5675 C   0  0  0  0  0  0  0  0  0  0  0  0
   -1.2027    0.2668    0.1526 C   0  0  0  0  0  0  0  0  0  0  0  0
   -1.3711    1.4995   -2.2549 H   0  0  0  0  0  0  0  0  0  0  0  0
   -2.3338   -0.0073   -2.4522 H   0  0  0  0  0  0  0  0  0  0  0  0
   -3.1289    1.5684   -2.3541 H   0  0  0  0  0  0  0  0  0  0  0  0
   -4.8861    0.2131    3.1812 H   0  0  0  0  0  0  0  0  0  0  0  0
   -7.2240    1.5733    2.3880 H   0  0  0  0  0  0  0  0  0  0  0  0
   -9.3232    1.0111    1.2313 H   0  0  0  0  0  0  0  0  0  0  0  0
   -7.2901   -2.1356   -0.9161 H   0  0  0  0  0  0  0  0  0  0  0  0
   -5.1959   -1.5758    0.2456 H   0  0  0  0  0  0  0  0  0  0  0  0
    0.1291   -0.1258    3.2924 H   0  0  0  0  0  0  0  0  0  0  0  0
    1.9408   -1.1857    1.9929 H   0  0  0  0  0  0  0  0  0  0  0  0
    4.0646   -2.3666   -1.9857 H   0  0  0  0  0  0  0  0  0  0  0  0
    4.8996   -1.9870   -0.4844 H   0  0  0  0  0  0  0  0  0  0  0  0
    6.2789   -1.2369   -2.4456 H   0  0  0  0  0  0  0  0  0  0  0  0
    4.9019   -0.3797   -3.1002 H   0  0  0  0  0  0  0  0  0  0  0  0
    7.0214    2.5840   -0.2395 H   0  0  0  0  0  0  0  0  0  0  0  0
    8.7661    2.3553    1.4973 H   0  0  0  0  0  0  0  0  0  0  0  0
    9.5011    0.0649    2.1891 H   0  0  0  0  0  0  0  0  0  0  0  0
    8.4207   -1.8953    1.0790 H   0  0  0  0  0  0  0  0  0  0  0  0
    4.0264    1.6696   -1.9481 H   0  0  0  0  0  0  0  0  0  0  0  0
    4.8044    2.2730   -0.5013 H   0  0  0  0  0  0  0  0  0  0  0  0
    2.6838    1.0770   -0.0006 H   0  0  0  0  0  0  0  0  0  0  0  0
    4.0428    0.2559    0.7804 H   0  0  0  0  0  0  0  0  0  0  0  0
   -0.1859   -0.4353   -1.6479 H   0  0  0  0  0  0  0  0  0  0  0  0
  1  2  1  0
  2  3  1  0
  3  4  2  0
  3  5  1  0
  5  6  2  3
  6  7  1  0
  7  8  2  0
  8  9  1  0
  9 10  2  0
 10 11  1  0
 11 12  1  0
 11 13  1  0
 11 14  1  0
 10 15  1  0
 15 16  2  0
  5 17  1  0
 17 18  1  0
 18 19  2  0
 19 20  1  0
 20 21  2  0
 21 22  1  0
 22 23  2  0
 22 24  1  0
 24 25  1  0
 25 26  1  0
 26 27  1  0
 27 28  1  0
 28 29  2  0
 29 30  1  0
 30 31  2  0
 31 32  1  0
 32 33  2  0
 27 34  1  0
 34 35  1  0
 21 36  1  0
 36 37  2  0
 37  2  1  0
 16  7  1  0
 37 18  1  0
 35 24  1  0
 33 28  1  0
  1 38  1  0
  1 39  1  0
  1 40  1  0
  6 41  1  0
  8 42  1  0
  9 43  1  0
 15 44  1  0
 16 45  1  0
 19 46  1  0
 20 47  1  0
 25 48  1  0
 25 49  1  0
 26 50  1  0
 26 51  1  0
 29 52  1  0
 30 53  1  0
 31 54  1  0
 32 55  1  0
 34 56  1  0
 34 57  1  0
 35 58  1  0
 35 59  1  0
 36 60  1  0
M  END
$$$$
