
     RDKit          3D

 36 37  0  0  0  0  0  0  0  0999 V2000
   -0.1667   -0.8503    0.2246 O   0  0  0  0  0  0  0  0  0  0  0  0
   -0.6045    0.2349    0.5947 C   0  0  0  0  0  0  0  0  0  0  0  0
    0.2794    1.4293    0.9481 C   0  0  0  0  0  0  0  0  0  0  0  0
    1.6566    1.1035    0.7722 O   0  0  0  0  0  0  0  0  0  0  0  0
    2.5036    2.1144    1.0638 C   0  0  0  0  0  0  0  0  0  0  0  0
    2.1802    3.2276    1.4446 O   0  0  0  0  0  0  0  0  0  0  0  0
    3.9137    1.6906    0.8569 C   0  0  0  0  0  0  0  0  0  0  0  0
    4.2527    0.4024    0.4208 C   0  0  0  0  0  0  0  0  0  0  0  0
    5.5944    0.0637    0.2450 C   0  0  0  0  0  0  0  0  0  0  0  0
    6.0102   -1.5180   -0.2905 Cl  0  0  0  0  0  0  0  0  0  0  0  0
    6.6031    0.9904    0.4976 C   0  0  0  0  0  0  0  0  0  0  0  0
    6.2614    2.2687    0.9307 C   0  0  0  0  0  0  0  0  0  0  0  0
    7.5005    3.4201    1.2453 Cl  0  0  0  0  0  0  0  0  0  0  0  0
    4.9261    2.6253    1.1120 C   0  0  0  0  0  0  0  0  0  0  0  0
   -1.9556    0.4893    0.7298 N   0  0  0  0  0  0  0  0  0  0  0  0
   -2.9561   -0.5157    0.4141 C   0  0  0  0  0  0  0  0  0  0  0  0
   -3.1702   -0.6930   -1.0937 C   0  0  0  0  0  0  0  0  0  0  0  0
   -4.3305   -1.5152   -1.3859 N   0  0  0  0  0  0  0  0  0  0  0  0
   -4.2834   -2.8797   -1.5235 C   0  0  0  0  0  0  0  0  0  0  0  0
   -3.0816   -3.5096   -1.4246 O   0  0  0  0  0  0  0  0  0  0  0  0
   -5.4704   -3.4580   -1.7393 C   0  0  0  0  0  0  0  0  0  0  0  0
   -6.7485   -2.2798   -1.7653 S   0  0  0  0  0  0  0  0  0  0  0  0
   -5.6003   -0.9655   -1.4481 C   0  0  0  0  0  0  0  0  0  0  0  0
   -5.9241    0.2011   -1.2981 O   0  0  0  0  0  0  0  0  0  0  0  0
    0.0081    2.2609    0.2874 H   0  0  0  0  0  0  0  0  0  0  0  0
    0.0913    1.6935    1.9952 H   0  0  0  0  0  0  0  0  0  0  0  0
    3.4827   -0.3393    0.2171 H   0  0  0  0  0  0  0  0  0  0  0  0
    7.6459    0.7183    0.3581 H   0  0  0  0  0  0  0  0  0  0  0  0
    4.6726    3.6282    1.4512 H   0  0  0  0  0  0  0  0  0  0  0  0
   -2.2717    1.4272    0.9457 H   0  0  0  0  0  0  0  0  0  0  0  0
   -3.8841   -0.1978    0.9018 H   0  0  0  0  0  0  0  0  0  0  0  0
   -2.6544   -1.4676    0.8661 H   0  0  0  0  0  0  0  0  0  0  0  0
   -3.3306    0.2925   -1.5495 H   0  0  0  0  0  0  0  0  0  0  0  0
   -2.2812   -1.1152   -1.5758 H   0  0  0  0  0  0  0  0  0  0  0  0
   -3.2153   -4.4634   -1.5550 H   0  0  0  0  0  0  0  0  0  0  0  0
   -5.6533   -4.5138   -1.8735 H   0  0  0  0  0  0  0  0  0  0  0  0
  1  2  2  0
  2  3  1  0
  3  4  1  0
  4  5  1  0
  5  6  2  0
  5  7  1  0
  7  8  2  0
  8  9  1  0
  9 10  1  0
  9 11  2  0
 11 12  1  0
 12 13  1  0
 12 14  2  0
  2 15  1  0
 15 16  1  0
 16 17  1  0
 17 18  1  0
 18 19  1  0
 19 20  1  0
 19 21  2  0
 21 22  1  0
 22 23  1  0
 23 24  2  0
 14  7  1  0
 23 18  1  0
  3 25  1  0
  3 26  1  0
  8 27  1  0
 11 28  1  0
 14 29  1  0
 15 30  1  0
 16 31  1  0
 16 32  1  0
 17 33  1  0
 17 34  1  0
 20 35  1  0
 21 36  1  0
M  END
$$$$
