
     RDKit          3D

 43 45  0  0  0  0  0  0  0  0999 V2000
   -0.1196    3.7381   -1.9886 C   0  0  0  0  0  0  0  0  0  0  0  0
   -1.3746    2.9251   -1.8777 C   0  0  0  0  0  0  0  0  0  0  0  0
   -1.8872    2.3241   -2.8133 O   0  0  0  0  0  0  0  0  0  0  0  0
   -1.8380    3.0012   -0.5700 O   0  0  0  0  0  0  0  0  0  0  0  0
   -2.9575    2.1940   -0.3421 C   0  0  0  0  0  0  0  0  0  0  0  0
   -4.2183    2.7901   -0.3987 C   0  0  0  0  0  0  0  0  0  0  0  0
   -5.3500    2.0192   -0.1379 C   0  0  0  0  0  0  0  0  0  0  0  0
   -5.2153    0.6682    0.1878 C   0  0  0  0  0  0  0  0  0  0  0  0
   -3.9472    0.0830    0.2593 C   0  0  0  0  0  0  0  0  0  0  0  0
   -2.8014    0.8445    0.0038 C   0  0  0  0  0  0  0  0  0  0  0  0
   -1.4800    0.2197    0.0872 C   0  0  0  0  0  0  0  0  0  0  0  0
   -0.9775   -0.4836   -0.9401 C   0  0  0  0  0  0  0  0  0  0  0  0
    0.3519   -1.1072   -0.9328 C   0  0  0  0  0  0  0  0  0  0  0  0
    0.7845   -1.8327   -2.0322 C   0  0  0  0  0  0  0  0  0  0  0  0
    2.0496   -2.4103   -1.9941 C   0  0  0  0  0  0  0  0  0  0  0  0
    2.8544   -2.2535   -0.8607 C   0  0  0  0  0  0  0  0  0  0  0  0
    4.1430   -2.8189   -0.7898 C   0  0  0  0  0  0  0  0  0  0  0  0
    4.9376   -2.6429    0.3429 C   0  0  0  0  0  0  0  0  0  0  0  0
    4.4498   -1.9075    1.4154 C   0  0  0  0  0  0  0  0  0  0  0  0
    3.1619   -1.3701    1.3398 C   0  0  0  0  0  0  0  0  0  0  0  0
    2.7104   -0.6108    2.4294 O   0  0  0  0  0  0  0  0  0  0  0  0
    1.8254   -1.3270    3.2240 C   0  0  0  0  0  0  0  0  0  0  0  0
    1.1935   -0.3875    4.2077 C   0  0  0  0  0  0  0  0  0  0  0  0
    1.6145   -2.5326    3.1932 O   0  0  0  0  0  0  0  0  0  0  0  0
    2.3401   -1.5046    0.2162 C   0  0  0  0  0  0  0  0  0  0  0  0
    1.1142   -0.9342    0.1712 N   0  0  0  0  0  0  0  0  0  0  0  0
   -0.3486    4.7946   -1.8276 H   0  0  0  0  0  0  0  0  0  0  0  0
    0.3032    3.6158   -2.9897 H   0  0  0  0  0  0  0  0  0  0  0  0
    0.6159    3.3873   -1.2605 H   0  0  0  0  0  0  0  0  0  0  0  0
   -4.3191    3.8414   -0.6500 H   0  0  0  0  0  0  0  0  0  0  0  0
   -6.3380    2.4695   -0.1890 H   0  0  0  0  0  0  0  0  0  0  0  0
   -6.0994    0.0680    0.3887 H   0  0  0  0  0  0  0  0  0  0  0  0
   -3.8593   -0.9697    0.5190 H   0  0  0  0  0  0  0  0  0  0  0  0
   -0.9251    0.3785    1.0075 H   0  0  0  0  0  0  0  0  0  0  0  0
   -1.5609   -0.6030   -1.8501 H   0  0  0  0  0  0  0  0  0  0  0  0
    0.1576   -1.9529   -2.9093 H   0  0  0  0  0  0  0  0  0  0  0  0
    2.3995   -2.9809   -2.8502 H   0  0  0  0  0  0  0  0  0  0  0  0
    4.5351   -3.3990   -1.6225 H   0  0  0  0  0  0  0  0  0  0  0  0
    5.9317   -3.0805    0.3866 H   0  0  0  0  0  0  0  0  0  0  0  0
    5.0548   -1.7614    2.3053 H   0  0  0  0  0  0  0  0  0  0  0  0
    0.3842   -0.9032    4.7320 H   0  0  0  0  0  0  0  0  0  0  0  0
    0.7658    0.4701    3.6817 H   0  0  0  0  0  0  0  0  0  0  0  0
    1.9387   -0.0587    4.9358 H   0  0  0  0  0  0  0  0  0  0  0  0
  1  2  1  0
  2  3  2  0
  2  4  1  0
  4  5  1  0
  5  6  2  0
  6  7  1  0
  7  8  2  0
  8  9  1  0
  9 10  2  0
 10 11  1  0
 11 12  2  0
 12 13  1  0
 13 14  2  0
 14 15  1  0
 15 16  2  0
 16 17  1  0
 17 18  2  0
 18 19  1  0
 19 20  2  0
 20 21  1  0
 21 22  1  0
 22 23  1  0
 22 24  2  0
 20 25  1  0
 25 26  2  0
 10  5  1  0
 26 13  1  0
 25 16  1  0
  1 27  1  0
  1 28  1  0
  1 29  1  0
  6 30  1  0
  7 31  1  0
  8 32  1  0
  9 33  1  0
 11 34  1  0
 12 35  1  0
 14 36  1  0
 15 37  1  0
 17 38  1  0
 18 39  1  0
 19 40  1  0
 23 41  1  0
 23 42  1  0
 23 43  1  0
M  END
$$$$
