
     RDKit          3D

 61 66  0  0  0  0  0  0  0  0999 V2000
   -3.6067    1.4316   -3.3997 C   0  0  0  0  0  0  0  0  0  0  0  0
   -2.4716    0.4559   -3.7133 C   0  0  0  0  0  0  0  0  0  0  0  0
   -1.1253    1.1823   -3.7631 C   0  0  0  0  0  0  0  0  0  0  0  0
   -2.5419   -0.8097   -2.8613 C   0  0  0  0  0  0  0  0  0  0  0  0
   -3.3452   -1.8506   -3.3809 C   0  0  0  0  0  0  0  0  0  0  0  0
   -3.4380   -3.1001   -2.7610 C   0  0  0  0  0  0  0  0  0  0  0  0
   -2.7241   -3.3542   -1.5971 C   0  0  0  0  0  0  0  0  0  0  0  0
   -1.9357   -2.3514   -1.0433 C   0  0  0  0  0  0  0  0  0  0  0  0
   -1.8642   -1.0824   -1.6554 C   0  0  0  0  0  0  0  0  0  0  0  0
   -1.1089   -0.1116   -0.9647 N   0  0  0  0  0  0  0  0  0  0  0  0
    0.2635   -0.0826   -0.8168 C   0  0  0  0  0  0  0  0  0  0  0  0
    1.3543   -1.1961   -1.5809 S   0  0  0  0  0  0  0  0  0  0  0  0
    2.8442   -0.9846   -0.5463 C   0  0  0  0  0  0  0  0  0  0  0  0
    2.7066   -1.5039    0.8710 C   0  0  0  0  0  0  0  0  0  0  0  0
    1.9730   -2.5950    1.1529 C   0  0  0  0  0  0  0  0  0  0  0  0
    1.5589   -2.9699    2.5073 C   0  0  0  0  0  0  0  0  0  0  0  0
    0.9493   -4.0128    2.7118 O   0  0  0  0  0  0  0  0  0  0  0  0
    1.7947   -2.0358    3.4911 O   0  0  0  0  0  0  0  0  0  0  0  0
    2.6928   -0.9732    3.2647 C   0  0  0  0  0  0  0  0  0  0  0  0
    2.9773   -0.2091    4.3901 C   0  0  0  0  0  0  0  0  0  0  0  0
    3.9275    0.7952    4.3007 C   0  0  0  0  0  0  0  0  0  0  0  0
    4.6473    0.9897    3.1177 C   0  0  0  0  0  0  0  0  0  0  0  0
    5.6571    1.9668    3.1012 C   0  0  0  0  0  0  0  0  0  0  0  0
    6.4528    2.1613    1.9779 C   0  0  0  0  0  0  0  0  0  0  0  0
    6.2595    1.3635    0.8628 C   0  0  0  0  0  0  0  0  0  0  0  0
    5.2498    0.3950    0.8629 C   0  0  0  0  0  0  0  0  0  0  0  0
    4.3738    0.1979    1.9633 C   0  0  0  0  0  0  0  0  0  0  0  0
    3.2928   -0.7468    2.0158 C   0  0  0  0  0  0  0  0  0  0  0  0
    0.6171    0.9413   -0.0800 N   0  0  0  0  0  0  0  0  0  0  0  0
   -0.5264    1.5761    0.3215 N   0  0  0  0  0  0  0  0  0  0  0  0
   -1.5758    0.9210   -0.1526 C   0  0  0  0  0  0  0  0  0  0  0  0
   -2.9601    1.2776    0.1690 C   0  0  0  0  0  0  0  0  0  0  0  0
   -4.0120    0.3629    0.2724 C   0  0  0  0  0  0  0  0  0  0  0  0
   -5.2989    0.8047    0.5851 C   0  0  0  0  0  0  0  0  0  0  0  0
   -5.5000    2.1565    0.7995 C   0  0  0  0  0  0  0  0  0  0  0  0
   -4.5147    3.0736    0.7318 N   0  0  0  0  0  0  0  0  0  0  0  0
   -3.2740    2.6122    0.4308 C   0  0  0  0  0  0  0  0  0  0  0  0
   -3.4576    1.9338   -2.4434 H   0  0  0  0  0  0  0  0  0  0  0  0
   -4.5772    0.9252   -3.3688 H   0  0  0  0  0  0  0  0  0  0  0  0
   -3.6623    2.2119   -4.1667 H   0  0  0  0  0  0  0  0  0  0  0  0
   -2.6321    0.1271   -4.7517 H   0  0  0  0  0  0  0  0  0  0  0  0
   -0.3028    0.4826   -3.9415 H   0  0  0  0  0  0  0  0  0  0  0  0
   -1.1209    1.9080   -4.5850 H   0  0  0  0  0  0  0  0  0  0  0  0
   -0.9192    1.7479   -2.8512 H   0  0  0  0  0  0  0  0  0  0  0  0
   -3.9041   -1.6983   -4.3050 H   0  0  0  0  0  0  0  0  0  0  0  0
   -4.0608   -3.8767   -3.1980 H   0  0  0  0  0  0  0  0  0  0  0  0
   -2.7890   -4.3278   -1.1174 H   0  0  0  0  0  0  0  0  0  0  0  0
   -1.4052   -2.5604   -0.1141 H   0  0  0  0  0  0  0  0  0  0  0  0
    3.0608    0.0864   -0.5691 H   0  0  0  0  0  0  0  0  0  0  0  0
    3.6653   -1.5098   -1.0454 H   0  0  0  0  0  0  0  0  0  0  0  0
    1.5492   -3.2293    0.3842 H   0  0  0  0  0  0  0  0  0  0  0  0
    2.4645   -0.3993    5.3278 H   0  0  0  0  0  0  0  0  0  0  0  0
    4.1337    1.3978    5.1822 H   0  0  0  0  0  0  0  0  0  0  0  0
    5.8407    2.5847    3.9782 H   0  0  0  0  0  0  0  0  0  0  0  0
    7.2317    2.9182    1.9839 H   0  0  0  0  0  0  0  0  0  0  0  0
    6.8967    1.4832   -0.0098 H   0  0  0  0  0  0  0  0  0  0  0  0
    5.1958   -0.2337   -0.0177 H   0  0  0  0  0  0  0  0  0  0  0  0
   -3.8615   -0.7022    0.1344 H   0  0  0  0  0  0  0  0  0  0  0  0
   -6.1243    0.1046    0.6661 H   0  0  0  0  0  0  0  0  0  0  0  0
   -6.4836    2.5464    1.0455 H   0  0  0  0  0  0  0  0  0  0  0  0
   -2.5068    3.3843    0.3972 H   0  0  0  0  0  0  0  0  0  0  0  0
  1  2  1  0
  2  3  1  0
  2  4  1  0
  4  5  2  0
  5  6  1  0
  6  7  2  0
  7  8  1  0
  8  9  2  0
  9 10  1  0
 10 11  1  0
 11 12  1  0
 12 13  1  0
 13 14  1  0
 14 15  2  0
 15 16  1  0
 16 17  2  0
 16 18  1  0
 18 19  1  0
 19 20  2  0
 20 21  1  0
 21 22  2  0
 22 23  1  0
 23 24  2  0
 24 25  1  0
 25 26  2  0
 26 27  1  0
 27 28  2  0
 11 29  2  0
 29 30  1  0
 30 31  2  0
 31 32  1  0
 32 33  2  0
 33 34  1  0
 34 35  2  0
 35 36  1  0
 36 37  2  0
  9  4  1  0
 31 10  1  0
 37 32  1  0
 28 14  1  0
 28 19  1  0
 27 22  1  0
  1 38  1  0
  1 39  1  0
  1 40  1  0
  2 41  1  0
  3 42  1  0
  3 43  1  0
  3 44  1  0
  5 45  1  0
  6 46  1  0
  7 47  1  0
  8 48  1  0
 13 49  1  0
 13 50  1  0
 15 51  1  0
 20 52  1  0
 21 53  1  0
 23 54  1  0
 24 55  1  0
 25 56  1  0
 26 57  1  0
 33 58  1  0
 34 59  1  0
 35 60  1  0
 37 61  1  0
M  END
$$$$
