
     RDKit          3D

 47 50  0  0  0  0  0  0  0  0999 V2000
   -6.4625   -2.7982    1.8887 C   0  0  0  0  0  0  0  0  0  0  0  0
   -5.6778   -1.7790    1.2664 O   0  0  0  0  0  0  0  0  0  0  0  0
   -6.2359   -1.2662    0.1411 C   0  0  0  0  0  0  0  0  0  0  0  0
   -7.2974   -1.6124   -0.3513 O   0  0  0  0  0  0  0  0  0  0  0  0
   -5.3614   -0.2103   -0.4424 C   0  0  0  0  0  0  0  0  0  0  0  0
   -5.7447    0.3559   -1.6637 C   0  0  0  0  0  0  0  0  0  0  0  0
   -4.9722    1.3600   -2.2425 C   0  0  0  0  0  0  0  0  0  0  0  0
   -3.8073    1.7971   -1.6096 C   0  0  0  0  0  0  0  0  0  0  0  0
   -3.3936    1.2264   -0.3927 C   0  0  0  0  0  0  0  0  0  0  0  0
   -2.1966    1.7037    0.2116 N   0  0  0  0  0  0  0  0  0  0  0  0
   -1.6679    2.8967   -0.1759 N   0  0  0  0  0  0  0  0  0  0  0  0
   -0.6388    3.1319    0.6220 N   0  0  0  0  0  0  0  0  0  0  0  0
   -0.4431    2.0974    1.4901 N   0  0  0  0  0  0  0  0  0  0  0  0
   -1.3726    1.2097    1.2159 C   0  0  0  0  0  0  0  0  0  0  0  0
   -1.3844   -0.3643    1.9439 S   0  0  0  0  0  0  0  0  0  0  0  0
   -0.8846   -1.4205    0.5565 C   0  0  0  0  0  0  0  0  0  0  0  0
    0.3067   -0.8550   -0.1955 C   0  0  0  0  0  0  0  0  0  0  0  0
    0.1369   -0.3697   -1.3103 O   0  0  0  0  0  0  0  0  0  0  0  0
    1.4861   -0.9712    0.5016 N   0  0  0  0  0  0  0  0  0  0  0  0
    2.7277   -0.5470    0.1067 C   0  0  0  0  0  0  0  0  0  0  0  0
    3.7651   -0.6842    0.9031 N   0  0  0  0  0  0  0  0  0  0  0  0
    4.8845   -0.1773    0.2769 C   0  0  0  0  0  0  0  0  0  0  0  0
    4.6713    0.3299   -0.9878 C   0  0  0  0  0  0  0  0  0  0  0  0
    3.0353    0.1615   -1.4151 S   0  0  0  0  0  0  0  0  0  0  0  0
    5.7179    0.9140   -1.8722 C   0  0  0  0  0  0  0  0  0  0  0  0
    6.9799    1.2392   -1.0512 C   0  0  0  0  0  0  0  0  0  0  0  0
    7.3425    0.1094   -0.0700 C   0  0  0  0  0  0  0  0  0  0  0  0
    6.2165   -0.1560    0.9460 C   0  0  0  0  0  0  0  0  0  0  0  0
   -4.1893    0.2339    0.1959 C   0  0  0  0  0  0  0  0  0  0  0  0
   -7.4377   -2.4022    2.1888 H   0  0  0  0  0  0  0  0  0  0  0  0
   -6.5802   -3.6542    1.2169 H   0  0  0  0  0  0  0  0  0  0  0  0
   -5.9336   -3.1319    2.7857 H   0  0  0  0  0  0  0  0  0  0  0  0
   -6.6519    0.0226   -2.1655 H   0  0  0  0  0  0  0  0  0  0  0  0
   -5.2751    1.8029   -3.1889 H   0  0  0  0  0  0  0  0  0  0  0  0
   -3.2220    2.5776   -2.0965 H   0  0  0  0  0  0  0  0  0  0  0  0
   -0.6351   -2.4173    0.9348 H   0  0  0  0  0  0  0  0  0  0  0  0
   -1.7207   -1.5400   -0.1399 H   0  0  0  0  0  0  0  0  0  0  0  0
    1.4824   -1.3237    1.4492 H   0  0  0  0  0  0  0  0  0  0  0  0
    5.3582    1.8230   -2.3668 H   0  0  0  0  0  0  0  0  0  0  0  0
    5.9716    0.1878   -2.6540 H   0  0  0  0  0  0  0  0  0  0  0  0
    7.8183    1.4270   -1.7314 H   0  0  0  0  0  0  0  0  0  0  0  0
    6.8167    2.1639   -0.4823 H   0  0  0  0  0  0  0  0  0  0  0  0
    8.2650    0.3604    0.4653 H   0  0  0  0  0  0  0  0  0  0  0  0
    7.5423   -0.8063   -0.6413 H   0  0  0  0  0  0  0  0  0  0  0  0
    6.2145    0.6370    1.7034 H   0  0  0  0  0  0  0  0  0  0  0  0
    6.3995   -1.1047    1.4619 H   0  0  0  0  0  0  0  0  0  0  0  0
   -3.9525   -0.1773    1.1702 H   0  0  0  0  0  0  0  0  0  0  0  0
  1  2  1  0
  2  3  1  0
  3  4  2  0
  3  5  1  0
  5  6  2  0
  6  7  1  0
  7  8  2  0
  8  9  1  0
  9 10  1  0
 10 11  1  0
 11 12  2  0
 12 13  1  0
 13 14  2  0
 14 15  1  0
 15 16  1  0
 16 17  1  0
 17 18  2  0
 17 19  1  0
 19 20  1  0
 20 21  2  0
 21 22  1  0
 22 23  2  0
 23 24  1  0
 23 25  1  0
 25 26  1  0
 26 27  1  0
 27 28  1  0
  9 29  2  0
 29  5  1  0
 14 10  1  0
 24 20  1  0
 28 22  1  0
  1 30  1  0
  1 31  1  0
  1 32  1  0
  6 33  1  0
  7 34  1  0
  8 35  1  0
 16 36  1  0
 16 37  1  0
 19 38  1  0
 25 39  1  0
 25 40  1  0
 26 41  1  0
 26 42  1  0
 27 43  1  0
 27 44  1  0
 28 45  1  0
 28 46  1  0
 29 47  1  0
M  END
$$$$
