
     RDKit          3D

 61 65  0  0  0  0  0  0  0  0999 V2000
   -9.4795    2.1670   -0.3594 C   0  0  0  0  0  0  0  0  0  0  0  0
   -8.1342    1.5113   -0.2613 C   0  0  0  0  0  0  0  0  0  0  0  0
   -7.1416    2.0445    0.5654 C   0  0  0  0  0  0  0  0  0  0  0  0
   -5.8975    1.4127    0.6811 C   0  0  0  0  0  0  0  0  0  0  0  0
   -5.6100    0.2262   -0.0177 C   0  0  0  0  0  0  0  0  0  0  0  0
   -4.2986   -0.4454    0.0849 C   0  0  0  0  0  0  0  0  0  0  0  0
   -3.1080    0.2477    0.2124 C   0  0  0  0  0  0  0  0  0  0  0  0
   -1.9170   -0.4778    0.2832 C   0  0  0  0  0  0  0  0  0  0  0  0
   -0.6735    0.3273    0.3365 C   0  0  0  0  0  0  0  0  0  0  0  0
   -0.5666    1.1630    1.2235 O   0  0  0  0  0  0  0  0  0  0  0  0
    0.2163    0.0596   -0.6851 N   0  0  0  0  0  0  0  0  0  0  0  0
    1.4507    0.6930   -0.9345 C   0  0  0  0  0  0  0  0  0  0  0  0
    2.2138    0.2031   -2.0045 C   0  0  0  0  0  0  0  0  0  0  0  0
    3.4487    0.7735   -2.3222 C   0  0  0  0  0  0  0  0  0  0  0  0
    3.9270    1.8403   -1.5622 C   0  0  0  0  0  0  0  0  0  0  0  0
    5.4944    2.5836   -1.9533 S   0  0  0  0  0  6  0  0  0  0  0  0
    5.3191    4.0178   -1.8345 O   0  0  0  0  0  0  0  0  0  0  0  0
    5.9957    1.9893   -3.1726 O   0  0  0  0  0  0  0  0  0  0  0  0
    6.4855    2.1332   -0.6770 N   0  0  0  0  0  0  0  0  0  0  0  0
    6.4848    0.7345   -0.3032 C   0  0  0  0  0  0  0  0  0  0  0  0
    6.3089   -0.3069   -1.1580 O   0  0  0  0  0  0  0  0  0  0  0  0
    6.3520   -1.4974   -0.4589 N   0  0  0  0  0  0  0  0  0  0  0  0
    6.5832   -1.1609    0.8148 C   0  0  0  0  0  0  0  0  0  0  0  0
    6.7002   -2.2160    1.8496 C   0  0  0  0  0  0  0  0  0  0  0  0
    6.6726    0.2513    0.9745 C   0  0  0  0  0  0  0  0  0  0  0  0
    6.9113    1.0129    2.2197 C   0  0  0  0  0  0  0  0  0  0  0  0
    3.1695    2.3540   -0.5069 C   0  0  0  0  0  0  0  0  0  0  0  0
    1.9377    1.7717   -0.1903 C   0  0  0  0  0  0  0  0  0  0  0  0
   -1.9183   -1.8901    0.2785 C   0  0  0  0  0  0  0  0  0  0  0  0
   -0.7702   -2.7130    0.4285 C   0  0  0  0  0  0  0  0  0  0  0  0
   -0.8715   -4.1025    0.3908 C   0  0  0  0  0  0  0  0  0  0  0  0
   -2.1156   -4.6907    0.2168 C   0  0  0  0  0  0  0  0  0  0  0  0
   -3.2506   -3.8851    0.0936 C   0  0  0  0  0  0  0  0  0  0  0  0
   -3.1774   -2.4989    0.1282 C   0  0  0  0  0  0  0  0  0  0  0  0
   -4.3205   -1.7995    0.0188 N   0  0  0  0  0  0  0  0  0  0  0  0
   -6.6307   -0.3100   -0.8230 C   0  0  0  0  0  0  0  0  0  0  0  0
   -7.8746    0.3196   -0.9433 C   0  0  0  0  0  0  0  0  0  0  0  0
  -10.1587    1.7428    0.3877 H   0  0  0  0  0  0  0  0  0  0  0  0
   -9.9127    2.0209   -1.3540 H   0  0  0  0  0  0  0  0  0  0  0  0
   -9.4022    3.2471   -0.1946 H   0  0  0  0  0  0  0  0  0  0  0  0
   -7.3282    2.9548    1.1315 H   0  0  0  0  0  0  0  0  0  0  0  0
   -5.1604    1.8544    1.3484 H   0  0  0  0  0  0  0  0  0  0  0  0
   -3.0858    1.3337    0.2281 H   0  0  0  0  0  0  0  0  0  0  0  0
   -0.0509   -0.6607   -1.3472 H   0  0  0  0  0  0  0  0  0  0  0  0
    1.8633   -0.6357   -2.6021 H   0  0  0  0  0  0  0  0  0  0  0  0
    4.0296    0.3741   -3.1514 H   0  0  0  0  0  0  0  0  0  0  0  0
    6.5835    2.8458    0.0419 H   0  0  0  0  0  0  0  0  0  0  0  0
    5.7711   -2.2822    2.4242 H   0  0  0  0  0  0  0  0  0  0  0  0
    7.5169   -1.9888    2.5433 H   0  0  0  0  0  0  0  0  0  0  0  0
    6.9020   -3.1964    1.4051 H   0  0  0  0  0  0  0  0  0  0  0  0
    6.6805    0.4164    3.1064 H   0  0  0  0  0  0  0  0  0  0  0  0
    6.2838    1.9095    2.2553 H   0  0  0  0  0  0  0  0  0  0  0  0
    7.9595    1.3217    2.2801 H   0  0  0  0  0  0  0  0  0  0  0  0
    3.5204    3.2072    0.0682 H   0  0  0  0  0  0  0  0  0  0  0  0
    1.3760    2.1910    0.6387 H   0  0  0  0  0  0  0  0  0  0  0  0
    0.2137   -2.2781    0.5968 H   0  0  0  0  0  0  0  0  0  0  0  0
    0.0163   -4.7228    0.5042 H   0  0  0  0  0  0  0  0  0  0  0  0
   -2.2123   -5.7732    0.1886 H   0  0  0  0  0  0  0  0  0  0  0  0
   -4.2252   -4.3550   -0.0267 H   0  0  0  0  0  0  0  0  0  0  0  0
   -6.4581   -1.2371   -1.3688 H   0  0  0  0  0  0  0  0  0  0  0  0
   -8.6377   -0.1323   -1.5736 H   0  0  0  0  0  0  0  0  0  0  0  0
  1  2  1  0
  2  3  2  0
  3  4  1  0
  4  5  2  0
  5  6  1  0
  6  7  2  0
  7  8  1  0
  8  9  1  0
  9 10  2  0
  9 11  1  0
 11 12  1  0
 12 13  2  0
 13 14  1  0
 14 15  2  0
 15 16  1  0
 16 17  2  0
 16 18  2  0
 16 19  1  0
 19 20  1  0
 20 21  1  0
 21 22  1  0
 22 23  2  0
 23 24  1  0
 23 25  1  0
 25 26  1  0
 15 27  1  0
 27 28  2  0
  8 29  2  0
 29 30  1  0
 30 31  2  0
 31 32  1  0
 32 33  2  0
 33 34  1  0
 34 35  2  0
  5 36  1  0
 36 37  2  0
 37  2  1  0
 35  6  1  0
 28 12  1  0
 34 29  1  0
 25 20  2  0
  1 38  1  0
  1 39  1  0
  1 40  1  0
  3 41  1  0
  4 42  1  0
  7 43  1  0
 11 44  1  0
 13 45  1  0
 14 46  1  0
 19 47  1  0
 24 48  1  0
 24 49  1  0
 24 50  1  0
 26 51  1  0
 26 52  1  0
 26 53  1  0
 27 54  1  0
 28 55  1  0
 30 56  1  0
 31 57  1  0
 32 58  1  0
 33 59  1  0
 36 60  1  0
 37 61  1  0
M  END
$$$$
