
     RDKit          3D

 47 50  0  0  0  0  0  0  0  0999 V2000
   -9.5923   -0.6006    0.9641 C   0  0  0  0  0  0  0  0  0  0  0  0
   -8.1826   -0.6688    0.7386 O   0  0  0  0  0  0  0  0  0  0  0  0
   -7.8197   -0.4688   -0.5515 C   0  0  0  0  0  0  0  0  0  0  0  0
   -8.5790   -0.2434   -1.4811 O   0  0  0  0  0  0  0  0  0  0  0  0
   -6.3413   -0.5652   -0.7052 C   0  0  0  0  0  0  0  0  0  0  0  0
   -5.8000   -0.3698   -1.9791 C   0  0  0  0  0  0  0  0  0  0  0  0
   -4.4242   -0.4667   -2.1763 C   0  0  0  0  0  0  0  0  0  0  0  0
   -3.5722   -0.7531   -1.1035 C   0  0  0  0  0  0  0  0  0  0  0  0
   -4.0877   -0.9368    0.1849 C   0  0  0  0  0  0  0  0  0  0  0  0
   -3.2676   -1.2372    1.3139 N   0  0  0  0  0  0  0  0  0  0  0  0
   -3.8525   -1.6180    2.4857 N   0  0  0  0  0  0  0  0  0  0  0  0
   -2.8750   -1.9128    3.3256 N   0  0  0  0  0  0  0  0  0  0  0  0
   -1.6577   -1.6925    2.7561 N   0  0  0  0  0  0  0  0  0  0  0  0
   -1.8934   -1.2584    1.5371 C   0  0  0  0  0  0  0  0  0  0  0  0
   -0.6422   -0.7063    0.4767 S   0  0  0  0  0  0  0  0  0  0  0  0
    0.7888   -1.5783    1.1787 C   0  0  0  0  0  0  0  0  0  0  0  0
    2.0001   -1.3292    0.2951 C   0  0  0  0  0  0  0  0  0  0  0  0
    2.1844   -2.0104   -0.7090 O   0  0  0  0  0  0  0  0  0  0  0  0
    2.7843   -0.2926    0.7512 N   0  0  0  0  0  0  0  0  0  0  0  0
    3.9440    0.1796    0.1945 C   0  0  0  0  0  0  0  0  0  0  0  0
    4.5794    1.1947    0.7387 N   0  0  0  0  0  0  0  0  0  0  0  0
    5.7151    1.4635    0.0038 C   0  0  0  0  0  0  0  0  0  0  0  0
    5.9118    0.6488   -1.0924 C   0  0  0  0  0  0  0  0  0  0  0  0
    4.6552   -0.4900   -1.2059 S   0  0  0  0  0  0  0  0  0  0  0  0
    7.0705    0.7209   -2.0256 C   0  0  0  0  0  0  0  0  0  0  0  0
    7.8126    2.0589   -1.8429 C   0  0  0  0  0  0  0  0  0  0  0  0
    7.9905    2.4288   -0.3580 C   0  0  0  0  0  0  0  0  0  0  0  0
    6.6386    2.5781    0.3627 C   0  0  0  0  0  0  0  0  0  0  0  0
   -5.4844   -0.8493    0.3707 C   0  0  0  0  0  0  0  0  0  0  0  0
   -9.9851    0.3750    0.6608 H   0  0  0  0  0  0  0  0  0  0  0  0
   -9.7727   -0.7277    2.0350 H   0  0  0  0  0  0  0  0  0  0  0  0
  -10.1011   -1.4076    0.4274 H   0  0  0  0  0  0  0  0  0  0  0  0
   -6.4483   -0.1500   -2.8261 H   0  0  0  0  0  0  0  0  0  0  0  0
   -4.0111   -0.3288   -3.1742 H   0  0  0  0  0  0  0  0  0  0  0  0
   -2.5205   -0.8514   -1.3433 H   0  0  0  0  0  0  0  0  0  0  0  0
    0.6057   -2.6577    1.2112 H   0  0  0  0  0  0  0  0  0  0  0  0
    0.9826   -1.2362    2.2005 H   0  0  0  0  0  0  0  0  0  0  0  0
    2.5100    0.2321    1.5709 H   0  0  0  0  0  0  0  0  0  0  0  0
    7.7569   -0.1062   -1.8074 H   0  0  0  0  0  0  0  0  0  0  0  0
    6.7476    0.6201   -3.0681 H   0  0  0  0  0  0  0  0  0  0  0  0
    7.2500    2.8596   -2.3421 H   0  0  0  0  0  0  0  0  0  0  0  0
    8.7904    2.0026   -2.3339 H   0  0  0  0  0  0  0  0  0  0  0  0
    8.5561    3.3643   -0.2699 H   0  0  0  0  0  0  0  0  0  0  0  0
    8.5839    1.6474    0.1352 H   0  0  0  0  0  0  0  0  0  0  0  0
    6.7973    2.6111    1.4461 H   0  0  0  0  0  0  0  0  0  0  0  0
    6.1717    3.5253    0.0672 H   0  0  0  0  0  0  0  0  0  0  0  0
   -5.9168   -0.9968    1.3587 H   0  0  0  0  0  0  0  0  0  0  0  0
  1  2  1  0
  2  3  1  0
  3  4  2  0
  3  5  1  0
  5  6  2  0
  6  7  1  0
  7  8  2  0
  8  9  1  0
  9 10  1  0
 10 11  1  0
 11 12  2  0
 12 13  1  0
 13 14  2  0
 14 15  1  0
 15 16  1  0
 16 17  1  0
 17 18  2  0
 17 19  1  0
 19 20  1  0
 20 21  2  0
 21 22  1  0
 22 23  2  0
 23 24  1  0
 23 25  1  0
 25 26  1  0
 26 27  1  0
 27 28  1  0
  9 29  2  0
 29  5  1  0
 14 10  1  0
 24 20  1  0
 28 22  1  0
  1 30  1  0
  1 31  1  0
  1 32  1  0
  6 33  1  0
  7 34  1  0
  8 35  1  0
 16 36  1  0
 16 37  1  0
 19 38  1  0
 25 39  1  0
 25 40  1  0
 26 41  1  0
 26 42  1  0
 27 43  1  0
 27 44  1  0
 28 45  1  0
 28 46  1  0
 29 47  1  0
M  END
$$$$
