
     RDKit          3D

 57 62  0  0  0  0  0  0  0  0999 V2000
    8.8044   -0.0492   -0.4940 C   0  0  0  0  0  0  0  0  0  0  0  0
    7.9140   -1.1444   -0.6825 O   0  0  0  0  0  0  0  0  0  0  0  0
    6.5800   -0.8593   -0.7365 C   0  0  0  0  0  0  0  0  0  0  0  0
    6.0117    0.4120   -0.7780 C   0  0  0  0  0  0  0  0  0  0  0  0
    4.6191    0.5616   -0.8323 C   0  0  0  0  0  0  0  0  0  0  0  0
    3.7839   -0.5626   -0.8493 C   0  0  0  0  0  0  0  0  0  0  0  0
    2.2239   -0.3818   -0.9005 C   0  0  0  0  0  0  0  0  0  0  0  0
    1.5331    0.8254   -0.9015 C   0  0  0  0  0  0  0  0  0  0  0  0
    0.1645    0.5615   -0.9216 N   0  0  0  0  0  4  0  0  0  0  0  0
   -0.9322    1.5418   -0.8321 C   0  0  0  0  0  0  0  0  0  0  0  0
   -1.4969    1.5485    0.6046 C   0  0  0  0  0  0  0  0  0  0  0  0
   -0.6913    1.6401    1.5364 O   0  0  0  0  0  0  0  0  0  0  0  0
   -2.8683    1.2611    0.7194 N   0  0  0  0  0  0  0  0  0  0  0  0
   -3.3936    0.5278    1.8493 C   0  0  0  0  0  0  0  0  0  0  0  0
   -2.7891    0.6049    3.1171 C   0  0  0  0  0  0  0  0  0  0  0  0
   -3.2757   -0.1225    4.2095 C   0  0  0  0  0  0  0  0  0  0  0  0
   -4.3793   -0.9506    4.0603 C   0  0  0  0  0  0  0  0  0  0  0  0
   -4.9970   -1.0496    2.8173 C   0  0  0  0  0  0  0  0  0  0  0  0
   -4.5150   -0.3170    1.7199 C   0  0  0  0  0  0  0  0  0  0  0  0
   -5.3194   -0.5854    0.1556 S   0  0  0  0  0  0  0  0  0  0  0  0
   -4.9726    0.9832   -0.5897 C   0  0  0  0  0  0  0  0  0  0  0  0
   -5.8618    1.4607   -1.5631 C   0  0  0  0  0  0  0  0  0  0  0  0
   -5.6335    2.6810   -2.1948 C   0  0  0  0  0  0  0  0  0  0  0  0
   -4.5180    3.4362   -1.8531 C   0  0  0  0  0  0  0  0  0  0  0  0
   -3.6248    2.9624   -0.8894 C   0  0  0  0  0  0  0  0  0  0  0  0
   -3.8214    1.7151   -0.2602 C   0  0  0  0  0  0  0  0  0  0  0  0
    0.0130   -0.7576   -0.8938 C   0  0  0  0  0  0  0  0  0  0  0  0
    1.2123   -1.3277   -0.9348 N   0  0  0  0  0  0  0  0  0  0  0  0
    1.1191   -2.7815   -0.9208 C   0  0  0  0  0  0  0  0  0  0  0  0
   -0.3890   -3.0523   -1.1882 C   0  0  0  0  0  0  0  0  0  0  0  0
   -1.1021   -1.7329   -0.8338 C   0  0  0  0  0  0  0  0  0  0  0  0
    4.3544   -1.8346   -0.8122 C   0  0  0  0  0  0  0  0  0  0  0  0
    5.7450   -1.9768   -0.7587 C   0  0  0  0  0  0  0  0  0  0  0  0
    8.7982    0.6131   -1.3656 H   0  0  0  0  0  0  0  0  0  0  0  0
    8.5679    0.5029    0.4224 H   0  0  0  0  0  0  0  0  0  0  0  0
    9.8164   -0.4543   -0.3876 H   0  0  0  0  0  0  0  0  0  0  0  0
    6.6258    1.3068   -0.7765 H   0  0  0  0  0  0  0  0  0  0  0  0
    4.2235    1.5721   -0.8643 H   0  0  0  0  0  0  0  0  0  0  0  0
    1.8450    1.8555   -0.8662 H   0  0  0  0  0  0  0  0  0  0  0  0
   -0.5496    2.5390   -1.0677 H   0  0  0  0  0  0  0  0  0  0  0  0
   -1.6639    1.2490   -1.5876 H   0  0  0  0  0  0  0  0  0  0  0  0
   -1.9515    1.2680    3.3162 H   0  0  0  0  0  0  0  0  0  0  0  0
   -2.7926   -0.0282    5.1816 H   0  0  0  0  0  0  0  0  0  0  0  0
   -4.7612   -1.5134    4.9096 H   0  0  0  0  0  0  0  0  0  0  0  0
   -5.8602   -1.7053    2.7102 H   0  0  0  0  0  0  0  0  0  0  0  0
   -6.7506    0.8891   -1.8286 H   0  0  0  0  0  0  0  0  0  0  0  0
   -6.3381    3.0502   -2.9372 H   0  0  0  0  0  0  0  0  0  0  0  0
   -4.3584    4.4066   -2.3215 H   0  0  0  0  0  0  0  0  0  0  0  0
   -2.8059    3.6208   -0.6037 H   0  0  0  0  0  0  0  0  0  0  0  0
    1.4165   -3.1450    0.0679 H   0  0  0  0  0  0  0  0  0  0  0  0
    1.7393   -3.2213   -1.7057 H   0  0  0  0  0  0  0  0  0  0  0  0
   -0.7725   -3.9111   -0.6282 H   0  0  0  0  0  0  0  0  0  0  0  0
   -0.5277   -3.2584   -2.2578 H   0  0  0  0  0  0  0  0  0  0  0  0
   -1.4731   -1.7206    0.1944 H   0  0  0  0  0  0  0  0  0  0  0  0
   -1.8709   -1.4442   -1.5524 H   0  0  0  0  0  0  0  0  0  0  0  0
    3.7598   -2.7376   -0.8122 H   0  0  0  0  0  0  0  0  0  0  0  0
    6.1866   -2.9713   -0.7264 H   0  0  0  0  0  0  0  0  0  0  0  0
  1  2  1  0
  2  3  1  0
  3  4  2  0
  4  5  1  0
  5  6  2  0
  6  7  1  0
  7  8  2  0
  8  9  1  0
  9 10  1  0
 10 11  1  0
 11 12  2  0
 11 13  1  0
 13 14  1  0
 14 15  2  0
 15 16  1  0
 16 17  2  0
 17 18  1  0
 18 19  2  0
 19 20  1  0
 20 21  1  0
 21 22  2  0
 22 23  1  0
 23 24  2  0
 24 25  1  0
 25 26  2  0
  9 27  2  0
 27 28  1  0
 28 29  1  0
 29 30  1  0
 30 31  1  0
  6 32  1  0
 32 33  2  0
 33  3  1  0
 28  7  1  0
 26 13  1  0
 31 27  1  0
 19 14  1  0
 26 21  1  0
  1 34  1  0
  1 35  1  0
  1 36  1  0
  4 37  1  0
  5 38  1  0
  8 39  1  0
 10 40  1  0
 10 41  1  0
 15 42  1  0
 16 43  1  0
 17 44  1  0
 18 45  1  0
 22 46  1  0
 23 47  1  0
 24 48  1  0
 25 49  1  0
 29 50  1  0
 29 51  1  0
 30 52  1  0
 30 53  1  0
 31 54  1  0
 31 55  1  0
 32 56  1  0
 33 57  1  0
M  CHG  1   9   1
M  END
$$$$
