
     RDKit          3D

 40 42  0  0  0  0  0  0  0  0999 V2000
   -5.9962    0.8154   -0.5247 C   0  0  0  0  0  0  0  0  0  0  0  0
   -5.4309    0.0486    0.6850 C   0  0  0  0  0  0  0  0  0  0  0  0
   -5.8607   -1.4281    0.6108 C   0  0  0  0  0  0  0  0  0  0  0  0
   -6.0438    0.6589    1.9641 C   0  0  0  0  0  0  0  0  0  0  0  0
   -3.9146    0.1647    0.7334 C   0  0  0  0  0  0  0  0  0  0  0  0
   -3.2331    0.7077    1.7249 N   0  0  0  0  0  0  0  0  0  0  0  0
   -1.8715    0.6800    1.5076 N   0  0  0  0  0  0  0  0  0  0  0  0
   -1.5631    0.1184    0.3612 C   0  0  0  0  0  0  0  0  0  0  0  0
   -0.2671   -0.0163   -0.0596 N   0  0  0  0  0  0  0  0  0  0  0  0
    0.1826   -0.5813   -1.2297 C   0  0  0  0  0  0  0  0  0  0  0  0
   -0.5002   -1.0745   -2.1228 O   0  0  0  0  0  0  0  0  0  0  0  0
    1.7095   -0.5518   -1.3538 C   0  0  0  0  0  0  0  0  0  0  0  0
    2.3077    0.0614   -0.2135 O   0  0  0  0  0  0  0  0  0  0  0  0
    3.6740    0.1487   -0.2041 C   0  0  0  0  0  0  0  0  0  0  0  0
    4.2087    0.7635    0.9468 C   0  0  0  0  0  0  0  0  0  0  0  0
    5.5886    0.9268    1.1047 C   0  0  0  0  0  0  0  0  0  0  0  0
    6.4026    0.4654    0.0959 C   0  0  0  0  0  0  0  0  0  0  0  0
    5.8865   -0.1346   -1.0281 C   0  0  0  0  0  0  0  0  0  0  0  0
    4.5286   -0.3091   -1.2107 C   0  0  0  0  0  0  0  0  0  0  0  0
    6.8569   -0.5180   -1.9016 O   0  0  0  0  0  0  0  0  0  0  0  0
    8.0418   -0.0900   -1.1973 C   0  0  0  0  0  0  0  0  0  0  0  0
    7.7595    0.5352    0.0718 O   0  0  0  0  0  0  0  0  0  0  0  0
   -2.9027   -0.4177   -0.5381 S   0  0  0  0  0  0  0  0  0  0  0  0
   -5.6629    0.3836   -1.4750 H   0  0  0  0  0  0  0  0  0  0  0  0
   -5.6812    1.8655   -0.5118 H   0  0  0  0  0  0  0  0  0  0  0  0
   -7.0922    0.7956   -0.5274 H   0  0  0  0  0  0  0  0  0  0  0  0
   -5.4473   -2.0046    1.4469 H   0  0  0  0  0  0  0  0  0  0  0  0
   -5.5246   -1.9061   -0.3162 H   0  0  0  0  0  0  0  0  0  0  0  0
   -6.9521   -1.5238    0.6464 H   0  0  0  0  0  0  0  0  0  0  0  0
   -5.7829    1.7191    2.0662 H   0  0  0  0  0  0  0  0  0  0  0  0
   -5.6876    0.1430    2.8638 H   0  0  0  0  0  0  0  0  0  0  0  0
   -7.1376    0.5876    1.9538 H   0  0  0  0  0  0  0  0  0  0  0  0
    0.4263    0.3508    0.5829 H   0  0  0  0  0  0  0  0  0  0  0  0
    2.0439   -1.5919   -1.4423 H   0  0  0  0  0  0  0  0  0  0  0  0
    1.9465    0.0203   -2.2583 H   0  0  0  0  0  0  0  0  0  0  0  0
    3.5394    1.1183    1.7278 H   0  0  0  0  0  0  0  0  0  0  0  0
    6.0027    1.3990    1.9882 H   0  0  0  0  0  0  0  0  0  0  0  0
    4.1803   -0.7885   -2.1164 H   0  0  0  0  0  0  0  0  0  0  0  0
    8.5851    0.6240   -1.8270 H   0  0  0  0  0  0  0  0  0  0  0  0
    8.6810   -0.9634   -1.0236 H   0  0  0  0  0  0  0  0  0  0  0  0
  1  2  1  0
  2  3  1  0
  2  4  1  0
  2  5  1  0
  5  6  2  0
  6  7  1  0
  7  8  2  0
  8  9  1  0
  9 10  1  0
 10 11  2  0
 10 12  1  0
 12 13  1  0
 13 14  1  0
 14 15  2  0
 15 16  1  0
 16 17  2  0
 17 18  1  0
 18 19  2  0
 18 20  1  0
 20 21  1  0
 21 22  1  0
  8 23  1  0
 23  5  1  0
 19 14  1  0
 22 17  1  0
  1 24  1  0
  1 25  1  0
  1 26  1  0
  3 27  1  0
  3 28  1  0
  3 29  1  0
  4 30  1  0
  4 31  1  0
  4 32  1  0
  9 33  1  0
 12 34  1  0
 12 35  1  0
 15 36  1  0
 16 37  1  0
 19 38  1  0
 21 39  1  0
 21 40  1  0
M  END
$$$$
