
     RDKit          3D

 36 36  0  0  0  0  0  0  0  0999 V2000
    0.4056   -5.7481    2.3635 C   0  0  0  0  0  0  0  0  0  0  0  0
    1.4035   -4.7492    2.9214 C   0  0  0  0  0  0  0  0  0  0  0  0
    1.2378   -3.4636    2.3261 O   0  0  0  0  0  0  0  0  0  0  0  0
    1.8704   -3.3422    1.0554 C   0  0  0  0  0  0  0  0  0  0  0  0
    1.6222   -1.9391    0.5138 C   0  0  0  0  0  0  0  0  0  0  0  0
    0.1424   -1.6946    0.2360 C   0  0  0  0  0  0  0  0  0  0  0  0
   -0.0838   -0.3637   -0.3007 N   0  0  0  0  0  0  0  0  0  0  0  0
   -1.3696    0.1031   -0.4832 C   0  0  0  0  0  0  0  0  0  0  0  0
   -2.3762   -0.5092   -0.1512 O   0  0  0  0  0  0  0  0  0  0  0  0
   -1.4535    1.4246   -1.1568 C   0  0  0  0  0  0  0  0  0  0  0  0
   -2.3145    1.5271   -2.2830 C   0  0  0  0  0  0  0  0  0  0  0  0
   -3.0094    1.6150   -3.2088 N   0  0  0  0  0  0  0  0  0  0  0  0
   -0.7913    2.4441   -0.5795 C   0  0  0  0  0  0  0  0  0  0  0  0
   -0.7790    3.7728   -1.0872 C   0  0  0  0  0  0  0  0  0  0  0  0
   -0.5834    4.9624   -0.3871 C   0  0  0  0  0  0  0  0  0  0  0  0
   -0.6414    6.0365   -1.3108 C   0  0  0  0  0  0  0  0  0  0  0  0
   -0.8450    5.4443   -2.5298 C   0  0  0  0  0  0  0  0  0  0  0  0
   -0.9674    5.9908   -3.8440 N   0  0  0  0  0  4  0  0  0  0  0  0
   -1.0095    5.2049   -4.7978 O   0  0  0  0  0  0  0  0  0  0  0  0
   -0.9980    7.2271   -3.9190 O   0  0  0  0  0  1  0  0  0  0  0  0
   -0.9281    4.0950   -2.4196 O   0  0  0  0  0  0  0  0  0  0  0  0
    0.5913   -5.9481    1.3042 H   0  0  0  0  0  0  0  0  0  0  0  0
    0.4654   -6.6962    2.9058 H   0  0  0  0  0  0  0  0  0  0  0  0
   -0.6146   -5.3585    2.4425 H   0  0  0  0  0  0  0  0  0  0  0  0
    1.2207   -4.6286    3.9942 H   0  0  0  0  0  0  0  0  0  0  0  0
    2.4336   -5.1033    2.8020 H   0  0  0  0  0  0  0  0  0  0  0  0
    2.9484   -3.4997    1.1734 H   0  0  0  0  0  0  0  0  0  0  0  0
    1.4796   -4.0893    0.3571 H   0  0  0  0  0  0  0  0  0  0  0  0
    1.9768   -1.1954    1.2383 H   0  0  0  0  0  0  0  0  0  0  0  0
    2.2005   -1.7977   -0.4069 H   0  0  0  0  0  0  0  0  0  0  0  0
   -0.4570   -1.8016    1.1470 H   0  0  0  0  0  0  0  0  0  0  0  0
   -0.2365   -2.4139   -0.4992 H   0  0  0  0  0  0  0  0  0  0  0  0
    0.6740    0.0834   -0.8017 H   0  0  0  0  0  0  0  0  0  0  0  0
   -0.2470    2.2741    0.3475 H   0  0  0  0  0  0  0  0  0  0  0  0
   -0.4283    5.0414    0.6818 H   0  0  0  0  0  0  0  0  0  0  0  0
   -0.5389    7.0954   -1.1150 H   0  0  0  0  0  0  0  0  0  0  0  0
  1  2  1  0
  2  3  1  0
  3  4  1  0
  4  5  1  0
  5  6  1  0
  6  7  1  0
  7  8  1  0
  8  9  2  0
  8 10  1  0
 10 11  1  0
 11 12  3  0
 10 13  2  3
 13 14  1  0
 14 15  2  0
 15 16  1  0
 16 17  2  0
 17 18  1  0
 18 19  2  0
 18 20  1  0
 17 21  1  0
 21 14  1  0
  1 22  1  0
  1 23  1  0
  1 24  1  0
  2 25  1  0
  2 26  1  0
  4 27  1  0
  4 28  1  0
  5 29  1  0
  5 30  1  0
  6 31  1  0
  6 32  1  0
  7 33  1  0
 13 34  1  0
 15 35  1  0
 16 36  1  0
M  CHG  2  18   1  20  -1
M  END
$$$$
