
     RDKit          3D

 32 32  0  0  0  0  0  0  0  0999 V2000
   -4.3613   -0.0720    1.1699 C   0  0  0  0  0  0  0  0  0  0  0  0
   -3.9958    0.2794    0.0808 C   0  0  0  0  0  0  0  0  0  0  0  0
   -3.5541    0.7188   -1.2521 C   0  0  0  0  0  0  0  0  0  0  0  0
   -2.5449   -0.1436   -1.8835 N   0  0  0  0  0  0  0  0  0  0  0  0
   -3.0892   -1.4618   -2.2164 C   0  0  0  0  0  0  0  0  0  0  0  0
   -1.2827   -0.2808   -1.1345 C   0  0  0  0  0  0  0  0  0  0  0  0
   -0.5975    1.0591   -0.8308 C   0  0  0  0  0  0  0  0  0  0  0  0
    0.8577    0.8765   -0.4004 C   0  0  0  0  0  0  0  0  0  0  0  0
    0.9238   -0.0075    0.7239 O   0  0  0  0  0  0  0  0  0  0  0  0
    2.1935   -0.0493    1.2359 C   0  0  0  0  0  0  0  0  0  0  0  0
    2.4990    0.8197    2.2855 C   0  0  0  0  0  0  0  0  0  0  0  0
    3.7696    0.7884    2.8617 C   0  0  0  0  0  0  0  0  0  0  0  0
    4.7196   -0.1219    2.3961 C   0  0  0  0  0  0  0  0  0  0  0  0
    6.2829   -0.1571    3.1126 Cl  0  0  0  0  0  0  0  0  0  0  0  0
    4.4109   -1.0099    1.3661 C   0  0  0  0  0  0  0  0  0  0  0  0
    3.1393   -0.9805    0.7915 C   0  0  0  0  0  0  0  0  0  0  0  0
    2.7711   -2.1160   -0.4551 Cl  0  0  0  0  0  0  0  0  0  0  0  0
   -4.6815   -0.3866    2.1366 H   0  0  0  0  0  0  0  0  0  0  0  0
   -3.1738    1.7451   -1.1910 H   0  0  0  0  0  0  0  0  0  0  0  0
   -4.4259    0.7904   -1.9152 H   0  0  0  0  0  0  0  0  0  0  0  0
   -3.9903   -1.3681   -2.8322 H   0  0  0  0  0  0  0  0  0  0  0  0
   -2.3682   -2.0331   -2.8115 H   0  0  0  0  0  0  0  0  0  0  0  0
   -3.3368   -2.0518   -1.3274 H   0  0  0  0  0  0  0  0  0  0  0  0
   -1.4388   -0.8365   -0.2003 H   0  0  0  0  0  0  0  0  0  0  0  0
   -0.5937   -0.8809   -1.7427 H   0  0  0  0  0  0  0  0  0  0  0  0
   -0.6178    1.7091   -1.7131 H   0  0  0  0  0  0  0  0  0  0  0  0
   -1.1401    1.5687   -0.0268 H   0  0  0  0  0  0  0  0  0  0  0  0
    1.2657    1.8604   -0.1270 H   0  0  0  0  0  0  0  0  0  0  0  0
    1.4491    0.4830   -1.2351 H   0  0  0  0  0  0  0  0  0  0  0  0
    1.7494    1.5147    2.6548 H   0  0  0  0  0  0  0  0  0  0  0  0
    4.0089    1.4692    3.6746 H   0  0  0  0  0  0  0  0  0  0  0  0
    5.1518   -1.7254    1.0211 H   0  0  0  0  0  0  0  0  0  0  0  0
  1  2  3  0
  2  3  1  0
  3  4  1  0
  4  5  1  0
  4  6  1  0
  6  7  1  0
  7  8  1  0
  8  9  1  0
  9 10  1  0
 10 11  2  0
 11 12  1  0
 12 13  2  0
 13 14  1  0
 13 15  1  0
 15 16  2  0
 16 17  1  0
 16 10  1  0
  1 18  1  0
  3 19  1  0
  3 20  1  0
  5 21  1  0
  5 22  1  0
  5 23  1  0
  6 24  1  0
  6 25  1  0
  7 26  1  0
  7 27  1  0
  8 28  1  0
  8 29  1  0
 11 30  1  0
 12 31  1  0
 15 32  1  0
M  END
$$$$
