
     RDKit          3D

 28 28  0  0  0  0  0  0  0  0999 V2000
   -2.5261   -0.2875    0.0068 C   0  0  0  0  0  0  0  0  0  0  0  0
   -1.8192   -1.6487    0.0145 C   0  0  0  0  0  0  0  0  0  0  0  0
   -1.5740   -2.1281   -1.4226 C   0  0  0  0  0  0  0  0  0  0  0  0
   -2.7354   -2.6634    0.7234 C   0  0  0  0  0  0  0  0  0  0  0  0
   -0.4649   -1.5774    0.7548 C   0  0  0  0  0  0  0  0  0  0  0  0
   -0.1667   -2.4049    1.6229 O   0  0  0  0  0  0  0  0  0  0  0  0
    0.5250   -0.4932    0.3685 C   0  0  0  0  0  0  0  0  0  0  0  0
    0.4917    0.8312    1.6065 S   0  0  0  0  0  0  0  0  0  0  0  0
    1.7850    1.8653    0.9714 C   0  0  0  0  0  0  0  0  0  0  0  0
    2.2520    1.6373   -0.2692 N   0  0  0  0  0  0  0  0  0  0  0  0
    3.2261    2.4606   -0.7013 C   0  0  0  0  0  0  0  0  0  0  0  0
    3.7387    3.4912    0.0487 C   0  0  0  0  0  0  0  0  0  0  0  0
    3.1879    3.6419    1.2977 C   0  0  0  0  0  0  0  0  0  0  0  0
    2.2137    2.8491    1.7794 N   0  0  0  0  0  0  0  0  0  0  0  0
   -3.5188   -0.3606   -0.4521 H   0  0  0  0  0  0  0  0  0  0  0  0
   -2.6567    0.0952    1.0252 H   0  0  0  0  0  0  0  0  0  0  0  0
   -1.9649    0.4633   -0.5591 H   0  0  0  0  0  0  0  0  0  0  0  0
   -1.0279   -3.0785   -1.4331 H   0  0  0  0  0  0  0  0  0  0  0  0
   -0.9811   -1.4082   -1.9964 H   0  0  0  0  0  0  0  0  0  0  0  0
   -2.5187   -2.2762   -1.9578 H   0  0  0  0  0  0  0  0  0  0  0  0
   -2.2923   -3.6661    0.7302 H   0  0  0  0  0  0  0  0  0  0  0  0
   -2.9113   -2.3754    1.7664 H   0  0  0  0  0  0  0  0  0  0  0  0
   -3.7096   -2.7359    0.2268 H   0  0  0  0  0  0  0  0  0  0  0  0
    0.2921   -0.1041   -0.6254 H   0  0  0  0  0  0  0  0  0  0  0  0
    1.5183   -0.9531    0.3237 H   0  0  0  0  0  0  0  0  0  0  0  0
    3.5942    2.2594   -1.7033 H   0  0  0  0  0  0  0  0  0  0  0  0
    4.5214    4.1398   -0.3185 H   0  0  0  0  0  0  0  0  0  0  0  0
    3.5212    4.4269    1.9703 H   0  0  0  0  0  0  0  0  0  0  0  0
  1  2  1  0
  2  3  1  0
  2  4  1  0
  2  5  1  0
  5  6  2  0
  5  7  1  0
  7  8  1  0
  8  9  1  0
  9 10  2  0
 10 11  1  0
 11 12  2  0
 12 13  1  0
 13 14  2  0
 14  9  1  0
  1 15  1  0
  1 16  1  0
  1 17  1  0
  3 18  1  0
  3 19  1  0
  3 20  1  0
  4 21  1  0
  4 22  1  0
  4 23  1  0
  7 24  1  0
  7 25  1  0
 11 26  1  0
 12 27  1  0
 13 28  1  0
M  END
$$$$
