
     RDKit          3D

 37 39  0  0  0  0  0  0  0  0999 V2000
   -4.1932   -2.0125   -1.0000 C   0  0  0  0  0  0  0  0  0  0  0  0
   -4.4823   -1.5914    0.4302 C   0  0  0  0  0  0  0  0  0  0  0  0
   -4.1714   -0.1917    0.6735 N   0  0  0  0  0  0  0  0  0  0  0  0
   -5.1969    0.6922    0.6837 N   0  0  0  0  0  0  0  0  0  0  0  0
   -4.6103    1.8584    0.9488 C   0  0  0  0  0  0  0  0  0  0  0  0
   -3.2235    1.7240    1.0727 C   0  0  0  0  0  0  0  0  0  0  0  0
   -2.0965    3.1568    1.5006 Br  0  0  0  0  0  0  0  0  0  0  0  0
   -2.9318    0.3905    0.8607 C   0  0  0  0  0  0  0  0  0  0  0  0
   -1.6763   -0.3369    0.8497 C   0  0  0  0  0  0  0  0  0  0  0  0
   -1.6345   -1.5233    1.1534 O   0  0  0  0  0  0  0  0  0  0  0  0
   -0.6024    0.4145    0.4133 N   0  0  0  0  0  0  0  0  0  0  0  0
    0.7296    0.0297    0.3252 C   0  0  0  0  0  0  0  0  0  0  0  0
    1.2706   -1.4512    0.9971 S   0  0  0  0  0  0  0  0  0  0  0  0
    2.8398   -1.1146    0.5575 C   0  0  0  0  0  0  0  0  0  0  0  0
    2.9972    0.0774   -0.0937 C   0  0  0  0  0  0  0  0  0  0  0  0
    1.7614    0.7731   -0.2637 C   0  0  0  0  0  0  0  0  0  0  0  0
    1.5134    2.0561   -0.9183 C   0  0  0  0  0  0  0  0  0  0  0  0
    2.5368    2.5886   -1.6467 N   0  0  0  0  0  0  0  0  0  0  0  0
    0.4318    2.6363   -0.8683 O   0  0  0  0  0  0  0  0  0  0  0  0
    4.4323    0.2979   -0.4206 C   0  0  0  0  0  0  0  0  0  0  0  0
    5.1516   -0.7797    0.4482 C   0  0  0  0  0  0  0  0  0  0  0  0
    4.0931   -1.8755    0.7649 C   0  0  0  0  0  0  0  0  0  0  0  0
   -3.1327   -1.9008   -1.2466 H   0  0  0  0  0  0  0  0  0  0  0  0
   -4.4672   -3.0615   -1.1486 H   0  0  0  0  0  0  0  0  0  0  0  0
   -4.7651   -1.4062   -1.7105 H   0  0  0  0  0  0  0  0  0  0  0  0
   -5.5474   -1.7347    0.6486 H   0  0  0  0  0  0  0  0  0  0  0  0
   -3.9316   -2.1992    1.1528 H   0  0  0  0  0  0  0  0  0  0  0  0
   -5.2230    2.7457    1.0431 H   0  0  0  0  0  0  0  0  0  0  0  0
   -0.7928    1.3537    0.0651 H   0  0  0  0  0  0  0  0  0  0  0  0
    2.3076    3.4035   -2.2000 H   0  0  0  0  0  0  0  0  0  0  0  0
    3.3229    2.0313   -1.9396 H   0  0  0  0  0  0  0  0  0  0  0  0
    4.6154    0.1108   -1.4839 H   0  0  0  0  0  0  0  0  0  0  0  0
    4.7786    1.3019   -0.1602 H   0  0  0  0  0  0  0  0  0  0  0  0
    5.4799   -0.3175    1.3888 H   0  0  0  0  0  0  0  0  0  0  0  0
    6.0396   -1.1872   -0.0448 H   0  0  0  0  0  0  0  0  0  0  0  0
    4.2083   -2.2562    1.7833 H   0  0  0  0  0  0  0  0  0  0  0  0
    4.1691   -2.7021    0.0511 H   0  0  0  0  0  0  0  0  0  0  0  0
  1  2  1  0
  2  3  1  0
  3  4  1  0
  4  5  2  0
  5  6  1  0
  6  7  1  0
  6  8  2  0
  8  9  1  0
  9 10  2  0
  9 11  1  0
 11 12  1  0
 12 13  1  0
 13 14  1  0
 14 15  2  0
 15 16  1  0
 16 17  1  0
 17 18  1  0
 17 19  2  0
 15 20  1  0
 20 21  1  0
 21 22  1  0
  8  3  1  0
 16 12  2  0
 22 14  1  0
  1 23  1  0
  1 24  1  0
  1 25  1  0
  2 26  1  0
  2 27  1  0
  5 28  1  0
 11 29  1  0
 18 30  1  0
 18 31  1  0
 20 32  1  0
 20 33  1  0
 21 34  1  0
 21 35  1  0
 22 36  1  0
 22 37  1  0
M  END
$$$$
