
     RDKit          3D

 46 49  0  0  0  0  0  0  0  0999 V2000
    1.5966    1.4888   -2.2439 O   0  0  0  0  0  0  0  0  0  0  0  0
    1.1538    0.8467   -1.2939 C   0  0  0  0  0  0  0  0  0  0  0  0
   -0.2803    0.3403   -1.3231 C   0  0  0  0  0  0  0  0  0  0  0  0
   -0.4288   -1.0111   -0.8100 N   0  0  0  0  0  0  0  0  0  0  0  0
   -1.1810   -1.4096    0.2772 C   0  0  0  0  0  0  0  0  0  0  0  0
   -2.0630   -0.5088    1.0849 C   0  0  0  0  0  0  0  0  0  0  0  0
   -2.9869    0.0951    0.1820 O   0  0  0  0  0  0  0  0  0  0  0  0
   -3.8405    1.0273    0.7041 C   0  0  0  0  0  0  0  0  0  0  0  0
   -3.9608    1.3688    2.0522 C   0  0  0  0  0  0  0  0  0  0  0  0
   -4.8760    2.3497    2.4475 C   0  0  0  0  0  0  0  0  0  0  0  0
   -5.6741    2.9895    1.5007 C   0  0  0  0  0  0  0  0  0  0  0  0
   -5.5619    2.6475    0.1556 C   0  0  0  0  0  0  0  0  0  0  0  0
   -4.6489    1.6684   -0.2387 C   0  0  0  0  0  0  0  0  0  0  0  0
   -0.9854   -2.6912    0.5258 N   0  0  0  0  0  0  0  0  0  0  0  0
   -0.1549   -3.1504   -0.4623 C   0  0  0  0  0  0  0  0  0  0  0  0
    0.3415   -4.4433   -0.6814 C   0  0  0  0  0  0  0  0  0  0  0  0
    1.1874   -4.6639   -1.7745 C   0  0  0  0  0  0  0  0  0  0  0  0
    1.5318   -3.6176   -2.6316 C   0  0  0  0  0  0  0  0  0  0  0  0
    1.0475   -2.3203   -2.4266 C   0  0  0  0  0  0  0  0  0  0  0  0
    0.2037   -2.1220   -1.3260 C   0  0  0  0  0  0  0  0  0  0  0  0
    1.8373    0.5838   -0.1192 N   0  0  0  0  0  0  0  0  0  0  0  0
    3.1664    0.9391    0.2192 C   0  0  0  0  0  0  0  0  0  0  0  0
    3.9985    1.6987   -0.6082 C   0  0  0  0  0  0  0  0  0  0  0  0
    5.3070    2.0104   -0.2115 C   0  0  0  0  0  0  0  0  0  0  0  0
    6.2711    2.9539   -1.2931 Cl  0  0  0  0  0  0  0  0  0  0  0  0
    5.7939    1.5639    1.0217 C   0  0  0  0  0  0  0  0  0  0  0  0
    7.3942    1.9136    1.5699 Cl  0  0  0  0  0  0  0  0  0  0  0  0
    4.9735    0.8081    1.8588 C   0  0  0  0  0  0  0  0  0  0  0  0
    3.6719    0.5012    1.4590 C   0  0  0  0  0  0  0  0  0  0  0  0
    2.6879   -0.4313    2.5373 Cl  0  0  0  0  0  0  0  0  0  0  0  0
   -0.6467    0.3288   -2.3552 H   0  0  0  0  0  0  0  0  0  0  0  0
   -0.8886    1.0358   -0.7420 H   0  0  0  0  0  0  0  0  0  0  0  0
   -1.4425    0.2476    1.5806 H   0  0  0  0  0  0  0  0  0  0  0  0
   -2.5994   -1.1050    1.8323 H   0  0  0  0  0  0  0  0  0  0  0  0
   -3.3691    0.8895    2.8249 H   0  0  0  0  0  0  0  0  0  0  0  0
   -4.9699    2.6115    3.4987 H   0  0  0  0  0  0  0  0  0  0  0  0
   -6.3864    3.7494    1.8119 H   0  0  0  0  0  0  0  0  0  0  0  0
   -6.1861    3.1386   -0.5863 H   0  0  0  0  0  0  0  0  0  0  0  0
   -4.5702    1.4014   -1.2898 H   0  0  0  0  0  0  0  0  0  0  0  0
    0.0666   -5.2513   -0.0126 H   0  0  0  0  0  0  0  0  0  0  0  0
    1.5765   -5.6628   -1.9571 H   0  0  0  0  0  0  0  0  0  0  0  0
    2.1890   -3.8134   -3.4770 H   0  0  0  0  0  0  0  0  0  0  0  0
    1.3215   -1.5149   -3.1010 H   0  0  0  0  0  0  0  0  0  0  0  0
    1.3800   -0.0054    0.5736 H   0  0  0  0  0  0  0  0  0  0  0  0
    3.6575    2.0647   -1.5718 H   0  0  0  0  0  0  0  0  0  0  0  0
    5.3462    0.4596    2.8190 H   0  0  0  0  0  0  0  0  0  0  0  0
  1  2  2  0
  2  3  1  0
  3  4  1  0
  4  5  1  0
  5  6  1  0
  6  7  1  0
  7  8  1  0
  8  9  2  0
  9 10  1  0
 10 11  2  0
 11 12  1  0
 12 13  2  0
  5 14  2  0
 14 15  1  0
 15 16  2  0
 16 17  1  0
 17 18  2  0
 18 19  1  0
 19 20  2  0
  2 21  1  0
 21 22  1  0
 22 23  2  0
 23 24  1  0
 24 25  1  0
 24 26  2  0
 26 27  1  0
 26 28  1  0
 28 29  2  0
 29 30  1  0
 20  4  1  0
 29 22  1  0
 13  8  1  0
 20 15  1  0
  3 31  1  0
  3 32  1  0
  6 33  1  0
  6 34  1  0
  9 35  1  0
 10 36  1  0
 11 37  1  0
 12 38  1  0
 13 39  1  0
 16 40  1  0
 17 41  1  0
 18 42  1  0
 19 43  1  0
 21 44  1  0
 23 45  1  0
 28 46  1  0
M  END
$$$$
