
     RDKit          3D

 55 60  0  0  0  0  0  0  0  0999 V2000
    4.5207   -1.8637    0.8679 O   0  0  0  0  0  0  0  0  0  0  0  0
    4.1422   -0.7153    1.0910 C   0  0  0  0  0  0  0  0  0  0  0  0
    5.1090    0.3735    1.0762 C   0  0  0  0  0  0  0  0  0  0  0  0
    6.2559    0.4890    0.2346 C   0  0  0  0  0  0  0  0  0  0  0  0
    6.8961    1.6505    0.5938 C   0  0  0  0  0  0  0  0  0  0  0  0
    6.2424    2.2494    1.6207 O   0  0  0  0  0  0  0  0  0  0  0  0
    5.1790    1.4610    1.9239 C   0  0  0  0  0  0  0  0  0  0  0  0
    2.7960   -0.4206    1.3458 N   0  0  0  0  0  0  0  0  0  0  0  0
    2.2150    0.9099    1.1809 C   0  0  0  0  0  0  0  0  0  0  0  0
    0.7140    0.8669    0.8777 C   0  0  0  0  0  0  0  0  0  0  0  0
    0.3884   -0.1807   -0.2181 C   0  0  0  0  0  0  0  0  0  0  0  0
    0.9674   -1.5775    0.1787 C   0  0  0  0  0  0  0  0  0  0  0  0
    1.8529   -1.5255    1.4227 C   0  0  0  0  0  0  0  0  0  0  0  0
    1.1428    0.1775   -1.4098 O   0  0  0  0  0  0  0  0  0  0  0  0
    0.6141    1.1083   -2.2525 C   0  0  0  0  0  0  0  0  0  0  0  0
    1.4717    1.5958   -3.2403 C   0  0  0  0  0  0  0  0  0  0  0  0
    1.0256    2.5715   -4.1335 C   0  0  0  0  0  0  0  0  0  0  0  0
   -0.2765    3.0514   -4.0335 C   0  0  0  0  0  0  0  0  0  0  0  0
   -0.6985    3.9916   -4.8881 F   0  0  0  0  0  0  0  0  0  0  0  0
   -1.1446    2.5690   -3.0632 C   0  0  0  0  0  0  0  0  0  0  0  0
   -0.6915    1.5848   -2.1814 C   0  0  0  0  0  0  0  0  0  0  0  0
   -1.5829    1.0368   -1.1520 C   0  0  0  0  0  0  0  0  0  0  0  0
   -2.6069    1.6416   -0.8455 O   0  0  0  0  0  0  0  0  0  0  0  0
   -1.1344   -0.2717   -0.5135 C   0  0  0  0  0  0  0  0  0  0  0  0
   -1.9984   -0.6230    0.6904 C   0  0  0  0  0  0  0  0  0  0  0  0
   -2.9741   -1.5262    0.0150 C   0  0  0  0  0  0  0  0  0  0  0  0
   -4.2338   -1.9571    0.6666 C   0  0  0  0  0  0  0  0  0  0  0  0
   -4.5441   -1.5892    1.9813 C   0  0  0  0  0  0  0  0  0  0  0  0
   -5.7414   -2.0183    2.5646 C   0  0  0  0  0  0  0  0  0  0  0  0
   -6.6256   -2.8138    1.8372 C   0  0  0  0  0  0  0  0  0  0  0  0
   -8.0948   -3.3388    2.5608 Cl  0  0  0  0  0  0  0  0  0  0  0  0
   -6.3246   -3.1861    0.5295 C   0  0  0  0  0  0  0  0  0  0  0  0
   -5.1294   -2.7586   -0.0553 C   0  0  0  0  0  0  0  0  0  0  0  0
   -2.6163   -1.9273   -1.1631 N   0  0  0  0  0  0  0  0  0  0  0  0
   -1.3804   -1.3171   -1.4680 O   0  0  0  0  0  0  0  0  0  0  0  0
    6.5646   -0.2018   -0.5383 H   0  0  0  0  0  0  0  0  0  0  0  0
    7.7867    2.1554    0.2459 H   0  0  0  0  0  0  0  0  0  0  0  0
    4.5880    1.7965    2.7641 H   0  0  0  0  0  0  0  0  0  0  0  0
    2.3705    1.4642    2.1119 H   0  0  0  0  0  0  0  0  0  0  0  0
    2.7407    1.4370    0.3771 H   0  0  0  0  0  0  0  0  0  0  0  0
    0.4043    1.8742    0.5765 H   0  0  0  0  0  0  0  0  0  0  0  0
    0.1656    0.6352    1.7988 H   0  0  0  0  0  0  0  0  0  0  0  0
    0.1766   -2.3108    0.3707 H   0  0  0  0  0  0  0  0  0  0  0  0
    1.5580   -1.9843   -0.6533 H   0  0  0  0  0  0  0  0  0  0  0  0
    2.3665   -2.4837    1.5538 H   0  0  0  0  0  0  0  0  0  0  0  0
    1.2433   -1.3776    2.3224 H   0  0  0  0  0  0  0  0  0  0  0  0
    2.4896    1.2193   -3.3124 H   0  0  0  0  0  0  0  0  0  0  0  0
    1.6841    2.9601   -4.9046 H   0  0  0  0  0  0  0  0  0  0  0  0
   -2.1595    2.9516   -3.0093 H   0  0  0  0  0  0  0  0  0  0  0  0
   -1.4687   -1.2042    1.4509 H   0  0  0  0  0  0  0  0  0  0  0  0
   -2.4743    0.2378    1.1653 H   0  0  0  0  0  0  0  0  0  0  0  0
   -3.8759   -0.9720    2.5739 H   0  0  0  0  0  0  0  0  0  0  0  0
   -5.9789   -1.7283    3.5852 H   0  0  0  0  0  0  0  0  0  0  0  0
   -7.0115   -3.8059   -0.0412 H   0  0  0  0  0  0  0  0  0  0  0  0
   -4.9046   -3.0541   -1.0789 H   0  0  0  0  0  0  0  0  0  0  0  0
  1  2  2  0
  2  3  1  0
  3  4  1  0
  4  5  2  0
  5  6  1  0
  6  7  1  0
  2  8  1  0
  8  9  1  0
  9 10  1  0
 10 11  1  0
 11 12  1  0
 12 13  1  0
 11 14  1  0
 14 15  1  0
 15 16  2  0
 16 17  1  0
 17 18  2  0
 18 19  1  0
 18 20  1  0
 20 21  2  0
 21 22  1  0
 22 23  2  0
 22 24  1  0
 24 25  1  0
 25 26  1  0
 26 27  1  0
 27 28  2  0
 28 29  1  0
 29 30  2  0
 30 31  1  0
 30 32  1  0
 32 33  2  0
 26 34  2  0
 34 35  1  0
  7  3  2  0
 13  8  1  0
 21 15  1  0
 35 24  1  0
 24 11  1  0
 33 27  1  0
  4 36  1  0
  5 37  1  0
  7 38  1  0
  9 39  1  0
  9 40  1  0
 10 41  1  0
 10 42  1  0
 12 43  1  0
 12 44  1  0
 13 45  1  0
 13 46  1  0
 16 47  1  0
 17 48  1  0
 20 49  1  0
 25 50  1  0
 25 51  1  0
 28 52  1  0
 29 53  1  0
 32 54  1  0
 33 55  1  0
M  END
$$$$
