
     RDKit          3D

 50 53  0  0  0  0  0  0  0  0999 V2000
    8.4530    1.8245    0.5447 C   0  0  0  0  0  0  0  0  0  0  0  0
    7.1977    2.3264    0.9858 O   0  0  0  0  0  0  0  0  0  0  0  0
    6.0912    1.5955    0.6548 C   0  0  0  0  0  0  0  0  0  0  0  0
    4.8826    2.1271    1.1024 C   0  0  0  0  0  0  0  0  0  0  0  0
    3.6696    1.4803    0.8331 C   0  0  0  0  0  0  0  0  0  0  0  0
    3.6292    0.2806    0.1026 C   0  0  0  0  0  0  0  0  0  0  0  0
    2.3632   -0.4231   -0.1990 C   0  0  0  0  0  0  0  0  0  0  0  0
    1.1468    0.2234   -0.3277 C   0  0  0  0  0  0  0  0  0  0  0  0
    0.0108   -0.5406   -0.5994 C   0  0  0  0  0  0  0  0  0  0  0  0
   -1.2723    0.1957   -0.6623 C   0  0  0  0  0  0  0  0  0  0  0  0
   -1.3716    1.1088   -1.4701 O   0  0  0  0  0  0  0  0  0  0  0  0
   -2.1990   -0.2170    0.2755 N   0  0  0  0  0  0  0  0  0  0  0  0
   -3.5116    0.2682    0.4527 C   0  0  0  0  0  0  0  0  0  0  0  0
   -4.2455   -0.2523    1.5205 C   0  0  0  0  0  0  0  0  0  0  0  0
   -5.5621    0.1569    1.7406 C   0  0  0  0  0  0  0  0  0  0  0  0
   -6.1673    1.1053    0.9033 C   0  0  0  0  0  0  0  0  0  0  0  0
   -7.5999    1.4910    1.1481 C   0  0  0  0  0  0  0  0  0  0  0  0
   -5.4181    1.6777   -0.1389 C   0  0  0  0  0  0  0  0  0  0  0  0
   -6.0105    2.5436   -1.0746 N   0  0  0  0  0  0  0  0  0  0  0  0
   -4.1149    1.2112   -0.3818 C   0  0  0  0  0  0  0  0  0  0  0  0
    0.0923   -1.9355   -0.7926 C   0  0  0  0  0  0  0  0  0  0  0  0
   -0.9949   -2.7783   -1.1424 C   0  0  0  0  0  0  0  0  0  0  0  0
   -0.8169   -4.1507   -1.3034 C   0  0  0  0  0  0  0  0  0  0  0  0
    0.4446   -4.6996   -1.1266 C   0  0  0  0  0  0  0  0  0  0  0  0
    1.5203   -3.8699   -0.8018 C   0  0  0  0  0  0  0  0  0  0  0  0
    1.3706   -2.4990   -0.6396 C   0  0  0  0  0  0  0  0  0  0  0  0
    2.4600   -1.7692   -0.3451 N   0  0  0  0  0  0  0  0  0  0  0  0
    4.8619   -0.2416   -0.3322 C   0  0  0  0  0  0  0  0  0  0  0  0
    6.0773    0.4043   -0.0642 C   0  0  0  0  0  0  0  0  0  0  0  0
    9.2281    2.5188    0.8831 H   0  0  0  0  0  0  0  0  0  0  0  0
    8.6653    0.8464    0.9890 H   0  0  0  0  0  0  0  0  0  0  0  0
    8.4992    1.7813   -0.5486 H   0  0  0  0  0  0  0  0  0  0  0  0
    4.8820    3.0540    1.6714 H   0  0  0  0  0  0  0  0  0  0  0  0
    2.7594    1.9296    1.2225 H   0  0  0  0  0  0  0  0  0  0  0  0
    1.0616    1.3011   -0.2312 H   0  0  0  0  0  0  0  0  0  0  0  0
   -1.8986   -0.9276    0.9325 H   0  0  0  0  0  0  0  0  0  0  0  0
   -3.8132   -0.9913    2.1896 H   0  0  0  0  0  0  0  0  0  0  0  0
   -6.1190   -0.2810    2.5661 H   0  0  0  0  0  0  0  0  0  0  0  0
   -8.0399    0.9096    1.9654 H   0  0  0  0  0  0  0  0  0  0  0  0
   -8.2034    1.3056    0.2536 H   0  0  0  0  0  0  0  0  0  0  0  0
   -7.6655    2.5490    1.4211 H   0  0  0  0  0  0  0  0  0  0  0  0
   -5.3336    3.0995   -1.5902 H   0  0  0  0  0  0  0  0  0  0  0  0
   -6.7589    3.1124   -0.6952 H   0  0  0  0  0  0  0  0  0  0  0  0
   -3.5843    1.6044   -1.2430 H   0  0  0  0  0  0  0  0  0  0  0  0
   -1.9888   -2.3680   -1.3139 H   0  0  0  0  0  0  0  0  0  0  0  0
   -1.6579   -4.7842   -1.5748 H   0  0  0  0  0  0  0  0  0  0  0  0
    0.6015   -5.7679   -1.2517 H   0  0  0  0  0  0  0  0  0  0  0  0
    2.5093   -4.3066   -0.6778 H   0  0  0  0  0  0  0  0  0  0  0  0
    4.8826   -1.1730   -0.8975 H   0  0  0  0  0  0  0  0  0  0  0  0
    6.9878   -0.0557   -0.4328 H   0  0  0  0  0  0  0  0  0  0  0  0
  1  2  1  0
  2  3  1  0
  3  4  2  0
  4  5  1  0
  5  6  2  0
  6  7  1  0
  7  8  2  0
  8  9  1  0
  9 10  1  0
 10 11  2  0
 10 12  1  0
 12 13  1  0
 13 14  2  0
 14 15  1  0
 15 16  2  0
 16 17  1  0
 16 18  1  0
 18 19  1  0
 18 20  2  0
  9 21  2  0
 21 22  1  0
 22 23  2  0
 23 24  1  0
 24 25  2  0
 25 26  1  0
 26 27  2  0
  6 28  1  0
 28 29  2  0
 29  3  1  0
 27  7  1  0
 20 13  1  0
 26 21  1  0
  1 30  1  0
  1 31  1  0
  1 32  1  0
  4 33  1  0
  5 34  1  0
  8 35  1  0
 12 36  1  0
 14 37  1  0
 15 38  1  0
 17 39  1  0
 17 40  1  0
 17 41  1  0
 19 42  1  0
 19 43  1  0
 20 44  1  0
 22 45  1  0
 23 46  1  0
 24 47  1  0
 25 48  1  0
 28 49  1  0
 29 50  1  0
M  END
$$$$
