
     RDKit          3D

 51 53  0  0  0  0  0  0  0  0999 V2000
    8.0235    1.1417    2.5803 C   0  0  0  0  0  0  0  0  0  0  0  0
    8.6552    0.6269    1.4153 O   0  0  0  0  0  0  0  0  0  0  0  0
    7.8418    0.1959    0.4037 C   0  0  0  0  0  0  0  0  0  0  0  0
    8.5163   -0.2947   -0.7148 C   0  0  0  0  0  0  0  0  0  0  0  0
    7.8063   -0.7665   -1.8169 C   0  0  0  0  0  0  0  0  0  0  0  0
    6.4104   -0.7504   -1.8092 C   0  0  0  0  0  0  0  0  0  0  0  0
    5.7201   -0.2623   -0.6993 C   0  0  0  0  0  0  0  0  0  0  0  0
    4.3170   -0.2142   -0.6168 N   0  0  0  0  0  0  0  0  0  0  0  0
    3.3967   -0.6197   -1.5607 C   0  0  0  0  0  0  0  0  0  0  0  0
    3.5822   -1.1034   -2.6680 O   0  0  0  0  0  0  0  0  0  0  0  0
    1.9471   -0.4077   -1.0806 C   0  0  0  0  0  0  0  0  0  0  0  0
    1.7589    0.0590    0.0360 O   0  0  0  0  0  0  0  0  0  0  0  0
    1.0218   -0.8067   -2.0278 N   0  0  0  0  0  0  0  0  0  0  0  0
   -0.3413   -0.8729   -1.9009 N   0  0  0  0  0  0  0  0  0  0  0  0
   -0.9377   -0.2130   -0.9616 C   0  0  0  0  0  0  0  0  0  0  0  0
   -2.3817   -0.3411   -0.8399 C   0  0  0  0  0  0  0  0  0  0  0  0
   -3.2444   -1.1255   -1.6424 C   0  0  0  0  0  0  0  0  0  0  0  0
   -4.5356   -0.9793   -1.1777 C   0  0  0  0  0  0  0  0  0  0  0  0
   -5.7456   -1.7031   -1.6641 C   0  0  0  0  0  0  0  0  0  0  0  0
   -4.5043   -0.1074   -0.0939 N   0  0  0  0  0  0  0  0  0  0  0  0
   -5.6249    0.2768    0.7001 C   0  0  0  0  0  0  0  0  0  0  0  0
   -5.5286    0.2718    2.0968 C   0  0  0  0  0  0  0  0  0  0  0  0
   -6.6301    0.6387    2.8745 C   0  0  0  0  0  0  0  0  0  0  0  0
   -7.8302    1.0143    2.2643 C   0  0  0  0  0  0  0  0  0  0  0  0
   -9.1490    1.4546    3.2892 Cl  0  0  0  0  0  0  0  0  0  0  0  0
   -7.9275    1.0218    0.8684 C   0  0  0  0  0  0  0  0  0  0  0  0
   -9.3750    1.4844    0.0449 Cl  0  0  0  0  0  0  0  0  0  0  0  0
   -6.8267    0.6520    0.0871 C   0  0  0  0  0  0  0  0  0  0  0  0
   -3.1837    0.3096    0.0925 C   0  0  0  0  0  0  0  0  0  0  0  0
   -2.7753    1.3461    1.0912 C   0  0  0  0  0  0  0  0  0  0  0  0
    6.4443    0.2105    0.4072 C   0  0  0  0  0  0  0  0  0  0  0  0
    7.4090    0.3769    3.0665 H   0  0  0  0  0  0  0  0  0  0  0  0
    7.4340    2.0343    2.3469 H   0  0  0  0  0  0  0  0  0  0  0  0
    8.8080    1.4353    3.2845 H   0  0  0  0  0  0  0  0  0  0  0  0
    9.6035   -0.3097   -0.7266 H   0  0  0  0  0  0  0  0  0  0  0  0
    8.3394   -1.1475   -2.6843 H   0  0  0  0  0  0  0  0  0  0  0  0
    5.8938   -1.1256   -2.6872 H   0  0  0  0  0  0  0  0  0  0  0  0
    3.9049    0.1546    0.2378 H   0  0  0  0  0  0  0  0  0  0  0  0
    1.3978   -1.2646   -2.8598 H   0  0  0  0  0  0  0  0  0  0  0  0
   -0.4343    0.4559   -0.2497 H   0  0  0  0  0  0  0  0  0  0  0  0
   -2.9424   -1.7612   -2.4670 H   0  0  0  0  0  0  0  0  0  0  0  0
   -6.3774   -2.0405   -0.8370 H   0  0  0  0  0  0  0  0  0  0  0  0
   -5.4545   -2.5966   -2.2281 H   0  0  0  0  0  0  0  0  0  0  0  0
   -6.3327   -1.0706   -2.3362 H   0  0  0  0  0  0  0  0  0  0  0  0
   -4.6212   -0.0557    2.5990 H   0  0  0  0  0  0  0  0  0  0  0  0
   -6.5484    0.6201    3.9592 H   0  0  0  0  0  0  0  0  0  0  0  0
   -6.9068    0.7017   -0.9957 H   0  0  0  0  0  0  0  0  0  0  0  0
   -2.5094    0.8767    2.0430 H   0  0  0  0  0  0  0  0  0  0  0  0
   -1.9025    1.9052    0.7390 H   0  0  0  0  0  0  0  0  0  0  0  0
   -3.5623    2.0870    1.2612 H   0  0  0  0  0  0  0  0  0  0  0  0
    5.9013    0.5881    1.2665 H   0  0  0  0  0  0  0  0  0  0  0  0
  1  2  1  0
  2  3  1  0
  3  4  2  0
  4  5  1  0
  5  6  2  0
  6  7  1  0
  7  8  1  0
  8  9  1  0
  9 10  2  0
  9 11  1  0
 11 12  2  0
 11 13  1  0
 13 14  1  0
 14 15  2  3
 15 16  1  0
 16 17  1  0
 17 18  2  0
 18 19  1  0
 18 20  1  0
 20 21  1  0
 21 22  2  0
 22 23  1  0
 23 24  2  0
 24 25  1  0
 24 26  1  0
 26 27  1  0
 26 28  2  0
 20 29  1  0
 29 30  1  0
  7 31  2  0
 31  3  1  0
 29 16  2  0
 28 21  1  0
  1 32  1  0
  1 33  1  0
  1 34  1  0
  4 35  1  0
  5 36  1  0
  6 37  1  0
  8 38  1  0
 13 39  1  0
 15 40  1  0
 17 41  1  0
 19 42  1  0
 19 43  1  0
 19 44  1  0
 22 45  1  0
 23 46  1  0
 28 47  1  0
 30 48  1  0
 30 49  1  0
 30 50  1  0
 31 51  1  0
M  END
$$$$
