
     RDKit          3D

 57 60  0  0  0  0  0  0  0  0999 V2000
    5.2719    2.9813    0.6126 C   0  0  0  0  0  0  0  0  0  0  0  0
    4.2924    1.9388    0.1868 C   0  0  0  0  0  0  0  0  0  0  0  0
    2.9300    2.0996    0.0281 C   0  0  0  0  0  0  0  0  0  0  0  0
    2.3715    0.8416   -0.2835 C   0  0  0  0  0  0  0  0  0  0  0  0
    0.9950    0.5294   -0.5144 C   0  0  0  0  0  0  0  0  0  0  0  0
   -0.0282    1.3902   -0.3737 C   0  0  0  0  0  0  0  0  0  0  0  0
   -1.4128    0.9794   -0.6129 C   0  0  0  0  0  0  0  0  0  0  0  0
   -1.8698    0.9475   -1.9295 C   0  0  0  0  0  0  0  0  0  0  0  0
   -3.1621    0.5367   -2.2005 C   0  0  0  0  0  0  0  0  0  0  0  0
   -3.9913    0.1386   -1.1551 C   0  0  0  0  0  0  0  0  0  0  0  0
   -5.3033   -0.3029   -1.4226 C   0  0  0  0  0  0  0  0  0  0  0  0
   -6.1814   -0.7435   -0.4183 C   0  0  0  0  0  0  0  0  0  0  0  0
   -7.4818   -1.1553   -0.6915 N   0  0  0  0  0  0  0  0  0  0  0  0
   -8.2146   -1.9585    0.2931 C   0  0  0  0  0  0  0  0  0  0  0  0
   -7.9580   -1.2614   -2.0727 C   0  0  0  0  0  0  0  0  0  0  0  0
   -5.6754   -0.7094    0.8878 C   0  0  0  0  0  0  0  0  0  0  0  0
   -4.3749   -0.2686    1.1829 C   0  0  0  0  0  0  0  0  0  0  0  0
   -3.5071    0.1724    0.1736 C   0  0  0  0  0  0  0  0  0  0  0  0
   -2.2299    0.6163    0.4178 N   0  0  0  0  0  4  0  0  0  0  0  0
   -1.7347    0.6736    1.8164 C   0  0  0  0  0  0  0  0  0  0  0  0
    3.4141   -0.0712   -0.3546 C   0  0  0  0  0  0  0  0  0  0  0  0
    3.3815   -1.5102   -0.7762 C   0  0  0  0  0  0  0  0  0  0  0  0
    4.6003    0.5961   -0.0242 N   0  0  0  0  0  0  0  0  0  0  0  0
    5.8923    0.0040    0.1012 C   0  0  0  0  0  0  0  0  0  0  0  0
    6.0468   -1.2001    0.8007 C   0  0  0  0  0  0  0  0  0  0  0  0
    7.3128   -1.7758    0.9319 C   0  0  0  0  0  0  0  0  0  0  0  0
    8.4251   -1.1543    0.3666 C   0  0  0  0  0  0  0  0  0  0  0  0
    8.2757    0.0442   -0.3307 C   0  0  0  0  0  0  0  0  0  0  0  0
    7.0122    0.6241   -0.4658 C   0  0  0  0  0  0  0  0  0  0  0  0
    4.7503    3.8299    1.0719 H   0  0  0  0  0  0  0  0  0  0  0  0
    5.8257    3.3672   -0.2487 H   0  0  0  0  0  0  0  0  0  0  0  0
    5.9746    2.5975    1.3584 H   0  0  0  0  0  0  0  0  0  0  0  0
    2.4146    3.0446    0.1515 H   0  0  0  0  0  0  0  0  0  0  0  0
    0.7749   -0.4952   -0.8149 H   0  0  0  0  0  0  0  0  0  0  0  0
    0.1199    2.4257   -0.0767 H   0  0  0  0  0  0  0  0  0  0  0  0
   -1.2174    1.2411   -2.7520 H   0  0  0  0  0  0  0  0  0  0  0  0
   -3.5086    0.5165   -3.2329 H   0  0  0  0  0  0  0  0  0  0  0  0
   -5.6334   -0.3068   -2.4597 H   0  0  0  0  0  0  0  0  0  0  0  0
   -9.1938   -2.2709   -0.0866 H   0  0  0  0  0  0  0  0  0  0  0  0
   -8.4106   -1.3807    1.2031 H   0  0  0  0  0  0  0  0  0  0  0  0
   -7.6584   -2.8676    0.5464 H   0  0  0  0  0  0  0  0  0  0  0  0
   -7.8427   -0.3109   -2.6061 H   0  0  0  0  0  0  0  0  0  0  0  0
   -9.0274   -1.4978   -2.1099 H   0  0  0  0  0  0  0  0  0  0  0  0
   -7.4225   -2.0525   -2.6089 H   0  0  0  0  0  0  0  0  0  0  0  0
   -6.2944   -1.0218    1.7275 H   0  0  0  0  0  0  0  0  0  0  0  0
   -4.0876   -0.2945    2.2303 H   0  0  0  0  0  0  0  0  0  0  0  0
   -0.7916    1.2135    1.9007 H   0  0  0  0  0  0  0  0  0  0  0  0
   -1.6026   -0.3561    2.1632 H   0  0  0  0  0  0  0  0  0  0  0  0
   -2.4696    1.2140    2.4216 H   0  0  0  0  0  0  0  0  0  0  0  0
    3.2142   -2.1571    0.0922 H   0  0  0  0  0  0  0  0  0  0  0  0
    2.5723   -1.6933   -1.4899 H   0  0  0  0  0  0  0  0  0  0  0  0
    4.3026   -1.8133   -1.2830 H   0  0  0  0  0  0  0  0  0  0  0  0
    5.2047   -1.6848    1.2863 H   0  0  0  0  0  0  0  0  0  0  0  0
    7.4340   -2.7058    1.4821 H   0  0  0  0  0  0  0  0  0  0  0  0
    9.4108   -1.6019    0.4712 H   0  0  0  0  0  0  0  0  0  0  0  0
    9.1445    0.5228   -0.7779 H   0  0  0  0  0  0  0  0  0  0  0  0
    6.9211    1.5355   -1.0497 H   0  0  0  0  0  0  0  0  0  0  0  0
  1  2  1  0
  2  3  2  0
  3  4  1  0
  4  5  1  0
  5  6  2  3
  6  7  1  0
  7  8  2  0
  8  9  1  0
  9 10  2  0
 10 11  1  0
 11 12  2  0
 12 13  1  0
 13 14  1  0
 13 15  1  0
 12 16  1  0
 16 17  2  0
 17 18  1  0
 18 19  2  0
 19 20  1  0
  4 21  2  0
 21 22  1  0
 21 23  1  0
 23 24  1  0
 24 25  2  0
 25 26  1  0
 26 27  2  0
 27 28  1  0
 28 29  2  0
 23  2  1  0
 29 24  1  0
 19  7  1  0
 18 10  1  0
  1 30  1  0
  1 31  1  0
  1 32  1  0
  3 33  1  0
  5 34  1  0
  6 35  1  0
  8 36  1  0
  9 37  1  0
 11 38  1  0
 14 39  1  0
 14 40  1  0
 14 41  1  0
 15 42  1  0
 15 43  1  0
 15 44  1  0
 16 45  1  0
 17 46  1  0
 20 47  1  0
 20 48  1  0
 20 49  1  0
 22 50  1  0
 22 51  1  0
 22 52  1  0
 25 53  1  0
 26 54  1  0
 27 55  1  0
 28 56  1  0
 29 57  1  0
M  CHG  1  19   1
M  END
$$$$
