
     RDKit          3D

 56 61  0  0  0  0  0  0  0  0999 V2000
   -5.9528   -1.9567    1.7374 C   0  0  0  0  0  0  0  0  0  0  0  0
   -4.8059   -2.0652    0.7779 C   0  0  0  0  0  0  0  0  0  0  0  0
   -4.9853   -2.5442   -0.5346 C   0  0  0  0  0  0  0  0  0  0  0  0
   -6.5469   -3.0217   -1.1080 Cl  0  0  0  0  0  0  0  0  0  0  0  0
   -3.9064   -2.6600   -1.4337 C   0  0  0  0  0  0  0  0  0  0  0  0
   -2.6140   -2.3022   -1.0499 C   0  0  0  0  0  0  0  0  0  0  0  0
   -2.4260   -1.8270    0.2373 C   0  0  0  0  0  0  0  0  0  0  0  0
   -3.5055   -1.7228    1.1282 C   0  0  0  0  0  0  0  0  0  0  0  0
   -3.0491   -1.2524    2.3587 N   0  0  0  0  0  0  0  0  0  0  0  0
   -1.6675   -1.0565    2.3582 C   0  0  0  0  0  0  0  0  0  0  0  0
   -1.0045   -0.7337    3.3320 O   0  0  0  0  0  0  0  0  0  0  0  0
   -1.1701   -1.3741    0.9250 C   0  0  0  0  0  0  0  0  0  0  0  0
   -0.0592   -2.3768    0.9189 N   0  0  0  0  0  0  0  0  0  0  0  0
    1.2263   -1.6930    0.4981 C   0  0  2  0  0  0  0  0  0  0  0  0
    2.1920   -1.5691    1.6946 C   0  0  0  0  0  0  0  0  0  0  0  0
    3.5913   -1.1341    1.3246 C   0  0  0  0  0  0  0  0  0  0  0  0
    4.0332    0.1630    1.6178 C   0  0  0  0  0  0  0  0  0  0  0  0
    5.3270    0.5633    1.2805 C   0  0  0  0  0  0  0  0  0  0  0  0
    6.1913   -0.3281    0.6481 C   0  0  0  0  0  0  0  0  0  0  0  0
    5.7623   -1.6204    0.3513 C   0  0  0  0  0  0  0  0  0  0  0  0
    4.4687   -2.0227    0.6876 C   0  0  0  0  0  0  0  0  0  0  0  0
    0.7380   -0.3963   -0.0235 C   0  0  0  0  0  0  0  0  0  0  0  0
   -0.6217   -0.2118    0.2119 C   0  0  0  0  0  0  0  0  0  0  0  0
   -1.0029    0.9967   -0.3173 C   0  0  0  0  0  0  0  0  0  0  0  0
   -2.1892    1.6001   -0.3111 O   0  0  0  0  0  0  0  0  0  0  0  0
    0.1530    1.5916   -0.8604 N   0  0  0  0  0  0  0  0  0  0  0  0
    0.2624    2.9156   -1.3943 C   0  0  0  0  0  0  0  0  0  0  0  0
   -0.8272    3.5308   -2.0222 C   0  0  0  0  0  0  0  0  0  0  0  0
   -0.7030    4.8219   -2.5432 C   0  0  0  0  0  0  0  0  0  0  0  0
    0.5028    5.5110   -2.4321 C   0  0  0  0  0  0  0  0  0  0  0  0
    1.5872    4.9139   -1.7939 C   0  0  0  0  0  0  0  0  0  0  0  0
    1.4696    3.6227   -1.2736 C   0  0  0  0  0  0  0  0  0  0  0  0
    1.1987    0.6517   -0.7714 C   0  0  0  0  0  0  0  0  0  0  0  0
    2.3812    0.7730   -1.3714 O   0  0  0  0  0  0  0  0  0  0  0  0
   -6.3479   -2.9513    1.9685 H   0  0  0  0  0  0  0  0  0  0  0  0
   -5.6637   -1.4908    2.6834 H   0  0  0  0  0  0  0  0  0  0  0  0
   -6.7500   -1.3376    1.3129 H   0  0  0  0  0  0  0  0  0  0  0  0
   -4.0749   -3.0369   -2.4407 H   0  0  0  0  0  0  0  0  0  0  0  0
   -1.7787   -2.3966   -1.7384 H   0  0  0  0  0  0  0  0  0  0  0  0
   -3.6024   -1.1330    3.1943 H   0  0  0  0  0  0  0  0  0  0  0  0
    0.0522   -2.7185    1.8727 H   0  0  0  0  0  0  0  0  0  0  0  0
    1.6702   -2.2902   -0.3062 H   0  0  0  0  0  0  0  0  0  0  0  0
    1.7822   -0.8847    2.4498 H   0  0  0  0  0  0  0  0  0  0  0  0
    2.2815   -2.5420    2.1979 H   0  0  0  0  0  0  0  0  0  0  0  0
    3.3668    0.8733    2.1021 H   0  0  0  0  0  0  0  0  0  0  0  0
    5.6577    1.5728    1.5084 H   0  0  0  0  0  0  0  0  0  0  0  0
    7.1974   -0.0149    0.3840 H   0  0  0  0  0  0  0  0  0  0  0  0
    6.4348   -2.3153   -0.1441 H   0  0  0  0  0  0  0  0  0  0  0  0
    4.1501   -3.0347    0.4495 H   0  0  0  0  0  0  0  0  0  0  0  0
   -2.8333    1.0031    0.1075 H   0  0  0  0  0  0  0  0  0  0  0  0
   -1.7757    3.0168   -2.1495 H   0  0  0  0  0  0  0  0  0  0  0  0
   -1.5517    5.2884   -3.0373 H   0  0  0  0  0  0  0  0  0  0  0  0
    0.5933    6.5170   -2.8337 H   0  0  0  0  0  0  0  0  0  0  0  0
    2.5215    5.4594   -1.6864 H   0  0  0  0  0  0  0  0  0  0  0  0
    2.3182    3.2095   -0.7314 H   0  0  0  0  0  0  0  0  0  0  0  0
    2.3047    1.4199   -2.0946 H   0  0  0  0  0  0  0  0  0  0  0  0
  1  2  1  0
  2  3  2  0
  3  4  1  0
  3  5  1  0
  5  6  2  0
  6  7  1  0
  7  8  2  0
  8  9  1  0
  9 10  1  0
 10 11  2  0
 10 12  1  0
 12 13  1  0
 13 14  1  0
 14 15  1  0
 15 16  1  0
 16 17  2  0
 17 18  1  0
 18 19  2  0
 19 20  1  0
 20 21  2  0
 14 22  1  0
 22 23  1  0
 23 24  2  0
 24 25  1  0
 24 26  1  0
 26 27  1  0
 27 28  2  0
 28 29  1  0
 29 30  2  0
 30 31  1  0
 31 32  2  0
 26 33  1  0
 33 34  1  0
  8  2  1  0
 23 12  1  0
 32 27  1  0
 12  7  1  0
 21 16  1  0
 33 22  2  0
  1 35  1  0
  1 36  1  0
  1 37  1  0
  5 38  1  0
  6 39  1  0
  9 40  1  0
 13 41  1  0
 14 42  1  6
 15 43  1  0
 15 44  1  0
 17 45  1  0
 18 46  1  0
 19 47  1  0
 20 48  1  0
 21 49  1  0
 25 50  1  0
 28 51  1  0
 29 52  1  0
 30 53  1  0
 31 54  1  0
 32 55  1  0
 34 56  1  0
M  END
$$$$
