
     RDKit          3D

 36 35  0  0  0  0  0  0  0  0999 V2000
    1.5039    0.0931    0.9995 C   0  0  0  0  0  0  0  0  0  0  0  0
    2.2745   -0.8248    0.0652 C   0  0  0  0  0  0  0  0  0  0  0  0
    2.1760   -0.4202   -1.3485 N   0  0  0  0  0  0  0  0  0  0  0  0
    3.1930    0.5531   -1.7857 C   0  0  0  0  0  0  0  0  0  0  0  0
    4.5115   -0.1058   -2.1679 C   0  0  0  0  0  0  0  0  0  0  0  0
    1.2243   -0.9452   -2.2502 C   0  0  0  0  0  0  0  0  0  0  0  0
    1.3432   -0.8462   -3.9338 S   0  0  0  0  0  0  0  0  0  0  0  0
   -0.1406   -1.8201   -1.5128 S   0  0  0  0  0  0  0  0  0  0  0  0
   -1.8002   -0.8277   -2.2390 S   0  0  0  0  0  0  0  0  0  0  0  0
   -1.9378    0.5624   -1.1438 C   0  0  0  0  0  0  0  0  0  0  0  0
   -1.1711    1.9955   -1.6064 S   0  0  0  0  0  0  0  0  0  0  0  0
   -2.7362    0.4030    0.0134 N   0  0  0  0  0  0  0  0  0  0  0  0
   -3.4430   -0.8473    0.3598 C   0  0  0  0  0  0  0  0  0  0  0  0
   -2.7486   -1.6376    1.4573 C   0  0  0  0  0  0  0  0  0  0  0  0
   -2.9590    1.5212    0.9531 C   0  0  0  0  0  0  0  0  0  0  0  0
   -1.8260    1.7256    1.9494 C   0  0  0  0  0  0  0  0  0  0  0  0
    0.4319    0.0572    0.7965 H   0  0  0  0  0  0  0  0  0  0  0  0
    1.8300    1.1327    0.8974 H   0  0  0  0  0  0  0  0  0  0  0  0
    1.6573   -0.2114    2.0395 H   0  0  0  0  0  0  0  0  0  0  0  0
    1.9341   -1.8573    0.1884 H   0  0  0  0  0  0  0  0  0  0  0  0
    3.3323   -0.8262    0.3513 H   0  0  0  0  0  0  0  0  0  0  0  0
    2.8155    1.1416   -2.6276 H   0  0  0  0  0  0  0  0  0  0  0  0
    3.3593    1.2663   -0.9702 H   0  0  0  0  0  0  0  0  0  0  0  0
    5.2293    0.6519   -2.4977 H   0  0  0  0  0  0  0  0  0  0  0  0
    4.3831   -0.8285   -2.9787 H   0  0  0  0  0  0  0  0  0  0  0  0
    4.9508   -0.6385   -1.3188 H   0  0  0  0  0  0  0  0  0  0  0  0
   -3.5728   -1.4900   -0.5122 H   0  0  0  0  0  0  0  0  0  0  0  0
   -4.4606   -0.5878    0.6753 H   0  0  0  0  0  0  0  0  0  0  0  0
   -1.6947   -1.8119    1.2251 H   0  0  0  0  0  0  0  0  0  0  0  0
   -3.2377   -2.6078    1.5900 H   0  0  0  0  0  0  0  0  0  0  0  0
   -2.8005   -1.1118    2.4149 H   0  0  0  0  0  0  0  0  0  0  0  0
   -3.1223    2.4444    0.3874 H   0  0  0  0  0  0  0  0  0  0  0  0
   -3.8907    1.3412    1.5019 H   0  0  0  0  0  0  0  0  0  0  0  0
   -2.0845    2.5274    2.6486 H   0  0  0  0  0  0  0  0  0  0  0  0
   -0.8934    2.0078    1.4551 H   0  0  0  0  0  0  0  0  0  0  0  0
   -1.6301    0.8219    2.5318 H   0  0  0  0  0  0  0  0  0  0  0  0
  1  2  1  0
  2  3  1  0
  3  4  1  0
  4  5  1  0
  3  6  1  0
  6  7  2  0
  6  8  1  0
  8  9  1  0
  9 10  1  0
 10 11  2  0
 10 12  1  0
 12 13  1  0
 13 14  1  0
 12 15  1  0
 15 16  1  0
  1 17  1  0
  1 18  1  0
  1 19  1  0
  2 20  1  0
  2 21  1  0
  4 22  1  0
  4 23  1  0
  5 24  1  0
  5 25  1  0
  5 26  1  0
 13 27  1  0
 13 28  1  0
 14 29  1  0
 14 30  1  0
 14 31  1  0
 15 32  1  0
 15 33  1  0
 16 34  1  0
 16 35  1  0
 16 36  1  0
M  END
$$$$
