
     RDKit          3D

 57 59  0  0  0  0  0  0  0  0999 V2000
   -6.1461    2.5803   -2.5099 C   0  0  0  0  0  0  0  0  0  0  0  0
   -4.9729    1.8213   -2.7804 O   0  0  0  0  0  0  0  0  0  0  0  0
   -4.2368    1.4115   -1.7035 C   0  0  0  0  0  0  0  0  0  0  0  0
   -3.0905    0.6779   -2.0263 C   0  0  0  0  0  0  0  0  0  0  0  0
   -2.2530    0.1821   -1.0250 C   0  0  0  0  0  0  0  0  0  0  0  0
   -2.5850    0.3957    0.3150 C   0  0  0  0  0  0  0  0  0  0  0  0
   -1.5262   -0.2297    1.6058 S   0  0  0  0  0  6  0  0  0  0  0  0
   -1.7963    0.5530    2.7952 O   0  0  0  0  0  0  0  0  0  0  0  0
   -0.1874   -0.3030    1.0658 O   0  0  0  0  0  0  0  0  0  0  0  0
   -2.0909   -1.7895    1.8931 N   0  0  0  0  0  0  0  0  0  0  0  0
   -3.4435   -1.9555    2.4398 C   0  0  0  0  0  0  0  0  0  0  0  0
   -4.1631   -2.7124    1.3474 C   0  0  0  0  0  0  0  0  0  0  0  0
   -3.1551   -3.5613    0.7998 O   0  0  0  0  0  0  0  0  0  0  0  0
   -1.9208   -2.8119    0.8380 C   0  0  0  0  0  0  0  0  0  0  0  0
   -0.7853   -3.7998    1.1780 C   0  0  0  0  0  0  0  0  0  0  0  0
    0.5443   -3.2348    1.2236 N   0  0  0  0  0  0  0  0  0  0  0  0
    1.1579   -2.7114    0.1082 C   0  0  0  0  0  0  0  0  0  0  0  0
    0.6892   -2.7067   -1.0226 O   0  0  0  0  0  0  0  0  0  0  0  0
    2.5340   -2.0689    0.4045 C   0  0  0  0  0  0  0  0  0  0  0  0
    3.0756   -2.2659    1.4837 O   0  0  0  0  0  0  0  0  0  0  0  0
    3.0209   -1.3073   -0.6299 N   0  0  0  0  0  0  0  0  0  0  0  0
    4.2671   -0.5805   -0.5468 C   0  0  0  0  0  0  0  0  0  0  0  0
    4.1149    0.9136   -0.3502 C   0  0  0  0  0  0  0  0  0  0  0  0
    2.9065    1.4894    0.0832 C   0  0  0  0  0  0  0  0  0  0  0  0
    2.8009    2.8654    0.2903 C   0  0  0  0  0  0  0  0  0  0  0  0
    3.9039    3.6862    0.0763 C   0  0  0  0  0  0  0  0  0  0  0  0
    5.1182    3.1335   -0.3382 C   0  0  0  0  0  0  0  0  0  0  0  0
    5.2346    1.7534   -0.5429 C   0  0  0  0  0  0  0  0  0  0  0  0
    6.3896    1.1284   -0.9440 O   0  0  0  0  0  0  0  0  0  0  0  0
    7.5978    1.8730   -0.8407 C   0  0  0  0  0  0  0  0  0  0  0  0
   -3.7072    1.1585    0.6494 C   0  0  0  0  0  0  0  0  0  0  0  0
   -4.5351    1.6610   -0.3617 C   0  0  0  0  0  0  0  0  0  0  0  0
   -6.6325    2.7990   -3.4661 H   0  0  0  0  0  0  0  0  0  0  0  0
   -6.8538    2.0084   -1.8978 H   0  0  0  0  0  0  0  0  0  0  0  0
   -5.8929    3.5326   -2.0351 H   0  0  0  0  0  0  0  0  0  0  0  0
   -2.8457    0.4977   -3.0723 H   0  0  0  0  0  0  0  0  0  0  0  0
   -1.3557   -0.3666   -1.3024 H   0  0  0  0  0  0  0  0  0  0  0  0
   -3.9529   -1.0264    2.7026 H   0  0  0  0  0  0  0  0  0  0  0  0
   -3.3635   -2.5665    3.3469 H   0  0  0  0  0  0  0  0  0  0  0  0
   -4.9988   -3.3096    1.7229 H   0  0  0  0  0  0  0  0  0  0  0  0
   -4.5297   -2.0461    0.5566 H   0  0  0  0  0  0  0  0  0  0  0  0
   -1.7785   -2.3761   -0.1519 H   0  0  0  0  0  0  0  0  0  0  0  0
   -0.7803   -4.6064    0.4356 H   0  0  0  0  0  0  0  0  0  0  0  0
   -0.9699   -4.2707    2.1506 H   0  0  0  0  0  0  0  0  0  0  0  0
    0.9915   -3.0358    2.1153 H   0  0  0  0  0  0  0  0  0  0  0  0
    2.4312   -1.2010   -1.4477 H   0  0  0  0  0  0  0  0  0  0  0  0
    4.7746   -0.7718   -1.4981 H   0  0  0  0  0  0  0  0  0  0  0  0
    4.8780   -0.9884    0.2650 H   0  0  0  0  0  0  0  0  0  0  0  0
    2.0307    0.8717    0.2759 H   0  0  0  0  0  0  0  0  0  0  0  0
    1.8573    3.2908    0.6254 H   0  0  0  0  0  0  0  0  0  0  0  0
    3.8215    4.7577    0.2370 H   0  0  0  0  0  0  0  0  0  0  0  0
    5.9555    3.8075   -0.4951 H   0  0  0  0  0  0  0  0  0  0  0  0
    7.7434    2.2606    0.1732 H   0  0  0  0  0  0  0  0  0  0  0  0
    7.6252    2.6799   -1.5809 H   0  0  0  0  0  0  0  0  0  0  0  0
    8.4282    1.1925   -1.0592 H   0  0  0  0  0  0  0  0  0  0  0  0
   -3.9434    1.3744    1.6905 H   0  0  0  0  0  0  0  0  0  0  0  0
   -5.3994    2.2471   -0.0681 H   0  0  0  0  0  0  0  0  0  0  0  0
  1  2  1  0
  2  3  1  0
  3  4  2  0
  4  5  1  0
  5  6  2  0
  6  7  1  0
  7  8  2  0
  7  9  2  0
  7 10  1  0
 10 11  1  0
 11 12  1  0
 12 13  1  0
 13 14  1  0
 14 15  1  0
 15 16  1  0
 16 17  1  0
 17 18  2  0
 17 19  1  0
 19 20  2  0
 19 21  1  0
 21 22  1  0
 22 23  1  0
 23 24  2  0
 24 25  1  0
 25 26  2  0
 26 27  1  0
 27 28  2  0
 28 29  1  0
 29 30  1  0
  6 31  1  0
 31 32  2  0
 32  3  1  0
 14 10  1  0
 28 23  1  0
  1 33  1  0
  1 34  1  0
  1 35  1  0
  4 36  1  0
  5 37  1  0
 11 38  1  0
 11 39  1  0
 12 40  1  0
 12 41  1  0
 14 42  1  0
 15 43  1  0
 15 44  1  0
 16 45  1  0
 21 46  1  0
 22 47  1  0
 22 48  1  0
 24 49  1  0
 25 50  1  0
 26 51  1  0
 27 52  1  0
 30 53  1  0
 30 54  1  0
 30 55  1  0
 31 56  1  0
 32 57  1  0
M  END
$$$$
