
     RDKit          3D

 34 36  0  0  0  0  0  0  0  0999 V2000
    3.7662   -1.7651   -0.0103 N   0  0  0  0  0  0  0  0  0  0  0  0
    3.4439   -0.5459    0.7216 C   0  0  0  0  0  0  0  0  0  0  0  0
    1.9360   -0.3591    0.8714 C   0  0  0  0  0  0  0  0  0  0  0  0
    1.2381   -0.1299   -0.4787 C   0  0  0  0  0  0  0  0  0  0  0  0
   -0.2124    0.1339   -0.2994 N   0  0  0  0  0  0  0  0  0  0  0  0
   -1.0868   -0.9921   -0.3577 C   0  0  0  0  0  0  0  0  0  0  0  0
   -0.6128   -2.3221   -0.2727 C   0  0  0  0  0  0  0  0  0  0  0  0
   -1.4640   -3.4336   -0.3165 C   0  0  0  0  0  0  0  0  0  0  0  0
   -2.8301   -3.2540   -0.4446 C   0  0  0  0  0  0  0  0  0  0  0  0
   -3.3360   -1.9625   -0.5266 C   0  0  0  0  0  0  0  0  0  0  0  0
   -2.4829   -0.8408   -0.4812 C   0  0  0  0  0  0  0  0  0  0  0  0
   -3.2932    0.7331   -0.6277 S   0  0  0  0  0  0  0  0  0  0  0  0
   -1.9768    1.8727   -0.2789 C   0  0  0  0  0  0  0  0  0  0  0  0
   -2.3715    3.2194   -0.1398 C   0  0  0  0  0  0  0  0  0  0  0  0
   -1.4389    4.2173    0.1173 C   0  0  0  0  0  0  0  0  0  0  0  0
   -0.1056    3.8681    0.2368 C   0  0  0  0  0  0  0  0  0  0  0  0
    1.0686    5.0839    0.5656 Cl  0  0  0  0  0  0  0  0  0  0  0  0
    0.2961    2.5353    0.0976 C   0  0  0  0  0  0  0  0  0  0  0  0
   -0.6219    1.4938   -0.1703 C   0  0  0  0  0  0  0  0  0  0  0  0
    4.7801   -1.8462   -0.0976 H   0  0  0  0  0  0  0  0  0  0  0  0
    3.4728   -2.5775    0.5333 H   0  0  0  0  0  0  0  0  0  0  0  0
    3.8778    0.3147    0.2009 H   0  0  0  0  0  0  0  0  0  0  0  0
    3.9058   -0.5932    1.7139 H   0  0  0  0  0  0  0  0  0  0  0  0
    1.7606    0.4946    1.5361 H   0  0  0  0  0  0  0  0  0  0  0  0
    1.5058   -1.2242    1.3894 H   0  0  0  0  0  0  0  0  0  0  0  0
    1.4012   -0.9767   -1.1566 H   0  0  0  0  0  0  0  0  0  0  0  0
    1.7213    0.6920   -1.0226 H   0  0  0  0  0  0  0  0  0  0  0  0
    0.4432   -2.5438   -0.1563 H   0  0  0  0  0  0  0  0  0  0  0  0
   -1.0494   -4.4360   -0.2476 H   0  0  0  0  0  0  0  0  0  0  0  0
   -3.4990   -4.1090   -0.4807 H   0  0  0  0  0  0  0  0  0  0  0  0
   -4.4113   -1.8293   -0.6297 H   0  0  0  0  0  0  0  0  0  0  0  0
   -3.4202    3.4961   -0.2341 H   0  0  0  0  0  0  0  0  0  0  0  0
   -1.7595    5.2494    0.2230 H   0  0  0  0  0  0  0  0  0  0  0  0
    1.3545    2.3365    0.2227 H   0  0  0  0  0  0  0  0  0  0  0  0
  1  2  1  0
  2  3  1  0
  3  4  1  0
  4  5  1  0
  5  6  1  0
  6  7  2  0
  7  8  1  0
  8  9  2  0
  9 10  1  0
 10 11  2  0
 11 12  1  0
 12 13  1  0
 13 14  2  0
 14 15  1  0
 15 16  2  0
 16 17  1  0
 16 18  1  0
 18 19  2  0
 19  5  1  0
 11  6  1  0
 19 13  1  0
  1 20  1  0
  1 21  1  0
  2 22  1  0
  2 23  1  0
  3 24  1  0
  3 25  1  0
  4 26  1  0
  4 27  1  0
  7 28  1  0
  8 29  1  0
  9 30  1  0
 10 31  1  0
 14 32  1  0
 15 33  1  0
 18 34  1  0
M  END
$$$$
