
     RDKit          3D

 93 97  0  0  0  0  0  0  0  0999 V2000
   -8.2231   -3.0247    0.2940 C   0  0  0  0  0  0  0  0  0  0  0  0
   -7.0439   -3.0644   -0.6638 C   0  0  0  0  0  0  0  0  0  0  0  0
   -6.4511   -1.6740   -0.8770 C   0  0  0  0  0  0  0  0  0  0  0  0
   -5.2507   -1.7101   -1.7931 C   0  0  0  0  0  0  0  0  0  0  0  0
   -4.9373   -2.6408   -2.5209 O   0  0  0  0  0  0  0  0  0  0  0  0
   -4.5710   -0.5347   -1.6939 O   0  0  0  0  0  0  0  0  0  0  0  0
   -3.3683   -0.4205   -2.4658 C   0  0  0  0  0  0  0  0  0  0  0  0
   -2.2038   -1.1638   -1.8112 C   0  0  1  0  0  0  0  0  0  0  0  0
   -0.8522   -0.8629   -2.5028 C   0  0  0  0  0  0  0  0  0  0  0  0
    0.2658   -0.9663   -1.4120 C   0  0  2  0  0  0  0  0  0  0  0  0
    0.8122    0.3205   -1.0459 O   0  0  0  0  0  0  0  0  0  0  0  0
    1.2189    1.1931   -1.9960 C   0  0  0  0  0  0  0  0  0  0  0  0
    1.1754    1.0277   -3.2048 O   0  0  0  0  0  0  0  0  0  0  0  0
    1.7156    2.4540   -1.4138 C   0  0  0  0  0  0  0  0  0  0  0  0
    2.3373    2.5208   -0.2263 C   0  0  0  0  0  0  0  0  0  0  0  0
    2.8317    3.7600    0.3918 C   0  0  0  0  0  0  0  0  0  0  0  0
    3.2573    4.8686   -0.3522 C   0  0  0  0  0  0  0  0  0  0  0  0
    3.7281    6.0189    0.2878 C   0  0  0  0  0  0  0  0  0  0  0  0
    3.7887    6.0717    1.6782 C   0  0  0  0  0  0  0  0  0  0  0  0
    3.3908    4.9698    2.4302 C   0  0  0  0  0  0  0  0  0  0  0  0
    2.9228    3.8194    1.7899 C   0  0  0  0  0  0  0  0  0  0  0  0
    1.3375   -2.0423   -1.7612 C   0  0  0  0  0  0  0  0  0  0  0  0
    1.0295   -3.2115   -2.0034 O   0  0  0  0  0  0  0  0  0  0  0  0
    2.7871   -1.6731   -1.7740 C   0  0  0  0  0  0  0  0  0  0  0  0
    3.3042   -1.0273   -3.0243 C   0  0  0  0  0  0  0  0  0  0  0  0
    3.6321   -2.0824   -0.8068 C   0  0  0  0  0  0  0  0  0  0  0  0
    3.3883   -2.9601    0.3471 C   0  0  0  0  0  0  0  0  0  0  0  0
    3.1700   -2.5230    1.7825 C   0  0  2  0  0  0  0  0  0  0  0  0
    3.0364   -1.0910    2.2344 C   0  0  0  0  0  0  0  0  0  0  0  0
    1.7306   -0.8318    3.0138 C   0  0  0  0  0  0  0  0  0  0  0  0
    0.5512   -0.5213    2.1110 C   0  0  2  0  0  0  0  0  0  0  0  0
    0.0906    0.9035    2.0912 C   0  0  0  0  0  0  0  0  0  0  0  0
   -0.5844   -1.4046    2.2857 O   0  0  0  0  0  0  0  0  0  0  0  0
    0.1666   -1.5980    1.0953 C   0  0  1  0  0  0  0  0  0  0  0  0
   -0.5580   -1.5069   -0.2007 C   0  0  1  0  0  0  0  0  0  0  0  0
   -1.9408   -0.8595   -0.3231 C   0  0  1  0  0  0  0  0  0  0  0  0
   -1.9019    0.5619   -0.1404 O   0  0  0  0  0  0  0  0  0  0  0  0
   -2.9503    1.1260    0.5246 C   0  0  0  0  0  0  0  0  0  0  0  0
   -3.8998    0.5304    1.0128 O   0  0  0  0  0  0  0  0  0  0  0  0
   -2.7971    2.6255    0.5532 C   0  0  0  0  0  0  0  0  0  0  0  0
   -3.3085    3.2460   -0.7400 C   0  0  0  0  0  0  0  0  0  0  0  0
   -3.2297    4.7622   -0.6969 C   0  0  0  0  0  0  0  0  0  0  0  0
    4.5028   -3.1320    1.3823 C   0  0  0  0  0  0  0  0  0  0  0  0
    5.7393   -2.2611    1.3792 C   0  0  0  0  0  0  0  0  0  0  0  0
    4.7880   -4.5459    1.8391 C   0  0  0  0  0  0  0  0  0  0  0  0
   -7.9247   -2.6324    1.2712 H   0  0  0  0  0  0  0  0  0  0  0  0
   -9.0260   -2.3932   -0.0989 H   0  0  0  0  0  0  0  0  0  0  0  0
   -8.6230   -4.0322    0.4414 H   0  0  0  0  0  0  0  0  0  0  0  0
   -6.2763   -3.7426   -0.2697 H   0  0  0  0  0  0  0  0  0  0  0  0
   -7.3719   -3.4810   -1.6233 H   0  0  0  0  0  0  0  0  0  0  0  0
   -6.1358   -1.2658    0.0900 H   0  0  0  0  0  0  0  0  0  0  0  0
   -7.1972   -1.0041   -1.3170 H   0  0  0  0  0  0  0  0  0  0  0  0
   -3.1522    0.6498   -2.5479 H   0  0  0  0  0  0  0  0  0  0  0  0
   -3.5389   -0.7778   -3.4890 H   0  0  0  0  0  0  0  0  0  0  0  0
   -2.3978   -2.2419   -1.8985 H   0  0  0  0  0  0  0  0  0  0  0  0
   -0.9136    0.1323   -2.9486 H   0  0  0  0  0  0  0  0  0  0  0  0
   -0.6938   -1.5726   -3.3219 H   0  0  0  0  0  0  0  0  0  0  0  0
    1.5661    3.3206   -2.0476 H   0  0  0  0  0  0  0  0  0  0  0  0
    2.4851    1.6156    0.3578 H   0  0  0  0  0  0  0  0  0  0  0  0
    3.2425    4.8544   -1.4385 H   0  0  0  0  0  0  0  0  0  0  0  0
    4.0524    6.8726   -0.3016 H   0  0  0  0  0  0  0  0  0  0  0  0
    4.1511    6.9685    2.1736 H   0  0  0  0  0  0  0  0  0  0  0  0
    3.4430    5.0061    3.5153 H   0  0  0  0  0  0  0  0  0  0  0  0
    2.6229    2.9724    2.4016 H   0  0  0  0  0  0  0  0  0  0  0  0
    4.1986   -1.5459   -3.3845 H   0  0  0  0  0  0  0  0  0  0  0  0
    3.5757    0.0168   -2.8449 H   0  0  0  0  0  0  0  0  0  0  0  0
    2.5726   -1.0737   -3.8356 H   0  0  0  0  0  0  0  0  0  0  0  0
    4.6781   -1.8241   -0.9736 H   0  0  0  0  0  0  0  0  0  0  0  0
    2.8664   -3.8729    0.0553 H   0  0  0  0  0  0  0  0  0  0  0  0
    2.5503   -3.1734    2.3985 H   0  0  0  0  0  0  0  0  0  0  0  0
    3.1251   -0.3965    1.3929 H   0  0  0  0  0  0  0  0  0  0  0  0
    3.8673   -0.8774    2.9191 H   0  0  0  0  0  0  0  0  0  0  0  0
    1.4952   -1.6808    3.6690 H   0  0  0  0  0  0  0  0  0  0  0  0
    1.9045    0.0171    3.6877 H   0  0  0  0  0  0  0  0  0  0  0  0
   -0.9444    0.9874    2.4418 H   0  0  0  0  0  0  0  0  0  0  0  0
    0.6916    1.5373    2.7546 H   0  0  0  0  0  0  0  0  0  0  0  0
    0.1565    1.3334    1.0941 H   0  0  0  0  0  0  0  0  0  0  0  0
    0.7481   -2.5131    1.0835 H   0  0  0  0  0  0  0  0  0  0  0  0
   -0.7626   -2.5728   -0.4050 H   0  0  0  0  0  0  0  0  0  0  0  0
   -2.6681   -1.3500    0.3331 H   0  0  0  0  0  0  0  0  0  0  0  0
   -3.3520    3.0066    1.4188 H   0  0  0  0  0  0  0  0  0  0  0  0
   -1.7447    2.8804    0.7236 H   0  0  0  0  0  0  0  0  0  0  0  0
   -2.7189    2.8793   -1.5879 H   0  0  0  0  0  0  0  0  0  0  0  0
   -4.3453    2.9381   -0.9181 H   0  0  0  0  0  0  0  0  0  0  0  0
   -3.8370    5.1630    0.1211 H   0  0  0  0  0  0  0  0  0  0  0  0
   -2.1978    5.0972   -0.5597 H   0  0  0  0  0  0  0  0  0  0  0  0
   -3.6024    5.1889   -1.6322 H   0  0  0  0  0  0  0  0  0  0  0  0
    5.5361   -1.2221    1.1066 H   0  0  0  0  0  0  0  0  0  0  0  0
    6.4767   -2.6571    0.6738 H   0  0  0  0  0  0  0  0  0  0  0  0
    6.1971   -2.2529    2.3734 H   0  0  0  0  0  0  0  0  0  0  0  0
    5.2108   -4.5407    2.8476 H   0  0  0  0  0  0  0  0  0  0  0  0
    5.5035   -5.0277    1.1654 H   0  0  0  0  0  0  0  0  0  0  0  0
    3.8806   -5.1588    1.8590 H   0  0  0  0  0  0  0  0  0  0  0  0
  1  2  1  0
  2  3  1  0
  3  4  1  0
  4  5  2  0
  4  6  1  0
  6  7  1  0
  7  8  1  0
  8  9  1  0
  9 10  1  0
 10 11  1  1
 11 12  1  0
 12 13  2  0
 12 14  1  0
 14 15  2  0
 15 16  1  0
 16 17  2  0
 17 18  1  0
 18 19  2  0
 19 20  1  0
 20 21  2  0
 10 22  1  0
 22 23  2  0
 22 24  1  0
 24 25  1  0
 24 26  2  3
 26 27  1  0
 27 28  1  0
 28 29  1  0
 29 30  1  0
 30 31  1  0
 31 32  1  6
 31 33  1  0
 33 34  1  0
 34 35  1  0
 35 36  1  0
 36 37  1  0
 37 38  1  0
 38 39  2  0
 38 40  1  0
 40 41  1  0
 41 42  1  0
 28 43  1  0
 43 44  1  0
 43 45  1  0
 36  8  1  0
 35 10  1  0
 21 16  1  0
 43 27  1  0
 34 31  1  0
  1 46  1  0
  1 47  1  0
  1 48  1  0
  2 49  1  0
  2 50  1  0
  3 51  1  0
  3 52  1  0
  7 53  1  0
  7 54  1  0
  8 55  1  1
  9 56  1  0
  9 57  1  0
 14 58  1  0
 15 59  1  0
 17 60  1  0
 18 61  1  0
 19 62  1  0
 20 63  1  0
 21 64  1  0
 25 65  1  0
 25 66  1  0
 25 67  1  0
 26 68  1  0
 27 69  1  0
 28 70  1  1
 29 71  1  0
 29 72  1  0
 30 73  1  0
 30 74  1  0
 32 75  1  0
 32 76  1  0
 32 77  1  0
 34 78  1  1
 35 79  1  6
 36 80  1  1
 40 81  1  0
 40 82  1  0
 41 83  1  0
 41 84  1  0
 42 85  1  0
 42 86  1  0
 42 87  1  0
 44 88  1  0
 44 89  1  0
 44 90  1  0
 45 91  1  0
 45 92  1  0
 45 93  1  0
M  END
$$$$
