
     RDKit          3D

 42 44  0  0  0  0  0  0  0  0999 V2000
   -6.1484    0.5762   -1.0758 C   0  0  0  0  0  0  0  0  0  0  0  0
   -4.9797   -0.0671   -1.5686 O   0  0  0  0  0  0  0  0  0  0  0  0
   -4.0497   -0.4574   -0.6453 C   0  0  0  0  0  0  0  0  0  0  0  0
   -4.1317   -0.2608    0.7353 C   0  0  0  0  0  0  0  0  0  0  0  0
   -3.1037   -0.7084    1.5720 C   0  0  0  0  0  0  0  0  0  0  0  0
   -1.9873   -1.3436    1.0204 C   0  0  0  0  0  0  0  0  0  0  0  0
   -0.6907   -1.9289    2.0883 S   0  0  0  0  0  6  0  0  0  0  0  0
   -0.0357   -3.0388    1.4309 O   0  0  0  0  0  0  0  0  0  0  0  0
   -1.2543   -2.0748    3.4150 O   0  0  0  0  0  0  0  0  0  0  0  0
    0.3634   -0.6153    2.1792 N   0  0  0  0  0  0  0  0  0  0  0  0
    0.8957   -0.0324    0.9920 C   0  0  0  0  0  0  0  0  0  0  0  0
    1.7100   -0.8007    0.1515 C   0  0  0  0  0  0  0  0  0  0  0  0
    2.2271   -0.2595   -1.0297 C   0  0  0  0  0  0  0  0  0  0  0  0
    3.2411   -1.2627   -2.0994 S   0  0  0  0  0  0  0  0  0  0  0  0
    4.8385   -0.9822   -1.4523 C   0  0  0  0  0  0  0  0  0  0  0  0
    5.0919   -0.3438   -0.2677 N   0  0  0  0  0  0  0  0  0  0  0  0
    6.4011   -0.3644   -0.1905 C   0  0  0  0  0  0  0  0  0  0  0  0
    6.9081   -0.9841   -1.2872 N   0  0  0  0  0  0  0  0  0  0  0  0
    5.9298   -1.3796   -2.1159 N   0  0  0  0  0  0  0  0  0  0  0  0
    1.9106    1.0608   -1.3604 C   0  0  0  0  0  0  0  0  0  0  0  0
    2.3645    1.6541   -2.5070 O   0  0  0  0  0  0  0  0  0  0  0  0
    1.1104    1.8366   -0.5258 C   0  0  0  0  0  0  0  0  0  0  0  0
    0.5951    1.3015    0.6645 C   0  0  0  0  0  0  0  0  0  0  0  0
   -0.2568    2.1716    1.5446 C   0  0  0  0  0  0  0  0  0  0  0  0
   -1.9076   -1.5666   -0.3552 C   0  0  0  0  0  0  0  0  0  0  0  0
   -2.9364   -1.1127   -1.1822 C   0  0  0  0  0  0  0  0  0  0  0  0
   -5.8992    1.5187   -0.5770 H   0  0  0  0  0  0  0  0  0  0  0  0
   -6.7867    0.8122   -1.9327 H   0  0  0  0  0  0  0  0  0  0  0  0
   -6.7136   -0.0861   -0.4117 H   0  0  0  0  0  0  0  0  0  0  0  0
   -4.9836    0.2321    1.1925 H   0  0  0  0  0  0  0  0  0  0  0  0
   -3.1847   -0.5602    2.6466 H   0  0  0  0  0  0  0  0  0  0  0  0
    0.1634   -0.0101    2.9721 H   0  0  0  0  0  0  0  0  0  0  0  0
    1.9609   -1.8230    0.4268 H   0  0  0  0  0  0  0  0  0  0  0  0
    7.0116    0.0381    0.6050 H   0  0  0  0  0  0  0  0  0  0  0  0
    7.8747   -1.1664   -1.5331 H   0  0  0  0  0  0  0  0  0  0  0  0
    2.9174    0.9974   -2.9695 H   0  0  0  0  0  0  0  0  0  0  0  0
    0.8927    2.8626   -0.8141 H   0  0  0  0  0  0  0  0  0  0  0  0
   -0.3938    3.1695    1.1142 H   0  0  0  0  0  0  0  0  0  0  0  0
    0.2161    2.2982    2.5237 H   0  0  0  0  0  0  0  0  0  0  0  0
   -1.2500    1.7323    1.6736 H   0  0  0  0  0  0  0  0  0  0  0  0
   -1.0562   -2.0846   -0.7908 H   0  0  0  0  0  0  0  0  0  0  0  0
   -2.8743   -1.2751   -2.2562 H   0  0  0  0  0  0  0  0  0  0  0  0
  1  2  1  0
  2  3  1  0
  3  4  2  0
  4  5  1  0
  5  6  2  0
  6  7  1  0
  7  8  2  0
  7  9  2  0
  7 10  1  0
 10 11  1  0
 11 12  2  0
 12 13  1  0
 13 14  1  0
 14 15  1  0
 15 16  1  0
 16 17  2  0
 17 18  1  0
 18 19  1  0
 13 20  2  0
 20 21  1  0
 20 22  1  0
 22 23  2  0
 23 24  1  0
  6 25  1  0
 25 26  2  0
 26  3  1  0
 23 11  1  0
 19 15  2  0
  1 27  1  0
  1 28  1  0
  1 29  1  0
  4 30  1  0
  5 31  1  0
 10 32  1  0
 12 33  1  0
 17 34  1  0
 18 35  1  0
 21 36  1  0
 22 37  1  0
 24 38  1  0
 24 39  1  0
 24 40  1  0
 25 41  1  0
 26 42  1  0
M  END
$$$$
