
     RDKit          3D

 32 33  0  0  0  0  0  0  0  0999 V2000
    4.1551   -1.1780   -1.4736 C   0  0  0  0  0  0  0  0  0  0  0  0
    4.3741   -0.3054   -0.2496 C   0  0  0  0  0  0  0  0  0  0  0  0
    3.0399   -0.5049    0.9680 S   0  0  0  0  0  0  0  0  0  0  0  0
    1.7034    0.3121    0.2213 C   0  0  0  0  0  0  0  0  0  0  0  0
    1.6433    1.3850   -0.6353 C   0  0  0  0  0  0  0  0  0  0  0  0
    0.3489    1.6721   -0.9712 N   0  0  0  0  0  0  0  0  0  0  0  0
   -0.4011    0.8133   -0.3052 C   0  0  0  0  0  0  0  0  0  0  0  0
   -1.8587    0.7589   -0.3805 C   0  0  0  0  0  0  0  0  0  0  0  0
   -2.4775    0.2821   -1.5422 C   0  0  0  0  0  0  0  0  0  0  0  0
   -3.8697    0.2153   -1.6233 C   0  0  0  0  0  0  0  0  0  0  0  0
   -4.6513    0.6345   -0.5475 C   0  0  0  0  0  0  0  0  0  0  0  0
   -4.0433    1.1292    0.6058 C   0  0  0  0  0  0  0  0  0  0  0  0
   -2.6508    1.1961    0.6877 C   0  0  0  0  0  0  0  0  0  0  0  0
    0.3917   -0.0451    0.4418 N   0  0  0  0  0  0  0  0  0  0  0  0
   -0.0902   -1.1636    1.2352 C   0  0  0  0  0  0  0  0  0  0  0  0
   -0.2085   -0.8365    2.7147 C   0  0  0  0  0  0  0  0  0  0  0  0
    4.9996   -1.0685   -2.1623 H   0  0  0  0  0  0  0  0  0  0  0  0
    3.2489   -0.8983   -2.0198 H   0  0  0  0  0  0  0  0  0  0  0  0
    4.0853   -2.2372   -1.2034 H   0  0  0  0  0  0  0  0  0  0  0  0
    5.3092   -0.6013    0.2372 H   0  0  0  0  0  0  0  0  0  0  0  0
    4.4811    0.7457   -0.5337 H   0  0  0  0  0  0  0  0  0  0  0  0
    2.4598    1.9686   -1.0381 H   0  0  0  0  0  0  0  0  0  0  0  0
   -1.8728   -0.0326   -2.3901 H   0  0  0  0  0  0  0  0  0  0  0  0
   -4.3429   -0.1554   -2.5289 H   0  0  0  0  0  0  0  0  0  0  0  0
   -5.7354    0.5883   -0.6136 H   0  0  0  0  0  0  0  0  0  0  0  0
   -4.6533    1.4735    1.4369 H   0  0  0  0  0  0  0  0  0  0  0  0
   -2.1879    1.6076    1.5811 H   0  0  0  0  0  0  0  0  0  0  0  0
    0.5870   -2.0100    1.0787 H   0  0  0  0  0  0  0  0  0  0  0  0
   -1.0619   -1.4779    0.8407 H   0  0  0  0  0  0  0  0  0  0  0  0
   -0.5867   -1.7047    3.2634 H   0  0  0  0  0  0  0  0  0  0  0  0
    0.7591   -0.5609    3.1451 H   0  0  0  0  0  0  0  0  0  0  0  0
   -0.8946   -0.0021    2.8866 H   0  0  0  0  0  0  0  0  0  0  0  0
  1  2  1  0
  2  3  1  0
  3  4  1  0
  4  5  2  0
  5  6  1  0
  6  7  2  0
  7  8  1  0
  8  9  2  0
  9 10  1  0
 10 11  2  0
 11 12  1  0
 12 13  2  0
  7 14  1  0
 14 15  1  0
 15 16  1  0
 14  4  1  0
 13  8  1  0
  1 17  1  0
  1 18  1  0
  1 19  1  0
  2 20  1  0
  2 21  1  0
  5 22  1  0
  9 23  1  0
 10 24  1  0
 11 25  1  0
 12 26  1  0
 13 27  1  0
 15 28  1  0
 15 29  1  0
 16 30  1  0
 16 31  1  0
 16 32  1  0
M  END
$$$$
