
     RDKit          3D

 28 28  0  0  0  0  0  0  0  0999 V2000
   -1.1582   -2.2358    0.5095 C   0  0  0  0  0  0  0  0  0  0  0  0
   -2.1834   -1.1218    0.2634 C   0  0  0  0  0  0  0  0  0  0  0  0
   -2.5442   -1.0515   -1.2266 C   0  0  0  0  0  0  0  0  0  0  0  0
   -3.4566   -1.4531    1.0641 C   0  0  0  0  0  0  0  0  0  0  0  0
   -1.6408    0.2539    0.7110 C   0  0  0  0  0  0  0  0  0  0  0  0
   -2.3114    1.0021    1.4305 O   0  0  0  0  0  0  0  0  0  0  0  0
   -0.2770    0.7000    0.2152 C   0  0  0  0  0  0  0  0  0  0  0  0
    0.9494    0.4892    1.5339 S   0  0  0  0  0  0  0  0  0  0  0  0
    2.3734    1.1744    0.7289 C   0  0  0  0  0  0  0  0  0  0  0  0
    3.4442    1.4071    1.5059 N   0  0  0  0  0  0  0  0  0  0  0  0
    4.5297    1.9178    0.8973 C   0  0  0  0  0  0  0  0  0  0  0  0
    4.5840    2.1958   -0.4465 C   0  0  0  0  0  0  0  0  0  0  0  0
    3.4398    1.9155   -1.1533 C   0  0  0  0  0  0  0  0  0  0  0  0
    2.3258    1.4043   -0.5955 N   0  0  0  0  0  0  0  0  0  0  0  0
   -1.5757   -3.2185    0.2616 H   0  0  0  0  0  0  0  0  0  0  0  0
   -0.2573   -2.1064   -0.0991 H   0  0  0  0  0  0  0  0  0  0  0  0
   -0.8473   -2.2609    1.5599 H   0  0  0  0  0  0  0  0  0  0  0  0
   -3.2415   -0.2293   -1.4247 H   0  0  0  0  0  0  0  0  0  0  0  0
   -1.6610   -0.8843   -1.8519 H   0  0  0  0  0  0  0  0  0  0  0  0
   -3.0148   -1.9815   -1.5649 H   0  0  0  0  0  0  0  0  0  0  0  0
   -3.8669   -2.4275    0.7755 H   0  0  0  0  0  0  0  0  0  0  0  0
   -4.2391   -0.7031    0.8999 H   0  0  0  0  0  0  0  0  0  0  0  0
   -3.2502   -1.4816    2.1404 H   0  0  0  0  0  0  0  0  0  0  0  0
    0.0063    0.1339   -0.6752 H   0  0  0  0  0  0  0  0  0  0  0  0
   -0.3577    1.7547   -0.0701 H   0  0  0  0  0  0  0  0  0  0  0  0
    5.3811    2.1015    1.5464 H   0  0  0  0  0  0  0  0  0  0  0  0
    5.4671    2.6065   -0.9152 H   0  0  0  0  0  0  0  0  0  0  0  0
    3.3822    2.0988   -2.2224 H   0  0  0  0  0  0  0  0  0  0  0  0
  1  2  1  0
  2  3  1  0
  2  4  1  0
  2  5  1  0
  5  6  2  0
  5  7  1  0
  7  8  1  0
  8  9  1  0
  9 10  2  0
 10 11  1  0
 11 12  2  0
 12 13  1  0
 13 14  2  0
 14  9  1  0
  1 15  1  0
  1 16  1  0
  1 17  1  0
  3 18  1  0
  3 19  1  0
  3 20  1  0
  4 21  1  0
  4 22  1  0
  4 23  1  0
  7 24  1  0
  7 25  1  0
 11 26  1  0
 12 27  1  0
 13 28  1  0
M  END
$$$$
