
     RDKit          3D

 61 65  0  0  0  0  0  0  0  0999 V2000
   -7.6354    2.9061   -3.9814 C   0  0  0  0  0  0  0  0  0  0  0  0
   -6.8095    2.0239   -3.0931 C   0  0  0  0  0  0  0  0  0  0  0  0
   -7.4089    1.0168   -2.3343 C   0  0  0  0  0  0  0  0  0  0  0  0
   -6.6310    0.1796   -1.5260 C   0  0  0  0  0  0  0  0  0  0  0  0
   -5.2329    0.3156   -1.4518 C   0  0  0  0  0  0  0  0  0  0  0  0
   -4.4349   -0.5660   -0.5727 C   0  0  0  0  0  0  0  0  0  0  0  0
   -3.2534   -0.1651    0.0246 C   0  0  0  0  0  0  0  0  0  0  0  0
   -2.5748   -1.0712    0.8425 C   0  0  0  0  0  0  0  0  0  0  0  0
   -1.2857   -0.5962    1.3972 C   0  0  0  0  0  0  0  0  0  0  0  0
   -1.2869    0.4490    2.0322 O   0  0  0  0  0  0  0  0  0  0  0  0
   -0.2004   -1.3832    1.0614 N   0  0  0  0  0  0  0  0  0  0  0  0
    1.1522   -1.1577    1.3906 C   0  0  0  0  0  0  0  0  0  0  0  0
    2.0869   -2.0985    0.9334 C   0  0  0  0  0  0  0  0  0  0  0  0
    3.4496   -1.9433    1.2053 C   0  0  0  0  0  0  0  0  0  0  0  0
    3.8827   -0.8309    1.9290 C   0  0  0  0  0  0  0  0  0  0  0  0
    5.6110   -0.6351    2.2807 S   0  0  0  0  0  6  0  0  0  0  0  0
    5.7891    0.4324    3.2398 O   0  0  0  0  0  0  0  0  0  0  0  0
    6.1459   -1.9578    2.5385 O   0  0  0  0  0  0  0  0  0  0  0  0
    6.2330   -0.1774    0.7902 N   0  0  0  0  0  0  0  0  0  0  0  0
    6.1719    1.2329    0.4665 C   0  0  0  0  0  0  0  0  0  0  0  0
    5.1814    2.0825    0.8496 O   0  0  0  0  0  0  0  0  0  0  0  0
    5.4197    3.3406    0.3353 N   0  0  0  0  0  0  0  0  0  0  0  0
    6.5586    3.2378   -0.3580 C   0  0  0  0  0  0  0  0  0  0  0  0
    7.1182    4.4264   -1.0439 C   0  0  0  0  0  0  0  0  0  0  0  0
    7.0769    1.9123   -0.3206 C   0  0  0  0  0  0  0  0  0  0  0  0
    8.3078    1.4031   -0.9638 C   0  0  0  0  0  0  0  0  0  0  0  0
    2.9637    0.1050    2.4040 C   0  0  0  0  0  0  0  0  0  0  0  0
    1.6013   -0.0612    2.1320 C   0  0  0  0  0  0  0  0  0  0  0  0
   -3.0976   -2.3554    1.1044 C   0  0  0  0  0  0  0  0  0  0  0  0
   -2.5232   -3.3112    1.9830 C   0  0  0  0  0  0  0  0  0  0  0  0
   -3.1095   -4.5622    2.1665 C   0  0  0  0  0  0  0  0  0  0  0  0
   -4.2777   -4.8739    1.4868 C   0  0  0  0  0  0  0  0  0  0  0  0
   -4.8585   -3.9270    0.6401 C   0  0  0  0  0  0  0  0  0  0  0  0
   -4.2979   -2.6717    0.4434 C   0  0  0  0  0  0  0  0  0  0  0  0
   -4.9345   -1.8117   -0.3701 N   0  0  0  0  0  0  0  0  0  0  0  0
   -4.6453    1.3176   -2.2445 C   0  0  0  0  0  0  0  0  0  0  0  0
   -5.4197    2.1567   -3.0555 C   0  0  0  0  0  0  0  0  0  0  0  0
   -7.1864    3.9018   -4.0674 H   0  0  0  0  0  0  0  0  0  0  0  0
   -8.6438    3.0398   -3.5736 H   0  0  0  0  0  0  0  0  0  0  0  0
   -7.7130    2.4656   -4.9797 H   0  0  0  0  0  0  0  0  0  0  0  0
   -8.4866    0.8744   -2.3602 H   0  0  0  0  0  0  0  0  0  0  0  0
   -7.1299   -0.5903   -0.9391 H   0  0  0  0  0  0  0  0  0  0  0  0
   -2.8561    0.8354   -0.1196 H   0  0  0  0  0  0  0  0  0  0  0  0
   -0.3868   -2.1948    0.4837 H   0  0  0  0  0  0  0  0  0  0  0  0
    1.7681   -2.9669    0.3615 H   0  0  0  0  0  0  0  0  0  0  0  0
    4.1606   -2.6860    0.8507 H   0  0  0  0  0  0  0  0  0  0  0  0
    7.0400   -0.7260    0.5034 H   0  0  0  0  0  0  0  0  0  0  0  0
    7.1669    4.2550   -2.1252 H   0  0  0  0  0  0  0  0  0  0  0  0
    8.1302    4.6341   -0.6798 H   0  0  0  0  0  0  0  0  0  0  0  0
    6.5066    5.3194   -0.8714 H   0  0  0  0  0  0  0  0  0  0  0  0
    8.1725    0.3761   -1.3191 H   0  0  0  0  0  0  0  0  0  0  0  0
    9.1392    1.4136   -0.2512 H   0  0  0  0  0  0  0  0  0  0  0  0
    8.5896    2.0147   -1.8272 H   0  0  0  0  0  0  0  0  0  0  0  0
    3.2913    0.9704    2.9777 H   0  0  0  0  0  0  0  0  0  0  0  0
    0.9169    0.6921    2.5115 H   0  0  0  0  0  0  0  0  0  0  0  0
   -1.6248   -3.0792    2.5526 H   0  0  0  0  0  0  0  0  0  0  0  0
   -2.6611   -5.2832    2.8457 H   0  0  0  0  0  0  0  0  0  0  0  0
   -4.7504   -5.8440    1.6208 H   0  0  0  0  0  0  0  0  0  0  0  0
   -5.7836   -4.1734    0.1228 H   0  0  0  0  0  0  0  0  0  0  0  0
   -3.5665    1.4545   -2.2571 H   0  0  0  0  0  0  0  0  0  0  0  0
   -4.9250    2.9155   -3.6580 H   0  0  0  0  0  0  0  0  0  0  0  0
  1  2  1  0
  2  3  2  0
  3  4  1  0
  4  5  2  0
  5  6  1  0
  6  7  2  0
  7  8  1  0
  8  9  1  0
  9 10  2  0
  9 11  1  0
 11 12  1  0
 12 13  2  0
 13 14  1  0
 14 15  2  0
 15 16  1  0
 16 17  2  0
 16 18  2  0
 16 19  1  0
 19 20  1  0
 20 21  1  0
 21 22  1  0
 22 23  2  0
 23 24  1  0
 23 25  1  0
 25 26  1  0
 15 27  1  0
 27 28  2  0
  8 29  2  0
 29 30  1  0
 30 31  2  0
 31 32  1  0
 32 33  2  0
 33 34  1  0
 34 35  2  0
  5 36  1  0
 36 37  2  0
 37  2  1  0
 35  6  1  0
 28 12  1  0
 34 29  1  0
 25 20  2  0
  1 38  1  0
  1 39  1  0
  1 40  1  0
  3 41  1  0
  4 42  1  0
  7 43  1  0
 11 44  1  0
 13 45  1  0
 14 46  1  0
 19 47  1  0
 24 48  1  0
 24 49  1  0
 24 50  1  0
 26 51  1  0
 26 52  1  0
 26 53  1  0
 27 54  1  0
 28 55  1  0
 30 56  1  0
 31 57  1  0
 32 58  1  0
 33 59  1  0
 36 60  1  0
 37 61  1  0
M  END
$$$$
