
     RDKit          3D

 58 61  0  0  0  0  0  0  0  0999 V2000
   -4.1226    5.3763   -1.4162 C   0  0  0  0  0  0  0  0  0  0  0  0
   -3.1696    4.3384   -1.2261 O   0  0  0  0  0  0  0  0  0  0  0  0
   -3.4611    3.3939   -0.2801 C   0  0  0  0  0  0  0  0  0  0  0  0
   -4.5984    3.3580    0.5153 C   0  0  0  0  0  0  0  0  0  0  0  0
   -4.7819    2.3344    1.4523 C   0  0  0  0  0  0  0  0  0  0  0  0
   -3.7993    1.3340    1.5807 C   0  0  0  0  0  0  0  0  0  0  0  0
   -3.8228   -0.0033    2.6592 S   0  0  0  0  0  0  0  0  0  0  0  0
   -2.3203   -0.5941    2.0969 C   0  0  0  0  0  0  0  0  0  0  0  0
   -1.7904   -1.8315    2.6859 C   0  0  0  0  0  0  0  0  0  0  0  0
   -1.1874   -1.7761    3.9536 C   0  0  0  0  0  0  0  0  0  0  0  0
   -0.6547   -2.9247    4.5363 C   0  0  0  0  0  0  0  0  0  0  0  0
   -0.7205   -4.1381    3.8583 C   0  0  0  0  0  0  0  0  0  0  0  0
   -1.3186   -4.2084    2.5968 C   0  0  0  0  0  0  0  0  0  0  0  0
   -1.8520   -3.0610    1.9975 C   0  0  0  0  0  0  0  0  0  0  0  0
   -2.4667   -3.0475    0.7699 O   0  0  0  0  0  0  0  0  0  0  0  0
   -2.3247   -4.2021   -0.0454 C   0  0  0  0  0  0  0  0  0  0  0  0
   -1.7908    0.2169    1.1071 C   0  0  0  0  0  0  0  0  0  0  0  0
   -0.5116   -0.0814    0.4764 C   0  0  0  0  0  0  0  0  0  0  0  0
    0.6863    0.2404    1.1212 C   0  0  0  0  0  0  0  0  0  0  0  0
    1.9152   -0.0331    0.5086 C   0  0  0  0  0  0  0  0  0  0  0  0
    1.9539   -0.6281   -0.7524 C   0  0  0  0  0  0  0  0  0  0  0  0
    3.0730   -0.9471   -1.4682 O   0  0  0  0  0  0  0  0  0  0  0  0
    4.3586   -0.6548   -0.9192 C   0  0  0  0  0  0  0  0  0  0  0  0
    4.8041    0.8037   -1.1630 C   0  0  0  0  0  0  0  0  0  0  0  0
    5.1520    1.2221   -2.5348 N   0  0  0  0  0  0  0  0  0  0  0  0
    6.2812    0.4818   -3.0887 C   0  0  0  0  0  0  0  0  0  0  0  0
    4.0075    1.1807   -3.4426 C   0  0  0  0  0  0  0  0  0  0  0  0
    0.7525   -0.9455   -1.3938 C   0  0  0  0  0  0  0  0  0  0  0  0
   -0.4759   -0.6728   -0.7879 C   0  0  0  0  0  0  0  0  0  0  0  0
   -2.6460    1.3391    0.7957 C   0  0  0  0  0  0  0  0  0  0  0  0
   -2.4912    2.3942   -0.1410 C   0  0  0  0  0  0  0  0  0  0  0  0
   -4.2461    5.9707   -0.5047 H   0  0  0  0  0  0  0  0  0  0  0  0
   -3.7415    6.0407   -2.1975 H   0  0  0  0  0  0  0  0  0  0  0  0
   -5.0811    4.9736   -1.7602 H   0  0  0  0  0  0  0  0  0  0  0  0
   -5.3739    4.1131    0.4380 H   0  0  0  0  0  0  0  0  0  0  0  0
   -5.6742    2.3121    2.0718 H   0  0  0  0  0  0  0  0  0  0  0  0
   -1.1306   -0.8318    4.4898 H   0  0  0  0  0  0  0  0  0  0  0  0
   -0.1912   -2.8720    5.5178 H   0  0  0  0  0  0  0  0  0  0  0  0
   -0.3097   -5.0363    4.3127 H   0  0  0  0  0  0  0  0  0  0  0  0
   -1.3597   -5.1771    2.1105 H   0  0  0  0  0  0  0  0  0  0  0  0
   -1.2705   -4.4611   -0.1935 H   0  0  0  0  0  0  0  0  0  0  0  0
   -2.7495   -3.9715   -1.0277 H   0  0  0  0  0  0  0  0  0  0  0  0
   -2.8859   -5.0451    0.3698 H   0  0  0  0  0  0  0  0  0  0  0  0
    0.6708    0.7086    2.1026 H   0  0  0  0  0  0  0  0  0  0  0  0
    2.8155    0.2391    1.0469 H   0  0  0  0  0  0  0  0  0  0  0  0
    4.4004   -0.9027    0.1482 H   0  0  0  0  0  0  0  0  0  0  0  0
    5.0670   -1.3444   -1.3905 H   0  0  0  0  0  0  0  0  0  0  0  0
    5.6823    0.9915   -0.5318 H   0  0  0  0  0  0  0  0  0  0  0  0
    4.0315    1.4889   -0.7938 H   0  0  0  0  0  0  0  0  0  0  0  0
    7.1458    0.5325   -2.4175 H   0  0  0  0  0  0  0  0  0  0  0  0
    6.5980    0.9273   -4.0390 H   0  0  0  0  0  0  0  0  0  0  0  0
    6.0485   -0.5721   -3.2741 H   0  0  0  0  0  0  0  0  0  0  0  0
    3.1549    1.7274   -3.0246 H   0  0  0  0  0  0  0  0  0  0  0  0
    3.6893    0.1597   -3.6776 H   0  0  0  0  0  0  0  0  0  0  0  0
    4.2599    1.6761   -4.3874 H   0  0  0  0  0  0  0  0  0  0  0  0
    0.7727   -1.4094   -2.3769 H   0  0  0  0  0  0  0  0  0  0  0  0
   -1.3993   -0.9302   -1.3011 H   0  0  0  0  0  0  0  0  0  0  0  0
   -1.6015    2.4278   -0.7660 H   0  0  0  0  0  0  0  0  0  0  0  0
  1  2  1  0
  2  3  1  0
  3  4  2  0
  4  5  1  0
  5  6  2  0
  6  7  1  0
  7  8  1  0
  8  9  1  0
  9 10  2  0
 10 11  1  0
 11 12  2  0
 12 13  1  0
 13 14  2  0
 14 15  1  0
 15 16  1  0
  8 17  2  0
 17 18  1  0
 18 19  2  0
 19 20  1  0
 20 21  2  0
 21 22  1  0
 22 23  1  0
 23 24  1  0
 24 25  1  0
 25 26  1  0
 25 27  1  0
 21 28  1  0
 28 29  2  0
 17 30  1  0
 30 31  2  0
 31  3  1  0
 30  6  1  0
 14  9  1  0
 29 18  1  0
  1 32  1  0
  1 33  1  0
  1 34  1  0
  4 35  1  0
  5 36  1  0
 10 37  1  0
 11 38  1  0
 12 39  1  0
 13 40  1  0
 16 41  1  0
 16 42  1  0
 16 43  1  0
 19 44  1  0
 20 45  1  0
 23 46  1  0
 23 47  1  0
 24 48  1  0
 24 49  1  0
 26 50  1  0
 26 51  1  0
 26 52  1  0
 27 53  1  0
 27 54  1  0
 27 55  1  0
 28 56  1  0
 29 57  1  0
 31 58  1  0
M  END
$$$$
