
     RDKit          3D

 53 54  0  0  0  0  0  0  0  0999 V2000
   -4.8540    0.1911   -1.6637 C   0  0  0  0  0  0  0  0  0  0  0  0
   -4.8757    0.9817   -0.3650 C   0  0  0  0  0  0  0  0  0  0  0  0
   -4.8703    0.0478    0.7948 N   0  0  0  0  0  0  0  0  0  0  0  0
   -6.2091   -0.5478    1.0756 C   0  0  0  0  0  0  0  0  0  0  0  0
   -6.0986   -2.0617    1.0279 C   0  0  0  0  0  0  0  0  0  0  0  0
   -4.0741    0.6309    2.1952 S   0  0  0  0  0  6  0  0  0  0  0  0
   -4.1562   -0.3764    3.2300 O   0  0  0  0  0  0  0  0  0  0  0  0
   -4.5395    1.9842    2.4181 O   0  0  0  0  0  0  0  0  0  0  0  0
   -2.3771    0.6967    1.6769 C   0  0  0  0  0  0  0  0  0  0  0  0
   -1.6676    1.8979    1.7508 C   0  0  0  0  0  0  0  0  0  0  0  0
   -0.3336    1.9294    1.3484 C   0  0  0  0  0  0  0  0  0  0  0  0
    0.2822    0.7677    0.8724 C   0  0  0  0  0  0  0  0  0  0  0  0
   -0.4324   -0.4376    0.7938 C   0  0  0  0  0  0  0  0  0  0  0  0
    0.1829   -1.6977    0.2964 C   0  0  0  0  0  0  0  0  0  0  0  0
   -0.3804   -2.7796    0.3306 O   0  0  0  0  0  0  0  0  0  0  0  0
    1.4195   -1.4666   -0.2081 O   0  0  0  0  0  0  0  0  0  0  0  0
    2.0950   -2.6581   -0.6228 C   0  0  0  0  0  0  0  0  0  0  0  0
    3.4774   -2.3454   -1.1915 C   0  0  0  0  0  0  0  0  0  0  0  0
    4.3632   -3.1920   -1.2843 O   0  0  0  0  0  0  0  0  0  0  0  0
    3.6357   -1.0481   -1.6391 N   0  0  0  0  0  0  0  0  0  0  0  0
    4.9321   -0.5679   -2.0790 C   0  0  0  0  0  0  0  0  0  0  0  0
    5.8710   -0.2146   -0.9138 C   0  0  0  0  0  0  0  0  0  0  0  0
    5.5307    1.0589   -0.2921 N   0  0  0  0  0  0  0  0  0  0  0  0
    5.9825    2.2871   -0.7163 C   0  0  0  0  0  0  0  0  0  0  0  0
    6.9382    2.3969   -1.6793 O   0  0  0  0  0  0  0  0  0  0  0  0
    5.4086    3.3349   -0.1192 C   0  0  0  0  0  0  0  0  0  0  0  0
    4.2358    2.8313    1.0536 S   0  0  0  0  0  0  0  0  0  0  0  0
    4.5253    1.1255    0.6669 C   0  0  0  0  0  0  0  0  0  0  0  0
    3.8813    0.2112    1.1536 O   0  0  0  0  0  0  0  0  0  0  0  0
   -1.7699   -0.4722    1.2052 C   0  0  0  0  0  0  0  0  0  0  0  0
   -3.9856   -0.4751   -1.7016 H   0  0  0  0  0  0  0  0  0  0  0  0
   -5.7523   -0.4237   -1.7761 H   0  0  0  0  0  0  0  0  0  0  0  0
   -4.8025    0.8706   -2.5201 H   0  0  0  0  0  0  0  0  0  0  0  0
   -5.7537    1.6365   -0.3258 H   0  0  0  0  0  0  0  0  0  0  0  0
   -3.9903    1.6252   -0.3505 H   0  0  0  0  0  0  0  0  0  0  0  0
   -6.5886   -0.2265    2.0518 H   0  0  0  0  0  0  0  0  0  0  0  0
   -6.9499   -0.2158    0.3396 H   0  0  0  0  0  0  0  0  0  0  0  0
   -7.0724   -2.5206    1.2254 H   0  0  0  0  0  0  0  0  0  0  0  0
   -5.3892   -2.4335    1.7738 H   0  0  0  0  0  0  0  0  0  0  0  0
   -5.7547   -2.3994    0.0447 H   0  0  0  0  0  0  0  0  0  0  0  0
   -2.1397    2.8024    2.1286 H   0  0  0  0  0  0  0  0  0  0  0  0
    0.2340    2.8555    1.4151 H   0  0  0  0  0  0  0  0  0  0  0  0
    1.3288    0.8144    0.5839 H   0  0  0  0  0  0  0  0  0  0  0  0
    2.2325   -3.3173    0.2418 H   0  0  0  0  0  0  0  0  0  0  0  0
    1.5219   -3.1625   -1.4085 H   0  0  0  0  0  0  0  0  0  0  0  0
    2.9580   -0.3830   -1.2772 H   0  0  0  0  0  0  0  0  0  0  0  0
    5.3962   -1.3537   -2.6849 H   0  0  0  0  0  0  0  0  0  0  0  0
    4.7572    0.2989   -2.7242 H   0  0  0  0  0  0  0  0  0  0  0  0
    5.8296   -0.9942   -0.1433 H   0  0  0  0  0  0  0  0  0  0  0  0
    6.9050   -0.1775   -1.2704 H   0  0  0  0  0  0  0  0  0  0  0  0
    7.5956    1.7012   -1.5179 H   0  0  0  0  0  0  0  0  0  0  0  0
    5.6341    4.3716   -0.3262 H   0  0  0  0  0  0  0  0  0  0  0  0
   -2.3370   -1.4011    1.1625 H   0  0  0  0  0  0  0  0  0  0  0  0
  1  2  1  0
  2  3  1  0
  3  4  1  0
  4  5  1  0
  3  6  1  0
  6  7  2  0
  6  8  2  0
  6  9  1  0
  9 10  2  0
 10 11  1  0
 11 12  2  0
 12 13  1  0
 13 14  1  0
 14 15  2  0
 14 16  1  0
 16 17  1  0
 17 18  1  0
 18 19  2  0
 18 20  1  0
 20 21  1  0
 21 22  1  0
 22 23  1  0
 23 24  1  0
 24 25  1  0
 24 26  2  0
 26 27  1  0
 27 28  1  0
 28 29  2  0
 13 30  2  0
 30  9  1  0
 28 23  1  0
  1 31  1  0
  1 32  1  0
  1 33  1  0
  2 34  1  0
  2 35  1  0
  4 36  1  0
  4 37  1  0
  5 38  1  0
  5 39  1  0
  5 40  1  0
 10 41  1  0
 11 42  1  0
 12 43  1  0
 17 44  1  0
 17 45  1  0
 20 46  1  0
 21 47  1  0
 21 48  1  0
 22 49  1  0
 22 50  1  0
 25 51  1  0
 26 52  1  0
 30 53  1  0
M  END
$$$$
