
     RDKit          3D

 36 37  0  0  0  0  0  0  0  0999 V2000
   -2.6665    1.1390   -2.0114 C   0  0  0  0  0  0  0  0  0  0  0  0
   -1.8120    0.5823   -0.8763 C   0  0  0  0  0  0  0  0  0  0  0  0
   -1.7061   -0.8878   -0.8785 N   0  0  0  0  0  0  0  0  0  0  0  0
   -3.0046   -1.5812   -0.7372 C   0  0  0  0  0  0  0  0  0  0  0  0
   -3.7831   -1.4140    0.5824 C   0  0  0  0  0  0  0  0  0  0  0  0
   -4.3592   -0.1185    0.6935 O   0  0  0  0  0  0  0  0  0  0  0  0
   -0.7390   -1.3546    0.1289 C   0  0  0  0  0  0  0  0  0  0  0  0
    0.6709   -1.0973   -0.3375 C   0  0  0  0  0  0  0  0  0  0  0  0
    1.2178   -1.6742   -1.4691 C   0  0  0  0  0  0  0  0  0  0  0  0
    2.8336   -1.2203   -1.7356 S   0  0  0  0  0  0  0  0  0  0  0  0
    2.8602   -0.2229   -0.3349 C   0  0  0  0  0  0  0  0  0  0  0  0
    3.9510    0.5402    0.1323 C   0  0  0  0  0  0  0  0  0  0  0  0
    3.8080    1.3149    1.2907 C   0  0  0  0  0  0  0  0  0  0  0  0
    4.9706    2.1067    1.8141 C   0  0  0  0  0  0  0  0  0  0  0  0
    2.5984    1.2998    1.9787 C   0  0  0  0  0  0  0  0  0  0  0  0
    1.5194    0.5400    1.5117 C   0  0  0  0  0  0  0  0  0  0  0  0
    1.6327   -0.2425    0.3337 C   0  0  0  0  0  0  0  0  0  0  0  0
   -2.3399    0.7462   -2.9800 H   0  0  0  0  0  0  0  0  0  0  0  0
   -2.5731    2.2297   -2.0455 H   0  0  0  0  0  0  0  0  0  0  0  0
   -3.7274    0.9080   -1.8805 H   0  0  0  0  0  0  0  0  0  0  0  0
   -0.8145    1.0169   -1.0126 H   0  0  0  0  0  0  0  0  0  0  0  0
   -2.1777    0.9601    0.0850 H   0  0  0  0  0  0  0  0  0  0  0  0
   -2.8178   -2.6541   -0.8783 H   0  0  0  0  0  0  0  0  0  0  0  0
   -3.6551   -1.3001   -1.5732 H   0  0  0  0  0  0  0  0  0  0  0  0
   -3.1491   -1.5977    1.4547 H   0  0  0  0  0  0  0  0  0  0  0  0
   -4.6021   -2.1412    0.6049 H   0  0  0  0  0  0  0  0  0  0  0  0
   -4.8600   -0.0979    1.5266 H   0  0  0  0  0  0  0  0  0  0  0  0
   -0.9305   -0.9017    1.1078 H   0  0  0  0  0  0  0  0  0  0  0  0
   -0.8278   -2.4411    0.2662 H   0  0  0  0  0  0  0  0  0  0  0  0
    0.7238   -2.3437   -2.1604 H   0  0  0  0  0  0  0  0  0  0  0  0
    4.8927    0.5254   -0.4106 H   0  0  0  0  0  0  0  0  0  0  0  0
    5.5667    1.4906    2.4943 H   0  0  0  0  0  0  0  0  0  0  0  0
    5.6102    2.4500    0.9942 H   0  0  0  0  0  0  0  0  0  0  0  0
    4.6271    2.9969    2.3517 H   0  0  0  0  0  0  0  0  0  0  0  0
    2.4768    1.8837    2.8886 H   0  0  0  0  0  0  0  0  0  0  0  0
    0.5855    0.5606    2.0669 H   0  0  0  0  0  0  0  0  0  0  0  0
  1  2  1  0
  2  3  1  0
  3  4  1  0
  4  5  1  0
  5  6  1  0
  3  7  1  0
  7  8  1  0
  8  9  2  0
  9 10  1  0
 10 11  1  0
 11 12  2  0
 12 13  1  0
 13 14  1  0
 13 15  2  0
 15 16  1  0
 16 17  2  0
 17  8  1  0
 17 11  1  0
  1 18  1  0
  1 19  1  0
  1 20  1  0
  2 21  1  0
  2 22  1  0
  4 23  1  0
  4 24  1  0
  5 25  1  0
  5 26  1  0
  6 27  1  0
  7 28  1  0
  7 29  1  0
  9 30  1  0
 12 31  1  0
 14 32  1  0
 14 33  1  0
 14 34  1  0
 15 35  1  0
 16 36  1  0
M  END
$$$$
