
     RDKit          3D

 55 59  0  0  0  0  0  0  0  0999 V2000
    6.2460    4.6776    3.4564 C   0  0  0  0  0  0  0  0  0  0  0  0
    5.5552    3.4609    3.2052 O   0  0  0  0  0  0  0  0  0  0  0  0
    4.4875    3.5164    2.3539 C   0  0  0  0  0  0  0  0  0  0  0  0
    4.0275    4.6547    1.6842 C   0  0  0  0  0  0  0  0  0  0  0  0
    2.9111    4.5715    0.8474 C   0  0  0  0  0  0  0  0  0  0  0  0
    2.2546    3.3505    0.6685 C   0  0  0  0  0  0  0  0  0  0  0  0
    2.7154    2.1985    1.3193 C   0  0  0  0  0  0  0  0  0  0  0  0
    2.0520    0.9059    1.1579 C   0  0  0  0  0  0  0  0  0  0  0  0
    1.6615    0.1197    2.1439 N   0  0  0  0  0  0  0  0  0  0  0  0
    1.0599   -0.9916    1.6095 N   0  0  0  0  0  0  0  0  0  0  0  0
    1.1237   -0.8839    0.3064 C   0  0  0  0  0  0  0  0  0  0  0  0
    0.5214   -2.0296   -0.8365 S   0  0  0  0  0  0  0  0  0  0  0  0
   -0.7903   -2.8627    0.1751 C   0  0  0  0  0  0  0  0  0  0  0  0
   -1.9160   -1.8655    0.5015 C   0  0  0  0  0  0  0  0  0  0  0  0
   -2.3353   -1.7910    1.6606 O   0  0  0  0  0  0  0  0  0  0  0  0
   -2.5502   -1.0472   -0.5528 C   0  0  0  0  0  0  0  0  0  0  0  0
   -2.5961   -1.3192   -1.9104 C   0  0  0  0  0  0  0  0  0  0  0  0
   -3.3140   -0.3320   -2.5310 N   0  0  0  0  0  0  0  0  0  0  0  0
   -3.7453    0.5940   -1.6116 C   0  0  0  0  0  0  0  0  0  0  0  0
   -4.5178    1.7514   -1.7884 C   0  0  0  0  0  0  0  0  0  0  0  0
   -4.8174    2.5130   -0.6550 C   0  0  0  0  0  0  0  0  0  0  0  0
   -4.3561    2.1321    0.6023 C   0  0  0  0  0  0  0  0  0  0  0  0
   -3.5875    0.9706    0.7607 C   0  0  0  0  0  0  0  0  0  0  0  0
   -3.2786    0.1769   -0.3638 C   0  0  0  0  0  0  0  0  0  0  0  0
   -1.2504   -4.1903   -0.4374 C   0  0  0  0  0  0  0  0  0  0  0  0
   -0.2955   -5.1457   -0.8401 C   0  0  0  0  0  0  0  0  0  0  0  0
   -0.6803   -6.3801   -1.3680 C   0  0  0  0  0  0  0  0  0  0  0  0
   -2.0293   -6.6963   -1.4859 C   0  0  0  0  0  0  0  0  0  0  0  0
   -2.9911   -5.7835   -1.0651 C   0  0  0  0  0  0  0  0  0  0  0  0
   -2.6066   -4.5478   -0.5356 C   0  0  0  0  0  0  0  0  0  0  0  0
    1.7611    0.2769   -0.0358 N   0  0  0  0  0  0  0  0  0  0  0  0
    2.0963    0.7274   -1.3663 C   0  0  0  0  0  0  0  0  0  0  0  0
    3.8244    2.2983    2.1710 C   0  0  0  0  0  0  0  0  0  0  0  0
    7.0444    4.4663    4.1733 H   0  0  0  0  0  0  0  0  0  0  0  0
    5.5824    5.4247    3.9078 H   0  0  0  0  0  0  0  0  0  0  0  0
    6.7105    5.0633    2.5401 H   0  0  0  0  0  0  0  0  0  0  0  0
    4.5083    5.6220    1.8002 H   0  0  0  0  0  0  0  0  0  0  0  0
    2.5448    5.4647    0.3444 H   0  0  0  0  0  0  0  0  0  0  0  0
    1.3704    3.3153    0.0363 H   0  0  0  0  0  0  0  0  0  0  0  0
   -0.3295   -3.1340    1.1357 H   0  0  0  0  0  0  0  0  0  0  0  0
   -2.2011   -2.1435   -2.4933 H   0  0  0  0  0  0  0  0  0  0  0  0
   -3.5190   -0.2941   -3.5201 H   0  0  0  0  0  0  0  0  0  0  0  0
   -4.8819    2.0522   -2.7676 H   0  0  0  0  0  0  0  0  0  0  0  0
   -5.4255    3.4140   -0.7545 H   0  0  0  0  0  0  0  0  0  0  0  0
   -4.5996    2.7343    1.4741 H   0  0  0  0  0  0  0  0  0  0  0  0
   -3.2420    0.6763    1.7522 H   0  0  0  0  0  0  0  0  0  0  0  0
    0.7694   -4.9440   -0.7346 H   0  0  0  0  0  0  0  0  0  0  0  0
    0.0765   -7.0973   -1.6754 H   0  0  0  0  0  0  0  0  0  0  0  0
   -2.3286   -7.6591   -1.8882 H   0  0  0  0  0  0  0  0  0  0  0  0
   -4.0466   -6.0355   -1.1347 H   0  0  0  0  0  0  0  0  0  0  0  0
   -3.3974   -3.8836   -0.1911 H   0  0  0  0  0  0  0  0  0  0  0  0
    1.2111    1.2019   -1.7958 H   0  0  0  0  0  0  0  0  0  0  0  0
    2.4106   -0.1224   -1.9775 H   0  0  0  0  0  0  0  0  0  0  0  0
    2.9235    1.4341   -1.3235 H   0  0  0  0  0  0  0  0  0  0  0  0
    4.1795    1.4143    2.7050 H   0  0  0  0  0  0  0  0  0  0  0  0
  1  2  1  0
  2  3  1  0
  3  4  2  0
  4  5  1  0
  5  6  2  0
  6  7  1  0
  7  8  1  0
  8  9  2  0
  9 10  1  0
 10 11  2  0
 11 12  1  0
 12 13  1  0
 13 14  1  0
 14 15  2  0
 14 16  1  0
 16 17  2  0
 17 18  1  0
 18 19  1  0
 19 20  2  0
 20 21  1  0
 21 22  2  0
 22 23  1  0
 23 24  2  0
 13 25  1  0
 25 26  2  0
 26 27  1  0
 27 28  2  0
 28 29  1  0
 29 30  2  0
 11 31  1  0
 31 32  1  0
  7 33  2  0
 33  3  1  0
 31  8  1  0
 24 16  1  0
 30 25  1  0
 24 19  1  0
  1 34  1  0
  1 35  1  0
  1 36  1  0
  4 37  1  0
  5 38  1  0
  6 39  1  0
 13 40  1  0
 17 41  1  0
 18 42  1  0
 20 43  1  0
 21 44  1  0
 22 45  1  0
 23 46  1  0
 26 47  1  0
 27 48  1  0
 28 49  1  0
 29 50  1  0
 30 51  1  0
 32 52  1  0
 32 53  1  0
 32 54  1  0
 33 55  1  0
M  END
$$$$
