
     RDKit          3D

 39 40  0  0  0  0  0  0  0  0999 V2000
   -2.2637   -0.7031    2.1559 O   0  0  0  0  0  0  0  0  0  0  0  0
   -1.8545    0.4005    2.5139 C   0  0  0  0  0  0  0  0  0  0  0  0
   -2.5985    1.6587    2.2052 C   0  0  0  0  0  0  0  0  0  0  0  0
   -3.2202    1.9174    1.0420 C   0  0  0  0  0  0  0  0  0  0  0  0
   -3.2323    1.0405   -0.1340 C   0  0  0  0  0  0  0  0  0  0  0  0
   -4.4030    0.3571   -0.4816 C   0  0  0  0  0  0  0  0  0  0  0  0
   -4.4300   -0.4718   -1.6089 C   0  0  0  0  0  0  0  0  0  0  0  0
   -3.2810   -0.6115   -2.3837 C   0  0  0  0  0  0  0  0  0  0  0  0
   -3.2633   -1.4083   -3.4921 O   0  0  0  0  0  0  0  0  0  0  0  0
   -2.1112    0.0636   -2.0520 C   0  0  0  0  0  0  0  0  0  0  0  0
   -2.0857    0.8918   -0.9270 C   0  0  0  0  0  0  0  0  0  0  0  0
   -0.5764    0.5472    3.2897 C   0  0  0  0  0  0  0  0  0  0  0  0
    0.5089    1.1674    2.4549 C   0  0  0  0  0  0  0  0  0  0  0  0
    0.7181    2.3785    2.4804 O   0  0  0  0  0  0  0  0  0  0  0  0
    1.2901    0.2523    1.5705 C   0  0  0  0  0  0  0  0  0  0  0  0
    2.2697    0.7372    0.7917 C   0  0  0  0  0  0  0  0  0  0  0  0
    3.0674   -0.1007   -0.1153 C   0  0  0  0  0  0  0  0  0  0  0  0
    3.3285    0.3615   -1.4119 C   0  0  0  0  0  0  0  0  0  0  0  0
    4.0926   -0.4055   -2.2970 C   0  0  0  0  0  0  0  0  0  0  0  0
    4.6070   -1.6281   -1.8815 C   0  0  0  0  0  0  0  0  0  0  0  0
    5.3447   -2.3453   -2.7770 O   0  0  0  0  0  0  0  0  0  0  0  0
    4.3739   -2.0980   -0.5926 C   0  0  0  0  0  0  0  0  0  0  0  0
    3.6092   -1.3299    0.2917 C   0  0  0  0  0  0  0  0  0  0  0  0
   -2.5820    2.4124    2.9878 H   0  0  0  0  0  0  0  0  0  0  0  0
   -3.7418    2.8665    0.9113 H   0  0  0  0  0  0  0  0  0  0  0  0
   -5.2978    0.4576    0.1284 H   0  0  0  0  0  0  0  0  0  0  0  0
   -5.3492   -0.9926   -1.8584 H   0  0  0  0  0  0  0  0  0  0  0  0
   -4.1189   -1.8637   -3.5599 H   0  0  0  0  0  0  0  0  0  0  0  0
   -1.2224   -0.0550   -2.6657 H   0  0  0  0  0  0  0  0  0  0  0  0
   -1.1660    1.4176   -0.6797 H   0  0  0  0  0  0  0  0  0  0  0  0
   -0.7499    1.1620    4.1800 H   0  0  0  0  0  0  0  0  0  0  0  0
   -0.2532   -0.4334    3.6571 H   0  0  0  0  0  0  0  0  0  0  0  0
    1.0153   -0.7970    1.5737 H   0  0  0  0  0  0  0  0  0  0  0  0
    2.4991    1.8017    0.7861 H   0  0  0  0  0  0  0  0  0  0  0  0
    2.9301    1.3150   -1.7517 H   0  0  0  0  0  0  0  0  0  0  0  0
    4.2828   -0.0491   -3.3066 H   0  0  0  0  0  0  0  0  0  0  0  0
    5.6374   -3.1665   -2.3473 H   0  0  0  0  0  0  0  0  0  0  0  0
    4.7785   -3.0475   -0.2561 H   0  0  0  0  0  0  0  0  0  0  0  0
    3.4475   -1.6995    1.3022 H   0  0  0  0  0  0  0  0  0  0  0  0
  1  2  2  0
  2  3  1  0
  3  4  2  3
  4  5  1  0
  5  6  2  0
  6  7  1  0
  7  8  2  0
  8  9  1  0
  8 10  1  0
 10 11  2  0
  2 12  1  0
 12 13  1  0
 13 14  2  0
 13 15  1  0
 15 16  2  3
 16 17  1  0
 17 18  2  0
 18 19  1  0
 19 20  2  0
 20 21  1  0
 20 22  1  0
 22 23  2  0
 11  5  1  0
 23 17  1  0
  3 24  1  0
  4 25  1  0
  6 26  1  0
  7 27  1  0
  9 28  1  0
 10 29  1  0
 11 30  1  0
 12 31  1  0
 12 32  1  0
 15 33  1  0
 16 34  1  0
 18 35  1  0
 19 36  1  0
 21 37  1  0
 22 38  1  0
 23 39  1  0
M  END
$$$$
