
     RDKit          3D

 48 51  0  0  0  0  0  0  0  0999 V2000
    2.0752   -0.5617    3.7251 C   0  0  0  0  0  0  0  0  0  0  0  0
    2.2275   -0.1831    2.2877 C   0  0  0  0  0  0  0  0  0  0  0  0
    1.2876   -0.1402    1.3284 C   0  0  0  0  0  0  0  0  0  0  0  0
   -0.0397   -0.4572    1.2427 N   0  0  0  0  0  0  0  0  0  0  0  0
   -0.8508   -1.1399    2.1165 C   0  0  0  0  0  0  0  0  0  0  0  0
   -0.4765   -1.6332    3.1790 O   0  0  0  0  0  0  0  0  0  0  0  0
   -2.2980   -1.3306    1.6690 C   0  0  0  0  0  0  0  0  0  0  0  0
   -2.7475   -0.3597    0.1910 S   0  0  0  0  0  0  0  0  0  0  0  0
   -4.3791   -1.0281   -0.1540 C   0  0  0  0  0  0  0  0  0  0  0  0
   -4.9835   -1.6394    0.8836 N   0  0  0  0  0  0  0  0  0  0  0  0
   -6.2006   -2.1314    0.6448 C   0  0  0  0  0  0  0  0  0  0  0  0
   -6.8592   -2.0738   -0.5170 N   0  0  0  0  0  0  0  0  0  0  0  0
   -6.2448   -1.4625   -1.5351 C   0  0  0  0  0  0  0  0  0  0  0  0
   -6.9061   -1.3906   -2.7551 C   0  0  0  0  0  0  0  0  0  0  0  0
   -6.3391   -0.7702   -3.8714 C   0  0  0  0  0  0  0  0  0  0  0  0
   -5.0777   -0.2021   -3.7743 C   0  0  0  0  0  0  0  0  0  0  0  0
   -4.3935   -0.2609   -2.5618 C   0  0  0  0  0  0  0  0  0  0  0  0
   -4.9679   -0.8953   -1.4251 C   0  0  0  0  0  0  0  0  0  0  0  0
    1.9710    0.4259    0.1191 C   0  0  0  0  0  0  0  0  0  0  0  0
    1.3662    0.6428   -0.9221 O   0  0  0  0  0  0  0  0  0  0  0  0
    3.2956    0.6704    0.4834 N   0  0  0  0  0  0  0  0  0  0  0  0
    4.1687    1.6060   -0.1305 C   0  0  0  0  0  0  0  0  0  0  0  0
    5.2085    2.2130    0.5907 C   0  0  0  0  0  0  0  0  0  0  0  0
    6.0688    3.1332   -0.0167 C   0  0  0  0  0  0  0  0  0  0  0  0
    5.9020    3.4643   -1.3578 C   0  0  0  0  0  0  0  0  0  0  0  0
    4.8735    2.8784   -2.0887 C   0  0  0  0  0  0  0  0  0  0  0  0
    4.0127    1.9598   -1.4785 C   0  0  0  0  0  0  0  0  0  0  0  0
    3.4943    0.2316    1.8256 N   0  0  0  0  0  0  0  0  0  0  0  0
    4.6023   -0.7347    1.9591 C   0  0  0  0  0  0  0  0  0  0  0  0
    2.0938   -1.6486    3.8449 H   0  0  0  0  0  0  0  0  0  0  0  0
    2.8929   -0.1468    4.3249 H   0  0  0  0  0  0  0  0  0  0  0  0
    1.1564   -0.1519    4.1516 H   0  0  0  0  0  0  0  0  0  0  0  0
   -0.4643   -0.2011    0.3503 H   0  0  0  0  0  0  0  0  0  0  0  0
   -2.4329   -2.3972    1.4605 H   0  0  0  0  0  0  0  0  0  0  0  0
   -2.9432   -1.0310    2.5001 H   0  0  0  0  0  0  0  0  0  0  0  0
   -6.7045   -2.6240    1.4689 H   0  0  0  0  0  0  0  0  0  0  0  0
   -7.8969   -1.8323   -2.8415 H   0  0  0  0  0  0  0  0  0  0  0  0
   -6.8860   -0.7353   -4.8094 H   0  0  0  0  0  0  0  0  0  0  0  0
   -4.6258    0.2838   -4.6347 H   0  0  0  0  0  0  0  0  0  0  0  0
   -3.4052    0.1910   -2.5072 H   0  0  0  0  0  0  0  0  0  0  0  0
    5.3461    2.0038    1.6475 H   0  0  0  0  0  0  0  0  0  0  0  0
    6.8626    3.5960    0.5635 H   0  0  0  0  0  0  0  0  0  0  0  0
    6.5670    4.1824   -1.8302 H   0  0  0  0  0  0  0  0  0  0  0  0
    4.7322    3.1362   -3.1350 H   0  0  0  0  0  0  0  0  0  0  0  0
    3.2271    1.5204   -2.0869 H   0  0  0  0  0  0  0  0  0  0  0  0
    4.7936   -0.9525    3.0152 H   0  0  0  0  0  0  0  0  0  0  0  0
    5.5344   -0.3486    1.5366 H   0  0  0  0  0  0  0  0  0  0  0  0
    4.3629   -1.6752    1.4473 H   0  0  0  0  0  0  0  0  0  0  0  0
  1  2  1  0
  2  3  2  0
  3  4  1  0
  4  5  1  0
  5  6  2  0
  5  7  1  0
  7  8  1  0
  8  9  1  0
  9 10  2  0
 10 11  1  0
 11 12  2  0
 12 13  1  0
 13 14  2  0
 14 15  1  0
 15 16  2  0
 16 17  1  0
 17 18  2  0
  3 19  1  0
 19 20  2  0
 19 21  1  0
 21 22  1  0
 22 23  2  0
 23 24  1  0
 24 25  2  0
 25 26  1  0
 26 27  2  0
 21 28  1  0
 28 29  1  0
 28  2  1  0
 18  9  1  0
 27 22  1  0
 18 13  1  0
  1 30  1  0
  1 31  1  0
  1 32  1  0
  4 33  1  0
  7 34  1  0
  7 35  1  0
 11 36  1  0
 14 37  1  0
 15 38  1  0
 16 39  1  0
 17 40  1  0
 23 41  1  0
 24 42  1  0
 25 43  1  0
 26 44  1  0
 27 45  1  0
 29 46  1  0
 29 47  1  0
 29 48  1  0
M  END
$$$$
