
     RDKit          3D

 40 42  0  0  0  0  0  0  0  0999 V2000
    4.2701    0.6826    0.2204 N   0  0  0  0  0  0  0  0  0  0  0  0
    3.0224    1.1972    0.7751 C   0  0  0  0  0  0  0  0  0  0  0  0
    2.1306    0.0739    1.3044 C   0  0  0  0  0  0  0  0  0  0  0  0
    1.7784   -1.0210    0.2891 C   0  0  0  0  0  0  0  0  0  0  0  0
    1.0549   -0.5384   -0.9792 C   0  0  0  0  0  0  0  0  0  0  0  0
   -0.2816    0.0499   -0.7059 N   0  0  0  0  0  0  0  0  0  0  0  0
   -0.3939    1.4608   -0.8048 C   0  0  0  0  0  0  0  0  0  0  0  0
    0.2309    2.1706   -1.8502 C   0  0  0  0  0  0  0  0  0  0  0  0
    0.1219    3.5596   -1.9693 C   0  0  0  0  0  0  0  0  0  0  0  0
   -0.6333    4.2765   -1.0521 C   0  0  0  0  0  0  0  0  0  0  0  0
   -1.2918    3.5995   -0.0294 C   0  0  0  0  0  0  0  0  0  0  0  0
   -1.1903    2.2028    0.0901 C   0  0  0  0  0  0  0  0  0  0  0  0
   -2.0808    1.4433    1.4345 S   0  0  0  0  0  0  0  0  0  0  0  0
   -2.1247   -0.2585    0.9057 C   0  0  0  0  0  0  0  0  0  0  0  0
   -3.0693   -1.0910    1.5275 C   0  0  0  0  0  0  0  0  0  0  0  0
   -3.1571   -2.4420    1.1976 C   0  0  0  0  0  0  0  0  0  0  0  0
   -2.2973   -2.9842    0.2402 C   0  0  0  0  0  0  0  0  0  0  0  0
   -2.4008   -4.4349   -0.1594 C   0  0  0  0  0  0  0  0  0  0  0  0
   -2.9147   -5.2270    0.8228 F   0  0  0  0  0  0  0  0  0  0  0  0
   -1.1966   -4.9835   -0.4845 F   0  0  0  0  0  0  0  0  0  0  0  0
   -3.2008   -4.6181   -1.2452 F   0  0  0  0  0  0  0  0  0  0  0  0
   -1.3560   -2.1429   -0.3812 C   0  0  0  0  0  0  0  0  0  0  0  0
   -1.2334   -0.7766   -0.0541 C   0  0  0  0  0  0  0  0  0  0  0  0
    4.7841    0.1874    0.9491 H   0  0  0  0  0  0  0  0  0  0  0  0
    4.8607    1.4679   -0.0531 H   0  0  0  0  0  0  0  0  0  0  0  0
    3.2532    1.8867    1.5950 H   0  0  0  0  0  0  0  0  0  0  0  0
    2.5039    1.7790    0.0093 H   0  0  0  0  0  0  0  0  0  0  0  0
    1.2112    0.5136    1.7067 H   0  0  0  0  0  0  0  0  0  0  0  0
    2.6321   -0.4037    2.1565 H   0  0  0  0  0  0  0  0  0  0  0  0
    1.1821   -1.7825    0.8043 H   0  0  0  0  0  0  0  0  0  0  0  0
    2.6983   -1.5335   -0.0190 H   0  0  0  0  0  0  0  0  0  0  0  0
    0.9491   -1.3793   -1.6749 H   0  0  0  0  0  0  0  0  0  0  0  0
    1.7242    0.1495   -1.5040 H   0  0  0  0  0  0  0  0  0  0  0  0
    0.7905    1.6453   -2.6195 H   0  0  0  0  0  0  0  0  0  0  0  0
    0.6186    4.0738   -2.7881 H   0  0  0  0  0  0  0  0  0  0  0  0
   -0.7242    5.3557   -1.1397 H   0  0  0  0  0  0  0  0  0  0  0  0
   -1.8949    4.1680    0.6753 H   0  0  0  0  0  0  0  0  0  0  0  0
   -3.7472   -0.6863    2.2768 H   0  0  0  0  0  0  0  0  0  0  0  0
   -3.9025   -3.0653    1.6891 H   0  0  0  0  0  0  0  0  0  0  0  0
   -0.7260   -2.5750   -1.1558 H   0  0  0  0  0  0  0  0  0  0  0  0
  1  2  1  0
  2  3  1  0
  3  4  1  0
  4  5  1  0
  5  6  1  0
  6  7  1  0
  7  8  2  0
  8  9  1  0
  9 10  2  0
 10 11  1  0
 11 12  2  0
 12 13  1  0
 13 14  1  0
 14 15  2  0
 15 16  1  0
 16 17  2  0
 17 18  1  0
 18 19  1  0
 18 20  1  0
 18 21  1  0
 17 22  1  0
 22 23  2  0
 23  6  1  0
 12  7  1  0
 23 14  1  0
  1 24  1  0
  1 25  1  0
  2 26  1  0
  2 27  1  0
  3 28  1  0
  3 29  1  0
  4 30  1  0
  4 31  1  0
  5 32  1  0
  5 33  1  0
  8 34  1  0
  9 35  1  0
 10 36  1  0
 11 37  1  0
 15 38  1  0
 16 39  1  0
 22 40  1  0
M  END
$$$$
