
     RDKit          3D

 51 55  0  0  0  0  0  0  0  0999 V2000
    1.6723    1.7200   -2.4154 O   0  0  0  0  0  0  0  0  0  0  0  0
    1.1069    0.7301   -1.9567 C   0  0  0  0  0  0  0  0  0  0  0  0
   -0.2974    0.3378   -2.4371 C   0  0  0  0  0  0  0  0  0  0  0  0
   -1.3334    0.6094   -1.4316 N   0  0  0  0  0  0  0  0  0  0  0  0
   -1.4720   -0.3094   -0.3934 C   0  0  0  0  0  0  0  0  0  0  0  0
   -0.7611   -1.3193   -0.3323 O   0  0  0  0  0  0  0  0  0  0  0  0
   -2.3987    0.0400    0.7497 C   0  0  0  0  0  0  0  0  0  0  0  0
   -3.8688   -0.2438    0.4816 C   0  0  0  0  0  0  0  0  0  0  0  0
   -4.2250   -1.6737    0.7429 C   0  0  0  0  0  0  0  0  0  0  0  0
   -5.1350   -2.2766    1.5892 C   0  0  0  0  0  0  0  0  0  0  0  0
   -4.9999   -3.6723    1.3951 C   0  0  0  0  0  0  0  0  0  0  0  0
   -4.0214   -3.8337    0.4439 C   0  0  0  0  0  0  0  0  0  0  0  0
   -3.5493   -2.6289    0.0393 O   0  0  0  0  0  0  0  0  0  0  0  0
   -4.4802    0.2426   -1.1701 S   0  0  0  0  0  0  0  0  0  0  0  0
   -3.5508    1.7476   -1.4218 C   0  0  0  0  0  0  0  0  0  0  0  0
   -4.3008    2.9197   -1.6065 C   0  0  0  0  0  0  0  0  0  0  0  0
   -3.6776    4.1146   -1.9638 C   0  0  0  0  0  0  0  0  0  0  0  0
   -2.3022    4.1442   -2.1560 C   0  0  0  0  0  0  0  0  0  0  0  0
   -1.5473    2.9816   -1.9841 C   0  0  0  0  0  0  0  0  0  0  0  0
   -2.1504    1.7718   -1.6000 C   0  0  0  0  0  0  0  0  0  0  0  0
    1.6091   -0.1284   -0.9947 N   0  0  0  0  0  0  0  0  0  0  0  0
    2.8472   -0.0608   -0.3283 C   0  0  0  0  0  0  0  0  0  0  0  0
    3.8180    0.9117   -0.5789 C   0  0  0  0  0  0  0  0  0  0  0  0
    5.0278    0.9055    0.1252 C   0  0  0  0  0  0  0  0  0  0  0  0
    5.2745   -0.0758    1.0802 C   0  0  0  0  0  0  0  0  0  0  0  0
    4.2992   -1.0358    1.3554 C   0  0  0  0  0  0  0  0  0  0  0  0
    3.0980   -1.0368    0.6451 C   0  0  0  0  0  0  0  0  0  0  0  0
    4.4553   -2.0153    2.3039 O   0  0  0  0  0  0  0  0  0  0  0  0
    5.5520   -1.7245    3.1787 C   0  0  0  0  0  0  0  0  0  0  0  0
    6.7657   -1.2664    2.3867 C   0  0  0  0  0  0  0  0  0  0  0  0
    6.4908   -0.0343    1.7120 O   0  0  0  0  0  0  0  0  0  0  0  0
   -0.2959   -0.7330   -2.6781 H   0  0  0  0  0  0  0  0  0  0  0  0
   -0.5198    0.8607   -3.3748 H   0  0  0  0  0  0  0  0  0  0  0  0
   -2.0557   -0.5111    1.6364 H   0  0  0  0  0  0  0  0  0  0  0  0
   -2.2498    1.0965    1.0103 H   0  0  0  0  0  0  0  0  0  0  0  0
   -4.4423    0.3602    1.1966 H   0  0  0  0  0  0  0  0  0  0  0  0
   -5.8107   -1.7678    2.2626 H   0  0  0  0  0  0  0  0  0  0  0  0
   -5.5466   -4.4645    1.8864 H   0  0  0  0  0  0  0  0  0  0  0  0
   -3.5702   -4.6943   -0.0289 H   0  0  0  0  0  0  0  0  0  0  0  0
   -5.3836    2.9036   -1.5035 H   0  0  0  0  0  0  0  0  0  0  0  0
   -4.2685    5.0155   -2.1099 H   0  0  0  0  0  0  0  0  0  0  0  0
   -1.8098    5.0701   -2.4451 H   0  0  0  0  0  0  0  0  0  0  0  0
   -0.4718    3.0570   -2.1285 H   0  0  0  0  0  0  0  0  0  0  0  0
    0.9782   -0.8773   -0.6964 H   0  0  0  0  0  0  0  0  0  0  0  0
    3.6694    1.6894   -1.3206 H   0  0  0  0  0  0  0  0  0  0  0  0
    5.7793    1.6612   -0.0853 H   0  0  0  0  0  0  0  0  0  0  0  0
    2.3588   -1.8011    0.8683 H   0  0  0  0  0  0  0  0  0  0  0  0
    5.7846   -2.6384    3.7319 H   0  0  0  0  0  0  0  0  0  0  0  0
    5.2303   -0.9612    3.8979 H   0  0  0  0  0  0  0  0  0  0  0  0
    7.6140   -1.0942    3.0571 H   0  0  0  0  0  0  0  0  0  0  0  0
    7.0647   -2.0123    1.6411 H   0  0  0  0  0  0  0  0  0  0  0  0
  1  2  2  0
  2  3  1  0
  3  4  1  0
  4  5  1  0
  5  6  2  0
  5  7  1  0
  7  8  1  0
  8  9  1  0
  9 10  2  0
 10 11  1  0
 11 12  2  0
 12 13  1  0
  8 14  1  0
 14 15  1  0
 15 16  2  0
 16 17  1  0
 17 18  2  0
 18 19  1  0
 19 20  2  0
  2 21  1  0
 21 22  1  0
 22 23  2  0
 23 24  1  0
 24 25  2  0
 25 26  1  0
 26 27  2  0
 26 28  1  0
 28 29  1  0
 29 30  1  0
 30 31  1  0
 20  4  1  0
 27 22  1  0
 13  9  1  0
 20 15  1  0
 31 25  1  0
  3 32  1  0
  3 33  1  0
  7 34  1  0
  7 35  1  0
  8 36  1  0
 10 37  1  0
 11 38  1  0
 12 39  1  0
 16 40  1  0
 17 41  1  0
 18 42  1  0
 19 43  1  0
 21 44  1  0
 23 45  1  0
 24 46  1  0
 27 47  1  0
 29 48  1  0
 29 49  1  0
 30 50  1  0
 30 51  1  0
M  END
$$$$
