
     RDKit          3D

 46 49  0  0  0  0  0  0  0  0999 V2000
   -3.9406    4.8512    1.6591 N   0  0  0  0  0  0  0  0  0  0  0  0
   -4.3492    4.3794    0.4655 C   0  0  0  0  0  0  0  0  0  0  0  0
   -5.4712    4.7563   -0.1461 N   0  0  0  0  0  0  0  0  0  0  0  0
   -5.5134    4.0264   -1.3291 O   0  0  0  0  0  0  0  0  0  0  0  0
   -4.3939    3.2062   -1.4575 N   0  0  0  0  0  0  0  0  0  0  0  0
   -3.6972    3.4284   -0.3430 C   0  0  0  0  0  0  0  0  0  0  0  0
   -2.4555    2.7846   -0.1086 N   0  0  0  0  0  0  0  0  0  0  0  0
   -1.6763    3.1271    0.9604 N   0  0  0  0  0  0  0  0  0  0  0  0
   -0.5369    2.4638    0.8999 N   0  0  0  0  0  0  0  0  0  0  0  0
   -0.5693    1.6535   -0.2025 C   0  0  0  0  0  0  0  0  0  0  0  0
    0.5538    0.7871   -0.5612 C   0  0  0  0  0  0  0  0  0  0  0  0
    0.6199    0.2271   -1.6516 O   0  0  0  0  0  0  0  0  0  0  0  0
    1.4933    0.6910    0.4616 N   0  0  0  0  0  0  0  0  0  0  0  0
    2.5383   -0.1970    0.5233 N   0  0  0  0  0  0  0  0  0  0  0  0
    3.1387   -0.5211   -0.5780 C   0  0  0  0  0  0  0  0  0  0  0  0
    4.2326   -1.5146   -0.5995 C   0  0  0  0  0  0  0  0  0  0  0  0
    4.8354   -1.8241   -1.8224 C   0  0  0  0  0  0  0  0  0  0  0  0
    5.8691   -2.7613   -1.8673 C   0  0  0  0  0  0  0  0  0  0  0  0
    6.2974   -3.3861   -0.6953 C   0  0  0  0  0  0  0  0  0  0  0  0
    5.6941   -3.0772    0.5244 C   0  0  0  0  0  0  0  0  0  0  0  0
    4.6601   -2.1412    0.5749 C   0  0  0  0  0  0  0  0  0  0  0  0
   -1.7978    1.7929   -0.8354 C   0  0  0  0  0  0  0  0  0  0  0  0
   -2.3690    1.0531   -1.9936 C   0  0  0  0  0  0  0  0  0  0  0  0
   -3.6406   -0.1592   -1.4717 S   0  0  0  0  0  0  0  0  0  0  0  0
   -2.6885   -1.2001   -0.3809 C   0  0  0  0  0  0  0  0  0  0  0  0
   -3.0278   -1.2579    0.9747 C   0  0  0  0  0  0  0  0  0  0  0  0
   -2.2776   -2.0386    1.8564 C   0  0  0  0  0  0  0  0  0  0  0  0
   -1.1896   -2.7713    1.3858 C   0  0  0  0  0  0  0  0  0  0  0  0
   -0.8588   -2.7335    0.0327 C   0  0  0  0  0  0  0  0  0  0  0  0
   -1.6119   -1.9569   -0.8504 C   0  0  0  0  0  0  0  0  0  0  0  0
   -4.3857    5.6819    2.0354 H   0  0  0  0  0  0  0  0  0  0  0  0
   -2.9864    4.7015    1.9835 H   0  0  0  0  0  0  0  0  0  0  0  0
    1.2087    1.0575    1.3678 H   0  0  0  0  0  0  0  0  0  0  0  0
    2.8944   -0.0617   -1.5503 H   0  0  0  0  0  0  0  0  0  0  0  0
    4.5081   -1.3463   -2.7421 H   0  0  0  0  0  0  0  0  0  0  0  0
    6.3407   -3.0060   -2.8159 H   0  0  0  0  0  0  0  0  0  0  0  0
    7.1027   -4.1160   -0.7322 H   0  0  0  0  0  0  0  0  0  0  0  0
    6.0287   -3.5654    1.4364 H   0  0  0  0  0  0  0  0  0  0  0  0
    4.1937   -1.9054    1.5283 H   0  0  0  0  0  0  0  0  0  0  0  0
   -2.8128    1.7387   -2.7209 H   0  0  0  0  0  0  0  0  0  0  0  0
   -1.5982    0.5151   -2.5505 H   0  0  0  0  0  0  0  0  0  0  0  0
   -3.8733   -0.6909    1.3569 H   0  0  0  0  0  0  0  0  0  0  0  0
   -2.5423   -2.0741    2.9100 H   0  0  0  0  0  0  0  0  0  0  0  0
   -0.6007   -3.3750    2.0717 H   0  0  0  0  0  0  0  0  0  0  0  0
   -0.0096   -3.3031   -0.3367 H   0  0  0  0  0  0  0  0  0  0  0  0
   -1.3353   -1.9386   -1.9019 H   0  0  0  0  0  0  0  0  0  0  0  0
  1  2  1  0
  2  3  2  0
  3  4  1  0
  4  5  1  0
  5  6  2  0
  6  7  1  0
  7  8  1  0
  8  9  2  0
  9 10  1  0
 10 11  1  0
 11 12  2  0
 11 13  1  0
 13 14  1  0
 14 15  2  3
 15 16  1  0
 16 17  2  0
 17 18  1  0
 18 19  2  0
 19 20  1  0
 20 21  2  0
 10 22  2  0
 22 23  1  0
 23 24  1  0
 24 25  1  0
 25 26  2  0
 26 27  1  0
 27 28  2  0
 28 29  1  0
 29 30  2  0
  6  2  1  0
 22  7  1  0
 30 25  1  0
 21 16  1  0
  1 31  1  0
  1 32  1  0
 13 33  1  0
 15 34  1  0
 17 35  1  0
 18 36  1  0
 19 37  1  0
 20 38  1  0
 21 39  1  0
 23 40  1  0
 23 41  1  0
 26 42  1  0
 27 43  1  0
 28 44  1  0
 29 45  1  0
 30 46  1  0
M  END
$$$$
