
     RDKit          3D

 61 65  0  0  0  0  0  0  0  0999 V2000
    6.4337   -4.2812    2.0254 C   0  0  0  0  0  0  0  0  0  0  0  0
    5.2151   -3.5004    1.6287 C   0  0  0  0  0  0  0  0  0  0  0  0
    4.0513   -3.5612    2.3997 C   0  0  0  0  0  0  0  0  0  0  0  0
    2.9259   -2.8092    2.0473 C   0  0  0  0  0  0  0  0  0  0  0  0
    2.9386   -1.9690    0.9222 C   0  0  0  0  0  0  0  0  0  0  0  0
    1.7557   -1.1782    0.5524 C   0  0  0  0  0  0  0  0  0  0  0  0
    1.8393    0.1942    0.3316 C   0  0  0  0  0  0  0  0  0  0  0  0
    0.7097    0.9444   -0.0256 C   0  0  0  0  0  0  0  0  0  0  0  0
    0.8291    2.3828   -0.2857 C   0  0  0  0  0  0  0  0  0  0  0  0
    0.8993    2.8772   -1.5981 C   0  0  0  0  0  0  0  0  0  0  0  0
    1.0160    4.2484   -1.8390 C   0  0  0  0  0  0  0  0  0  0  0  0
    1.0885    5.1522   -0.7747 C   0  0  0  0  0  0  0  0  0  0  0  0
    1.1852    6.6271   -1.0398 C   0  0  0  0  0  0  0  0  0  0  0  0
    1.0254    4.6676    0.5349 C   0  0  0  0  0  0  0  0  0  0  0  0
    0.9085    3.2967    0.7780 C   0  0  0  0  0  0  0  0  0  0  0  0
   -0.5098    0.3371   -0.1590 N   0  0  0  0  0  4  0  0  0  0  0  0
   -1.6707    1.1138   -0.5264 C   0  0  0  0  0  0  0  0  0  0  0  0
   -2.2853    1.9083    0.4435 C   0  0  0  0  0  0  0  0  0  0  0  0
   -3.4024    2.6572    0.0803 C   0  0  0  0  0  0  0  0  0  0  0  0
   -3.8857    2.6014   -1.2304 C   0  0  0  0  0  0  0  0  0  0  0  0
   -3.2580    1.7991   -2.1877 C   0  0  0  0  0  0  0  0  0  0  0  0
   -2.1388    1.0461   -1.8402 C   0  0  0  0  0  0  0  0  0  0  0  0
   -0.6233   -1.0101    0.0561 C   0  0  0  0  0  0  0  0  0  0  0  0
   -1.9390   -1.6480   -0.0590 C   0  0  0  0  0  0  0  0  0  0  0  0
   -2.2741   -2.3932   -1.2015 C   0  0  0  0  0  0  0  0  0  0  0  0
   -3.5257   -3.0040   -1.3143 C   0  0  0  0  0  0  0  0  0  0  0  0
   -4.4597   -2.9028   -0.2792 C   0  0  0  0  0  0  0  0  0  0  0  0
   -5.8161   -3.5328   -0.4140 C   0  0  0  0  0  0  0  0  0  0  0  0
   -4.1316   -2.1677    0.8638 C   0  0  0  0  0  0  0  0  0  0  0  0
   -2.8804   -1.5565    0.9789 C   0  0  0  0  0  0  0  0  0  0  0  0
    0.5028   -1.7685    0.4072 C   0  0  0  0  0  0  0  0  0  0  0  0
    4.1188   -1.9050    0.1639 C   0  0  0  0  0  0  0  0  0  0  0  0
    5.2446   -2.6571    0.5150 C   0  0  0  0  0  0  0  0  0  0  0  0
    6.1541   -5.2115    2.5308 H   0  0  0  0  0  0  0  0  0  0  0  0
    7.0564   -3.6854    2.6998 H   0  0  0  0  0  0  0  0  0  0  0  0
    7.0255   -4.5550    1.1456 H   0  0  0  0  0  0  0  0  0  0  0  0
    4.0141   -4.1955    3.2837 H   0  0  0  0  0  0  0  0  0  0  0  0
    2.0428   -2.8820    2.6788 H   0  0  0  0  0  0  0  0  0  0  0  0
    2.7997    0.7014    0.4384 H   0  0  0  0  0  0  0  0  0  0  0  0
    0.8670    2.2051   -2.4540 H   0  0  0  0  0  0  0  0  0  0  0  0
    1.0581    4.6113   -2.8650 H   0  0  0  0  0  0  0  0  0  0  0  0
    1.6404    7.1506   -0.1922 H   0  0  0  0  0  0  0  0  0  0  0  0
    0.1874    7.0414   -1.2148 H   0  0  0  0  0  0  0  0  0  0  0  0
    1.8118    6.8221   -1.9165 H   0  0  0  0  0  0  0  0  0  0  0  0
    1.0746    5.3584    1.3756 H   0  0  0  0  0  0  0  0  0  0  0  0
    0.8785    2.9570    1.8125 H   0  0  0  0  0  0  0  0  0  0  0  0
   -1.9182    1.9515    1.4637 H   0  0  0  0  0  0  0  0  0  0  0  0
   -3.9034    3.2885    0.8122 H   0  0  0  0  0  0  0  0  0  0  0  0
   -4.7602    3.1891   -1.5085 H   0  0  0  0  0  0  0  0  0  0  0  0
   -3.6488    1.7676   -3.2035 H   0  0  0  0  0  0  0  0  0  0  0  0
   -1.6523    0.4300   -2.5893 H   0  0  0  0  0  0  0  0  0  0  0  0
   -1.5679   -2.5086   -2.0225 H   0  0  0  0  0  0  0  0  0  0  0  0
   -3.7679   -3.5679   -2.2142 H   0  0  0  0  0  0  0  0  0  0  0  0
   -6.5149   -2.8218   -0.8645 H   0  0  0  0  0  0  0  0  0  0  0  0
   -5.7703   -4.4297   -1.0404 H   0  0  0  0  0  0  0  0  0  0  0  0
   -6.2024   -3.8395    0.5635 H   0  0  0  0  0  0  0  0  0  0  0  0
   -4.8506   -2.0745    1.6767 H   0  0  0  0  0  0  0  0  0  0  0  0
   -2.6560   -1.0115    1.8943 H   0  0  0  0  0  0  0  0  0  0  0  0
    0.3896   -2.8422    0.5667 H   0  0  0  0  0  0  0  0  0  0  0  0
    4.1797   -1.2745   -0.7209 H   0  0  0  0  0  0  0  0  0  0  0  0
    6.1463   -2.5828   -0.0903 H   0  0  0  0  0  0  0  0  0  0  0  0
  1  2  1  0
  2  3  2  0
  3  4  1  0
  4  5  2  0
  5  6  1  0
  6  7  2  0
  7  8  1  0
  8  9  1  0
  9 10  2  0
 10 11  1  0
 11 12  2  0
 12 13  1  0
 12 14  1  0
 14 15  2  0
  8 16  2  0
 16 17  1  0
 17 18  2  0
 18 19  1  0
 19 20  2  0
 20 21  1  0
 21 22  2  0
 16 23  1  0
 23 24  1  0
 24 25  2  0
 25 26  1  0
 26 27  2  0
 27 28  1  0
 27 29  1  0
 29 30  2  0
 23 31  2  0
  5 32  1  0
 32 33  2  0
 33  2  1  0
 31  6  1  0
 15  9  1  0
 22 17  1  0
 30 24  1  0
  1 34  1  0
  1 35  1  0
  1 36  1  0
  3 37  1  0
  4 38  1  0
  7 39  1  0
 10 40  1  0
 11 41  1  0
 13 42  1  0
 13 43  1  0
 13 44  1  0
 14 45  1  0
 15 46  1  0
 18 47  1  0
 19 48  1  0
 20 49  1  0
 21 50  1  0
 22 51  1  0
 25 52  1  0
 26 53  1  0
 28 54  1  0
 28 55  1  0
 28 56  1  0
 29 57  1  0
 30 58  1  0
 31 59  1  0
 32 60  1  0
 33 61  1  0
M  CHG  1  16   1
M  END
$$$$
