
     RDKit          3D

102104  0  0  0  0  0  0  0  0999 V2000
    5.8637    3.3277    4.0917 C   0  0  0  0  0  0  0  0  0  0  0  0
    5.0069    2.7910    2.9552 C   0  0  0  0  0  0  0  0  0  0  0  0
    5.8682    2.2915    1.7949 C   0  0  0  0  0  0  0  0  0  0  0  0
    5.0480    1.8482    0.5798 C   0  0  0  0  0  0  0  0  0  0  0  0
    4.2046    0.6000    0.8420 C   0  0  0  0  0  0  0  0  0  0  0  0
    3.5068    0.0596   -0.4139 C   0  0  0  0  0  0  0  0  0  0  0  0
    2.6390    1.0414   -1.2109 C   0  0  0  0  0  0  0  0  0  0  0  0
    1.5555    1.7810   -0.4441 C   0  0  0  0  0  0  0  0  0  0  0  0
    1.5029    1.8808    0.7739 O   0  0  0  0  0  0  0  0  0  0  0  0
    0.6437    2.4010   -1.2831 N   0  0  0  0  0  0  0  0  0  0  0  0
   -0.4948    3.1708   -0.7499 C   0  0  0  0  0  0  0  0  0  0  0  0
   -0.9350    4.1993   -1.8037 C   0  0  0  0  0  0  0  0  0  0  0  0
   -2.0083    5.2051   -1.3397 C   0  0  0  0  0  0  0  0  0  0  0  0
   -1.5339    6.0650   -0.1674 C   0  0  0  0  0  0  0  0  0  0  0  0
   -2.4088    6.1071   -2.5110 C   0  0  0  0  0  0  0  0  0  0  0  0
   -1.6629    2.2180   -0.3930 C   0  0  0  0  0  0  0  0  0  0  0  0
   -2.5168    2.4937    0.4465 O   0  0  0  0  0  0  0  0  0  0  0  0
   -1.7603    1.1032   -1.2113 N   0  0  0  0  0  0  0  0  0  0  0  0
   -2.5522   -0.0520   -0.7639 C   0  0  0  0  0  0  0  0  0  0  0  0
   -3.1959   -0.7514   -1.9661 C   0  0  0  0  0  0  0  0  0  0  0  0
   -4.2743   -1.7390   -1.5874 C   0  0  0  0  0  0  0  0  0  0  0  0
   -4.0621   -3.1168   -1.7281 C   0  0  0  0  0  0  0  0  0  0  0  0
   -5.0478   -4.0272   -1.3460 C   0  0  0  0  0  0  0  0  0  0  0  0
   -6.2563   -3.5691   -0.8262 C   0  0  0  0  0  0  0  0  0  0  0  0
   -6.4816   -2.2010   -0.6883 C   0  0  0  0  0  0  0  0  0  0  0  0
   -5.4966   -1.2890   -1.0682 C   0  0  0  0  0  0  0  0  0  0  0  0
   -1.5336   -0.9595   -0.0383 C   0  0  0  0  0  0  0  0  0  0  0  0
   -0.3230   -0.7381   -0.1133 O   0  0  0  0  0  0  0  0  0  0  0  0
   -2.0425   -2.0250    0.6619 N   0  0  0  0  0  0  0  0  0  0  0  0
   -1.2847   -2.7799    1.6689 C   0  0  0  0  0  0  0  0  0  0  0  0
   -0.8405   -1.9038    2.8577 C   0  0  0  0  0  0  0  0  0  0  0  0
   -1.9870   -1.1967    3.6112 C   0  0  0  0  0  0  0  0  0  0  0  0
   -2.9698   -2.1863    4.2384 C   0  0  0  0  0  0  0  0  0  0  0  0
   -1.4062   -0.2883    4.6986 C   0  0  0  0  0  0  0  0  0  0  0  0
   -0.0832   -3.6020    1.1297 C   0  0  0  0  0  0  0  0  0  0  0  0
   -0.0266   -4.8240    1.2522 O   0  0  0  0  0  0  0  0  0  0  0  0
    0.9386   -2.8707    0.5902 N   0  0  0  0  0  0  0  0  0  0  0  0
    2.2142   -3.4178    0.1353 C   0  0  0  0  0  0  0  0  0  0  0  0
    2.0941   -4.2917   -1.1264 C   0  0  0  0  0  0  0  0  0  0  0  0
    1.5696   -3.5756   -2.3545 C   0  0  0  0  0  0  0  0  0  0  0  0
    2.4426   -2.8915   -3.2130 C   0  0  0  0  0  0  0  0  0  0  0  0
    1.9558   -2.2349   -4.3445 C   0  0  0  0  0  0  0  0  0  0  0  0
    0.5941   -2.2650   -4.6360 C   0  0  0  0  0  0  0  0  0  0  0  0
   -0.2811   -2.9488   -3.7949 C   0  0  0  0  0  0  0  0  0  0  0  0
    0.2017   -3.5940   -2.6551 C   0  0  0  0  0  0  0  0  0  0  0  0
    3.2548   -2.3099   -0.1005 C   0  0  0  0  0  0  0  0  0  0  0  0
    4.4336   -2.5243   -0.3616 O   0  0  0  0  0  0  0  0  0  0  0  0
    2.6829   -1.0709   -0.0572 O   0  0  0  0  0  0  0  0  0  0  0  0
    6.4753    4.1713    3.7568 H   0  0  0  0  0  0  0  0  0  0  0  0
    6.5305    2.5514    4.4811 H   0  0  0  0  0  0  0  0  0  0  0  0
    5.2294    3.6744    4.9137 H   0  0  0  0  0  0  0  0  0  0  0  0
    4.3815    1.9796    3.3415 H   0  0  0  0  0  0  0  0  0  0  0  0
    4.3351    3.5841    2.6064 H   0  0  0  0  0  0  0  0  0  0  0  0
    6.5053    1.4650    2.1317 H   0  0  0  0  0  0  0  0  0  0  0  0
    6.5413    3.0965    1.4767 H   0  0  0  0  0  0  0  0  0  0  0  0
    5.7414    1.6423   -0.2455 H   0  0  0  0  0  0  0  0  0  0  0  0
    4.4088    2.6790    0.2592 H   0  0  0  0  0  0  0  0  0  0  0  0
    3.4703    0.7794    1.6333 H   0  0  0  0  0  0  0  0  0  0  0  0
    4.8511   -0.1914    1.2429 H   0  0  0  0  0  0  0  0  0  0  0  0
    4.2840   -0.2769   -1.1136 H   0  0  0  0  0  0  0  0  0  0  0  0
    3.2762    1.8002   -1.6797 H   0  0  0  0  0  0  0  0  0  0  0  0
    2.1438    0.4843   -2.0167 H   0  0  0  0  0  0  0  0  0  0  0  0
    0.7078    2.2527   -2.2819 H   0  0  0  0  0  0  0  0  0  0  0  0
   -0.1616    3.6526    0.1742 H   0  0  0  0  0  0  0  0  0  0  0  0
   -1.3107    3.6668   -2.6885 H   0  0  0  0  0  0  0  0  0  0  0  0
   -0.0513    4.7575   -2.1431 H   0  0  0  0  0  0  0  0  0  0  0  0
   -2.9060    4.6596   -1.0267 H   0  0  0  0  0  0  0  0  0  0  0  0
   -1.3684    5.4606    0.7292 H   0  0  0  0  0  0  0  0  0  0  0  0
   -0.5996    6.5830   -0.4083 H   0  0  0  0  0  0  0  0  0  0  0  0
   -2.2834    6.8226    0.0868 H   0  0  0  0  0  0  0  0  0  0  0  0
   -2.8004    5.5131   -3.3432 H   0  0  0  0  0  0  0  0  0  0  0  0
   -3.1914    6.8113   -2.2101 H   0  0  0  0  0  0  0  0  0  0  0  0
   -1.5545    6.6856   -2.8790 H   0  0  0  0  0  0  0  0  0  0  0  0
   -0.8557    0.8382   -1.5911 H   0  0  0  0  0  0  0  0  0  0  0  0
   -3.2998    0.2758   -0.0334 H   0  0  0  0  0  0  0  0  0  0  0  0
   -3.6501   -0.0037   -2.6311 H   0  0  0  0  0  0  0  0  0  0  0  0
   -2.4272   -1.2490   -2.5693 H   0  0  0  0  0  0  0  0  0  0  0  0
   -3.1242   -3.4960   -2.1259 H   0  0  0  0  0  0  0  0  0  0  0  0
   -4.8728   -5.0952   -1.4553 H   0  0  0  0  0  0  0  0  0  0  0  0
   -7.0256   -4.2791   -0.5342 H   0  0  0  0  0  0  0  0  0  0  0  0
   -7.4280   -1.8442   -0.2893 H   0  0  0  0  0  0  0  0  0  0  0  0
   -5.6914   -0.2235   -0.9581 H   0  0  0  0  0  0  0  0  0  0  0  0
   -3.0512   -2.0692    0.7603 H   0  0  0  0  0  0  0  0  0  0  0  0
   -1.9918   -3.5359    2.0328 H   0  0  0  0  0  0  0  0  0  0  0  0
   -0.1315   -1.1411    2.5094 H   0  0  0  0  0  0  0  0  0  0  0  0
   -0.2766   -2.5276    3.5648 H   0  0  0  0  0  0  0  0  0  0  0  0
   -2.5407   -0.5594    2.9112 H   0  0  0  0  0  0  0  0  0  0  0  0
   -2.4529   -2.9040    4.8840 H   0  0  0  0  0  0  0  0  0  0  0  0
   -3.7145   -1.6620    4.8469 H   0  0  0  0  0  0  0  0  0  0  0  0
   -3.5172   -2.7454    3.4737 H   0  0  0  0  0  0  0  0  0  0  0  0
   -2.2041    0.2239    5.2480 H   0  0  0  0  0  0  0  0  0  0  0  0
   -0.7601    0.4789    4.2582 H   0  0  0  0  0  0  0  0  0  0  0  0
   -0.8095   -0.8595    5.4185 H   0  0  0  0  0  0  0  0  0  0  0  0
    0.7579   -1.8854    0.3720 H   0  0  0  0  0  0  0  0  0  0  0  0
    2.5915   -4.0338    0.9610 H   0  0  0  0  0  0  0  0  0  0  0  0
    3.0755   -4.7195   -1.3714 H   0  0  0  0  0  0  0  0  0  0  0  0
    1.4481   -5.1553   -0.9233 H   0  0  0  0  0  0  0  0  0  0  0  0
    3.5127   -2.8739   -3.0123 H   0  0  0  0  0  0  0  0  0  0  0  0
    2.6435   -1.7154   -5.0068 H   0  0  0  0  0  0  0  0  0  0  0  0
    0.2171   -1.7684   -5.5261 H   0  0  0  0  0  0  0  0  0  0  0  0
   -1.3400   -2.9885   -4.0339 H   0  0  0  0  0  0  0  0  0  0  0  0
   -0.4910   -4.1269   -2.0068 H   0  0  0  0  0  0  0  0  0  0  0  0
  1  2  1  0
  2  3  1  0
  3  4  1  0
  4  5  1  0
  5  6  1  0
  6  7  1  0
  7  8  1  0
  8  9  2  0
  8 10  1  0
 10 11  1  0
 11 12  1  0
 12 13  1  0
 13 14  1  0
 13 15  1  0
 11 16  1  0
 16 17  2  0
 16 18  1  0
 18 19  1  0
 19 20  1  0
 20 21  1  0
 21 22  2  0
 22 23  1  0
 23 24  2  0
 24 25  1  0
 25 26  2  0
 19 27  1  0
 27 28  2  0
 27 29  1  0
 29 30  1  0
 30 31  1  0
 31 32  1  0
 32 33  1  0
 32 34  1  0
 30 35  1  0
 35 36  2  0
 35 37  1  0
 37 38  1  0
 38 39  1  0
 39 40  1  0
 40 41  2  0
 41 42  1  0
 42 43  2  0
 43 44  1  0
 44 45  2  0
 38 46  1  0
 46 47  2  0
 46 48  1  0
 48  6  1  0
 26 21  1  0
 45 40  1  0
  1 49  1  0
  1 50  1  0
  1 51  1  0
  2 52  1  0
  2 53  1  0
  3 54  1  0
  3 55  1  0
  4 56  1  0
  4 57  1  0
  5 58  1  0
  5 59  1  0
  6 60  1  0
  7 61  1  0
  7 62  1  0
 10 63  1  0
 11 64  1  0
 12 65  1  0
 12 66  1  0
 13 67  1  0
 14 68  1  0
 14 69  1  0
 14 70  1  0
 15 71  1  0
 15 72  1  0
 15 73  1  0
 18 74  1  0
 19 75  1  0
 20 76  1  0
 20 77  1  0
 22 78  1  0
 23 79  1  0
 24 80  1  0
 25 81  1  0
 26 82  1  0
 29 83  1  0
 30 84  1  0
 31 85  1  0
 31 86  1  0
 32 87  1  0
 33 88  1  0
 33 89  1  0
 33 90  1  0
 34 91  1  0
 34 92  1  0
 34 93  1  0
 37 94  1  0
 38 95  1  0
 39 96  1  0
 39 97  1  0
 41 98  1  0
 42 99  1  0
 43100  1  0
 44101  1  0
 45102  1  0
M  END
$$$$
