
     RDKit          3D

 38 39  0  0  0  0  0  0  0  0999 V2000
   -3.2570    2.2139    3.6548 C   0  0  0  0  0  0  0  0  0  0  0  0
   -3.7328    1.1888    2.9356 C   0  0  0  0  0  0  0  0  0  0  0  0
   -3.7725    1.1530    1.4341 C   0  0  0  0  0  0  0  0  0  0  0  0
   -2.9360    0.0292    0.8699 C   0  0  0  0  0  0  0  0  0  0  0  0
   -3.5176   -1.1995    0.5364 C   0  0  0  0  0  0  0  0  0  0  0  0
   -2.7346   -2.2385    0.0322 C   0  0  0  0  0  0  0  0  0  0  0  0
   -1.3607   -2.0562   -0.1335 C   0  0  0  0  0  0  0  0  0  0  0  0
   -0.5985   -3.0856   -0.6168 O   0  0  0  0  0  0  0  0  0  0  0  0
   -0.7416   -0.8412    0.1997 C   0  0  0  0  0  0  0  0  0  0  0  0
    0.7081   -0.6236    0.0491 C   0  0  0  0  0  0  0  0  0  0  0  0
    1.2673   -0.5259   -1.2388 C   0  0  0  0  0  0  0  0  0  0  0  0
    2.6384   -0.2858   -1.4312 C   0  0  0  0  0  0  0  0  0  0  0  0
    3.2098   -0.1735   -2.8243 C   0  0  0  0  0  0  0  0  0  0  0  0
    3.3269    1.2540   -3.2791 C   0  0  0  0  0  0  0  0  0  0  0  0
    4.4752    1.8412   -3.6416 C   0  0  0  0  0  0  0  0  0  0  0  0
    3.4624   -0.1239   -0.3109 C   0  0  0  0  0  0  0  0  0  0  0  0
    2.9306   -0.2216    0.9738 C   0  0  0  0  0  0  0  0  0  0  0  0
    1.5714   -0.4755    1.1480 C   0  0  0  0  0  0  0  0  0  0  0  0
    1.1416   -0.5750    2.4456 O   0  0  0  0  0  0  0  0  0  0  0  0
   -1.5517    0.1943    0.7012 C   0  0  0  0  0  0  0  0  0  0  0  0
   -3.2570    2.1779    4.7401 H   0  0  0  0  0  0  0  0  0  0  0  0
   -2.8531    3.1049    3.1840 H   0  0  0  0  0  0  0  0  0  0  0  0
   -4.1264    0.3187    3.4571 H   0  0  0  0  0  0  0  0  0  0  0  0
   -3.4326    2.1040    1.0042 H   0  0  0  0  0  0  0  0  0  0  0  0
   -4.8145    1.0375    1.1105 H   0  0  0  0  0  0  0  0  0  0  0  0
   -4.5866   -1.3540    0.6678 H   0  0  0  0  0  0  0  0  0  0  0  0
   -3.2105   -3.1808   -0.2217 H   0  0  0  0  0  0  0  0  0  0  0  0
   -1.1658   -3.8566   -0.7753 H   0  0  0  0  0  0  0  0  0  0  0  0
    0.6179   -0.6391   -2.1058 H   0  0  0  0  0  0  0  0  0  0  0  0
    2.5700   -0.7169   -3.5309 H   0  0  0  0  0  0  0  0  0  0  0  0
    4.1824   -0.6813   -2.8540 H   0  0  0  0  0  0  0  0  0  0  0  0
    2.4058    1.8324   -3.3128 H   0  0  0  0  0  0  0  0  0  0  0  0
    5.4202    1.3074   -3.6250 H   0  0  0  0  0  0  0  0  0  0  0  0
    4.4902    2.8790   -3.9602 H   0  0  0  0  0  0  0  0  0  0  0  0
    4.5238    0.0783   -0.4344 H   0  0  0  0  0  0  0  0  0  0  0  0
    3.5742   -0.1042    1.8409 H   0  0  0  0  0  0  0  0  0  0  0  0
    0.2260   -0.9026    2.4334 H   0  0  0  0  0  0  0  0  0  0  0  0
   -1.0926    1.1472    0.9664 H   0  0  0  0  0  0  0  0  0  0  0  0
  1  2  2  0
  2  3  1  0
  3  4  1  0
  4  5  2  0
  5  6  1  0
  6  7  2  0
  7  8  1  0
  7  9  1  0
  9 10  1  0
 10 11  2  0
 11 12  1  0
 12 13  1  0
 13 14  1  0
 14 15  2  0
 12 16  2  0
 16 17  1  0
 17 18  2  0
 18 19  1  0
  9 20  2  0
 20  4  1  0
 18 10  1  0
  1 21  1  0
  1 22  1  0
  2 23  1  0
  3 24  1  0
  3 25  1  0
  5 26  1  0
  6 27  1  0
  8 28  1  0
 11 29  1  0
 13 30  1  0
 13 31  1  0
 14 32  1  0
 15 33  1  0
 15 34  1  0
 16 35  1  0
 17 36  1  0
 19 37  1  0
 20 38  1  0
M  END
$$$$
