
     RDKit          3D

 61 65  0  0  0  0  0  0  0  0999 V2000
    6.3439   -4.1739    2.4686 C   0  0  0  0  0  0  0  0  0  0  0  0
    5.1602   -3.3676    2.0204 C   0  0  0  0  0  0  0  0  0  0  0  0
    3.9480   -3.4438    2.7112 C   0  0  0  0  0  0  0  0  0  0  0  0
    2.8356   -2.7166    2.2757 C   0  0  0  0  0  0  0  0  0  0  0  0
    2.9036   -1.9025    1.1336 C   0  0  0  0  0  0  0  0  0  0  0  0
    1.7346   -1.1370    0.6769 C   0  0  0  0  0  0  0  0  0  0  0  0
    1.8135    0.2312    0.4303 C   0  0  0  0  0  0  0  0  0  0  0  0
    0.6968    0.9578   -0.0074 C   0  0  0  0  0  0  0  0  0  0  0  0
    0.8110    2.3923   -0.2901 C   0  0  0  0  0  0  0  0  0  0  0  0
    0.9504    2.8614   -1.6064 C   0  0  0  0  0  0  0  0  0  0  0  0
    1.0597    4.2293   -1.8690 C   0  0  0  0  0  0  0  0  0  0  0  0
    1.0350    5.1567   -0.8231 C   0  0  0  0  0  0  0  0  0  0  0  0
    1.1884    6.6238   -1.1040 C   0  0  0  0  0  0  0  0  0  0  0  0
    0.9330    4.6953    0.4926 C   0  0  0  0  0  0  0  0  0  0  0  0
    0.8230    3.3279    0.7574 C   0  0  0  0  0  0  0  0  0  0  0  0
   -0.5052    0.3305   -0.1967 N   0  0  0  0  0  4  0  0  0  0  0  0
   -1.6533    1.0828   -0.6454 C   0  0  0  0  0  0  0  0  0  0  0  0
   -2.0442    0.9831   -1.9823 C   0  0  0  0  0  0  0  0  0  0  0  0
   -3.1530    1.7113   -2.4075 C   0  0  0  0  0  0  0  0  0  0  0  0
   -3.8469    2.5206   -1.5031 C   0  0  0  0  0  0  0  0  0  0  0  0
   -3.4402    2.6087   -0.1684 C   0  0  0  0  0  0  0  0  0  0  0  0
   -2.3344    1.8852    0.2723 C   0  0  0  0  0  0  0  0  0  0  0  0
   -0.6135   -1.0133    0.0408 C   0  0  0  0  0  0  0  0  0  0  0  0
   -1.9117   -1.6725   -0.1358 C   0  0  0  0  0  0  0  0  0  0  0  0
   -2.1704   -2.4462   -1.2791 C   0  0  0  0  0  0  0  0  0  0  0  0
   -3.4045   -3.0788   -1.4494 C   0  0  0  0  0  0  0  0  0  0  0  0
   -4.3973   -2.9709   -0.4712 C   0  0  0  0  0  0  0  0  0  0  0  0
   -5.7343   -3.6254   -0.6690 C   0  0  0  0  0  0  0  0  0  0  0  0
   -4.1458   -2.2071    0.6724 C   0  0  0  0  0  0  0  0  0  0  0  0
   -2.9122   -1.5741    0.8449 C   0  0  0  0  0  0  0  0  0  0  0  0
    0.5001   -1.7481    0.4728 C   0  0  0  0  0  0  0  0  0  0  0  0
    4.1229   -1.8456    0.4393 C   0  0  0  0  0  0  0  0  0  0  0  0
    5.2356   -2.5731    0.8735 C   0  0  0  0  0  0  0  0  0  0  0  0
    7.2811   -3.6762    2.1976 H   0  0  0  0  0  0  0  0  0  0  0  0
    6.3208   -5.1633    2.0017 H   0  0  0  0  0  0  0  0  0  0  0  0
    6.3438   -4.2949    3.5569 H   0  0  0  0  0  0  0  0  0  0  0  0
    3.8631   -4.0694    3.5981 H   0  0  0  0  0  0  0  0  0  0  0  0
    1.9164   -2.7915    2.8532 H   0  0  0  0  0  0  0  0  0  0  0  0
    2.7597    0.7538    0.5807 H   0  0  0  0  0  0  0  0  0  0  0  0
    0.9839    2.1714   -2.4479 H   0  0  0  0  0  0  0  0  0  0  0  0
    1.1701    4.5707   -2.8975 H   0  0  0  0  0  0  0  0  0  0  0  0
    0.6592    7.2215   -0.3544 H   0  0  0  0  0  0  0  0  0  0  0  0
    2.2478    6.8979   -1.0930 H   0  0  0  0  0  0  0  0  0  0  0  0
    0.7658    6.8804   -2.0812 H   0  0  0  0  0  0  0  0  0  0  0  0
    0.9437    5.4027    1.3209 H   0  0  0  0  0  0  0  0  0  0  0  0
    0.7500    3.0077    1.7959 H   0  0  0  0  0  0  0  0  0  0  0  0
   -1.5062    0.3611   -2.6903 H   0  0  0  0  0  0  0  0  0  0  0  0
   -3.4845    1.6545   -3.4431 H   0  0  0  0  0  0  0  0  0  0  0  0
   -4.7130    3.0886   -1.8418 H   0  0  0  0  0  0  0  0  0  0  0  0
   -3.9922    3.2449    0.5216 H   0  0  0  0  0  0  0  0  0  0  0  0
   -2.0267    1.9535    1.3107 H   0  0  0  0  0  0  0  0  0  0  0  0
   -1.4169   -2.5676   -2.0560 H   0  0  0  0  0  0  0  0  0  0  0  0
   -3.5867   -3.6651   -2.3491 H   0  0  0  0  0  0  0  0  0  0  0  0
   -6.1736   -3.9135    0.2918 H   0  0  0  0  0  0  0  0  0  0  0  0
   -6.4154   -2.9367   -1.1782 H   0  0  0  0  0  0  0  0  0  0  0  0
   -5.6384   -4.5369   -1.2683 H   0  0  0  0  0  0  0  0  0  0  0  0
   -4.9112   -2.1083    1.4411 H   0  0  0  0  0  0  0  0  0  0  0  0
   -2.7482   -1.0069    1.7596 H   0  0  0  0  0  0  0  0  0  0  0  0
    0.3915   -2.8195    0.6495 H   0  0  0  0  0  0  0  0  0  0  0  0
    4.2237   -1.2440   -0.4617 H   0  0  0  0  0  0  0  0  0  0  0  0
    6.1642   -2.5165    0.3081 H   0  0  0  0  0  0  0  0  0  0  0  0
  1  2  1  0
  2  3  2  0
  3  4  1  0
  4  5  2  0
  5  6  1  0
  6  7  2  0
  7  8  1  0
  8  9  1  0
  9 10  2  0
 10 11  1  0
 11 12  2  0
 12 13  1  0
 12 14  1  0
 14 15  2  0
  8 16  2  0
 16 17  1  0
 17 18  2  0
 18 19  1  0
 19 20  2  0
 20 21  1  0
 21 22  2  0
 16 23  1  0
 23 24  1  0
 24 25  2  0
 25 26  1  0
 26 27  2  0
 27 28  1  0
 27 29  1  0
 29 30  2  0
 23 31  2  0
  5 32  1  0
 32 33  2  0
 33  2  1  0
 31  6  1  0
 15  9  1  0
 22 17  1  0
 30 24  1  0
  1 34  1  0
  1 35  1  0
  1 36  1  0
  3 37  1  0
  4 38  1  0
  7 39  1  0
 10 40  1  0
 11 41  1  0
 13 42  1  0
 13 43  1  0
 13 44  1  0
 14 45  1  0
 15 46  1  0
 18 47  1  0
 19 48  1  0
 20 49  1  0
 21 50  1  0
 22 51  1  0
 25 52  1  0
 26 53  1  0
 28 54  1  0
 28 55  1  0
 28 56  1  0
 29 57  1  0
 30 58  1  0
 31 59  1  0
 32 60  1  0
 33 61  1  0
M  CHG  1  16   1
M  END
$$$$
