
     RDKit          3D

 57 59  0  0  0  0  0  0  0  0999 V2000
   11.2825   -0.3648    0.1924 C   0  0  0  0  0  0  0  0  0  0  0  0
   10.7107    0.1574   -1.0016 O   0  0  0  0  0  0  0  0  0  0  0  0
    9.3520    0.0697   -1.1291 C   0  0  0  0  0  0  0  0  0  0  0  0
    8.8321    0.6411   -2.2934 C   0  0  0  0  0  0  0  0  0  0  0  0
    7.4575    0.6192   -2.5541 C   0  0  0  0  0  0  0  0  0  0  0  0
    6.5857    0.0255   -1.6446 C   0  0  0  0  0  0  0  0  0  0  0  0
    5.2277   -0.0657   -1.7722 O   0  0  0  0  0  0  0  0  0  0  0  0
    4.6348    0.5712   -2.9045 C   0  0  0  0  0  0  0  0  0  0  0  0
    3.1184    0.3818   -2.8628 C   0  0  0  0  0  0  0  0  0  0  0  0
    2.3687    1.3195   -1.4864 S   0  0  0  0  0  0  0  0  0  0  0  0
    0.7006    0.9398   -1.7334 C   0  0  0  0  0  0  0  0  0  0  0  0
    0.1705    0.4253   -2.8178 N   0  0  0  0  0  0  0  0  0  0  0  0
   -1.1830    0.3227   -2.6107 N   0  0  0  0  0  0  0  0  0  0  0  0
   -1.4506    0.7714   -1.4013 C   0  0  0  0  0  0  0  0  0  0  0  0
   -2.8035    0.8407   -0.7865 C   0  0  0  0  0  0  0  0  0  0  0  0
   -3.1548   -0.4684   -0.0835 C   0  0  0  0  0  0  0  0  0  0  0  0
   -4.4619   -0.3978    0.5519 N   0  0  0  0  0  0  0  0  0  0  0  0
   -4.6563   -0.8676    1.8374 C   0  0  0  0  0  0  0  0  0  0  0  0
   -3.7491   -1.2546    2.5663 O   0  0  0  0  0  0  0  0  0  0  0  0
   -6.0663   -0.9170    2.3101 C   0  0  0  0  0  0  0  0  0  0  0  0
   -6.4292   -1.9097    3.2248 C   0  0  0  0  0  0  0  0  0  0  0  0
   -7.7441   -1.9844    3.6896 C   0  0  0  0  0  0  0  0  0  0  0  0
   -8.7074   -1.0656    3.2553 C   0  0  0  0  0  0  0  0  0  0  0  0
   -9.9523   -1.2538    3.7876 O   0  0  0  0  0  0  0  0  0  0  0  0
  -10.9568   -0.3175    3.4238 C   0  0  0  0  0  0  0  0  0  0  0  0
   -8.3410   -0.0646    2.3535 C   0  0  0  0  0  0  0  0  0  0  0  0
   -7.0244    0.0131    1.8813 C   0  0  0  0  0  0  0  0  0  0  0  0
   -0.2743    1.1538   -0.7994 N   0  0  0  0  0  0  0  0  0  0  0  0
   -0.1010    1.6748    0.5320 C   0  0  0  0  0  0  0  0  0  0  0  0
    7.1050   -0.5486   -0.4825 C   0  0  0  0  0  0  0  0  0  0  0  0
    8.4803   -0.5302   -0.2212 C   0  0  0  0  0  0  0  0  0  0  0  0
   12.3617   -0.1881    0.1554 H   0  0  0  0  0  0  0  0  0  0  0  0
   11.1274   -1.4483    0.2598 H   0  0  0  0  0  0  0  0  0  0  0  0
   10.8910    0.1487    1.0802 H   0  0  0  0  0  0  0  0  0  0  0  0
    9.5066    1.1118   -3.0094 H   0  0  0  0  0  0  0  0  0  0  0  0
    7.1102    1.0719   -3.4745 H   0  0  0  0  0  0  0  0  0  0  0  0
    5.0091    0.0964   -3.8181 H   0  0  0  0  0  0  0  0  0  0  0  0
    4.8848    1.6405   -2.9256 H   0  0  0  0  0  0  0  0  0  0  0  0
    2.6872    0.7331   -3.8064 H   0  0  0  0  0  0  0  0  0  0  0  0
    2.8765   -0.6774   -2.7307 H   0  0  0  0  0  0  0  0  0  0  0  0
   -3.5426    1.0423   -1.5734 H   0  0  0  0  0  0  0  0  0  0  0  0
   -2.8756    1.6835   -0.0893 H   0  0  0  0  0  0  0  0  0  0  0  0
   -2.3874   -0.7253    0.6565 H   0  0  0  0  0  0  0  0  0  0  0  0
   -3.1964   -1.2941   -0.8047 H   0  0  0  0  0  0  0  0  0  0  0  0
   -5.2663   -0.3527   -0.0589 H   0  0  0  0  0  0  0  0  0  0  0  0
   -5.6932   -2.6299    3.5712 H   0  0  0  0  0  0  0  0  0  0  0  0
   -8.0217   -2.7644    4.3943 H   0  0  0  0  0  0  0  0  0  0  0  0
  -11.1604   -0.3531    2.3495 H   0  0  0  0  0  0  0  0  0  0  0  0
  -10.6855    0.6962    3.7415 H   0  0  0  0  0  0  0  0  0  0  0  0
  -11.8754   -0.5986    3.9478 H   0  0  0  0  0  0  0  0  0  0  0  0
   -9.0545    0.6748    2.0013 H   0  0  0  0  0  0  0  0  0  0  0  0
   -6.7571    0.8207    1.2032 H   0  0  0  0  0  0  0  0  0  0  0  0
    0.7527    1.1812    1.0052 H   0  0  0  0  0  0  0  0  0  0  0  0
   -0.9895    1.4743    1.1371 H   0  0  0  0  0  0  0  0  0  0  0  0
    0.0674    2.7526    0.4616 H   0  0  0  0  0  0  0  0  0  0  0  0
    6.4295   -1.0177    0.2311 H   0  0  0  0  0  0  0  0  0  0  0  0
    8.8308   -0.9950    0.6950 H   0  0  0  0  0  0  0  0  0  0  0  0
  1  2  1  0
  2  3  1  0
  3  4  2  0
  4  5  1  0
  5  6  2  0
  6  7  1  0
  7  8  1  0
  8  9  1  0
  9 10  1  0
 10 11  1  0
 11 12  2  0
 12 13  1  0
 13 14  2  0
 14 15  1  0
 15 16  1  0
 16 17  1  0
 17 18  1  0
 18 19  2  0
 18 20  1  0
 20 21  2  0
 21 22  1  0
 22 23  2  0
 23 24  1  0
 24 25  1  0
 23 26  1  0
 26 27  2  0
 14 28  1  0
 28 29  1  0
  6 30  1  0
 30 31  2  0
 31  3  1  0
 28 11  1  0
 27 20  1  0
  1 32  1  0
  1 33  1  0
  1 34  1  0
  4 35  1  0
  5 36  1  0
  8 37  1  0
  8 38  1  0
  9 39  1  0
  9 40  1  0
 15 41  1  0
 15 42  1  0
 16 43  1  0
 16 44  1  0
 17 45  1  0
 21 46  1  0
 22 47  1  0
 25 48  1  0
 25 49  1  0
 25 50  1  0
 26 51  1  0
 27 52  1  0
 29 53  1  0
 29 54  1  0
 29 55  1  0
 30 56  1  0
 31 57  1  0
M  END
$$$$
