
     RDKit          3D

 45 47  0  0  0  0  0  0  0  0999 V2000
    7.7315    1.7257   -1.6162 C   0  0  0  0  0  0  0  0  0  0  0  0
    6.9276    1.3489   -0.3810 C   0  0  0  0  0  0  0  0  0  0  0  0
    6.9960   -0.1566   -0.1096 C   0  0  0  0  0  0  0  0  0  0  0  0
    6.2792   -0.5698    1.1790 C   0  0  0  0  0  0  0  0  0  0  0  0
    4.8003   -0.3664    1.1178 C   0  0  0  0  0  0  0  0  0  0  0  0
    4.1668    0.6769    1.6125 N   0  0  0  0  0  0  0  0  0  0  0  0
    2.8043    0.5970    1.4072 N   0  0  0  0  0  0  0  0  0  0  0  0
    2.4603   -0.5028    0.7744 C   0  0  0  0  0  0  0  0  0  0  0  0
    1.1575   -0.7878    0.4633 N   0  0  0  0  0  0  0  0  0  0  0  0
    0.6728   -1.8946   -0.1919 C   0  0  0  0  0  0  0  0  0  0  0  0
    1.3217   -2.8461   -0.6173 O   0  0  0  0  0  0  0  0  0  0  0  0
   -0.8489   -1.8627   -0.3667 C   0  0  0  0  0  0  0  0  0  0  0  0
   -1.4078   -0.6672    0.1730 O   0  0  0  0  0  0  0  0  0  0  0  0
   -2.7603   -0.5069    0.0567 C   0  0  0  0  0  0  0  0  0  0  0  0
   -3.6510   -1.4198   -0.5098 C   0  0  0  0  0  0  0  0  0  0  0  0
   -5.0240   -1.1315   -0.5678 C   0  0  0  0  0  0  0  0  0  0  0  0
   -5.5299    0.0710   -0.0615 C   0  0  0  0  0  0  0  0  0  0  0  0
   -6.9525    0.4357   -0.0942 C   0  0  0  0  0  0  0  0  0  0  0  0
   -7.9598   -0.5003   -0.6935 C   0  0  0  0  0  0  0  0  0  0  0  0
   -7.3170    1.6199    0.4198 C   0  0  0  0  0  0  0  0  0  0  0  0
   -6.3694    2.5707    1.0205 C   0  0  0  0  0  0  0  0  0  0  0  0
   -6.7611    3.6369    1.4802 O   0  0  0  0  0  0  0  0  0  0  0  0
   -5.0369    2.1979    1.0384 O   0  0  0  0  0  0  0  0  0  0  0  0
   -4.6201    0.9653    0.5016 C   0  0  0  0  0  0  0  0  0  0  0  0
   -3.2527    0.6923    0.5675 C   0  0  0  0  0  0  0  0  0  0  0  0
    3.7655   -1.5236    0.3821 S   0  0  0  0  0  0  0  0  0  0  0  0
    8.7889    1.4762   -1.4856 H   0  0  0  0  0  0  0  0  0  0  0  0
    7.6578    2.8015   -1.8029 H   0  0  0  0  0  0  0  0  0  0  0  0
    7.3603    1.1997   -2.5015 H   0  0  0  0  0  0  0  0  0  0  0  0
    7.3172    1.9000    0.4827 H   0  0  0  0  0  0  0  0  0  0  0  0
    5.8882    1.6630   -0.5279 H   0  0  0  0  0  0  0  0  0  0  0  0
    6.5838   -0.7045   -0.9656 H   0  0  0  0  0  0  0  0  0  0  0  0
    8.0490   -0.4535   -0.0247 H   0  0  0  0  0  0  0  0  0  0  0  0
    6.6845    0.0006    2.0236 H   0  0  0  0  0  0  0  0  0  0  0  0
    6.4977   -1.6241    1.3881 H   0  0  0  0  0  0  0  0  0  0  0  0
    0.4900   -0.0830    0.7577 H   0  0  0  0  0  0  0  0  0  0  0  0
   -1.2500   -2.7366    0.1598 H   0  0  0  0  0  0  0  0  0  0  0  0
   -1.0481   -1.9201   -1.4428 H   0  0  0  0  0  0  0  0  0  0  0  0
   -3.3188   -2.3695   -0.9180 H   0  0  0  0  0  0  0  0  0  0  0  0
   -5.6818   -1.8717   -1.0163 H   0  0  0  0  0  0  0  0  0  0  0  0
   -8.9751   -0.0902   -0.6471 H   0  0  0  0  0  0  0  0  0  0  0  0
   -7.9717   -1.4543   -0.1557 H   0  0  0  0  0  0  0  0  0  0  0  0
   -7.7358   -0.6903   -1.7484 H   0  0  0  0  0  0  0  0  0  0  0  0
   -8.3497    1.9508    0.4254 H   0  0  0  0  0  0  0  0  0  0  0  0
   -2.5785    1.4180    1.0147 H   0  0  0  0  0  0  0  0  0  0  0  0
  1  2  1  0
  2  3  1  0
  3  4  1  0
  4  5  1  0
  5  6  2  0
  6  7  1  0
  7  8  2  0
  8  9  1  0
  9 10  1  0
 10 11  2  0
 10 12  1  0
 12 13  1  0
 13 14  1  0
 14 15  2  0
 15 16  1  0
 16 17  2  0
 17 18  1  0
 18 19  1  0
 18 20  2  0
 20 21  1  0
 21 22  2  0
 21 23  1  0
 23 24  1  0
 24 25  2  0
  8 26  1  0
 26  5  1  0
 25 14  1  0
 24 17  1  0
  1 27  1  0
  1 28  1  0
  1 29  1  0
  2 30  1  0
  2 31  1  0
  3 32  1  0
  3 33  1  0
  4 34  1  0
  4 35  1  0
  9 36  1  0
 12 37  1  0
 12 38  1  0
 15 39  1  0
 16 40  1  0
 19 41  1  0
 19 42  1  0
 19 43  1  0
 20 44  1  0
 25 45  1  0
M  END
$$$$
