
     RDKit          3D

 31 31  0  0  0  0  0  0  0  0999 V2000
    2.5031   -0.8085    3.1065 C   0  0  0  0  0  0  0  0  0  0  0  0
    3.5369   -0.3867    2.2255 O   0  0  0  0  0  0  0  0  0  0  0  0
    3.0176    0.3698    1.1328 C   0  0  0  0  0  0  0  0  0  0  0  0
    2.1528   -0.4170    0.3149 O   0  0  0  0  0  0  0  0  0  0  0  0
    1.5677    0.3332   -0.6737 C   0  0  0  0  0  0  0  0  0  0  0  0
    0.2437    0.3674   -0.9087 C   0  0  0  0  0  0  0  0  0  0  0  0
   -0.2408    1.1255   -1.9565 N   0  0  0  0  0  0  0  0  0  0  0  0
   -1.5583    1.2819   -2.3569 C   0  0  0  0  0  0  0  0  0  0  0  0
   -1.6810    2.1760   -3.5657 C   0  0  0  0  0  0  0  0  0  0  0  0
   -2.5543    0.8058   -1.8266 O   0  0  0  0  0  0  0  0  0  0  0  0
   -0.6556   -0.3924   -0.0215 C   0  0  0  0  0  0  0  0  0  0  0  0
   -1.2926    0.2440    1.0532 C   0  0  0  0  0  0  0  0  0  0  0  0
   -2.1085   -0.4839    1.9218 C   0  0  0  0  0  0  0  0  0  0  0  0
   -2.2886   -1.8527    1.7270 C   0  0  0  0  0  0  0  0  0  0  0  0
   -1.6553   -2.4955    0.6641 C   0  0  0  0  0  0  0  0  0  0  0  0
   -0.8401   -1.7692   -0.2066 C   0  0  0  0  0  0  0  0  0  0  0  0
    2.9650   -1.3260    3.9518 H   0  0  0  0  0  0  0  0  0  0  0  0
    1.9455    0.0520    3.4890 H   0  0  0  0  0  0  0  0  0  0  0  0
    1.8249   -1.5061    2.6060 H   0  0  0  0  0  0  0  0  0  0  0  0
    2.4951    1.2541    1.5210 H   0  0  0  0  0  0  0  0  0  0  0  0
    3.8763    0.7032    0.5390 H   0  0  0  0  0  0  0  0  0  0  0  0
    2.2978    0.8665   -1.2692 H   0  0  0  0  0  0  0  0  0  0  0  0
    0.4533    1.6053   -2.5154 H   0  0  0  0  0  0  0  0  0  0  0  0
   -0.8901    1.9606   -4.2900 H   0  0  0  0  0  0  0  0  0  0  0  0
   -1.6200    3.2213   -3.2519 H   0  0  0  0  0  0  0  0  0  0  0  0
   -2.6444    1.9997   -4.0528 H   0  0  0  0  0  0  0  0  0  0  0  0
   -1.1661    1.3119    1.2077 H   0  0  0  0  0  0  0  0  0  0  0  0
   -2.6103    0.0192    2.7435 H   0  0  0  0  0  0  0  0  0  0  0  0
   -2.9288   -2.4176    2.3991 H   0  0  0  0  0  0  0  0  0  0  0  0
   -1.7977   -3.5614    0.5096 H   0  0  0  0  0  0  0  0  0  0  0  0
   -0.3472   -2.2801   -1.0295 H   0  0  0  0  0  0  0  0  0  0  0  0
  1  2  1  0
  2  3  1  0
  3  4  1  0
  4  5  1  0
  5  6  2  3
  6  7  1  0
  7  8  1  0
  8  9  1  0
  8 10  2  0
  6 11  1  0
 11 12  2  0
 12 13  1  0
 13 14  2  0
 14 15  1  0
 15 16  2  0
 16 11  1  0
  1 17  1  0
  1 18  1  0
  1 19  1  0
  3 20  1  0
  3 21  1  0
  5 22  1  0
  7 23  1  0
  9 24  1  0
  9 25  1  0
  9 26  1  0
 12 27  1  0
 13 28  1  0
 14 29  1  0
 15 30  1  0
 16 31  1  0
M  END
$$$$
