
     RDKit          3D

 56 59  0  0  0  0  0  0  0  0999 V2000
    5.1246    4.7673    3.1341 C   0  0  0  0  0  0  0  0  0  0  0  0
    4.4877    3.4014    2.9435 C   0  0  0  0  0  0  0  0  0  0  0  0
    4.0910    3.2895    1.5791 O   0  0  0  0  0  0  0  0  0  0  0  0
    3.5605    2.0936    1.1807 C   0  0  0  0  0  0  0  0  0  0  0  0
    3.3029    1.9974   -0.1880 C   0  0  0  0  0  0  0  0  0  0  0  0
    2.7658    0.8276   -0.7321 C   0  0  0  0  0  0  0  0  0  0  0  0
    2.4802   -0.2626    0.0941 C   0  0  0  0  0  0  0  0  0  0  0  0
    1.9190   -1.4814   -0.4732 C   0  0  0  0  0  0  0  0  0  0  0  0
    0.6025   -1.7925   -0.7861 C   0  0  0  0  0  0  0  0  0  0  0  0
   -0.5974   -0.9810   -0.5916 C   0  0  0  0  0  0  0  0  0  0  0  0
   -0.5960    0.0619    0.0563 O   0  0  0  0  0  0  0  0  0  0  0  0
   -1.7208   -1.5242   -1.2235 N   0  0  0  0  0  0  0  0  0  0  0  0
   -2.7858   -0.7189   -1.5317 N   0  0  0  0  0  0  0  0  0  0  0  0
   -3.5823   -0.3629   -0.5628 C   0  0  0  0  0  0  0  0  0  0  0  0
   -3.4961   -0.8876    0.8569 C   0  0  0  0  0  0  0  0  0  0  0  0
   -4.6649    0.6182   -0.8401 C   0  0  0  0  0  0  0  0  0  0  0  0
   -4.8122    1.7096    0.0263 C   0  0  0  0  0  0  0  0  0  0  0  0
   -5.7932    2.6721   -0.2187 C   0  0  0  0  0  0  0  0  0  0  0  0
   -6.6220    2.5568   -1.3348 C   0  0  0  0  0  0  0  0  0  0  0  0
   -6.4799    1.4729   -2.2007 C   0  0  0  0  0  0  0  0  0  0  0  0
   -5.5149    0.4958   -1.9463 C   0  0  0  0  0  0  0  0  0  0  0  0
   -5.4101   -0.5385   -2.8367 O   0  0  0  0  0  0  0  0  0  0  0  0
   -6.2302   -1.6296   -2.4280 C   0  0  0  0  0  0  0  0  0  0  0  0
    0.5539   -3.0369   -1.3577 N   0  0  0  0  0  0  0  0  0  0  0  0
    1.7810   -3.5214   -1.4033 N   0  0  0  0  0  0  0  0  0  0  0  0
    2.6483   -2.5996   -0.8871 N   0  0  0  0  0  0  0  0  0  0  0  0
    4.0424   -2.8538   -0.8241 C   0  0  0  0  0  0  0  0  0  0  0  0
    4.8854   -1.9769   -0.2773 N   0  0  0  0  0  0  0  0  0  0  0  0
    6.1329   -2.5854   -0.3891 O   0  0  0  0  0  0  0  0  0  0  0  0
    6.0326   -3.8323   -0.9987 N   0  0  0  0  0  0  0  0  0  0  0  0
    4.7394   -3.9910   -1.2758 C   0  0  0  0  0  0  0  0  0  0  0  0
    4.2251   -5.0769   -1.8865 N   0  0  0  0  0  0  0  0  0  0  0  0
    2.7222   -0.1608    1.4670 C   0  0  0  0  0  0  0  0  0  0  0  0
    3.2632    1.0122    2.0079 C   0  0  0  0  0  0  0  0  0  0  0  0
    5.4259    4.9159    4.1755 H   0  0  0  0  0  0  0  0  0  0  0  0
    6.0076    4.8727    2.4933 H   0  0  0  0  0  0  0  0  0  0  0  0
    4.4269    5.5630    2.8479 H   0  0  0  0  0  0  0  0  0  0  0  0
    5.2225    2.6273    3.1928 H   0  0  0  0  0  0  0  0  0  0  0  0
    3.6153    3.3179    3.6004 H   0  0  0  0  0  0  0  0  0  0  0  0
    3.5204    2.8421   -0.8377 H   0  0  0  0  0  0  0  0  0  0  0  0
    2.5713    0.7845   -1.7999 H   0  0  0  0  0  0  0  0  0  0  0  0
   -1.4944   -2.1901   -1.9606 H   0  0  0  0  0  0  0  0  0  0  0  0
   -3.2271   -1.9490    0.8570 H   0  0  0  0  0  0  0  0  0  0  0  0
   -4.4619   -0.7961    1.3660 H   0  0  0  0  0  0  0  0  0  0  0  0
   -2.7514   -0.3187    1.4162 H   0  0  0  0  0  0  0  0  0  0  0  0
   -4.1456    1.8349    0.8756 H   0  0  0  0  0  0  0  0  0  0  0  0
   -5.8933    3.5273    0.4467 H   0  0  0  0  0  0  0  0  0  0  0  0
   -7.3718    3.3177   -1.5369 H   0  0  0  0  0  0  0  0  0  0  0  0
   -7.1139    1.3937   -3.0796 H   0  0  0  0  0  0  0  0  0  0  0  0
   -7.2917   -1.3593   -2.4794 H   0  0  0  0  0  0  0  0  0  0  0  0
   -5.9732   -1.9735   -1.4215 H   0  0  0  0  0  0  0  0  0  0  0  0
   -6.0518   -2.4584   -3.1187 H   0  0  0  0  0  0  0  0  0  0  0  0
    3.2226   -5.2596   -1.8616 H   0  0  0  0  0  0  0  0  0  0  0  0
    4.7936   -5.9147   -1.9318 H   0  0  0  0  0  0  0  0  0  0  0  0
    2.4892   -0.9897    2.1319 H   0  0  0  0  0  0  0  0  0  0  0  0
    3.4261    1.0501    3.0798 H   0  0  0  0  0  0  0  0  0  0  0  0
  1  2  1  0
  2  3  1  0
  3  4  1  0
  4  5  2  0
  5  6  1  0
  6  7  2  0
  7  8  1  0
  8  9  2  0
  9 10  1  0
 10 11  2  0
 10 12  1  0
 12 13  1  0
 13 14  2  3
 14 15  1  0
 14 16  1  0
 16 17  2  0
 17 18  1  0
 18 19  2  0
 19 20  1  0
 20 21  2  0
 21 22  1  0
 22 23  1  0
  9 24  1  0
 24 25  2  0
 25 26  1  0
 26 27  1  0
 27 28  2  0
 28 29  1  0
 29 30  1  0
 30 31  2  0
 31 32  1  0
  7 33  1  0
 33 34  2  0
 34  4  1  0
 26  8  1  0
 31 27  1  0
 21 16  1  0
  1 35  1  0
  1 36  1  0
  1 37  1  0
  2 38  1  0
  2 39  1  0
  5 40  1  0
  6 41  1  0
 12 42  1  0
 15 43  1  0
 15 44  1  0
 15 45  1  0
 17 46  1  0
 18 47  1  0
 19 48  1  0
 20 49  1  0
 23 50  1  0
 23 51  1  0
 23 52  1  0
 32 53  1  0
 32 54  1  0
 33 55  1  0
 34 56  1  0
M  END
$$$$
