
     RDKit          3D

 40 41  0  0  0  0  0  0  0  0999 V2000
    7.5683   -1.4699    0.7585 C   0  0  0  0  0  0  0  0  0  0  0  0
    6.8939   -0.2845    0.3555 O   0  0  0  0  0  0  0  0  0  0  0  0
    5.5321   -0.2769    0.4733 C   0  0  0  0  0  0  0  0  0  0  0  0
    4.7393   -1.3337    0.9169 C   0  0  0  0  0  0  0  0  0  0  0  0
    3.3474   -1.1891    0.9869 C   0  0  0  0  0  0  0  0  0  0  0  0
    2.7305    0.0152    0.6262 C   0  0  0  0  0  0  0  0  0  0  0  0
    1.2655    0.1098    0.6840 C   0  0  0  0  0  0  0  0  0  0  0  0
    0.6092    1.2224    1.0495 C   0  0  0  0  0  0  0  0  0  0  0  0
   -0.8728    1.2947    1.1501 C   0  0  0  0  0  0  0  0  0  0  0  0
   -1.3689    1.9261    2.0732 O   0  0  0  0  0  0  0  0  0  0  0  0
   -1.5341    0.6755    0.1092 N   0  0  0  0  0  0  0  0  0  0  0  0
   -2.8969    0.5390   -0.0960 C   0  0  0  0  0  0  0  0  0  0  0  0
   -3.7950    0.9497    0.8062 C   0  0  0  0  0  0  0  0  0  0  0  0
   -5.2341    0.7854    0.5765 C   0  0  0  0  0  0  0  0  0  0  0  0
   -6.0202    1.1103    1.4630 O   0  0  0  0  0  0  0  0  0  0  0  0
   -5.5973    0.2606   -0.6403 N   0  0  0  0  0  0  0  0  0  0  0  0
   -7.0101    0.0898   -0.9213 C   0  0  0  0  0  0  0  0  0  0  0  0
   -4.6951   -0.2303   -1.5699 C   0  0  0  0  0  0  0  0  0  0  0  0
   -5.0772   -0.7901   -2.6006 O   0  0  0  0  0  0  0  0  0  0  0  0
   -3.3379   -0.0631   -1.2719 N   0  0  0  0  0  0  0  0  0  0  0  0
   -2.3898   -0.5554   -2.2675 C   0  0  0  0  0  0  0  0  0  0  0  0
    3.5310    1.0669    0.1680 C   0  0  0  0  0  0  0  0  0  0  0  0
    4.9200    0.9200    0.0976 C   0  0  0  0  0  0  0  0  0  0  0  0
    8.6415   -1.3078    0.6193 H   0  0  0  0  0  0  0  0  0  0  0  0
    7.3980   -1.6804    1.8195 H   0  0  0  0  0  0  0  0  0  0  0  0
    7.2764   -2.3209    0.1342 H   0  0  0  0  0  0  0  0  0  0  0  0
    5.1683   -2.2843    1.2160 H   0  0  0  0  0  0  0  0  0  0  0  0
    2.7532   -2.0297    1.3396 H   0  0  0  0  0  0  0  0  0  0  0  0
    0.7295   -0.8082    0.4553 H   0  0  0  0  0  0  0  0  0  0  0  0
    1.1218    2.1178    1.3864 H   0  0  0  0  0  0  0  0  0  0  0  0
   -0.9370    0.3235   -0.6224 H   0  0  0  0  0  0  0  0  0  0  0  0
   -3.5491    1.4087    1.7541 H   0  0  0  0  0  0  0  0  0  0  0  0
   -7.2718   -0.9595   -0.7506 H   0  0  0  0  0  0  0  0  0  0  0  0
   -7.2178    0.3362   -1.9675 H   0  0  0  0  0  0  0  0  0  0  0  0
   -7.6324    0.7216   -0.2815 H   0  0  0  0  0  0  0  0  0  0  0  0
   -1.7815    0.2800   -2.6294 H   0  0  0  0  0  0  0  0  0  0  0  0
   -1.7519   -1.3194   -1.8110 H   0  0  0  0  0  0  0  0  0  0  0  0
   -2.8790   -1.0074   -3.1345 H   0  0  0  0  0  0  0  0  0  0  0  0
    3.0931    2.0103   -0.1479 H   0  0  0  0  0  0  0  0  0  0  0  0
    5.5309    1.7472   -0.2565 H   0  0  0  0  0  0  0  0  0  0  0  0
  1  2  1  0
  2  3  1  0
  3  4  2  0
  4  5  1  0
  5  6  2  0
  6  7  1  0
  7  8  2  3
  8  9  1  0
  9 10  2  0
  9 11  1  0
 11 12  1  0
 12 13  2  0
 13 14  1  0
 14 15  2  0
 14 16  1  0
 16 17  1  0
 16 18  1  0
 18 19  2  0
 18 20  1  0
 20 21  1  0
  6 22  1  0
 22 23  2  0
 23  3  1  0
 20 12  1  0
  1 24  1  0
  1 25  1  0
  1 26  1  0
  4 27  1  0
  5 28  1  0
  7 29  1  0
  8 30  1  0
 11 31  1  0
 13 32  1  0
 17 33  1  0
 17 34  1  0
 17 35  1  0
 21 36  1  0
 21 37  1  0
 21 38  1  0
 22 39  1  0
 23 40  1  0
M  END
$$$$
