
     RDKit          3D

 47 51  0  0  0  0  0  0  0  0999 V2000
   -1.7647   -2.7364   -2.5732 C   0  0  0  0  0  0  0  0  0  0  0  0
   -2.1027   -1.4938   -1.8080 C   0  0  0  0  0  0  0  0  0  0  0  0
   -3.2188   -0.8619   -2.0773 N   0  0  0  0  0  0  0  0  0  0  0  0
   -3.4883    0.2713   -1.3612 C   0  0  0  0  0  0  0  0  0  0  0  0
   -4.9081    1.1912   -1.6043 S   0  0  0  0  0  0  0  0  0  0  0  0
   -4.4482    2.3304   -0.4159 C   0  0  0  0  0  0  0  0  0  0  0  0
   -3.2359    2.0302    0.1836 C   0  0  0  0  0  0  0  0  0  0  0  0
   -2.7140    0.8454   -0.3743 C   0  0  0  0  0  0  0  0  0  0  0  0
   -1.4288    0.0665   -0.0902 C   0  0  0  0  0  0  0  0  0  0  0  0
   -0.4782    0.2964    0.7785 N   0  0  0  0  0  0  0  0  0  0  0  0
    0.4326   -0.7206    0.6411 N   0  0  0  0  0  0  0  0  0  0  0  0
    0.0087   -1.5377   -0.2985 C   0  0  0  0  0  0  0  0  0  0  0  0
    0.8690   -2.9593   -0.7747 S   0  0  0  0  0  0  0  0  0  0  0  0
    1.4335   -3.5783    0.8397 C   0  0  0  0  0  0  0  0  0  0  0  0
    2.5505   -2.7671    1.4765 C   0  0  0  0  0  0  0  0  0  0  0  0
    2.7008   -2.7479    2.6970 O   0  0  0  0  0  0  0  0  0  0  0  0
    3.4383   -2.1741    0.6109 N   0  0  0  0  0  0  0  0  0  0  0  0
    4.4375   -1.2528    1.1000 C   0  0  0  0  0  0  0  0  0  0  0  0
    5.4688   -1.0984    0.0450 C   0  0  0  0  0  0  0  0  0  0  0  0
    6.7126   -1.6648   -0.1494 C   0  0  0  0  0  0  0  0  0  0  0  0
    7.2050   -1.1395   -1.3691 C   0  0  0  0  0  0  0  0  0  0  0  0
    6.2303   -0.2928   -1.8428 C   0  0  0  0  0  0  0  0  0  0  0  0
    5.1702   -0.2576   -0.9935 O   0  0  0  0  0  0  0  0  0  0  0  0
   -1.1842   -1.0768   -0.8217 N   0  0  0  0  0  0  0  0  0  0  0  0
   -2.6186    2.9040    1.2320 C   0  0  0  0  0  0  0  0  0  0  0  0
   -3.6478    3.8746    1.8323 C   0  0  0  0  0  0  0  0  0  0  0  0
   -4.5057    4.5370    0.7424 C   0  0  0  0  0  0  0  0  0  0  0  0
   -5.3074    3.5056   -0.0700 C   0  0  0  0  0  0  0  0  0  0  0  0
   -2.5427   -2.9318   -3.3165 H   0  0  0  0  0  0  0  0  0  0  0  0
   -0.8209   -2.6139   -3.1113 H   0  0  0  0  0  0  0  0  0  0  0  0
   -1.7288   -3.6004   -1.9032 H   0  0  0  0  0  0  0  0  0  0  0  0
    1.8055   -4.5975    0.6992 H   0  0  0  0  0  0  0  0  0  0  0  0
    0.5819   -3.6161    1.5259 H   0  0  0  0  0  0  0  0  0  0  0  0
    3.1215   -2.0238   -0.3406 H   0  0  0  0  0  0  0  0  0  0  0  0
    4.8740   -1.6401    2.0299 H   0  0  0  0  0  0  0  0  0  0  0  0
    3.9459   -0.3005    1.3166 H   0  0  0  0  0  0  0  0  0  0  0  0
    7.1853   -2.3972    0.4939 H   0  0  0  0  0  0  0  0  0  0  0  0
    8.1473   -1.3621   -1.8518 H   0  0  0  0  0  0  0  0  0  0  0  0
    6.1402    0.3274   -2.7238 H   0  0  0  0  0  0  0  0  0  0  0  0
   -2.1727    2.2994    2.0339 H   0  0  0  0  0  0  0  0  0  0  0  0
   -1.8065    3.4815    0.7683 H   0  0  0  0  0  0  0  0  0  0  0  0
   -3.1270    4.6426    2.4152 H   0  0  0  0  0  0  0  0  0  0  0  0
   -4.3028    3.3331    2.5264 H   0  0  0  0  0  0  0  0  0  0  0  0
   -3.8495    5.1014    0.0678 H   0  0  0  0  0  0  0  0  0  0  0  0
   -5.1939    5.2593    1.1945 H   0  0  0  0  0  0  0  0  0  0  0  0
   -6.1632    3.1606    0.5222 H   0  0  0  0  0  0  0  0  0  0  0  0
   -5.7002    3.9852   -0.9775 H   0  0  0  0  0  0  0  0  0  0  0  0
  1  2  1  0
  2  3  2  0
  3  4  1  0
  4  5  1  0
  5  6  1  0
  6  7  2  0
  7  8  1  0
  8  9  1  0
  9 10  2  0
 10 11  1  0
 11 12  2  0
 12 13  1  0
 13 14  1  0
 14 15  1  0
 15 16  2  0
 15 17  1  0
 17 18  1  0
 18 19  1  0
 19 20  2  0
 20 21  1  0
 21 22  2  0
 22 23  1  0
 12 24  1  0
  7 25  1  0
 25 26  1  0
 26 27  1  0
 27 28  1  0
 24  2  1  0
  8  4  2  0
 24  9  1  0
 28  6  1  0
 23 19  1  0
  1 29  1  0
  1 30  1  0
  1 31  1  0
 14 32  1  0
 14 33  1  0
 17 34  1  0
 18 35  1  0
 18 36  1  0
 20 37  1  0
 21 38  1  0
 22 39  1  0
 25 40  1  0
 25 41  1  0
 26 42  1  0
 26 43  1  0
 27 44  1  0
 27 45  1  0
 28 46  1  0
 28 47  1  0
M  END
$$$$
