
     RDKit          3D

 58 60  0  0  0  0  0  0  0  0999 V2000
   10.0133   -0.1012   -1.0805 C   0  0  0  0  0  0  0  0  0  0  0  0
    8.5991   -0.5816   -0.9475 C   0  0  0  0  0  0  0  0  0  0  0  0
    7.8177   -0.1900    0.1450 C   0  0  0  0  0  0  0  0  0  0  0  0
    6.4900   -0.6080    0.2522 C   0  0  0  0  0  0  0  0  0  0  0  0
    5.9181   -1.4193   -0.7358 C   0  0  0  0  0  0  0  0  0  0  0  0
    4.4762   -1.8459   -0.6277 C   0  0  0  0  0  0  0  0  0  0  0  0
    3.5269   -0.7534   -1.1239 C   0  0  0  0  0  0  0  0  0  0  0  0
    2.1371   -1.1704   -1.0864 N   0  0  0  0  0  0  0  0  0  0  0  0
    1.4198   -1.2007    0.0906 C   0  0  0  0  0  0  0  0  0  0  0  0
    1.8937   -0.8878    1.1773 O   0  0  0  0  0  0  0  0  0  0  0  0
   -0.0187   -1.6329   -0.0994 C   0  0  0  0  0  0  0  0  0  0  0  0
   -0.7399   -1.8507    1.2252 C   0  0  0  0  0  0  0  0  0  0  0  0
   -0.9306   -0.5679    1.9179 N   0  0  0  0  0  0  0  0  0  0  0  0
   -2.1162   -0.4678    3.1023 S   0  0  0  0  0  6  0  0  0  0  0  0
   -2.3347   -1.7913    3.6419 O   0  0  0  0  0  0  0  0  0  0  0  0
   -1.7926    0.6631    3.9401 O   0  0  0  0  0  0  0  0  0  0  0  0
   -3.5359   -0.0101    2.1408 C   0  0  0  0  0  0  0  0  0  0  0  0
   -4.6319   -0.8665    2.0527 C   0  0  0  0  0  0  0  0  0  0  0  0
   -5.7464   -0.4857    1.2969 C   0  0  0  0  0  0  0  0  0  0  0  0
   -5.7791    0.7495    0.6252 C   0  0  0  0  0  0  0  0  0  0  0  0
   -4.6686    1.5881    0.7294 C   0  0  0  0  0  0  0  0  0  0  0  0
   -3.5466    1.2205    1.4861 C   0  0  0  0  0  0  0  0  0  0  0  0
   -4.6732    2.8783    0.0248 C   0  0  0  0  0  0  0  0  0  0  0  0
   -3.6523    3.5616    0.0247 O   0  0  0  0  0  0  0  0  0  0  0  0
   -5.8472    3.2316   -0.6203 N   0  0  0  0  0  0  0  0  0  0  0  0
   -5.8869    4.5187   -1.2909 C   0  0  0  0  0  0  0  0  0  0  0  0
   -6.9425    2.3944   -0.7942 C   0  0  0  0  0  0  0  0  0  0  0  0
   -7.9031    2.7306   -1.4913 O   0  0  0  0  0  0  0  0  0  0  0  0
   -6.8944    1.1584   -0.1535 N   0  0  0  0  0  0  0  0  0  0  0  0
   -8.0391    0.2671   -0.2960 C   0  0  0  0  0  0  0  0  0  0  0  0
    6.6951   -1.7981   -1.8367 C   0  0  0  0  0  0  0  0  0  0  0  0
    8.0235   -1.3789   -1.9430 C   0  0  0  0  0  0  0  0  0  0  0  0
   10.0351    0.8521   -1.6162 H   0  0  0  0  0  0  0  0  0  0  0  0
   10.6236   -0.8283   -1.6265 H   0  0  0  0  0  0  0  0  0  0  0  0
   10.4734    0.0348   -0.0964 H   0  0  0  0  0  0  0  0  0  0  0  0
    8.2382    0.4446    0.9221 H   0  0  0  0  0  0  0  0  0  0  0  0
    5.9019   -0.2929    1.1122 H   0  0  0  0  0  0  0  0  0  0  0  0
    4.3175   -2.7679   -1.2016 H   0  0  0  0  0  0  0  0  0  0  0  0
    4.2539   -2.1091    0.4141 H   0  0  0  0  0  0  0  0  0  0  0  0
    3.7522   -0.4885   -2.1630 H   0  0  0  0  0  0  0  0  0  0  0  0
    3.6310    0.1548   -0.5191 H   0  0  0  0  0  0  0  0  0  0  0  0
    1.6841   -1.4132   -1.9587 H   0  0  0  0  0  0  0  0  0  0  0  0
   -0.0204   -2.5723   -0.6645 H   0  0  0  0  0  0  0  0  0  0  0  0
   -0.5328   -0.8705   -0.6956 H   0  0  0  0  0  0  0  0  0  0  0  0
   -0.1674   -2.5266    1.8699 H   0  0  0  0  0  0  0  0  0  0  0  0
   -1.7133   -2.3069    1.0150 H   0  0  0  0  0  0  0  0  0  0  0  0
   -0.0663   -0.0891    2.1987 H   0  0  0  0  0  0  0  0  0  0  0  0
   -4.6331   -1.8252    2.5690 H   0  0  0  0  0  0  0  0  0  0  0  0
   -6.5812   -1.1805    1.2561 H   0  0  0  0  0  0  0  0  0  0  0  0
   -2.6905    1.8899    1.5644 H   0  0  0  0  0  0  0  0  0  0  0  0
   -6.8819    4.9654   -1.1952 H   0  0  0  0  0  0  0  0  0  0  0  0
   -5.1514    5.2140   -0.8769 H   0  0  0  0  0  0  0  0  0  0  0  0
   -5.6726    4.3624   -2.3534 H   0  0  0  0  0  0  0  0  0  0  0  0
   -8.4770    0.0777    0.6900 H   0  0  0  0  0  0  0  0  0  0  0  0
   -7.7130   -0.6714   -0.7568 H   0  0  0  0  0  0  0  0  0  0  0  0
   -8.8213    0.6939   -0.9293 H   0  0  0  0  0  0  0  0  0  0  0  0
    6.2730   -2.4208   -2.6221 H   0  0  0  0  0  0  0  0  0  0  0  0
    8.6079   -1.6802   -2.8097 H   0  0  0  0  0  0  0  0  0  0  0  0
  1  2  1  0
  2  3  2  0
  3  4  1  0
  4  5  2  0
  5  6  1  0
  6  7  1  0
  7  8  1  0
  8  9  1  0
  9 10  2  0
  9 11  1  0
 11 12  1  0
 12 13  1  0
 13 14  1  0
 14 15  2  0
 14 16  2  0
 14 17  1  0
 17 18  2  0
 18 19  1  0
 19 20  2  0
 20 21  1  0
 21 22  2  0
 21 23  1  0
 23 24  2  0
 23 25  1  0
 25 26  1  0
 25 27  1  0
 27 28  2  0
 27 29  1  0
 29 30  1  0
  5 31  1  0
 31 32  2  0
 32  2  1  0
 22 17  1  0
 29 20  1  0
  1 33  1  0
  1 34  1  0
  1 35  1  0
  3 36  1  0
  4 37  1  0
  6 38  1  0
  6 39  1  0
  7 40  1  0
  7 41  1  0
  8 42  1  0
 11 43  1  0
 11 44  1  0
 12 45  1  0
 12 46  1  0
 13 47  1  0
 18 48  1  0
 19 49  1  0
 22 50  1  0
 26 51  1  0
 26 52  1  0
 26 53  1  0
 30 54  1  0
 30 55  1  0
 30 56  1  0
 31 57  1  0
 32 58  1  0
M  END
$$$$
