
     RDKit          3D

 46 49  0  0  0  0  0  0  0  0999 V2000
    2.0297   -0.9932    1.0780 O   0  0  0  0  0  0  0  0  0  0  0  0
    2.3448    0.1893    1.0194 C   0  0  0  0  0  0  0  0  0  0  0  0
    1.3929    1.3406    1.3138 C   0  0  0  0  0  0  0  0  0  0  0  0
   -0.0172    0.9110    1.2585 N   0  0  0  0  0  4  0  0  0  0  0  0
   -0.9538    1.2416    0.2803 C   0  0  0  0  0  0  0  0  0  0  0  0
   -2.1469    0.5824    0.5557 C   0  0  0  0  0  0  0  0  0  0  0  0
   -3.4656    0.6405   -0.3003 C   0  0  0  0  0  0  0  0  0  0  0  0
   -3.5323    1.4638   -1.4303 C   0  0  0  0  0  0  0  0  0  0  0  0
   -4.7039    1.5180   -2.1942 C   0  0  0  0  0  0  0  0  0  0  0  0
   -5.8156    0.7506   -1.8397 C   0  0  0  0  0  0  0  0  0  0  0  0
   -7.2256    0.8680   -2.8259 Cl  0  0  0  0  0  0  0  0  0  0  0  0
   -5.7489   -0.0759   -0.7154 C   0  0  0  0  0  0  0  0  0  0  0  0
   -7.0738   -1.0623   -0.2092 Cl  0  0  0  0  0  0  0  0  0  0  0  0
   -4.5755   -0.1305    0.0503 C   0  0  0  0  0  0  0  0  0  0  0  0
   -1.8672   -0.1062    1.7227 N   0  0  0  0  0  0  0  0  0  0  0  0
   -0.6012    0.0612    2.0984 C   0  0  0  0  0  0  0  0  0  0  0  0
   -0.2495   -0.6953    3.3233 C   0  0  0  0  0  0  0  0  0  0  0  0
   -1.6370   -1.1027    3.8557 C   0  0  0  0  0  0  0  0  0  0  0  0
   -2.5831   -0.9964    2.6286 C   0  0  0  0  0  0  0  0  0  0  0  0
    3.5763    0.6738    0.7115 O   0  0  0  0  0  0  0  0  0  0  0  0
    4.5349   -0.2982    0.2647 C   0  0  0  0  0  0  0  0  0  0  0  0
    4.4258   -0.4337   -1.2307 C   0  0  0  0  0  0  0  0  0  0  0  0
    3.7811   -1.5399   -1.8014 C   0  0  0  0  0  0  0  0  0  0  0  0
    3.6609   -1.6504   -3.1875 C   0  0  0  0  0  0  0  0  0  0  0  0
    4.1779   -0.6552   -4.0147 C   0  0  0  0  0  0  0  0  0  0  0  0
    4.8142    0.4525   -3.4580 C   0  0  0  0  0  0  0  0  0  0  0  0
    4.9357    0.5654   -2.0723 C   0  0  0  0  0  0  0  0  0  0  0  0
    1.5947    1.7291    2.3163 H   0  0  0  0  0  0  0  0  0  0  0  0
    1.5399    2.1334    0.5732 H   0  0  0  0  0  0  0  0  0  0  0  0
   -0.6428    1.9027   -0.5111 H   0  0  0  0  0  0  0  0  0  0  0  0
   -2.6956    2.0812   -1.7468 H   0  0  0  0  0  0  0  0  0  0  0  0
   -4.7455    2.1640   -3.0701 H   0  0  0  0  0  0  0  0  0  0  0  0
   -4.5573   -0.7938    0.9055 H   0  0  0  0  0  0  0  0  0  0  0  0
    0.3038   -0.0431    3.9997 H   0  0  0  0  0  0  0  0  0  0  0  0
    0.3393   -1.5586    3.0089 H   0  0  0  0  0  0  0  0  0  0  0  0
   -1.6450   -2.0954    4.3136 H   0  0  0  0  0  0  0  0  0  0  0  0
   -1.9563   -0.3781    4.6142 H   0  0  0  0  0  0  0  0  0  0  0  0
   -2.7097   -1.9674    2.1411 H   0  0  0  0  0  0  0  0  0  0  0  0
   -3.5480   -0.5719    2.9144 H   0  0  0  0  0  0  0  0  0  0  0  0
    5.5316    0.0715    0.5316 H   0  0  0  0  0  0  0  0  0  0  0  0
    4.4153   -1.2597    0.7786 H   0  0  0  0  0  0  0  0  0  0  0  0
    3.3721   -2.3273   -1.1708 H   0  0  0  0  0  0  0  0  0  0  0  0
    3.1712   -2.5175   -3.6244 H   0  0  0  0  0  0  0  0  0  0  0  0
    4.0924   -0.7471   -5.0950 H   0  0  0  0  0  0  0  0  0  0  0  0
    5.2235    1.2242   -4.1058 H   0  0  0  0  0  0  0  0  0  0  0  0
    5.4391    1.4349   -1.6544 H   0  0  0  0  0  0  0  0  0  0  0  0
  1  2  2  0
  2  3  1  0
  3  4  1  0
  4  5  1  0
  5  6  2  0
  6  7  1  0
  7  8  2  0
  8  9  1  0
  9 10  2  0
 10 11  1  0
 10 12  1  0
 12 13  1  0
 12 14  2  0
  6 15  1  0
 15 16  1  0
 16 17  1  0
 17 18  1  0
 18 19  1  0
  2 20  1  0
 20 21  1  0
 21 22  1  0
 22 23  2  0
 23 24  1  0
 24 25  2  0
 25 26  1  0
 26 27  2  0
 16  4  2  0
 27 22  1  0
 14  7  1  0
 19 15  1  0
  3 28  1  0
  3 29  1  0
  5 30  1  0
  8 31  1  0
  9 32  1  0
 14 33  1  0
 17 34  1  0
 17 35  1  0
 18 36  1  0
 18 37  1  0
 19 38  1  0
 19 39  1  0
 21 40  1  0
 21 41  1  0
 23 42  1  0
 24 43  1  0
 25 44  1  0
 26 45  1  0
 27 46  1  0
M  CHG  1   4   1
M  END
$$$$
