
     RDKit          3D

 65 66  0  0  0  0  0  0  0  0999 V2000
   -2.0356    4.9689   -2.4214 C   0  0  0  0  0  0  0  0  0  0  0  0
   -1.0554    4.3703   -1.5852 O   0  0  0  0  0  0  0  0  0  0  0  0
   -1.1611    3.0226   -1.3768 C   0  0  0  0  0  0  0  0  0  0  0  0
   -0.1407    2.4657   -0.6081 C   0  0  0  0  0  0  0  0  0  0  0  0
   -0.1249    1.0967   -0.3161 C   0  0  0  0  0  0  0  0  0  0  0  0
   -1.1423    0.2484   -0.7722 C   0  0  0  0  0  0  0  0  0  0  0  0
   -1.1520   -1.2688   -0.5192 C   0  0  0  0  0  0  0  0  0  0  0  0
   -2.5661   -1.8329   -0.1728 C   0  0  0  0  0  0  0  0  0  0  0  0
   -2.9559   -2.9030   -0.6408 O   0  0  0  0  0  0  0  0  0  0  0  0
   -3.2943   -1.0911    0.7400 N   0  0  0  0  0  0  0  0  0  0  0  0
   -4.5998   -1.4709    1.2945 C   0  0  0  0  0  0  0  0  0  0  0  0
   -5.6388   -1.6792    0.1809 C   0  0  0  0  0  0  0  0  0  0  0  0
   -4.4792   -2.7423    2.1483 C   0  0  0  0  0  0  0  0  0  0  0  0
   -5.0866   -0.3179    2.1925 C   0  0  0  0  0  0  0  0  0  0  0  0
   -0.0806   -1.7872    0.3803 N   0  0  0  0  0  0  0  0  0  0  0  0
   -0.3769   -2.0204    1.8072 C   0  0  0  0  0  0  0  0  0  0  0  0
   -0.3033   -0.7582    2.6682 C   0  0  0  0  0  0  0  0  0  0  0  0
   -1.4369    0.0808    2.4286 O   0  0  0  0  0  0  0  0  0  0  0  0
    1.2303   -2.0153   -0.0337 C   0  0  0  0  0  0  0  0  0  0  0  0
    2.1098   -2.3576    0.7616 O   0  0  0  0  0  0  0  0  0  0  0  0
    1.5534   -1.8666   -1.5155 C   0  0  0  0  0  0  0  0  0  0  0  0
    3.0555   -1.9620   -1.7749 C   0  0  0  0  0  0  0  0  0  0  0  0
    3.7987   -0.7453   -1.2445 C   0  0  0  0  0  0  0  0  0  0  0  0
    3.2190    0.2807   -0.8995 O   0  0  0  0  0  0  0  0  0  0  0  0
    5.1626   -0.9334   -1.2531 N   0  0  0  0  0  0  0  0  0  0  0  0
    6.0959   -0.0046   -0.8512 C   0  0  0  0  0  0  0  0  0  0  0  0
    5.9076    1.3053   -0.3566 C   0  0  0  0  0  0  0  0  0  0  0  0
    7.1762    1.7707   -0.1190 C   0  0  0  0  0  0  0  0  0  0  0  0
    7.7320    3.0345    0.3904 C   0  0  0  0  0  0  0  0  0  0  0  0
    8.0735    0.8049   -0.4527 O   0  0  0  0  0  0  0  0  0  0  0  0
    7.3972   -0.3100   -0.9124 N   0  0  0  0  0  0  0  0  0  0  0  0
   -2.1545    0.8226   -1.5667 C   0  0  0  0  0  0  0  0  0  0  0  0
   -2.1697    2.1926   -1.8589 C   0  0  0  0  0  0  0  0  0  0  0  0
   -2.0121    4.5390   -3.4267 H   0  0  0  0  0  0  0  0  0  0  0  0
   -3.0330    4.8887   -1.9789 H   0  0  0  0  0  0  0  0  0  0  0  0
   -1.7949    6.0323   -2.5095 H   0  0  0  0  0  0  0  0  0  0  0  0
    0.6657    3.0982   -0.2440 H   0  0  0  0  0  0  0  0  0  0  0  0
    0.7131    0.7163    0.2607 H   0  0  0  0  0  0  0  0  0  0  0  0
   -0.9470   -1.6950   -1.5106 H   0  0  0  0  0  0  0  0  0  0  0  0
   -2.7363   -0.4389    1.2995 H   0  0  0  0  0  0  0  0  0  0  0  0
   -5.6932   -0.8039   -0.4756 H   0  0  0  0  0  0  0  0  0  0  0  0
   -5.4014   -2.5440   -0.4451 H   0  0  0  0  0  0  0  0  0  0  0  0
   -6.6371   -1.8484    0.6010 H   0  0  0  0  0  0  0  0  0  0  0  0
   -3.7406   -2.6107    2.9470 H   0  0  0  0  0  0  0  0  0  0  0  0
   -5.4370   -2.9983    2.6150 H   0  0  0  0  0  0  0  0  0  0  0  0
   -4.1631   -3.6050    1.5530 H   0  0  0  0  0  0  0  0  0  0  0  0
   -6.0674   -0.5361    2.6308 H   0  0  0  0  0  0  0  0  0  0  0  0
   -4.3855   -0.1350    3.0163 H   0  0  0  0  0  0  0  0  0  0  0  0
   -5.1709    0.6174    1.6246 H   0  0  0  0  0  0  0  0  0  0  0  0
   -1.3507   -2.5075    1.8991 H   0  0  0  0  0  0  0  0  0  0  0  0
    0.3491   -2.7398    2.2055 H   0  0  0  0  0  0  0  0  0  0  0  0
    0.6123   -0.1915    2.4683 H   0  0  0  0  0  0  0  0  0  0  0  0
   -0.3210   -1.0313    3.7285 H   0  0  0  0  0  0  0  0  0  0  0  0
   -1.1881    0.9692    2.7480 H   0  0  0  0  0  0  0  0  0  0  0  0
    1.1783   -0.9146   -1.8990 H   0  0  0  0  0  0  0  0  0  0  0  0
    1.0520   -2.6828   -2.0478 H   0  0  0  0  0  0  0  0  0  0  0  0
    3.2327   -2.0070   -2.8563 H   0  0  0  0  0  0  0  0  0  0  0  0
    3.4744   -2.8711   -1.3273 H   0  0  0  0  0  0  0  0  0  0  0  0
    5.5604   -1.8145   -1.5480 H   0  0  0  0  0  0  0  0  0  0  0  0
    4.9822    1.8390   -0.1983 H   0  0  0  0  0  0  0  0  0  0  0  0
    8.3293    3.5280   -0.3824 H   0  0  0  0  0  0  0  0  0  0  0  0
    6.9369    3.7207    0.6959 H   0  0  0  0  0  0  0  0  0  0  0  0
    8.3731    2.8509    1.2576 H   0  0  0  0  0  0  0  0  0  0  0  0
   -2.9554    0.2042   -1.9719 H   0  0  0  0  0  0  0  0  0  0  0  0
   -2.9818    2.5733   -2.4703 H   0  0  0  0  0  0  0  0  0  0  0  0
  1  2  1  0
  2  3  1  0
  3  4  2  0
  4  5  1  0
  5  6  2  0
  6  7  1  0
  7  8  1  0
  8  9  2  0
  8 10  1  0
 10 11  1  0
 11 12  1  0
 11 13  1  0
 11 14  1  0
  7 15  1  0
 15 16  1  0
 16 17  1  0
 17 18  1  0
 15 19  1  0
 19 20  2  0
 19 21  1  0
 21 22  1  0
 22 23  1  0
 23 24  2  0
 23 25  1  0
 25 26  1  0
 26 27  1  0
 27 28  2  0
 28 29  1  0
 28 30  1  0
 30 31  1  0
  6 32  1  0
 32 33  2  0
 33  3  1  0
 31 26  2  0
  1 34  1  0
  1 35  1  0
  1 36  1  0
  4 37  1  0
  5 38  1  0
  7 39  1  0
 10 40  1  0
 12 41  1  0
 12 42  1  0
 12 43  1  0
 13 44  1  0
 13 45  1  0
 13 46  1  0
 14 47  1  0
 14 48  1  0
 14 49  1  0
 16 50  1  0
 16 51  1  0
 17 52  1  0
 17 53  1  0
 18 54  1  0
 21 55  1  0
 21 56  1  0
 22 57  1  0
 22 58  1  0
 25 59  1  0
 27 60  1  0
 29 61  1  0
 29 62  1  0
 29 63  1  0
 32 64  1  0
 33 65  1  0
M  END
$$$$
