
     RDKit          3D

 37 39  0  0  0  0  0  0  0  0999 V2000
   -7.5815    1.7256    0.5898 C   0  0  0  0  0  0  0  0  0  0  0  0
   -7.0549    0.8144   -0.5077 C   0  0  0  0  0  0  0  0  0  0  0  0
   -5.5648    0.8465   -0.5780 C   0  0  0  0  0  0  0  0  0  0  0  0
   -4.8644    1.7334   -1.2545 N   0  0  0  0  0  0  0  0  0  0  0  0
   -3.5061    1.5163   -1.1346 N   0  0  0  0  0  0  0  0  0  0  0  0
   -3.2333    0.4776   -0.3762 C   0  0  0  0  0  0  0  0  0  0  0  0
   -1.9490    0.0783   -0.1195 N   0  0  0  0  0  0  0  0  0  0  0  0
   -1.5364   -0.9826    0.6517 C   0  0  0  0  0  0  0  0  0  0  0  0
   -2.2489   -1.7767    1.2591 O   0  0  0  0  0  0  0  0  0  0  0  0
   -0.0112   -1.1179    0.7065 C   0  0  0  0  0  0  0  0  0  0  0  0
    0.6240   -0.1001   -0.0632 O   0  0  0  0  0  0  0  0  0  0  0  0
    1.9915   -0.1091   -0.0968 C   0  0  0  0  0  0  0  0  0  0  0  0
    2.5593    0.9080   -0.8639 C   0  0  0  0  0  0  0  0  0  0  0  0
    3.9460    1.0175   -0.9855 C   0  0  0  0  0  0  0  0  0  0  0  0
    4.7921    0.1068   -0.3385 C   0  0  0  0  0  0  0  0  0  0  0  0
    6.1888    0.2007   -0.4490 C   0  0  0  0  0  0  0  0  0  0  0  0
    7.0182   -0.7139    0.2013 C   0  0  0  0  0  0  0  0  0  0  0  0
    6.4622   -1.7324    0.9691 C   0  0  0  0  0  0  0  0  0  0  0  0
    5.0754   -1.8388    1.0884 C   0  0  0  0  0  0  0  0  0  0  0  0
    4.2249   -0.9270    0.4408 C   0  0  0  0  0  0  0  0  0  0  0  0
    2.8245   -1.0226    0.5526 C   0  0  0  0  0  0  0  0  0  0  0  0
   -4.6057   -0.3141    0.2480 S   0  0  0  0  0  0  0  0  0  0  0  0
   -8.6757    1.7026    0.6091 H   0  0  0  0  0  0  0  0  0  0  0  0
   -7.2180    1.4131    1.5747 H   0  0  0  0  0  0  0  0  0  0  0  0
   -7.2661    2.7623    0.4294 H   0  0  0  0  0  0  0  0  0  0  0  0
   -7.4159   -0.2074   -0.3428 H   0  0  0  0  0  0  0  0  0  0  0  0
   -7.4631    1.1392   -1.4722 H   0  0  0  0  0  0  0  0  0  0  0  0
   -1.2330    0.6462   -0.5596 H   0  0  0  0  0  0  0  0  0  0  0  0
    0.2371   -2.1067    0.3039 H   0  0  0  0  0  0  0  0  0  0  0  0
    0.2800   -1.0326    1.7598 H   0  0  0  0  0  0  0  0  0  0  0  0
    1.9214    1.6255   -1.3743 H   0  0  0  0  0  0  0  0  0  0  0  0
    4.3595    1.8212   -1.5906 H   0  0  0  0  0  0  0  0  0  0  0  0
    6.6420    0.9901   -1.0446 H   0  0  0  0  0  0  0  0  0  0  0  0
    8.0979   -0.6299    0.1076 H   0  0  0  0  0  0  0  0  0  0  0  0
    7.1072   -2.4455    1.4761 H   0  0  0  0  0  0  0  0  0  0  0  0
    4.6629   -2.6430    1.6938 H   0  0  0  0  0  0  0  0  0  0  0  0
    2.4129   -1.8250    1.1567 H   0  0  0  0  0  0  0  0  0  0  0  0
  1  2  1  0
  2  3  1  0
  3  4  2  0
  4  5  1  0
  5  6  2  0
  6  7  1  0
  7  8  1  0
  8  9  2  0
  8 10  1  0
 10 11  1  0
 11 12  1  0
 12 13  2  0
 13 14  1  0
 14 15  2  0
 15 16  1  0
 16 17  2  0
 17 18  1  0
 18 19  2  0
 19 20  1  0
 20 21  2  0
  6 22  1  0
 22  3  1  0
 21 12  1  0
 20 15  1  0
  1 23  1  0
  1 24  1  0
  1 25  1  0
  2 26  1  0
  2 27  1  0
  7 28  1  0
 10 29  1  0
 10 30  1  0
 13 31  1  0
 14 32  1  0
 16 33  1  0
 17 34  1  0
 18 35  1  0
 19 36  1  0
 21 37  1  0
M  END
$$$$
