
     RDKit          3D

 50 53  0  0  0  0  0  0  0  0999 V2000
   -6.6370   -3.0873    3.5587 C   0  0  0  0  0  0  0  0  0  0  0  0
   -5.3965   -2.4818    2.9722 C   0  0  0  0  0  0  0  0  0  0  0  0
   -4.5013   -3.2682    2.2428 C   0  0  0  0  0  0  0  0  0  0  0  0
   -3.3280   -2.7114    1.7253 C   0  0  0  0  0  0  0  0  0  0  0  0
   -3.0296   -1.3529    1.9229 C   0  0  0  0  0  0  0  0  0  0  0  0
   -1.8163   -0.8276    1.3791 N   0  0  0  0  0  0  0  0  0  0  0  0
   -0.8455   -1.6995    0.9928 N   0  0  0  0  0  0  0  0  0  0  0  0
    0.2257   -0.9435    0.7480 C   0  0  0  0  0  0  0  0  0  0  0  0
    1.5513   -1.4193    0.3734 C   0  0  0  0  0  0  0  0  0  0  0  0
    1.8417   -2.6061    0.2476 O   0  0  0  0  0  0  0  0  0  0  0  0
    2.4655   -0.3665    0.1659 N   0  0  0  0  0  0  0  0  0  0  0  0
    3.8336   -0.6958   -0.2348 C   0  0  0  0  0  0  0  0  0  0  0  0
    4.0252   -0.6794   -1.7532 C   0  0  0  0  0  0  0  0  0  0  0  0
    5.0331   -1.1403   -2.2856 O   0  0  0  0  0  0  0  0  0  0  0  0
    3.0383   -0.0238   -2.4553 N   0  0  0  0  0  0  0  0  0  0  0  0
    3.1590    0.2799   -3.8597 C   0  0  0  0  0  0  0  0  0  0  0  0
    3.6718    1.6792   -3.9905 C   0  0  0  0  0  0  0  0  0  0  0  0
    4.9860    2.1042   -4.0248 C   0  0  0  0  0  0  0  0  0  0  0  0
    5.0960    3.5183   -4.1528 C   0  0  0  0  0  0  0  0  0  0  0  0
    3.8626    4.1274   -4.2092 C   0  0  0  0  0  0  0  0  0  0  0  0
    2.5826    2.9984   -4.1034 S   0  0  0  0  0  0  0  0  0  0  0  0
    2.1563    0.9992    0.2486 N   0  0  0  0  0  0  0  0  0  0  0  0
    0.9627    1.4005    0.5907 C   0  0  0  0  0  0  0  0  0  0  0  0
    0.7065    2.8777    0.6814 C   0  0  0  0  0  0  0  0  0  0  0  0
   -0.0633    0.4215    0.8518 C   0  0  0  0  0  0  0  0  0  0  0  0
   -1.4121    0.4959    1.1587 C   0  0  0  0  0  0  0  0  0  0  0  0
   -2.3178    1.6734    1.1979 C   0  0  0  0  0  0  0  0  0  0  0  0
   -3.9073   -0.5778    2.6881 C   0  0  0  0  0  0  0  0  0  0  0  0
   -5.0811   -1.1397    3.2061 C   0  0  0  0  0  0  0  0  0  0  0  0
   -6.4250   -3.4817    4.5573 H   0  0  0  0  0  0  0  0  0  0  0  0
   -7.0101   -3.9012    2.9281 H   0  0  0  0  0  0  0  0  0  0  0  0
   -7.4365   -2.3428    3.6342 H   0  0  0  0  0  0  0  0  0  0  0  0
   -4.7060   -4.3230    2.0715 H   0  0  0  0  0  0  0  0  0  0  0  0
   -2.6567   -3.3557    1.1583 H   0  0  0  0  0  0  0  0  0  0  0  0
    4.5128    0.0399    0.2087 H   0  0  0  0  0  0  0  0  0  0  0  0
    4.1007   -1.6916    0.1328 H   0  0  0  0  0  0  0  0  0  0  0  0
    2.4070    0.5440   -1.8985 H   0  0  0  0  0  0  0  0  0  0  0  0
    2.1661    0.1704   -4.3078 H   0  0  0  0  0  0  0  0  0  0  0  0
    3.8341   -0.4291   -4.3502 H   0  0  0  0  0  0  0  0  0  0  0  0
    5.8287    1.4246   -3.9552 H   0  0  0  0  0  0  0  0  0  0  0  0
    6.0328    4.0599   -4.1998 H   0  0  0  0  0  0  0  0  0  0  0  0
    3.6502    5.1832   -4.3060 H   0  0  0  0  0  0  0  0  0  0  0  0
    0.1022    3.1955   -0.1724 H   0  0  0  0  0  0  0  0  0  0  0  0
    1.6515    3.4288    0.6608 H   0  0  0  0  0  0  0  0  0  0  0  0
    0.1859    3.1162    1.6124 H   0  0  0  0  0  0  0  0  0  0  0  0
   -3.3379    1.4163    0.8982 H   0  0  0  0  0  0  0  0  0  0  0  0
   -1.9919    2.4407    0.4902 H   0  0  0  0  0  0  0  0  0  0  0  0
   -2.3295    2.1212    2.1959 H   0  0  0  0  0  0  0  0  0  0  0  0
   -3.6962    0.4515    2.9505 H   0  0  0  0  0  0  0  0  0  0  0  0
   -5.7443   -0.5216    3.8083 H   0  0  0  0  0  0  0  0  0  0  0  0
  1  2  1  0
  2  3  2  0
  3  4  1  0
  4  5  2  0
  5  6  1  0
  6  7  1  0
  7  8  2  0
  8  9  1  0
  9 10  2  0
  9 11  1  0
 11 12  1  0
 12 13  1  0
 13 14  2  0
 13 15  1  0
 15 16  1  0
 16 17  1  0
 17 18  2  0
 18 19  1  0
 19 20  2  0
 20 21  1  0
 11 22  1  0
 22 23  2  0
 23 24  1  0
 23 25  1  0
 25 26  2  0
 26 27  1  0
  5 28  1  0
 28 29  2  0
 29  2  1  0
 26  6  1  0
 25  8  1  0
 21 17  1  0
  1 30  1  0
  1 31  1  0
  1 32  1  0
  3 33  1  0
  4 34  1  0
 12 35  1  0
 12 36  1  0
 15 37  1  0
 16 38  1  0
 16 39  1  0
 18 40  1  0
 19 41  1  0
 20 42  1  0
 24 43  1  0
 24 44  1  0
 24 45  1  0
 27 46  1  0
 27 47  1  0
 27 48  1  0
 28 49  1  0
 29 50  1  0
M  END
$$$$
