
     RDKit          3D

 50 53  0  0  0  0  0  0  0  0999 V2000
   -4.7149   -4.3425   -0.8879 C   0  0  0  0  0  0  0  0  0  0  0  0
   -3.8819   -3.1139   -1.2065 C   0  0  0  0  0  0  0  0  0  0  0  0
   -3.7510   -2.3487   -0.0095 O   0  0  0  0  0  0  0  0  0  0  0  0
   -3.0355   -1.1868   -0.0869 C   0  0  0  0  0  0  0  0  0  0  0  0
   -2.9523   -0.4739    1.1116 C   0  0  0  0  0  0  0  0  0  0  0  0
   -2.2483    0.7304    1.1794 C   0  0  0  0  0  0  0  0  0  0  0  0
   -1.6207    1.2381    0.0378 C   0  0  0  0  0  0  0  0  0  0  0  0
   -0.8389    2.4652    0.1099 C   0  0  0  0  0  0  0  0  0  0  0  0
    0.5402    2.6638    0.1251 C   0  0  0  0  0  0  0  0  0  0  0  0
    1.6605    1.7143    0.0973 C   0  0  0  0  0  0  0  0  0  0  0  0
    2.7689    2.0754   -0.2933 O   0  0  0  0  0  0  0  0  0  0  0  0
    1.3735    0.4246    0.5466 N   0  0  0  0  0  0  0  0  0  0  0  0
    2.2159   -0.6607    0.4948 N   0  0  0  0  0  0  0  0  0  0  0  0
    3.4888   -0.4700    0.6417 C   0  0  0  0  0  0  0  0  0  0  0  0
    4.4541   -1.5857    0.5455 C   0  0  0  0  0  0  0  0  0  0  0  0
    5.8178   -1.3089    0.6947 C   0  0  0  0  0  0  0  0  0  0  0  0
    6.7516   -2.3448    0.6087 C   0  0  0  0  0  0  0  0  0  0  0  0
    6.3116   -3.6451    0.3747 C   0  0  0  0  0  0  0  0  0  0  0  0
    7.1884   -4.6850    0.2836 O   0  0  0  0  0  0  0  0  0  0  0  0
    4.9576   -3.9270    0.2249 C   0  0  0  0  0  0  0  0  0  0  0  0
    4.0223   -2.8946    0.3093 C   0  0  0  0  0  0  0  0  0  0  0  0
    0.7910    4.0127    0.1500 N   0  0  0  0  0  0  0  0  0  0  0  0
   -0.3581    4.6593    0.1717 N   0  0  0  0  0  0  0  0  0  0  0  0
   -1.3774    3.7598    0.1105 N   0  0  0  0  0  0  0  0  0  0  0  0
   -2.7282    4.1870    0.0342 C   0  0  0  0  0  0  0  0  0  0  0  0
   -3.7263    3.3143   -0.1062 N   0  0  0  0  0  0  0  0  0  0  0  0
   -4.8692    4.1093   -0.1637 O   0  0  0  0  0  0  0  0  0  0  0  0
   -4.5504    5.4591   -0.0621 N   0  0  0  0  0  0  0  0  0  0  0  0
   -3.2251    5.5041    0.0667 C   0  0  0  0  0  0  0  0  0  0  0  0
   -2.5139    6.6391    0.2061 N   0  0  0  0  0  0  0  0  0  0  0  0
   -1.6996    0.5237   -1.1628 C   0  0  0  0  0  0  0  0  0  0  0  0
   -2.4058   -0.6830   -1.2247 C   0  0  0  0  0  0  0  0  0  0  0  0
   -4.8456   -4.9662   -1.7766 H   0  0  0  0  0  0  0  0  0  0  0  0
   -5.7014   -4.0523   -0.5112 H   0  0  0  0  0  0  0  0  0  0  0  0
   -4.2373   -4.9394   -0.1038 H   0  0  0  0  0  0  0  0  0  0  0  0
   -2.8959   -3.4330   -1.5634 H   0  0  0  0  0  0  0  0  0  0  0  0
   -4.3911   -2.5270   -1.9796 H   0  0  0  0  0  0  0  0  0  0  0  0
   -3.4440   -0.8617    2.0012 H   0  0  0  0  0  0  0  0  0  0  0  0
   -2.2022    1.2602    2.1284 H   0  0  0  0  0  0  0  0  0  0  0  0
    0.4083    0.1551    0.6927 H   0  0  0  0  0  0  0  0  0  0  0  0
    3.9253    0.5147    0.8778 H   0  0  0  0  0  0  0  0  0  0  0  0
    6.1618   -0.2931    0.8731 H   0  0  0  0  0  0  0  0  0  0  0  0
    7.8073   -2.1198    0.7242 H   0  0  0  0  0  0  0  0  0  0  0  0
    8.0908   -4.3447    0.3987 H   0  0  0  0  0  0  0  0  0  0  0  0
    4.6310   -4.9470    0.0420 H   0  0  0  0  0  0  0  0  0  0  0  0
    2.9648   -3.1168    0.1909 H   0  0  0  0  0  0  0  0  0  0  0  0
   -1.5004    6.6428    0.0966 H   0  0  0  0  0  0  0  0  0  0  0  0
   -2.9601    7.5275    0.0026 H   0  0  0  0  0  0  0  0  0  0  0  0
   -1.2135    0.8943   -2.0636 H   0  0  0  0  0  0  0  0  0  0  0  0
   -2.4426   -1.2035   -2.1762 H   0  0  0  0  0  0  0  0  0  0  0  0
  1  2  1  0
  2  3  1  0
  3  4  1  0
  4  5  2  0
  5  6  1  0
  6  7  2  0
  7  8  1  0
  8  9  2  0
  9 10  1  0
 10 11  2  0
 10 12  1  0
 12 13  1  0
 13 14  2  3
 14 15  1  0
 15 16  2  0
 16 17  1  0
 17 18  2  0
 18 19  1  0
 18 20  1  0
 20 21  2  0
  9 22  1  0
 22 23  2  0
 23 24  1  0
 24 25  1  0
 25 26  2  0
 26 27  1  0
 27 28  1  0
 28 29  2  0
 29 30  1  0
  7 31  1  0
 31 32  2  0
 32  4  1  0
 24  8  1  0
 29 25  1  0
 21 15  1  0
  1 33  1  0
  1 34  1  0
  1 35  1  0
  2 36  1  0
  2 37  1  0
  5 38  1  0
  6 39  1  0
 12 40  1  0
 14 41  1  0
 16 42  1  0
 17 43  1  0
 19 44  1  0
 20 45  1  0
 21 46  1  0
 30 47  1  0
 30 48  1  0
 31 49  1  0
 32 50  1  0
M  END
$$$$
