
     RDKit          3D

 39 40  0  0  0  0  0  0  0  0999 V2000
   -1.5736    0.9356   -2.3004 C   0  0  0  0  0  0  0  0  0  0  0  0
   -2.4410    0.5043   -1.1351 C   0  0  0  0  0  0  0  0  0  0  0  0
   -1.9303    0.1614    0.0624 C   0  0  0  0  0  0  0  0  0  0  0  0
   -0.4709    0.2386    0.3038 C   0  0  0  0  0  0  0  0  0  0  0  0
    0.2160   -0.7728    0.7276 N   0  0  0  0  0  0  0  0  0  0  0  0
    1.5725   -0.6164    0.8532 N   0  0  0  0  0  0  0  0  0  0  0  0
    2.3892    0.0906   -0.0189 C   0  0  0  0  0  0  0  0  0  0  0  0
    1.9863    0.7938   -0.9441 O   0  0  0  0  0  0  0  0  0  0  0  0
    3.8673   -0.0371    0.2052 C   0  0  0  0  0  0  0  0  0  0  0  0
    4.7031    0.7947   -0.5601 C   0  0  0  0  0  0  0  0  0  0  0  0
    6.0877    0.7370   -0.4070 C   0  0  0  0  0  0  0  0  0  0  0  0
    7.1950    1.8658   -1.4429 Br  0  0  0  0  0  0  0  0  0  0  0  0
    6.6632   -0.1450    0.5037 C   0  0  0  0  0  0  0  0  0  0  0  0
    5.8479   -0.9804    1.2678 C   0  0  0  0  0  0  0  0  0  0  0  0
    4.4583   -0.9274    1.1178 C   0  0  0  0  0  0  0  0  0  0  0  0
    3.6857   -1.7695    1.8737 O   0  0  0  0  0  0  0  0  0  0  0  0
   -2.8360   -0.2535    1.1547 C   0  0  0  0  0  0  0  0  0  0  0  0
   -2.4275   -0.3299    2.3126 O   0  0  0  0  0  0  0  0  0  0  0  0
   -4.1485   -0.4926    0.7984 N   0  0  0  0  0  0  0  0  0  0  0  0
   -5.0469   -0.9784    1.8277 C   0  0  0  0  0  0  0  0  0  0  0  0
   -4.7132   -0.0629   -0.3933 C   0  0  0  0  0  0  0  0  0  0  0  0
   -5.9289   -0.1166   -0.5900 O   0  0  0  0  0  0  0  0  0  0  0  0
   -3.8233    0.4463   -1.3449 N   0  0  0  0  0  0  0  0  0  0  0  0
   -4.3954    0.8771   -2.6202 C   0  0  0  0  0  0  0  0  0  0  0  0
   -0.5036    0.8048   -2.1232 H   0  0  0  0  0  0  0  0  0  0  0  0
   -1.7995    0.3423   -3.1927 H   0  0  0  0  0  0  0  0  0  0  0  0
   -1.7368    1.9943   -2.5266 H   0  0  0  0  0  0  0  0  0  0  0  0
   -0.0257    1.2267    0.0964 H   0  0  0  0  0  0  0  0  0  0  0  0
    2.0210   -1.3280    1.4316 H   0  0  0  0  0  0  0  0  0  0  0  0
    4.2682    1.4899   -1.2762 H   0  0  0  0  0  0  0  0  0  0  0  0
    7.7431   -0.1903    0.6237 H   0  0  0  0  0  0  0  0  0  0  0  0
    6.3143   -1.6649    1.9712 H   0  0  0  0  0  0  0  0  0  0  0  0
    4.2612   -2.3171    2.4384 H   0  0  0  0  0  0  0  0  0  0  0  0
   -5.8539   -1.5718    1.3870 H   0  0  0  0  0  0  0  0  0  0  0  0
   -4.5137   -1.5975    2.5554 H   0  0  0  0  0  0  0  0  0  0  0  0
   -5.4820   -0.1161    2.3432 H   0  0  0  0  0  0  0  0  0  0  0  0
   -4.1075    0.1642   -3.3990 H   0  0  0  0  0  0  0  0  0  0  0  0
   -4.0341    1.8793   -2.8695 H   0  0  0  0  0  0  0  0  0  0  0  0
   -5.4877    0.9217   -2.5914 H   0  0  0  0  0  0  0  0  0  0  0  0
  1  2  1  0
  2  3  2  0
  3  4  1  0
  4  5  2  3
  5  6  1  0
  6  7  1  0
  7  8  2  0
  7  9  1  0
  9 10  2  0
 10 11  1  0
 11 12  1  0
 11 13  2  0
 13 14  1  0
 14 15  2  0
 15 16  1  0
  3 17  1  0
 17 18  2  0
 17 19  1  0
 19 20  1  0
 19 21  1  0
 21 22  2  0
 21 23  1  0
 23 24  1  0
 23  2  1  0
 15  9  1  0
  1 25  1  0
  1 26  1  0
  1 27  1  0
  4 28  1  0
  6 29  1  0
 10 30  1  0
 13 31  1  0
 14 32  1  0
 16 33  1  0
 20 34  1  0
 20 35  1  0
 20 36  1  0
 24 37  1  0
 24 38  1  0
 24 39  1  0
M  END
$$$$
