
     RDKit          3D

 56 61  0  0  0  0  0  0  0  0999 V2000
    6.7972    2.9332   -1.4433 C   0  0  0  0  0  0  0  0  0  0  0  0
    5.6204    2.0270   -1.2259 C   0  0  0  0  0  0  0  0  0  0  0  0
    5.7516    0.8836   -0.4313 C   0  0  0  0  0  0  0  0  0  0  0  0
    4.6567    0.0439   -0.2034 C   0  0  0  0  0  0  0  0  0  0  0  0
    3.4144    0.3428   -0.7640 C   0  0  0  0  0  0  0  0  0  0  0  0
    2.1751   -0.5898   -0.5144 C   0  0  0  0  0  0  0  0  0  0  0  0
    0.8748   -0.3664   -0.9521 C   0  0  0  0  0  0  0  0  0  0  0  0
    0.0604   -1.4043   -0.5011 N   0  0  0  0  0  4  0  0  0  0  0  0
   -1.3960   -1.5214   -0.6788 C   0  0  0  0  0  0  0  0  0  0  0  0
   -2.1153   -1.1082    0.6199 C   0  0  0  0  0  0  0  0  0  0  0  0
   -1.7819   -1.6307    1.6843 O   0  0  0  0  0  0  0  0  0  0  0  0
   -3.0282   -0.0571    0.4545 N   0  0  0  0  0  0  0  0  0  0  0  0
   -2.9909    1.1110    1.3035 C   0  0  0  0  0  0  0  0  0  0  0  0
   -2.3219    1.0849    2.5435 C   0  0  0  0  0  0  0  0  0  0  0  0
   -2.2566    2.2082    3.3762 C   0  0  0  0  0  0  0  0  0  0  0  0
   -2.8498    3.3984    2.9864 C   0  0  0  0  0  0  0  0  0  0  0  0
   -3.4979    3.4633    1.7588 C   0  0  0  0  0  0  0  0  0  0  0  0
   -3.5695    2.3362    0.9201 C   0  0  0  0  0  0  0  0  0  0  0  0
   -4.3134    2.5977   -0.6690 S   0  0  0  0  0  0  0  0  0  0  0  0
   -4.7358    0.9352   -1.0848 C   0  0  0  0  0  0  0  0  0  0  0  0
   -5.7443    0.7545   -2.0474 C   0  0  0  0  0  0  0  0  0  0  0  0
   -6.1297   -0.5213   -2.4496 C   0  0  0  0  0  0  0  0  0  0  0  0
   -5.5128   -1.6295   -1.8870 C   0  0  0  0  0  0  0  0  0  0  0  0
   -4.5036   -1.4563   -0.9352 C   0  0  0  0  0  0  0  0  0  0  0  0
   -4.0773   -0.1708   -0.5306 C   0  0  0  0  0  0  0  0  0  0  0  0
    0.8235   -2.2316    0.2070 C   0  0  0  0  0  0  0  0  0  0  0  0
    2.0774   -1.7882    0.1705 N   0  0  0  0  0  0  0  0  0  0  0  0
    2.9847   -2.6720    0.8888 C   0  0  0  0  0  0  0  0  0  0  0  0
    2.1373   -3.9526    1.1187 C   0  0  0  0  0  0  0  0  0  0  0  0
    0.6733   -3.4930    0.9692 C   0  0  0  0  0  0  0  0  0  0  0  0
    3.2742    1.4943   -1.5471 C   0  0  0  0  0  0  0  0  0  0  0  0
    4.3710    2.3316   -1.7728 C   0  0  0  0  0  0  0  0  0  0  0  0
    6.6266    3.6121   -2.2852 H   0  0  0  0  0  0  0  0  0  0  0  0
    7.6940    2.3471   -1.6722 H   0  0  0  0  0  0  0  0  0  0  0  0
    6.9789    3.5329   -0.5456 H   0  0  0  0  0  0  0  0  0  0  0  0
    6.7144    0.6425    0.0172 H   0  0  0  0  0  0  0  0  0  0  0  0
    4.8116   -0.8220    0.4264 H   0  0  0  0  0  0  0  0  0  0  0  0
    0.4155    0.4248   -1.5214 H   0  0  0  0  0  0  0  0  0  0  0  0
   -1.6813   -0.8935   -1.5277 H   0  0  0  0  0  0  0  0  0  0  0  0
   -1.6389   -2.5622   -0.9117 H   0  0  0  0  0  0  0  0  0  0  0  0
   -1.8634    0.1832    2.9353 H   0  0  0  0  0  0  0  0  0  0  0  0
   -1.7558    2.1401    4.3392 H   0  0  0  0  0  0  0  0  0  0  0  0
   -2.8063    4.2736    3.6305 H   0  0  0  0  0  0  0  0  0  0  0  0
   -3.9438    4.4091    1.4538 H   0  0  0  0  0  0  0  0  0  0  0  0
   -6.2441    1.6147   -2.4885 H   0  0  0  0  0  0  0  0  0  0  0  0
   -6.9217   -0.6453   -3.1846 H   0  0  0  0  0  0  0  0  0  0  0  0
   -5.8365   -2.6288   -2.1697 H   0  0  0  0  0  0  0  0  0  0  0  0
   -4.1075   -2.3602   -0.4753 H   0  0  0  0  0  0  0  0  0  0  0  0
    3.8728   -2.8924    0.2924 H   0  0  0  0  0  0  0  0  0  0  0  0
    3.2557   -2.2010    1.8376 H   0  0  0  0  0  0  0  0  0  0  0  0
    2.3388   -4.4249    2.0831 H   0  0  0  0  0  0  0  0  0  0  0  0
    2.3690   -4.6791    0.3315 H   0  0  0  0  0  0  0  0  0  0  0  0
    0.2258   -3.2359    1.9301 H   0  0  0  0  0  0  0  0  0  0  0  0
    0.0544   -4.1848    0.3972 H   0  0  0  0  0  0  0  0  0  0  0  0
    2.3284    1.7719   -2.0032 H   0  0  0  0  0  0  0  0  0  0  0  0
    4.2464    3.2254   -2.3825 H   0  0  0  0  0  0  0  0  0  0  0  0
  1  2  1  0
  2  3  2  0
  3  4  1  0
  4  5  2  0
  5  6  1  0
  6  7  2  0
  7  8  1  0
  8  9  1  0
  9 10  1  0
 10 11  2  0
 10 12  1  0
 12 13  1  0
 13 14  2  0
 14 15  1  0
 15 16  2  0
 16 17  1  0
 17 18  2  0
 18 19  1  0
 19 20  1  0
 20 21  2  0
 21 22  1  0
 22 23  2  0
 23 24  1  0
 24 25  2  0
  8 26  2  0
 26 27  1  0
 27 28  1  0
 28 29  1  0
 29 30  1  0
  5 31  1  0
 31 32  2  0
 32  2  1  0
 27  6  1  0
 25 12  1  0
 30 26  1  0
 18 13  1  0
 25 20  1  0
  1 33  1  0
  1 34  1  0
  1 35  1  0
  3 36  1  0
  4 37  1  0
  7 38  1  0
  9 39  1  0
  9 40  1  0
 14 41  1  0
 15 42  1  0
 16 43  1  0
 17 44  1  0
 21 45  1  0
 22 46  1  0
 23 47  1  0
 24 48  1  0
 28 49  1  0
 28 50  1  0
 29 51  1  0
 29 52  1  0
 30 53  1  0
 30 54  1  0
 31 55  1  0
 32 56  1  0
M  CHG  1   8   1
M  END
$$$$
