
     RDKit          3D

 51 53  0  0  0  0  0  0  0  0999 V2000
    4.8083   -2.5257   -1.5466 C   0  0  0  0  0  0  0  0  0  0  0  0
    4.4215   -1.7584   -0.4124 O   0  0  0  0  0  0  0  0  0  0  0  0
    3.0941   -1.4421   -0.2869 C   0  0  0  0  0  0  0  0  0  0  0  0
    2.1193   -1.7164   -1.2525 C   0  0  0  0  0  0  0  0  0  0  0  0
    0.7910   -1.3292   -1.0506 C   0  0  0  0  0  0  0  0  0  0  0  0
    0.4296   -0.6571    0.1165 C   0  0  0  0  0  0  0  0  0  0  0  0
   -0.9647   -0.2273    0.3493 C   0  0  0  0  0  0  0  0  0  0  0  0
   -1.9011   -0.4656   -0.5140 N   0  0  0  0  0  0  0  0  0  0  0  0
   -3.1777   -0.0780   -0.1940 N   0  0  0  0  0  0  0  0  0  0  0  0
   -3.7571   -0.1535    1.0671 C   0  0  0  0  0  0  0  0  0  0  0  0
   -3.1543   -0.4440    2.0995 O   0  0  0  0  0  0  0  0  0  0  0  0
   -5.2285    0.1519    1.1503 C   0  0  0  0  0  0  0  0  0  0  0  0
   -5.7498    0.3361    2.4462 C   0  0  0  0  0  0  0  0  0  0  0  0
   -7.0976    0.6297    2.6456 C   0  0  0  0  0  0  0  0  0  0  0  0
   -7.9450    0.7423    1.5512 C   0  0  0  0  0  0  0  0  0  0  0  0
   -7.4489    0.5571    0.2581 C   0  0  0  0  0  0  0  0  0  0  0  0
   -6.0950    0.2569    0.0406 C   0  0  0  0  0  0  0  0  0  0  0  0
   -5.5622    0.0527   -1.2077 O   0  0  0  0  0  0  0  0  0  0  0  0
   -6.4468    0.0689   -2.3238 C   0  0  0  0  0  0  0  0  0  0  0  0
    1.3919   -0.3792    1.0882 C   0  0  0  0  0  0  0  0  0  0  0  0
    2.7284   -0.7775    0.9001 C   0  0  0  0  0  0  0  0  0  0  0  0
    3.7454   -0.4408    1.9700 C   0  0  0  0  0  0  0  0  0  0  0  0
    4.0817    0.9566    1.9508 O   0  0  0  0  0  0  0  0  0  0  0  0
    4.9384    1.2810    0.9319 C   0  0  0  0  0  0  0  0  0  0  0  0
    6.2480    0.8027    0.8743 C   0  0  0  0  0  0  0  0  0  0  0  0
    6.7188   -0.0019    1.8384 F   0  0  0  0  0  0  0  0  0  0  0  0
    7.0811    1.1662   -0.1782 C   0  0  0  0  0  0  0  0  0  0  0  0
    8.3339    0.6927   -0.2349 F   0  0  0  0  0  0  0  0  0  0  0  0
    6.6185    2.0237   -1.1675 C   0  0  0  0  0  0  0  0  0  0  0  0
    7.4228    2.3712   -2.1821 F   0  0  0  0  0  0  0  0  0  0  0  0
    5.3267    2.5282   -1.1014 C   0  0  0  0  0  0  0  0  0  0  0  0
    4.8859    3.3656   -2.0507 F   0  0  0  0  0  0  0  0  0  0  0  0
    4.4919    2.1657   -0.0505 C   0  0  0  0  0  0  0  0  0  0  0  0
    3.2466    2.6607    0.0058 F   0  0  0  0  0  0  0  0  0  0  0  0
    5.8790   -2.7334   -1.4582 H   0  0  0  0  0  0  0  0  0  0  0  0
    4.2835   -3.4862   -1.5737 H   0  0  0  0  0  0  0  0  0  0  0  0
    4.6548   -1.9615   -2.4722 H   0  0  0  0  0  0  0  0  0  0  0  0
    2.3566   -2.2251   -2.1812 H   0  0  0  0  0  0  0  0  0  0  0  0
    0.0449   -1.5494   -1.8108 H   0  0  0  0  0  0  0  0  0  0  0  0
   -1.1433    0.3307    1.2842 H   0  0  0  0  0  0  0  0  0  0  0  0
   -3.8142   -0.0641   -0.9887 H   0  0  0  0  0  0  0  0  0  0  0  0
   -5.0979    0.2527    3.3151 H   0  0  0  0  0  0  0  0  0  0  0  0
   -7.4803    0.7698    3.6536 H   0  0  0  0  0  0  0  0  0  0  0  0
   -8.9973    0.9729    1.7015 H   0  0  0  0  0  0  0  0  0  0  0  0
   -8.1539    0.6553   -0.5615 H   0  0  0  0  0  0  0  0  0  0  0  0
   -5.8566   -0.1523   -3.2183 H   0  0  0  0  0  0  0  0  0  0  0  0
   -6.8929    1.0597   -2.4568 H   0  0  0  0  0  0  0  0  0  0  0  0
   -7.2143   -0.7065   -2.2318 H   0  0  0  0  0  0  0  0  0  0  0  0
    1.1121    0.1523    1.9959 H   0  0  0  0  0  0  0  0  0  0  0  0
    3.2948   -0.6417    2.9503 H   0  0  0  0  0  0  0  0  0  0  0  0
    4.6300   -1.0862    1.9316 H   0  0  0  0  0  0  0  0  0  0  0  0
  1  2  1  0
  2  3  1  0
  3  4  2  0
  4  5  1  0
  5  6  2  0
  6  7  1  0
  7  8  2  3
  8  9  1  0
  9 10  1  0
 10 11  2  0
 10 12  1  0
 12 13  2  0
 13 14  1  0
 14 15  2  0
 15 16  1  0
 16 17  2  0
 17 18  1  0
 18 19  1  0
  6 20  1  0
 20 21  2  0
 21 22  1  0
 22 23  1  0
 23 24  1  0
 24 25  2  0
 25 26  1  0
 25 27  1  0
 27 28  1  0
 27 29  2  0
 29 30  1  0
 29 31  1  0
 31 32  1  0
 31 33  2  0
 33 34  1  0
 21  3  1  0
 33 24  1  0
 17 12  1  0
  1 35  1  0
  1 36  1  0
  1 37  1  0
  4 38  1  0
  5 39  1  0
  7 40  1  0
  9 41  1  0
 13 42  1  0
 14 43  1  0
 15 44  1  0
 16 45  1  0
 19 46  1  0
 19 47  1  0
 19 48  1  0
 20 49  1  0
 22 50  1  0
 22 51  1  0
M  END
$$$$
