
     RDKit          3D

 41 43  0  0  0  0  0  0  0  0999 V2000
   -5.5232   -0.7168    0.6129 C   0  0  0  0  0  0  0  0  0  0  0  0
   -4.0666   -0.6064    0.9530 C   0  0  0  0  0  0  0  0  0  0  0  0
   -3.5022   -1.4228    1.9338 C   0  0  0  0  0  0  0  0  0  0  0  0
   -2.1534   -1.2928    2.2760 C   0  0  0  0  0  0  0  0  0  0  0  0
   -1.3278   -0.3412    1.6518 C   0  0  0  0  0  0  0  0  0  0  0  0
    0.1081   -0.2622    2.0883 C   0  0  0  0  0  0  0  0  0  0  0  0
   -1.9028    0.4883    0.6709 C   0  0  0  0  0  0  0  0  0  0  0  0
   -0.9952    1.7628   -0.1926 S   0  0  0  0  0  6  0  0  0  0  0  0
   -1.9267    2.8357   -0.4815 O   0  0  0  0  0  0  0  0  0  0  0  0
    0.2481    2.0585    0.4861 O   0  0  0  0  0  0  0  0  0  0  0  0
   -0.6694    1.0328   -1.6878 N   0  0  0  0  0  0  0  0  0  0  0  0
    0.3525    0.0477   -1.7369 C   0  0  0  0  0  0  0  0  0  0  0  0
   -0.0007   -1.2995   -1.6735 C   0  0  0  0  0  0  0  0  0  0  0  0
    0.9948   -2.2755   -1.6529 C   0  0  0  0  0  0  0  0  0  0  0  0
    2.3341   -1.8945   -1.6716 C   0  0  0  0  0  0  0  0  0  0  0  0
    3.2631   -2.8975   -1.6146 O   0  0  0  0  0  0  0  0  0  0  0  0
    2.7006   -0.5436   -1.7277 C   0  0  0  0  0  0  0  0  0  0  0  0
    4.4235   -0.0594   -1.6920 S   0  0  0  0  0  0  0  0  0  0  0  0
    4.4103    1.0678   -0.3575 C   0  0  0  0  0  0  0  0  0  0  0  0
    4.8048    2.3712   -0.4890 N   0  0  0  0  0  0  0  0  0  0  0  0
    4.5188    2.8836    0.6850 C   0  0  0  0  0  0  0  0  0  0  0  0
    3.9817    1.9227    1.4815 N   0  0  0  0  0  0  0  0  0  0  0  0
    3.9382    0.7391    0.8500 N   0  0  0  0  0  0  0  0  0  0  0  0
    1.6927    0.4279   -1.7876 C   0  0  0  0  0  0  0  0  0  0  0  0
   -3.2642    0.3590    0.3367 C   0  0  0  0  0  0  0  0  0  0  0  0
   -5.8789   -1.7438    0.7471 H   0  0  0  0  0  0  0  0  0  0  0  0
   -5.7015   -0.4460   -0.4331 H   0  0  0  0  0  0  0  0  0  0  0  0
   -6.1089   -0.0525    1.2557 H   0  0  0  0  0  0  0  0  0  0  0  0
   -4.1092   -2.1676    2.4450 H   0  0  0  0  0  0  0  0  0  0  0  0
   -1.7492   -1.9482    3.0463 H   0  0  0  0  0  0  0  0  0  0  0  0
    0.7859   -0.3424    1.2352 H   0  0  0  0  0  0  0  0  0  0  0  0
    0.2903    0.6688    2.6334 H   0  0  0  0  0  0  0  0  0  0  0  0
    0.3653   -1.0860    2.7637 H   0  0  0  0  0  0  0  0  0  0  0  0
   -0.6962    1.7227   -2.4380 H   0  0  0  0  0  0  0  0  0  0  0  0
   -1.0453   -1.5966   -1.6337 H   0  0  0  0  0  0  0  0  0  0  0  0
    0.7299   -3.3280   -1.6020 H   0  0  0  0  0  0  0  0  0  0  0  0
    4.1379   -2.4697   -1.5600 H   0  0  0  0  0  0  0  0  0  0  0  0
    4.6618    3.9072    1.0003 H   0  0  0  0  0  0  0  0  0  0  0  0
    3.6304    1.9971    2.4297 H   0  0  0  0  0  0  0  0  0  0  0  0
    1.9513    1.4835   -1.8229 H   0  0  0  0  0  0  0  0  0  0  0  0
   -3.7029    1.0166   -0.4131 H   0  0  0  0  0  0  0  0  0  0  0  0
  1  2  1  0
  2  3  2  0
  3  4  1  0
  4  5  2  0
  5  6  1  0
  5  7  1  0
  7  8  1  0
  8  9  2  0
  8 10  2  0
  8 11  1  0
 11 12  1  0
 12 13  2  0
 13 14  1  0
 14 15  2  0
 15 16  1  0
 15 17  1  0
 17 18  1  0
 18 19  1  0
 19 20  1  0
 20 21  2  0
 21 22  1  0
 22 23  1  0
 17 24  2  0
  7 25  2  0
 25  2  1  0
 24 12  1  0
 23 19  2  0
  1 26  1  0
  1 27  1  0
  1 28  1  0
  3 29  1  0
  4 30  1  0
  6 31  1  0
  6 32  1  0
  6 33  1  0
 11 34  1  0
 13 35  1  0
 14 36  1  0
 16 37  1  0
 21 38  1  0
 22 39  1  0
 24 40  1  0
 25 41  1  0
M  END
$$$$
