
     RDKit          3D

 57 59  0  0  0  0  0  0  0  0999 V2000
    1.8208    2.1618    1.9353 C   0  0  0  0  0  0  0  0  0  0  0  0
    2.9646    1.4345    1.2365 C   0  0  0  0  0  0  0  0  0  0  0  0
    4.5630    2.1875    1.7369 S   0  0  0  0  0  0  0  0  0  0  0  0
    5.7203    1.0083    0.9575 C   0  0  0  0  0  0  0  0  0  0  0  0
    5.6969   -0.3567    1.5939 C   0  0  0  0  0  0  0  0  0  0  0  0
    5.1678   -1.4571    0.9028 C   0  0  0  0  0  0  0  0  0  0  0  0
    5.1491   -2.7222    1.4930 C   0  0  0  0  0  0  0  0  0  0  0  0
    5.6575   -2.9022    2.7785 C   0  0  0  0  0  0  0  0  0  0  0  0
    6.1861   -1.8173    3.4753 C   0  0  0  0  0  0  0  0  0  0  0  0
    6.2071   -0.5515    2.8866 C   0  0  0  0  0  0  0  0  0  0  0  0
    2.8096    1.4935   -0.2834 C   0  0  0  0  0  0  0  0  0  0  0  0
    2.6950    0.4703   -0.9587 O   0  0  0  0  0  0  0  0  0  0  0  0
    2.8171    2.7978   -0.7901 N   0  0  0  0  0  0  0  0  0  0  0  0
    2.8969    3.0199   -2.1400 N   0  0  0  0  0  0  0  0  0  0  0  0
    1.9206    2.6190   -2.9043 C   0  0  0  0  0  0  0  0  0  0  0  0
    0.5801    2.1185   -2.5336 C   0  0  0  0  0  0  0  0  0  0  0  0
    0.0105    1.1128   -3.3177 C   0  0  0  0  0  0  0  0  0  0  0  0
   -1.2673    0.6277   -3.0161 C   0  0  0  0  0  0  0  0  0  0  0  0
   -1.9831    1.1586   -1.9414 C   0  0  0  0  0  0  0  0  0  0  0  0
   -3.2273    0.7671   -1.5332 O   0  0  0  0  0  0  0  0  0  0  0  0
   -3.9354   -0.1221   -2.3914 C   0  0  0  0  0  0  0  0  0  0  0  0
   -5.3395   -0.3928   -1.8508 C   0  0  0  0  0  0  0  0  0  0  0  0
   -6.2430   -0.8158   -2.5681 O   0  0  0  0  0  0  0  0  0  0  0  0
   -5.4853   -0.1685   -0.5019 N   0  0  0  0  0  0  0  0  0  0  0  0
   -6.6850   -0.5262    0.2147 C   0  0  0  0  0  0  0  0  0  0  0  0
   -6.5578   -1.9275    0.6841 C   0  0  0  0  0  0  0  0  0  0  0  0
   -6.8914   -3.1430    0.1218 C   0  0  0  0  0  0  0  0  0  0  0  0
   -6.5177   -4.1335    1.0599 C   0  0  0  0  0  0  0  0  0  0  0  0
   -5.9767   -3.4621    2.1312 C   0  0  0  0  0  0  0  0  0  0  0  0
   -5.9931   -2.1210    1.9125 O   0  0  0  0  0  0  0  0  0  0  0  0
   -1.4149    2.1805   -1.1750 C   0  0  0  0  0  0  0  0  0  0  0  0
   -0.1415    2.6702   -1.4737 C   0  0  0  0  0  0  0  0  0  0  0  0
    1.7936    3.2314    1.6962 H   0  0  0  0  0  0  0  0  0  0  0  0
    1.8922    2.0558    3.0249 H   0  0  0  0  0  0  0  0  0  0  0  0
    0.8568    1.7390    1.6246 H   0  0  0  0  0  0  0  0  0  0  0  0
    2.9423    0.3877    1.5501 H   0  0  0  0  0  0  0  0  0  0  0  0
    5.5218    0.9514   -0.1172 H   0  0  0  0  0  0  0  0  0  0  0  0
    6.7304    1.4210    1.0536 H   0  0  0  0  0  0  0  0  0  0  0  0
    4.7606   -1.3365   -0.1003 H   0  0  0  0  0  0  0  0  0  0  0  0
    4.7359   -3.5685    0.9488 H   0  0  0  0  0  0  0  0  0  0  0  0
    5.6405   -3.8878    3.2373 H   0  0  0  0  0  0  0  0  0  0  0  0
    6.5823   -1.9562    4.4781 H   0  0  0  0  0  0  0  0  0  0  0  0
    6.6211    0.2869    3.4444 H   0  0  0  0  0  0  0  0  0  0  0  0
    3.4057    3.4317   -0.2503 H   0  0  0  0  0  0  0  0  0  0  0  0
    2.1016    2.6865   -3.9913 H   0  0  0  0  0  0  0  0  0  0  0  0
    0.5641    0.6813   -4.1484 H   0  0  0  0  0  0  0  0  0  0  0  0
   -1.6659   -0.1703   -3.6350 H   0  0  0  0  0  0  0  0  0  0  0  0
   -3.4226   -1.0882   -2.4487 H   0  0  0  0  0  0  0  0  0  0  0  0
   -4.0483    0.3239   -3.3858 H   0  0  0  0  0  0  0  0  0  0  0  0
   -4.6462    0.0255    0.0325 H   0  0  0  0  0  0  0  0  0  0  0  0
   -7.5615   -0.4114   -0.4338 H   0  0  0  0  0  0  0  0  0  0  0  0
   -6.7840    0.1625    1.0597 H   0  0  0  0  0  0  0  0  0  0  0  0
   -7.3436   -3.2835   -0.8509 H   0  0  0  0  0  0  0  0  0  0  0  0
   -6.6255   -5.2047    0.9658 H   0  0  0  0  0  0  0  0  0  0  0  0
   -5.5550   -3.7762    3.0761 H   0  0  0  0  0  0  0  0  0  0  0  0
   -1.9718    2.6062   -0.3434 H   0  0  0  0  0  0  0  0  0  0  0  0
    0.2712    3.4837   -0.8832 H   0  0  0  0  0  0  0  0  0  0  0  0
  1  2  1  0
  2  3  1  0
  3  4  1  0
  4  5  1  0
  5  6  2  0
  6  7  1  0
  7  8  2  0
  8  9  1  0
  9 10  2  0
  2 11  1  0
 11 12  2  0
 11 13  1  0
 13 14  1  0
 14 15  2  3
 15 16  1  0
 16 17  2  0
 17 18  1  0
 18 19  2  0
 19 20  1  0
 20 21  1  0
 21 22  1  0
 22 23  2  0
 22 24  1  0
 24 25  1  0
 25 26  1  0
 26 27  2  0
 27 28  1  0
 28 29  2  0
 29 30  1  0
 19 31  1  0
 31 32  2  0
 10  5  1  0
 32 16  1  0
 30 26  1  0
  1 33  1  0
  1 34  1  0
  1 35  1  0
  2 36  1  0
  4 37  1  0
  4 38  1  0
  6 39  1  0
  7 40  1  0
  8 41  1  0
  9 42  1  0
 10 43  1  0
 13 44  1  0
 15 45  1  0
 17 46  1  0
 18 47  1  0
 21 48  1  0
 21 49  1  0
 24 50  1  0
 25 51  1  0
 25 52  1  0
 27 53  1  0
 28 54  1  0
 29 55  1  0
 31 56  1  0
 32 57  1  0
M  END
$$$$
