
     RDKit          3D

 72 77  0  0  0  0  0  0  0  0999 V2000
   -3.5450   -0.6199    2.0190 O   0  0  0  0  0  0  0  0  0  0  0  0
   -3.5039    0.1483    1.0514 C   0  0  0  0  0  0  0  0  0  0  0  0
   -4.7927    0.5885    0.3148 C   0  0  0  0  0  0  0  0  0  0  0  0
   -5.9514    0.8571    1.2804 C   0  0  0  0  0  0  0  0  0  0  0  0
   -6.3666    2.1782    1.5257 C   0  0  0  0  0  0  0  0  0  0  0  0
   -7.4216    2.4436    2.4014 C   0  0  0  0  0  0  0  0  0  0  0  0
   -8.0742    1.3961    3.0465 C   0  0  0  0  0  0  0  0  0  0  0  0
   -7.6717    0.0824    2.8189 C   0  0  0  0  0  0  0  0  0  0  0  0
   -6.6169   -0.1862    1.9438 C   0  0  0  0  0  0  0  0  0  0  0  0
   -5.1861   -0.3445   -0.8334 C   0  0  0  0  0  0  0  0  0  0  0  0
   -4.8666   -1.7117   -0.8376 C   0  0  0  0  0  0  0  0  0  0  0  0
   -5.2551   -2.5329   -1.8977 C   0  0  0  0  0  0  0  0  0  0  0  0
   -5.9779   -2.0039   -2.9638 C   0  0  0  0  0  0  0  0  0  0  0  0
   -6.3167   -0.6532   -2.9692 C   0  0  0  0  0  0  0  0  0  0  0  0
   -5.9277    0.1687   -1.9104 C   0  0  0  0  0  0  0  0  0  0  0  0
   -2.2860    0.6575    0.5957 N   0  0  0  0  0  0  0  0  0  0  0  0
   -1.0665    0.2716    1.3062 C   0  0  0  0  0  0  0  0  0  0  0  0
   -0.3290   -0.8607    0.5597 C   0  0  0  0  0  0  0  0  0  0  0  0
   -0.0307   -0.4928   -0.8473 N   0  0  0  0  0  0  0  0  0  0  0  0
    0.6314   -1.5797   -1.5953 C   0  0  0  0  0  0  0  0  0  0  0  0
    2.0448   -1.9949   -1.1162 C   0  0  0  0  0  0  0  0  0  0  0  0
    1.9873   -2.7991    0.0765 O   0  0  0  0  0  0  0  0  0  0  0  0
    2.9780   -0.7930   -0.8861 C   0  0  0  0  0  0  0  0  0  0  0  0
    4.2993   -1.2893   -0.5068 N   0  0  0  0  0  0  0  0  0  0  0  0
    5.3435   -0.4278   -0.2521 C   0  0  0  0  0  0  0  0  0  0  0  0
    5.3232    0.7859   -0.7358 N   0  0  0  0  0  0  0  0  0  0  0  0
    6.3840    1.6751   -0.4667 C   0  0  0  0  0  0  0  0  0  0  0  0
    6.3226    2.9636   -1.0018 C   0  0  0  0  0  0  0  0  0  0  0  0
    7.3436    3.8872   -0.7593 C   0  0  0  0  0  0  0  0  0  0  0  0
    8.4420    3.5281    0.0230 C   0  0  0  0  0  0  0  0  0  0  0  0
    8.5257    2.2459    0.5671 C   0  0  0  0  0  0  0  0  0  0  0  0
    7.4970    1.3333    0.3165 C   0  0  0  0  0  0  0  0  0  0  0  0
    7.5036    0.0234    0.8224 N   0  0  0  0  0  0  0  0  0  0  0  0
    8.4331   -0.6092    1.6119 C   0  0  0  0  0  0  0  0  0  0  0  0
    7.9998   -1.8977    1.8402 C   0  0  0  0  0  0  0  0  0  0  0  0
    6.7641   -2.0507    1.1691 C   0  0  0  0  0  0  0  0  0  0  0  0
    6.4729   -0.8471    0.5535 C   0  0  0  0  0  0  0  0  0  0  0  0
   -1.2797   -0.0848   -1.5364 C   0  0  0  0  0  0  0  0  0  0  0  0
   -2.0197    1.0484   -0.7921 C   0  0  0  0  0  0  0  0  0  0  0  0
   -4.5631    1.5624   -0.1371 H   0  0  0  0  0  0  0  0  0  0  0  0
   -5.8712    3.0149    1.0379 H   0  0  0  0  0  0  0  0  0  0  0  0
   -7.7310    3.4696    2.5844 H   0  0  0  0  0  0  0  0  0  0  0  0
   -8.8927    1.6026    3.7312 H   0  0  0  0  0  0  0  0  0  0  0  0
   -8.1727   -0.7364    3.3279 H   0  0  0  0  0  0  0  0  0  0  0  0
   -6.3112   -1.2196    1.7929 H   0  0  0  0  0  0  0  0  0  0  0  0
   -4.3207   -2.1598   -0.0098 H   0  0  0  0  0  0  0  0  0  0  0  0
   -5.0039   -3.5910   -1.8830 H   0  0  0  0  0  0  0  0  0  0  0  0
   -6.2892   -2.6473   -3.7820 H   0  0  0  0  0  0  0  0  0  0  0  0
   -6.8955   -0.2396   -3.7908 H   0  0  0  0  0  0  0  0  0  0  0  0
   -6.2187    1.2171   -1.9247 H   0  0  0  0  0  0  0  0  0  0  0  0
   -1.2897   -0.0396    2.3328 H   0  0  0  0  0  0  0  0  0  0  0  0
   -0.4270    1.1608    1.3683 H   0  0  0  0  0  0  0  0  0  0  0  0
   -0.9366   -1.7736    0.5903 H   0  0  0  0  0  0  0  0  0  0  0  0
    0.5974   -1.0536    1.1085 H   0  0  0  0  0  0  0  0  0  0  0  0
    0.7439   -1.2496   -2.6368 H   0  0  0  0  0  0  0  0  0  0  0  0
   -0.0148   -2.4672   -1.6057 H   0  0  0  0  0  0  0  0  0  0  0  0
    2.4875   -2.6387   -1.8876 H   0  0  0  0  0  0  0  0  0  0  0  0
    1.3830   -3.5411   -0.1039 H   0  0  0  0  0  0  0  0  0  0  0  0
    3.0424   -0.1876   -1.7983 H   0  0  0  0  0  0  0  0  0  0  0  0
    2.6008   -0.1676   -0.0684 H   0  0  0  0  0  0  0  0  0  0  0  0
    4.2208   -2.0607    0.1513 H   0  0  0  0  0  0  0  0  0  0  0  0
    5.4677    3.2440   -1.6114 H   0  0  0  0  0  0  0  0  0  0  0  0
    7.2809    4.8874   -1.1815 H   0  0  0  0  0  0  0  0  0  0  0  0
    9.2347    4.2491    0.2065 H   0  0  0  0  0  0  0  0  0  0  0  0
    9.3899    1.9892    1.1705 H   0  0  0  0  0  0  0  0  0  0  0  0
    9.3269   -0.1088    1.9529 H   0  0  0  0  0  0  0  0  0  0  0  0
    8.5176   -2.6443    2.4275 H   0  0  0  0  0  0  0  0  0  0  0  0
    6.1548   -2.9438    1.1418 H   0  0  0  0  0  0  0  0  0  0  0  0
   -1.0435    0.2682   -2.5468 H   0  0  0  0  0  0  0  0  0  0  0  0
   -1.9501   -0.9481   -1.6356 H   0  0  0  0  0  0  0  0  0  0  0  0
   -2.9305    1.2982   -1.3375 H   0  0  0  0  0  0  0  0  0  0  0  0
   -1.3961    1.9505   -0.7642 H   0  0  0  0  0  0  0  0  0  0  0  0
  1  2  2  0
  2  3  1  0
  3  4  1  0
  4  5  2  0
  5  6  1  0
  6  7  2  0
  7  8  1  0
  8  9  2  0
  3 10  1  0
 10 11  2  0
 11 12  1  0
 12 13  2  0
 13 14  1  0
 14 15  2  0
  2 16  1  0
 16 17  1  0
 17 18  1  0
 18 19  1  0
 19 20  1  0
 20 21  1  0
 21 22  1  0
 21 23  1  0
 23 24  1  0
 24 25  1  0
 25 26  2  0
 26 27  1  0
 27 28  2  0
 28 29  1  0
 29 30  2  0
 30 31  1  0
 31 32  2  0
 32 33  1  0
 33 34  1  0
 34 35  2  0
 35 36  1  0
 36 37  2  0
 19 38  1  0
 38 39  1  0
  9  4  1  0
 15 10  1  0
 39 16  1  0
 37 25  1  0
 32 27  1  0
 37 33  1  0
  3 40  1  0
  5 41  1  0
  6 42  1  0
  7 43  1  0
  8 44  1  0
  9 45  1  0
 11 46  1  0
 12 47  1  0
 13 48  1  0
 14 49  1  0
 15 50  1  0
 17 51  1  0
 17 52  1  0
 18 53  1  0
 18 54  1  0
 20 55  1  0
 20 56  1  0
 21 57  1  0
 22 58  1  0
 23 59  1  0
 23 60  1  0
 24 61  1  0
 28 62  1  0
 29 63  1  0
 30 64  1  0
 31 65  1  0
 34 66  1  0
 35 67  1  0
 36 68  1  0
 38 69  1  0
 38 70  1  0
 39 71  1  0
 39 72  1  0
M  END
$$$$
