
     RDKit          3D

 49 53  0  0  0  0  0  0  0  0999 V2000
    6.2368    0.6860    2.4666 C   0  0  0  0  0  0  0  0  0  0  0  0
    5.1503    0.6650    1.4374 C   0  0  0  0  0  0  0  0  0  0  0  0
    5.4796    1.2414   -0.1341 S   0  0  0  0  0  0  0  0  0  0  0  0
    3.8949    0.9352   -0.6579 C   0  0  0  0  0  0  0  0  0  0  0  0
    3.5474    1.2252   -1.9237 N   0  0  0  0  0  0  0  0  0  0  0  0
    2.2736    0.9423   -2.1856 C   0  0  0  0  0  0  0  0  0  0  0  0
    1.3754    0.4153   -1.3485 N   0  0  0  0  0  0  0  0  0  0  0  0
    1.7666    0.1221   -0.0921 C   0  0  0  0  0  0  0  0  0  0  0  0
    0.5570   -0.5504    1.0053 S   0  0  0  0  0  0  0  0  0  0  0  0
   -0.2500   -1.8321   -0.0425 C   0  0  0  0  0  0  0  0  0  0  0  0
    0.7651   -2.8130   -0.6294 C   0  0  0  0  0  0  0  0  0  0  0  0
   -1.1697   -1.2160   -1.1241 C   0  0  0  0  0  0  0  0  0  0  0  0
   -1.0696   -1.5398   -2.3117 O   0  0  0  0  0  0  0  0  0  0  0  0
   -2.1442   -0.3234   -0.6376 N   0  0  0  0  0  0  0  0  0  0  0  0
   -2.2681    1.0087   -1.1841 C   0  0  0  0  0  0  0  0  0  0  0  0
   -1.6412    1.3497   -2.3989 C   0  0  0  0  0  0  0  0  0  0  0  0
   -1.7347    2.6328   -2.9524 C   0  0  0  0  0  0  0  0  0  0  0  0
   -2.4484    3.6213   -2.2951 C   0  0  0  0  0  0  0  0  0  0  0  0
   -3.0568    3.3231   -1.0807 C   0  0  0  0  0  0  0  0  0  0  0  0
   -2.9658    2.0338   -0.5210 C   0  0  0  0  0  0  0  0  0  0  0  0
   -3.6821    1.8347    1.0909 S   0  0  0  0  0  0  0  0  0  0  0  0
   -3.8853    0.0786    1.1134 C   0  0  0  0  0  0  0  0  0  0  0  0
   -4.8327   -0.4359    2.0162 C   0  0  0  0  0  0  0  0  0  0  0  0
   -5.0727   -1.8056    2.1003 C   0  0  0  0  0  0  0  0  0  0  0  0
   -4.3791   -2.6701    1.2680 C   0  0  0  0  0  0  0  0  0  0  0  0
   -3.4309   -2.1645    0.3742 C   0  0  0  0  0  0  0  0  0  0  0  0
   -3.1384   -0.7844    0.2991 C   0  0  0  0  0  0  0  0  0  0  0  0
    3.0858    0.3846    0.3288 C   0  0  0  0  0  0  0  0  0  0  0  0
    3.8382    0.2237    1.5719 C   0  0  0  0  0  0  0  0  0  0  0  0
    3.2856   -0.3408    2.8467 C   0  0  0  0  0  0  0  0  0  0  0  0
    7.1645    1.1345    2.0929 H   0  0  0  0  0  0  0  0  0  0  0  0
    5.9199    1.2648    3.3396 H   0  0  0  0  0  0  0  0  0  0  0  0
    6.4665   -0.3357    2.7920 H   0  0  0  0  0  0  0  0  0  0  0  0
    1.9240    1.1633   -3.1904 H   0  0  0  0  0  0  0  0  0  0  0  0
   -0.8667   -2.4119    0.6486 H   0  0  0  0  0  0  0  0  0  0  0  0
    0.2429   -3.6498   -1.1091 H   0  0  0  0  0  0  0  0  0  0  0  0
    1.3940   -2.3572   -1.4015 H   0  0  0  0  0  0  0  0  0  0  0  0
    1.4133   -3.2340    0.1478 H   0  0  0  0  0  0  0  0  0  0  0  0
   -1.0712    0.6221   -2.9674 H   0  0  0  0  0  0  0  0  0  0  0  0
   -1.2432    2.8515   -3.8968 H   0  0  0  0  0  0  0  0  0  0  0  0
   -2.5198    4.6219   -2.7136 H   0  0  0  0  0  0  0  0  0  0  0  0
   -3.5923    4.1132   -0.5570 H   0  0  0  0  0  0  0  0  0  0  0  0
   -5.4004    0.2363    2.6577 H   0  0  0  0  0  0  0  0  0  0  0  0
   -5.8134   -2.1879    2.7981 H   0  0  0  0  0  0  0  0  0  0  0  0
   -4.5814   -3.7382    1.3002 H   0  0  0  0  0  0  0  0  0  0  0  0
   -2.9580   -2.8749   -0.3005 H   0  0  0  0  0  0  0  0  0  0  0  0
    4.0484   -0.4149    3.6299 H   0  0  0  0  0  0  0  0  0  0  0  0
    2.4869    0.3005    3.2322 H   0  0  0  0  0  0  0  0  0  0  0  0
    2.8993   -1.3511    2.6825 H   0  0  0  0  0  0  0  0  0  0  0  0
  1  2  1  0
  2  3  1  0
  3  4  1  0
  4  5  2  0
  5  6  1  0
  6  7  2  0
  7  8  1  0
  8  9  1  0
  9 10  1  0
 10 11  1  0
 10 12  1  0
 12 13  2  0
 12 14  1  0
 14 15  1  0
 15 16  2  0
 16 17  1  0
 17 18  2  0
 18 19  1  0
 19 20  2  0
 20 21  1  0
 21 22  1  0
 22 23  2  0
 23 24  1  0
 24 25  2  0
 25 26  1  0
 26 27  2  0
  8 28  2  0
 28 29  1  0
 29 30  1  0
 29  2  2  0
 28  4  1  0
 27 14  1  0
 20 15  1  0
 27 22  1  0
  1 31  1  0
  1 32  1  0
  1 33  1  0
  6 34  1  0
 10 35  1  0
 11 36  1  0
 11 37  1  0
 11 38  1  0
 16 39  1  0
 17 40  1  0
 18 41  1  0
 19 42  1  0
 23 43  1  0
 24 44  1  0
 25 45  1  0
 26 46  1  0
 30 47  1  0
 30 48  1  0
 30 49  1  0
M  END
$$$$
