
     RDKit          3D

 51 54  0  0  0  0  0  0  0  0999 V2000
   -3.7871   -4.3558    2.2816 C   0  0  0  0  0  0  0  0  0  0  0  0
   -2.3836   -4.3450    2.0501 O   0  0  0  0  0  0  0  0  0  0  0  0
   -1.7971   -3.1326    1.8093 C   0  0  0  0  0  0  0  0  0  0  0  0
   -2.4744   -1.9267    1.6552 C   0  0  0  0  0  0  0  0  0  0  0  0
   -1.7608   -0.7373    1.4093 C   0  0  0  0  0  0  0  0  0  0  0  0
   -2.5071    0.5181    1.2292 C   0  0  0  0  0  0  0  0  0  0  0  0
   -3.7216    0.5185    1.4153 O   0  0  0  0  0  0  0  0  0  0  0  0
   -1.7713    1.6367    0.8747 N   0  0  0  0  0  0  0  0  0  0  0  0
   -2.5045    2.8536    0.5558 C   0  0  0  0  0  0  0  0  0  0  0  0
   -2.6694    2.9570   -0.9217 C   0  0  0  0  0  0  0  0  0  0  0  0
   -1.8712    3.4586   -1.9311 C   0  0  0  0  0  0  0  0  0  0  0  0
   -2.5804    3.2568   -3.1385 C   0  0  0  0  0  0  0  0  0  0  0  0
   -3.7657    2.6511   -2.7899 C   0  0  0  0  0  0  0  0  0  0  0  0
   -3.8306    2.4683   -1.4469 O   0  0  0  0  0  0  0  0  0  0  0  0
   -0.3883    1.6898    0.8291 C   0  0  0  0  0  0  0  0  0  0  0  0
    0.2174    2.7347    0.5719 O   0  0  0  0  0  0  0  0  0  0  0  0
    0.3012    0.5124    1.1022 N   0  0  0  0  0  0  0  0  0  0  0  0
    1.7632    0.5794    1.0237 C   0  0  0  0  0  0  0  0  0  0  0  0
    2.2492    0.2940   -0.3972 C   0  0  0  0  0  0  0  0  0  0  0  0
    1.6768   -0.4980   -1.1464 O   0  0  0  0  0  0  0  0  0  0  0  0
    3.4861    0.9694   -0.8870 C   0  0  0  0  0  0  0  0  0  0  0  0
    4.4313    1.5294   -0.0172 C   0  0  0  0  0  0  0  0  0  0  0  0
    5.5781    2.1434   -0.5308 C   0  0  0  0  0  0  0  0  0  0  0  0
    5.7900    2.1949   -1.9097 C   0  0  0  0  0  0  0  0  0  0  0  0
    4.8540    1.6300   -2.7739 C   0  0  0  0  0  0  0  0  0  0  0  0
    5.1445    1.6951   -4.6422 Br  0  0  0  0  0  0  0  0  0  0  0  0
    3.7065    1.0172   -2.2721 C   0  0  0  0  0  0  0  0  0  0  0  0
   -0.3688   -0.7207    1.3283 C   0  0  0  0  0  0  0  0  0  0  0  0
    0.3074   -1.9377    1.4755 C   0  0  0  0  0  0  0  0  0  0  0  0
   -0.4026   -3.1248    1.6921 C   0  0  0  0  0  0  0  0  0  0  0  0
    0.3204   -4.2829    1.8474 O   0  0  0  0  0  0  0  0  0  0  0  0
    0.4663   -4.9315    0.5829 C   0  0  0  0  0  0  0  0  0  0  0  0
   -4.0518   -3.7317    3.1420 H   0  0  0  0  0  0  0  0  0  0  0  0
   -4.0797   -5.3843    2.5144 H   0  0  0  0  0  0  0  0  0  0  0  0
   -4.3356   -4.0491    1.3848 H   0  0  0  0  0  0  0  0  0  0  0  0
   -3.5582   -1.8774    1.7110 H   0  0  0  0  0  0  0  0  0  0  0  0
   -3.4852    2.8580    1.0430 H   0  0  0  0  0  0  0  0  0  0  0  0
   -1.9602    3.7287    0.9292 H   0  0  0  0  0  0  0  0  0  0  0  0
   -0.8921    3.9034   -1.8043 H   0  0  0  0  0  0  0  0  0  0  0  0
   -2.2664    3.5166   -4.1394 H   0  0  0  0  0  0  0  0  0  0  0  0
   -4.6233    2.3032   -3.3484 H   0  0  0  0  0  0  0  0  0  0  0  0
    2.2316   -0.1142    1.7275 H   0  0  0  0  0  0  0  0  0  0  0  0
    2.0763    1.5836    1.3265 H   0  0  0  0  0  0  0  0  0  0  0  0
    4.3115    1.4932    1.0627 H   0  0  0  0  0  0  0  0  0  0  0  0
    6.3111    2.5797    0.1450 H   0  0  0  0  0  0  0  0  0  0  0  0
    6.6858    2.6734   -2.2995 H   0  0  0  0  0  0  0  0  0  0  0  0
    2.9810    0.5770   -2.9546 H   0  0  0  0  0  0  0  0  0  0  0  0
    1.3863   -2.0161    1.4010 H   0  0  0  0  0  0  0  0  0  0  0  0
    1.1773   -4.3811   -0.0448 H   0  0  0  0  0  0  0  0  0  0  0  0
    0.8746   -5.9306    0.7664 H   0  0  0  0  0  0  0  0  0  0  0  0
   -0.4910   -5.0474    0.0614 H   0  0  0  0  0  0  0  0  0  0  0  0
  1  2  1  0
  2  3  1  0
  3  4  2  0
  4  5  1  0
  5  6  1  0
  6  7  2  0
  6  8  1  0
  8  9  1  0
  9 10  1  0
 10 11  2  0
 11 12  1  0
 12 13  2  0
 13 14  1  0
  8 15  1  0
 15 16  2  0
 15 17  1  0
 17 18  1  0
 18 19  1  0
 19 20  2  0
 19 21  1  0
 21 22  2  0
 22 23  1  0
 23 24  2  0
 24 25  1  0
 25 26  1  0
 25 27  2  0
 17 28  1  0
 28 29  1  0
 29 30  2  0
 30 31  1  0
 31 32  1  0
 30  3  1  0
 28  5  2  0
 14 10  1  0
 27 21  1  0
  1 33  1  0
  1 34  1  0
  1 35  1  0
  4 36  1  0
  9 37  1  0
  9 38  1  0
 11 39  1  0
 12 40  1  0
 13 41  1  0
 18 42  1  0
 18 43  1  0
 22 44  1  0
 23 45  1  0
 24 46  1  0
 27 47  1  0
 29 48  1  0
 32 49  1  0
 32 50  1  0
 32 51  1  0
M  END
$$$$
