
     RDKit          3D

 28 30  0  0  0  0  0  0  0  0999 V2000
   -0.1985    3.3076   -0.9468 O   0  0  0  0  0  0  0  0  0  0  0  0
    0.0452    2.1037   -0.8065 C   0  0  0  0  0  0  0  0  0  0  0  0
   -1.0220    1.0948   -1.0778 C   0  0  0  0  0  0  0  0  0  0  0  0
   -1.1402    0.1055    0.0620 C   0  0  0  0  0  0  0  0  0  0  0  0
   -2.5718   -0.3343    0.2995 C   0  0  0  0  0  0  0  0  0  0  0  0
   -3.4639   -0.8682   -0.6968 C   0  0  0  0  0  0  0  0  0  0  0  0
   -4.7080   -1.1743   -0.1923 C   0  0  0  0  0  0  0  0  0  0  0  0
   -4.8254   -0.8264    1.4745 S   0  0  0  0  0  0  0  0  0  0  0  0
   -3.2109   -0.2669    1.5265 C   0  0  0  0  0  0  0  0  0  0  0  0
   -0.1386   -1.3509   -0.3633 S   0  0  0  0  0  0  0  0  0  0  0  0
    1.5271   -0.7439   -0.1765 C   0  0  0  0  0  0  0  0  0  0  0  0
    2.4480   -1.7947    0.0468 C   0  0  0  0  0  0  0  0  0  0  0  0
    3.8064   -1.5617    0.2552 C   0  0  0  0  0  0  0  0  0  0  0  0
    4.2794   -0.2629    0.2445 C   0  0  0  0  0  0  0  0  0  0  0  0
    3.3908    0.7873    0.0145 C   0  0  0  0  0  0  0  0  0  0  0  0
    2.0106    0.5748   -0.2113 C   0  0  0  0  0  0  0  0  0  0  0  0
    1.3065    1.7717   -0.4498 N   0  0  0  0  0  0  0  0  0  0  0  0
   -1.9564    1.6659   -1.1734 H   0  0  0  0  0  0  0  0  0  0  0  0
   -0.8452    0.6408   -2.0605 H   0  0  0  0  0  0  0  0  0  0  0  0
   -0.7581    0.5252    1.0016 H   0  0  0  0  0  0  0  0  0  0  0  0
   -3.1990   -1.0248   -1.7362 H   0  0  0  0  0  0  0  0  0  0  0  0
   -5.5542   -1.5879   -0.7234 H   0  0  0  0  0  0  0  0  0  0  0  0
   -2.8047    0.0866    2.4648 H   0  0  0  0  0  0  0  0  0  0  0  0
    2.1047   -2.8295    0.0701 H   0  0  0  0  0  0  0  0  0  0  0  0
    4.4831   -2.3943    0.4282 H   0  0  0  0  0  0  0  0  0  0  0  0
    5.3350   -0.0615    0.4080 H   0  0  0  0  0  0  0  0  0  0  0  0
    3.8047    1.7949    0.0028 H   0  0  0  0  0  0  0  0  0  0  0  0
    1.8555    2.6230   -0.3790 H   0  0  0  0  0  0  0  0  0  0  0  0
  1  2  2  0
  2  3  1  0
  3  4  1  0
  4  5  1  0
  5  6  1  0
  6  7  2  0
  7  8  1  0
  8  9  1  0
  4 10  1  0
 10 11  1  0
 11 12  2  0
 12 13  1  0
 13 14  2  0
 14 15  1  0
 15 16  2  0
 16 17  1  0
 17  2  1  0
  9  5  2  0
 16 11  1  0
  3 18  1  0
  3 19  1  0
  4 20  1  0
  6 21  1  0
  7 22  1  0
  9 23  1  0
 12 24  1  0
 13 25  1  0
 14 26  1  0
 15 27  1  0
 17 28  1  0
M  END
$$$$
