
     RDKit          3D

 47 49  0  0  0  0  0  0  0  0999 V2000
   -2.7030    0.8532   -0.7951 O   0  0  0  0  0  0  0  0  0  0  0  0
   -2.9232   -0.2555   -0.3192 C   0  0  0  0  0  0  0  0  0  0  0  0
   -4.3442   -0.7726   -0.0493 C   0  0  0  0  0  0  0  0  0  0  0  0
   -5.3257    0.1880   -0.4058 O   0  0  0  0  0  0  0  0  0  0  0  0
   -6.6358   -0.1493   -0.2151 C   0  0  0  0  0  0  0  0  0  0  0  0
   -7.5492    0.8426   -0.5851 C   0  0  0  0  0  0  0  0  0  0  0  0
   -8.9232    0.6359   -0.4453 C   0  0  0  0  0  0  0  0  0  0  0  0
   -9.3855   -0.5720    0.0682 C   0  0  0  0  0  0  0  0  0  0  0  0
  -11.2427   -0.8629    0.2619 Br  0  0  0  0  0  0  0  0  0  0  0  0
   -8.4857   -1.5690    0.4408 C   0  0  0  0  0  0  0  0  0  0  0  0
   -7.1093   -1.3578    0.2991 C   0  0  0  0  0  0  0  0  0  0  0  0
   -1.9603   -1.1933    0.0425 N   0  0  0  0  0  0  0  0  0  0  0  0
   -0.5592   -1.0713   -0.0665 C   0  0  0  0  0  0  0  0  0  0  0  0
    0.0925    0.0464   -0.5909 C   0  0  0  0  0  0  0  0  0  0  0  0
    1.4920    0.0901   -0.6667 C   0  0  0  0  0  0  0  0  0  0  0  0
    2.2585   -0.9860   -0.2069 C   0  0  0  0  0  0  0  0  0  0  0  0
    3.7516   -0.9970   -0.2697 C   0  0  0  0  0  0  0  0  0  0  0  0
    4.3166   -2.0811   -0.3607 O   0  0  0  0  0  0  0  0  0  0  0  0
    4.3571    0.2412   -0.1828 N   0  0  0  0  0  0  0  0  0  0  0  0
    5.7407    0.5544   -0.2472 C   0  0  0  0  0  0  0  0  0  0  0  0
    6.7153   -0.4233   -0.4840 C   0  0  0  0  0  0  0  0  0  0  0  0
    8.0725   -0.0904   -0.5440 C   0  0  0  0  0  0  0  0  0  0  0  0
    8.4807    1.2269   -0.3712 C   0  0  0  0  0  0  0  0  0  0  0  0
    7.5299    2.2186   -0.1400 C   0  0  0  0  0  0  0  0  0  0  0  0
    6.1622    1.8956   -0.0779 C   0  0  0  0  0  0  0  0  0  0  0  0
    5.1642    2.9747    0.1610 C   0  0  0  0  0  0  0  0  0  0  0  0
    3.9547    2.8222    0.2081 O   0  0  0  0  0  0  0  0  0  0  0  0
    5.7141    4.1902    0.3302 O   0  0  0  0  0  0  0  0  0  0  0  0
    1.6076   -2.1139    0.3047 C   0  0  0  0  0  0  0  0  0  0  0  0
    0.2111   -2.1534    0.3774 C   0  0  0  0  0  0  0  0  0  0  0  0
   -4.4774   -1.6842   -0.6448 H   0  0  0  0  0  0  0  0  0  0  0  0
   -4.4117   -0.9974    1.0223 H   0  0  0  0  0  0  0  0  0  0  0  0
   -7.1845    1.7858   -0.9866 H   0  0  0  0  0  0  0  0  0  0  0  0
   -9.6157    1.4199   -0.7391 H   0  0  0  0  0  0  0  0  0  0  0  0
   -8.8443   -2.5135    0.8420 H   0  0  0  0  0  0  0  0  0  0  0  0
   -6.4408   -2.1569    0.5995 H   0  0  0  0  0  0  0  0  0  0  0  0
   -2.2940   -2.0652    0.4334 H   0  0  0  0  0  0  0  0  0  0  0  0
   -0.4569    0.9067   -0.9621 H   0  0  0  0  0  0  0  0  0  0  0  0
    1.9531    0.9683   -1.1118 H   0  0  0  0  0  0  0  0  0  0  0  0
    3.7520    1.0402    0.0085 H   0  0  0  0  0  0  0  0  0  0  0  0
    6.4524   -1.4665   -0.6312 H   0  0  0  0  0  0  0  0  0  0  0  0
    8.8086   -0.8700   -0.7281 H   0  0  0  0  0  0  0  0  0  0  0  0
    9.5364    1.4820   -0.4188 H   0  0  0  0  0  0  0  0  0  0  0  0
    7.8671    3.2446   -0.0109 H   0  0  0  0  0  0  0  0  0  0  0  0
    4.9510    4.7884    0.4755 H   0  0  0  0  0  0  0  0  0  0  0  0
    2.1877   -2.9677    0.6506 H   0  0  0  0  0  0  0  0  0  0  0  0
   -0.2573   -3.0458    0.7846 H   0  0  0  0  0  0  0  0  0  0  0  0
  1  2  2  0
  2  3  1  0
  3  4  1  0
  4  5  1  0
  5  6  2  0
  6  7  1  0
  7  8  2  0
  8  9  1  0
  8 10  1  0
 10 11  2  0
  2 12  1  0
 12 13  1  0
 13 14  2  0
 14 15  1  0
 15 16  2  0
 16 17  1  0
 17 18  2  0
 17 19  1  0
 19 20  1  0
 20 21  2  0
 21 22  1  0
 22 23  2  0
 23 24  1  0
 24 25  2  0
 25 26  1  0
 26 27  2  0
 26 28  1  0
 16 29  1  0
 29 30  2  0
 11  5  1  0
 30 13  1  0
 25 20  1  0
  3 31  1  0
  3 32  1  0
  6 33  1  0
  7 34  1  0
 10 35  1  0
 11 36  1  0
 12 37  1  0
 14 38  1  0
 15 39  1  0
 19 40  1  0
 21 41  1  0
 22 42  1  0
 23 43  1  0
 24 44  1  0
 28 45  1  0
 29 46  1  0
 30 47  1  0
M  END
$$$$
