
     RDKit          3D

 64 67  0  0  0  0  0  0  0  0999 V2000
    7.1202   -5.1098   -4.0125 C   0  0  0  0  0  0  0  0  0  0  0  0
    7.0757   -3.6942   -3.8867 O   0  0  0  0  0  0  0  0  0  0  0  0
    5.8711   -3.1415   -3.5526 C   0  0  0  0  0  0  0  0  0  0  0  0
    4.6884   -3.8373   -3.3112 C   0  0  0  0  0  0  0  0  0  0  0  0
    3.5220   -3.1413   -2.9727 C   0  0  0  0  0  0  0  0  0  0  0  0
    3.5191   -1.7439   -2.8758 C   0  0  0  0  0  0  0  0  0  0  0  0
    2.2994   -1.1347   -2.5346 N   0  0  0  0  0  0  0  0  0  0  0  0
    2.0202    0.2082   -2.3589 C   0  0  0  0  0  0  0  0  0  0  0  0
    2.8073    1.1391   -2.4977 O   0  0  0  0  0  0  0  0  0  0  0  0
    0.5493    0.4816   -1.9752 C   0  0  0  0  0  0  0  0  0  0  0  0
   -0.2197   -0.7467   -1.7061 N   0  0  0  0  0  0  0  0  0  0  0  0
   -1.0591   -1.2442   -2.7883 C   0  0  0  0  0  0  0  0  0  0  0  0
   -0.2256   -1.4109   -0.4892 C   0  0  0  0  0  0  0  0  0  0  0  0
   -0.7636   -2.4980   -0.3133 O   0  0  0  0  0  0  0  0  0  0  0  0
    0.5439   -0.7865    0.6087 C   0  0  0  0  0  0  0  0  0  0  0  0
   -0.0057   -0.0182    1.5646 C   0  0  0  0  0  0  0  0  0  0  0  0
   -1.3792    0.3205    1.7531 C   0  0  0  0  0  0  0  0  0  0  0  0
   -2.4575   -0.5104    1.5616 C   0  0  0  0  0  0  0  0  0  0  0  0
   -3.5827    0.1908    1.9282 N   0  0  0  0  0  0  0  0  0  0  0  0
   -4.9377   -0.2421    1.8688 C   0  0  0  0  0  0  0  0  0  0  0  0
   -5.9483    0.5767    2.3994 C   0  0  0  0  0  0  0  0  0  0  0  0
   -7.2827    0.1671    2.3538 C   0  0  0  0  0  0  0  0  0  0  0  0
   -7.6178   -1.0553    1.7745 C   0  0  0  0  0  0  0  0  0  0  0  0
   -6.6207   -1.8700    1.2376 C   0  0  0  0  0  0  0  0  0  0  0  0
   -5.2826   -1.4709    1.2872 C   0  0  0  0  0  0  0  0  0  0  0  0
   -3.2642    1.4252    2.3902 N   0  0  0  0  0  0  0  0  0  0  0  0
   -1.9337    1.5275    2.2594 C   0  0  0  0  0  0  0  0  0  0  0  0
   -1.2458    2.7631    2.6215 C   0  0  0  0  0  0  0  0  0  0  0  0
   -1.4419    3.3367    3.8819 C   0  0  0  0  0  0  0  0  0  0  0  0
   -0.7810    4.5174    4.2322 C   0  0  0  0  0  0  0  0  0  0  0  0
    0.0765    5.1473    3.3224 C   0  0  0  0  0  0  0  0  0  0  0  0
    0.7474    6.4392    3.6848 C   0  0  0  0  0  0  0  0  0  0  0  0
    0.2428    4.5935    2.0467 C   0  0  0  0  0  0  0  0  0  0  0  0
   -0.4084    3.4064    1.7003 C   0  0  0  0  0  0  0  0  0  0  0  0
    4.7024   -1.0503   -3.1179 C   0  0  0  0  0  0  0  0  0  0  0  0
    5.8691   -1.7476   -3.4558 C   0  0  0  0  0  0  0  0  0  0  0  0
    8.1508   -5.3956   -4.2480 H   0  0  0  0  0  0  0  0  0  0  0  0
    6.4809   -5.4503   -4.8330 H   0  0  0  0  0  0  0  0  0  0  0  0
    6.8460   -5.5937   -3.0672 H   0  0  0  0  0  0  0  0  0  0  0  0
    4.6379   -4.9192   -3.3739 H   0  0  0  0  0  0  0  0  0  0  0  0
    2.6138   -3.7110   -2.7880 H   0  0  0  0  0  0  0  0  0  0  0  0
    1.5122   -1.7578   -2.3858 H   0  0  0  0  0  0  0  0  0  0  0  0
    0.0750    1.0221   -2.8032 H   0  0  0  0  0  0  0  0  0  0  0  0
    0.5423    1.1313   -1.0944 H   0  0  0  0  0  0  0  0  0  0  0  0
   -1.9273   -0.5845   -2.8802 H   0  0  0  0  0  0  0  0  0  0  0  0
   -1.4050   -2.2640   -2.6015 H   0  0  0  0  0  0  0  0  0  0  0  0
   -0.4964   -1.2205   -3.7257 H   0  0  0  0  0  0  0  0  0  0  0  0
    1.6091   -0.9826    0.6031 H   0  0  0  0  0  0  0  0  0  0  0  0
    0.6828    0.4115    2.2918 H   0  0  0  0  0  0  0  0  0  0  0  0
   -2.5121   -1.5371    1.2356 H   0  0  0  0  0  0  0  0  0  0  0  0
   -5.7100    1.5342    2.8601 H   0  0  0  0  0  0  0  0  0  0  0  0
   -8.0589    0.8039    2.7736 H   0  0  0  0  0  0  0  0  0  0  0  0
   -8.6570   -1.3706    1.7373 H   0  0  0  0  0  0  0  0  0  0  0  0
   -6.8837   -2.8200    0.7784 H   0  0  0  0  0  0  0  0  0  0  0  0
   -4.5417   -2.1328    0.8455 H   0  0  0  0  0  0  0  0  0  0  0  0
   -2.1124    2.8662    4.5968 H   0  0  0  0  0  0  0  0  0  0  0  0
   -0.9487    4.9454    5.2180 H   0  0  0  0  0  0  0  0  0  0  0  0
    1.0283    6.4500    4.7426 H   0  0  0  0  0  0  0  0  0  0  0  0
    0.0741    7.2803    3.4868 H   0  0  0  0  0  0  0  0  0  0  0  0
    1.6650    6.5790    3.1040 H   0  0  0  0  0  0  0  0  0  0  0  0
    0.8738    5.0866    1.3112 H   0  0  0  0  0  0  0  0  0  0  0  0
   -0.2782    3.0049    0.6973 H   0  0  0  0  0  0  0  0  0  0  0  0
    4.7557    0.0311   -3.0545 H   0  0  0  0  0  0  0  0  0  0  0  0
    6.7870   -1.1932   -3.6446 H   0  0  0  0  0  0  0  0  0  0  0  0
  1  2  1  0
  2  3  1  0
  3  4  2  0
  4  5  1  0
  5  6  2  0
  6  7  1  0
  7  8  1  0
  8  9  2  0
  8 10  1  0
 10 11  1  0
 11 12  1  0
 11 13  1  0
 13 14  2  0
 13 15  1  0
 15 16  2  3
 16 17  1  0
 17 18  2  0
 18 19  1  0
 19 20  1  0
 20 21  2  0
 21 22  1  0
 22 23  2  0
 23 24  1  0
 24 25  2  0
 19 26  1  0
 26 27  2  0
 27 28  1  0
 28 29  2  0
 29 30  1  0
 30 31  2  0
 31 32  1  0
 31 33  1  0
 33 34  2  0
  6 35  1  0
 35 36  2  0
 36  3  1  0
 27 17  1  0
 34 28  1  0
 25 20  1  0
  1 37  1  0
  1 38  1  0
  1 39  1  0
  4 40  1  0
  5 41  1  0
  7 42  1  0
 10 43  1  0
 10 44  1  0
 12 45  1  0
 12 46  1  0
 12 47  1  0
 15 48  1  0
 16 49  1  0
 18 50  1  0
 21 51  1  0
 22 52  1  0
 23 53  1  0
 24 54  1  0
 25 55  1  0
 29 56  1  0
 30 57  1  0
 32 58  1  0
 32 59  1  0
 32 60  1  0
 33 61  1  0
 34 62  1  0
 35 63  1  0
 36 64  1  0
M  END
$$$$
