
     RDKit          3D

 48 49  0  0  0  0  0  0  0  0999 V2000
   -4.8943    0.2393    2.1648 C   0  0  0  0  0  0  0  0  0  0  0  0
   -4.8332    0.6929    0.7143 C   0  0  0  0  0  0  0  0  0  0  0  0
   -4.7535   -0.4425   -0.2097 N   0  0  0  0  0  0  0  0  0  0  0  0
   -6.0197   -1.0278   -0.6512 C   0  0  0  0  0  0  0  0  0  0  0  0
   -6.4916   -0.4093   -1.9584 C   0  0  0  0  0  0  0  0  0  0  0  0
   -3.5736   -1.0764   -0.6028 C   0  0  0  0  0  0  0  0  0  0  0  0
   -3.5390   -2.1093   -1.2668 O   0  0  0  0  0  0  0  0  0  0  0  0
   -2.2769   -0.5020   -0.1952 C   0  0  0  0  0  0  0  0  0  0  0  0
   -1.8263    0.6979   -0.7475 C   0  0  0  0  0  0  0  0  0  0  0  0
   -0.5805    1.2126   -0.3715 C   0  0  0  0  0  0  0  0  0  0  0  0
    0.2274    0.5205    0.5349 C   0  0  0  0  0  0  0  0  0  0  0  0
    1.4928    0.9666    0.9583 N   0  0  0  0  0  0  0  0  0  0  0  0
    2.1640    2.1144    0.5769 C   0  0  0  0  0  0  0  0  0  0  0  0
    1.7627    2.9813   -0.1940 O   0  0  0  0  0  0  0  0  0  0  0  0
    3.5282    2.2473    1.2620 C   0  0  0  0  0  0  0  0  0  0  0  0
    4.1257    0.9974    1.5897 O   0  0  0  0  0  0  0  0  0  0  0  0
    4.8557    0.3469    0.6271 C   0  0  0  0  0  0  0  0  0  0  0  0
    4.8846    0.7024   -0.7260 C   0  0  0  0  0  0  0  0  0  0  0  0
    5.6639   -0.0250   -1.6350 C   0  0  0  0  0  0  0  0  0  0  0  0
    6.4145   -1.1203   -1.1913 C   0  0  0  0  0  0  0  0  0  0  0  0
    7.2354   -1.8765   -2.1456 N   0  0  0  0  0  4  0  0  0  0  0  0
    7.8746   -2.8457   -1.7132 O   0  0  0  0  0  0  0  0  0  0  0  0
    7.2426   -1.4957   -3.3237 O   0  0  0  0  0  1  0  0  0  0  0  0
    6.3860   -1.4995    0.1534 C   0  0  0  0  0  0  0  0  0  0  0  0
    5.6039   -0.7676    1.0513 C   0  0  0  0  0  0  0  0  0  0  0  0
    5.5823   -1.2801    2.7037 Cl  0  0  0  0  0  0  0  0  0  0  0  0
   -0.2241   -0.6996    1.0581 C   0  0  0  0  0  0  0  0  0  0  0  0
   -1.4700   -1.2150    0.6911 C   0  0  0  0  0  0  0  0  0  0  0  0
   -4.0002   -0.3284    2.4401 H   0  0  0  0  0  0  0  0  0  0  0  0
   -5.7633   -0.4026    2.3453 H   0  0  0  0  0  0  0  0  0  0  0  0
   -4.9657    1.1054    2.8298 H   0  0  0  0  0  0  0  0  0  0  0  0
   -3.9728    1.3518    0.5846 H   0  0  0  0  0  0  0  0  0  0  0  0
   -5.7217    1.2838    0.4643 H   0  0  0  0  0  0  0  0  0  0  0  0
   -5.9017   -2.1090   -0.7882 H   0  0  0  0  0  0  0  0  0  0  0  0
   -6.7730   -0.8861    0.1319 H   0  0  0  0  0  0  0  0  0  0  0  0
   -7.4362   -0.8622   -2.2745 H   0  0  0  0  0  0  0  0  0  0  0  0
   -5.7555   -0.5613   -2.7547 H   0  0  0  0  0  0  0  0  0  0  0  0
   -6.6470    0.6687   -1.8495 H   0  0  0  0  0  0  0  0  0  0  0  0
   -2.4368    1.2319   -1.4715 H   0  0  0  0  0  0  0  0  0  0  0  0
   -0.2669    2.1529   -0.8141 H   0  0  0  0  0  0  0  0  0  0  0  0
    2.0039    0.3573    1.5897 H   0  0  0  0  0  0  0  0  0  0  0  0
    3.3562    2.7790    2.2050 H   0  0  0  0  0  0  0  0  0  0  0  0
    4.1986    2.8741    0.6647 H   0  0  0  0  0  0  0  0  0  0  0  0
    4.3088    1.5358   -1.1210 H   0  0  0  0  0  0  0  0  0  0  0  0
    5.6697    0.2751   -2.6828 H   0  0  0  0  0  0  0  0  0  0  0  0
    6.9593   -2.3533    0.5100 H   0  0  0  0  0  0  0  0  0  0  0  0
    0.3891   -1.2701    1.7511 H   0  0  0  0  0  0  0  0  0  0  0  0
   -1.8065   -2.1703    1.0862 H   0  0  0  0  0  0  0  0  0  0  0  0
  1  2  1  0
  2  3  1  0
  3  4  1  0
  4  5  1  0
  3  6  1  0
  6  7  2  0
  6  8  1  0
  8  9  2  0
  9 10  1  0
 10 11  2  0
 11 12  1  0
 12 13  1  0
 13 14  2  0
 13 15  1  0
 15 16  1  0
 16 17  1  0
 17 18  2  0
 18 19  1  0
 19 20  2  0
 20 21  1  0
 21 22  2  0
 21 23  1  0
 20 24  1  0
 24 25  2  0
 25 26  1  0
 11 27  1  0
 27 28  2  0
 28  8  1  0
 25 17  1  0
  1 29  1  0
  1 30  1  0
  1 31  1  0
  2 32  1  0
  2 33  1  0
  4 34  1  0
  4 35  1  0
  5 36  1  0
  5 37  1  0
  5 38  1  0
  9 39  1  0
 10 40  1  0
 12 41  1  0
 15 42  1  0
 15 43  1  0
 18 44  1  0
 19 45  1  0
 24 46  1  0
 27 47  1  0
 28 48  1  0
M  CHG  2  21   1  23  -1
M  END
$$$$
