
     RDKit          3D

 15 15  0  0  0  0  0  0  0  0999 V2000
   -4.0523   -0.2853    1.6197 N   0  0  0  0  0  0  0  0  0  0  0  0
   -2.9871   -0.2795    1.1606 C   0  0  0  0  0  0  0  0  0  0  0  0
   -1.6830   -0.2704    0.5958 C   0  0  0  0  0  0  0  0  0  0  0  0
   -1.2770   -1.1954   -0.3353 C   0  0  0  0  0  0  0  0  0  0  0  0
   -0.0433   -1.2084   -0.8877 N   0  0  0  0  0  0  0  0  0  0  0  0
    0.8184   -0.2616   -0.4826 C   0  0  0  0  0  0  0  0  0  0  0  0
    2.1011   -0.2798   -1.0583 N   0  0  0  0  0  0  0  0  0  0  0  0
    2.8698    0.9108   -1.0783 N   0  0  0  0  0  0  0  0  0  0  0  0
    0.5065    0.6950    0.4151 N   0  0  0  0  0  0  0  0  0  0  0  0
   -0.7384    0.6657    0.9388 C   0  0  0  0  0  0  0  0  0  0  0  0
   -1.9399   -1.9834   -0.6852 H   0  0  0  0  0  0  0  0  0  0  0  0
    2.0657   -0.8496   -1.9029 H   0  0  0  0  0  0  0  0  0  0  0  0
    2.9719    1.2363   -0.1100 H   0  0  0  0  0  0  0  0  0  0  0  0
    2.3330    1.6568   -1.5307 H   0  0  0  0  0  0  0  0  0  0  0  0
   -0.9454    1.4487    1.6643 H   0  0  0  0  0  0  0  0  0  0  0  0
  1  2  3  0
  2  3  1  0
  3  4  2  0
  4  5  1  0
  5  6  2  0
  6  7  1  0
  7  8  1  0
  6  9  1  0
  9 10  2  0
 10  3  1  0
  4 11  1  0
  7 12  1  0
  8 13  1  0
  8 14  1  0
 10 15  1  0
M  END
$$$$
