
     RDKit          3D

 43 46  0  0  0  0  0  0  0  0999 V2000
   -1.4922    1.1908    2.1247 O   0  0  0  0  0  0  0  0  0  0  0  0
   -1.8666    0.5515    1.1499 C   0  0  0  0  0  0  0  0  0  0  0  0
   -1.0726   -0.1109    0.2309 N   0  0  0  0  0  0  0  0  0  0  0  0
    0.3362   -0.1242    0.1715 C   0  0  0  0  0  0  0  0  0  0  0  0
    0.9293   -0.9419   -0.7952 C   0  0  0  0  0  0  0  0  0  0  0  0
    2.3223   -1.0048   -0.9207 C   0  0  0  0  0  0  0  0  0  0  0  0
    3.1504   -0.2487   -0.0847 C   0  0  0  0  0  0  0  0  0  0  0  0
    4.5396   -0.3709   -0.2783 N   0  0  0  0  0  0  0  0  0  0  0  0
    5.5650    0.2634    0.4043 C   0  0  0  0  0  0  0  0  0  0  0  0
    5.3999    1.0645    1.3194 O   0  0  0  0  0  0  0  0  0  0  0  0
    6.9110   -0.0935   -0.0510 C   0  0  0  0  0  0  0  0  0  0  0  0
    8.1056    0.3899    0.4546 C   0  0  0  0  0  0  0  0  0  0  0  0
    9.2453   -0.1533   -0.2049 C   0  0  0  0  0  0  0  0  0  0  0  0
    8.8896   -1.0377   -1.1972 C   0  0  0  0  0  0  0  0  0  0  0  0
    7.1938   -1.2067   -1.3271 S   0  0  0  0  0  0  0  0  0  0  0  0
    2.5582    0.5691    0.8757 C   0  0  0  0  0  0  0  0  0  0  0  0
    1.1618    0.6313    1.0020 C   0  0  0  0  0  0  0  0  0  0  0  0
   -3.3316    0.4114    0.9201 C   0  0  0  0  0  0  0  0  0  0  0  0
   -4.1722    0.2888    2.0292 C   0  0  0  0  0  0  0  0  0  0  0  0
   -5.5497    0.1491    1.8503 C   0  0  0  0  0  0  0  0  0  0  0  0
   -6.1072    0.1424    0.5621 C   0  0  0  0  0  0  0  0  0  0  0  0
   -7.4903    0.0027    0.3674 C   0  0  0  0  0  0  0  0  0  0  0  0
   -8.0338    0.0086   -0.9181 C   0  0  0  0  0  0  0  0  0  0  0  0
   -7.2027    0.1564   -2.0244 C   0  0  0  0  0  0  0  0  0  0  0  0
   -5.8250    0.2964   -1.8489 C   0  0  0  0  0  0  0  0  0  0  0  0
   -5.2608    0.2881   -0.5628 C   0  0  0  0  0  0  0  0  0  0  0  0
   -3.8759    0.4266   -0.3712 C   0  0  0  0  0  0  0  0  0  0  0  0
   -1.5451   -0.7106   -0.4324 H   0  0  0  0  0  0  0  0  0  0  0  0
    0.3211   -1.5453   -1.4637 H   0  0  0  0  0  0  0  0  0  0  0  0
    2.7451   -1.6545   -1.6826 H   0  0  0  0  0  0  0  0  0  0  0  0
    4.8395   -1.0031   -1.0097 H   0  0  0  0  0  0  0  0  0  0  0  0
    8.1499    1.1066    1.2679 H   0  0  0  0  0  0  0  0  0  0  0  0
   10.2720    0.0932    0.0378 H   0  0  0  0  0  0  0  0  0  0  0  0
    9.5454   -1.5938   -1.8535 H   0  0  0  0  0  0  0  0  0  0  0  0
    3.1475    1.1802    1.5526 H   0  0  0  0  0  0  0  0  0  0  0  0
    0.7558    1.2899    1.7642 H   0  0  0  0  0  0  0  0  0  0  0  0
   -3.7559    0.3000    3.0349 H   0  0  0  0  0  0  0  0  0  0  0  0
   -6.1857    0.0506    2.7276 H   0  0  0  0  0  0  0  0  0  0  0  0
   -8.1577   -0.1088    1.2193 H   0  0  0  0  0  0  0  0  0  0  0  0
   -9.1071   -0.0986   -1.0538 H   0  0  0  0  0  0  0  0  0  0  0  0
   -7.6267    0.1652   -3.0253 H   0  0  0  0  0  0  0  0  0  0  0  0
   -5.1954    0.4141   -2.7281 H   0  0  0  0  0  0  0  0  0  0  0  0
   -3.2299    0.5766   -1.2328 H   0  0  0  0  0  0  0  0  0  0  0  0
  1  2  2  0
  2  3  1  0
  3  4  1  0
  4  5  2  0
  5  6  1  0
  6  7  2  0
  7  8  1  0
  8  9  1  0
  9 10  2  0
  9 11  1  0
 11 12  2  0
 12 13  1  0
 13 14  2  0
 14 15  1  0
  7 16  1  0
 16 17  2  0
  2 18  1  0
 18 19  2  0
 19 20  1  0
 20 21  2  0
 21 22  1  0
 22 23  2  0
 23 24  1  0
 24 25  2  0
 25 26  1  0
 26 27  2  0
 17  4  1  0
 27 18  1  0
 15 11  1  0
 26 21  1  0
  3 28  1  0
  5 29  1  0
  6 30  1  0
  8 31  1  0
 12 32  1  0
 13 33  1  0
 14 34  1  0
 16 35  1  0
 17 36  1  0
 19 37  1  0
 20 38  1  0
 22 39  1  0
 23 40  1  0
 24 41  1  0
 25 42  1  0
 27 43  1  0
M  END
$$$$
