
     RDKit          3D

 36 37  0  0  0  0  0  0  0  0999 V2000
   -5.0703   -0.4575    1.5024 C   0  0  0  0  0  0  0  0  0  0  0  0
   -3.6222   -0.0123    1.5610 C   0  0  0  0  0  0  0  0  0  0  0  0
   -3.1548    0.1649    0.2183 O   0  0  0  0  0  0  0  0  0  0  0  0
   -1.8592    0.5512    0.1254 C   0  0  0  0  0  0  0  0  0  0  0  0
   -1.1067    0.7739    1.0649 O   0  0  0  0  0  0  0  0  0  0  0  0
   -1.4370    0.6739   -1.2953 C   0  0  0  0  0  0  0  0  0  0  0  0
   -2.3863    0.7299   -2.3290 C   0  0  0  0  0  0  0  0  0  0  0  0
   -1.9761    0.8689   -3.6569 C   0  0  0  0  0  0  0  0  0  0  0  0
   -0.6197    0.9541   -3.9633 C   0  0  0  0  0  0  0  0  0  0  0  0
    0.3316    0.9009   -2.9443 C   0  0  0  0  0  0  0  0  0  0  0  0
   -0.0677    0.7683   -1.6106 C   0  0  0  0  0  0  0  0  0  0  0  0
    0.9602    0.6547   -0.6028 N   0  0  0  0  0  0  0  0  0  0  0  0
    1.6761   -0.8935   -0.5293 S   0  0  0  0  0  6  0  0  0  0  0  0
    0.6403   -1.8124   -0.0995 O   0  0  0  0  0  0  0  0  0  0  0  0
    2.4341   -1.1445   -1.7354 O   0  0  0  0  0  0  0  0  0  0  0  0
    2.8111   -0.7031    0.8026 C   0  0  0  0  0  0  0  0  0  0  0  0
    2.6385   -1.4203    1.9912 C   0  0  0  0  0  0  0  0  0  0  0  0
    3.5579   -1.2602    3.0298 C   0  0  0  0  0  0  0  0  0  0  0  0
    4.6411   -0.3920    2.8787 C   0  0  0  0  0  0  0  0  0  0  0  0
    4.8064    0.3182    1.6884 C   0  0  0  0  0  0  0  0  0  0  0  0
    3.8895    0.1586    0.6525 C   0  0  0  0  0  0  0  0  0  0  0  0
    4.0669    0.8655   -0.4712 F   0  0  0  0  0  0  0  0  0  0  0  0
   -5.6817    0.2872    0.9822 H   0  0  0  0  0  0  0  0  0  0  0  0
   -5.4738   -0.6062    2.5078 H   0  0  0  0  0  0  0  0  0  0  0  0
   -5.1633   -1.3935    0.9418 H   0  0  0  0  0  0  0  0  0  0  0  0
   -3.5478    0.9355    2.1058 H   0  0  0  0  0  0  0  0  0  0  0  0
   -3.0196   -0.7765    2.0647 H   0  0  0  0  0  0  0  0  0  0  0  0
   -3.4507    0.6683   -2.1147 H   0  0  0  0  0  0  0  0  0  0  0  0
   -2.7158    0.9076   -4.4536 H   0  0  0  0  0  0  0  0  0  0  0  0
   -0.2984    1.0544   -4.9976 H   0  0  0  0  0  0  0  0  0  0  0  0
    1.3892    0.9564   -3.1954 H   0  0  0  0  0  0  0  0  0  0  0  0
    0.5755    0.8690    0.3307 H   0  0  0  0  0  0  0  0  0  0  0  0
    1.7994   -2.1019    2.1161 H   0  0  0  0  0  0  0  0  0  0  0  0
    3.4313   -1.8147    3.9574 H   0  0  0  0  0  0  0  0  0  0  0  0
    5.3570   -0.2694    3.6883 H   0  0  0  0  0  0  0  0  0  0  0  0
    5.6449    0.9966    1.5612 H   0  0  0  0  0  0  0  0  0  0  0  0
  1  2  1  0
  2  3  1  0
  3  4  1  0
  4  5  2  0
  4  6  1  0
  6  7  2  0
  7  8  1  0
  8  9  2  0
  9 10  1  0
 10 11  2  0
 11 12  1  0
 12 13  1  0
 13 14  2  0
 13 15  2  0
 13 16  1  0
 16 17  2  0
 17 18  1  0
 18 19  2  0
 19 20  1  0
 20 21  2  0
 21 22  1  0
 11  6  1  0
 21 16  1  0
  1 23  1  0
  1 24  1  0
  1 25  1  0
  2 26  1  0
  2 27  1  0
  7 28  1  0
  8 29  1  0
  9 30  1  0
 10 31  1  0
 12 32  1  0
 17 33  1  0
 18 34  1  0
 19 35  1  0
 20 36  1  0
M  END
$$$$
