
     RDKit          3D

 50 53  0  0  0  0  0  0  0  0999 V2000
   -3.2207    3.5050    0.6277 C   0  0  0  0  0  0  0  0  0  0  0  0
   -2.1577    2.5525    0.9319 N   0  0  0  0  0  0  0  0  0  0  0  0
   -2.6506    1.4829    1.8262 C   0  0  0  0  0  0  0  0  0  0  0  0
   -1.7520    0.2264    1.8405 C   0  0  0  0  0  0  0  0  0  0  0  0
   -1.5827   -0.3630    0.4895 N   0  0  0  0  0  0  0  0  0  0  0  0
   -2.1593   -1.6461    0.3054 C   0  0  0  0  0  0  0  0  0  0  0  0
   -3.4970   -1.9277    0.6134 C   0  0  0  0  0  0  0  0  0  0  0  0
   -4.0262   -3.1979    0.3765 C   0  0  0  0  0  0  0  0  0  0  0  0
   -3.2264   -4.1981   -0.1742 C   0  0  0  0  0  0  0  0  0  0  0  0
   -1.8915   -3.9383   -0.4900 C   0  0  0  0  0  0  0  0  0  0  0  0
   -1.3562   -2.6733   -0.2511 C   0  0  0  0  0  0  0  0  0  0  0  0
   -0.0207   -2.3200   -0.5087 N   0  0  0  0  0  0  0  0  0  0  0  0
    1.0000   -3.0585   -1.0587 C   0  0  0  0  0  0  0  0  0  0  0  0
    0.9069   -4.2109   -1.4692 O   0  0  0  0  0  0  0  0  0  0  0  0
    2.2449   -2.3123   -1.1180 C   0  0  0  0  0  0  0  0  0  0  0  0
    3.4903   -2.6451   -1.6112 C   0  0  0  0  0  0  0  0  0  0  0  0
    4.3267   -1.5208   -1.3971 C   0  0  0  0  0  0  0  0  0  0  0  0
    3.5525   -0.5594   -0.7772 C   0  0  0  0  0  0  0  0  0  0  0  0
    3.7908    0.7962   -0.2877 C   0  0  0  0  0  0  0  0  0  0  0  0
    4.9884    1.4619   -0.5845 C   0  0  0  0  0  0  0  0  0  0  0  0
    5.2225    2.7597   -0.1166 C   0  0  0  0  0  0  0  0  0  0  0  0
    4.2622    3.4122    0.6590 C   0  0  0  0  0  0  0  0  0  0  0  0
    4.6183    5.0123    1.2026 Cl  0  0  0  0  0  0  0  0  0  0  0  0
    3.0644    2.7618    0.9662 C   0  0  0  0  0  0  0  0  0  0  0  0
    1.8308    3.4994    1.9258 Cl  0  0  0  0  0  0  0  0  0  0  0  0
    2.8335    1.4640    0.4940 C   0  0  0  0  0  0  0  0  0  0  0  0
    2.2847   -1.0386   -0.6133 O   0  0  0  0  0  0  0  0  0  0  0  0
   -1.9408    0.5477   -0.6264 C   0  0  0  0  0  0  0  0  0  0  0  0
   -1.5381    2.0014   -0.2927 C   0  0  0  0  0  0  0  0  0  0  0  0
   -4.0325    3.0470    0.0513 H   0  0  0  0  0  0  0  0  0  0  0  0
   -2.8254    4.3513    0.0550 H   0  0  0  0  0  0  0  0  0  0  0  0
   -3.6422    3.9202    1.5500 H   0  0  0  0  0  0  0  0  0  0  0  0
   -2.7181    1.8813    2.8453 H   0  0  0  0  0  0  0  0  0  0  0  0
   -3.6636    1.1779    1.5322 H   0  0  0  0  0  0  0  0  0  0  0  0
   -0.7543    0.5085    2.2005 H   0  0  0  0  0  0  0  0  0  0  0  0
   -2.1404   -0.5015    2.5635 H   0  0  0  0  0  0  0  0  0  0  0  0
   -4.1430   -1.1599    1.0264 H   0  0  0  0  0  0  0  0  0  0  0  0
   -5.0654   -3.4066    0.6174 H   0  0  0  0  0  0  0  0  0  0  0  0
   -3.6405   -5.1864   -0.3586 H   0  0  0  0  0  0  0  0  0  0  0  0
   -1.2927   -4.7389   -0.9117 H   0  0  0  0  0  0  0  0  0  0  0  0
    0.1986   -1.3674   -0.2221 H   0  0  0  0  0  0  0  0  0  0  0  0
    3.7512   -3.5906   -2.0677 H   0  0  0  0  0  0  0  0  0  0  0  0
    5.3719   -1.4338   -1.6583 H   0  0  0  0  0  0  0  0  0  0  0  0
    5.7557    0.9828   -1.1891 H   0  0  0  0  0  0  0  0  0  0  0  0
    6.1590    3.2553   -0.3627 H   0  0  0  0  0  0  0  0  0  0  0  0
    1.8963    0.9705    0.7467 H   0  0  0  0  0  0  0  0  0  0  0  0
   -1.4117    0.2332   -1.5342 H   0  0  0  0  0  0  0  0  0  0  0  0
   -3.0177    0.5153   -0.8396 H   0  0  0  0  0  0  0  0  0  0  0  0
   -0.4518    2.0265   -0.1393 H   0  0  0  0  0  0  0  0  0  0  0  0
   -1.7304    2.6420   -1.1624 H   0  0  0  0  0  0  0  0  0  0  0  0
  1  2  1  0
  2  3  1  0
  3  4  1  0
  4  5  1  0
  5  6  1  0
  6  7  2  0
  7  8  1  0
  8  9  2  0
  9 10  1  0
 10 11  2  0
 11 12  1  0
 12 13  1  0
 13 14  2  0
 13 15  1  0
 15 16  2  0
 16 17  1  0
 17 18  2  0
 18 19  1  0
 19 20  2  0
 20 21  1  0
 21 22  2  0
 22 23  1  0
 22 24  1  0
 24 25  1  0
 24 26  2  0
 18 27  1  0
  5 28  1  0
 28 29  1  0
 29  2  1  0
 11  6  1  0
 27 15  1  0
 26 19  1  0
  1 30  1  0
  1 31  1  0
  1 32  1  0
  3 33  1  0
  3 34  1  0
  4 35  1  0
  4 36  1  0
  7 37  1  0
  8 38  1  0
  9 39  1  0
 10 40  1  0
 12 41  1  0
 16 42  1  0
 17 43  1  0
 20 44  1  0
 21 45  1  0
 26 46  1  0
 28 47  1  0
 28 48  1  0
 29 49  1  0
 29 50  1  0
M  END
$$$$
