
     RDKit          3D

 51 55  0  0  0  0  0  0  0  0999 V2000
   -2.4119   -2.7327    0.5994 C   0  0  0  0  0  0  0  0  0  0  0  0
   -2.1274   -1.7109   -0.4763 C   0  0  0  0  0  0  0  0  0  0  0  0
   -0.7917   -1.6288   -0.8595 N   0  0  0  0  0  0  0  0  0  0  0  0
   -0.3740   -0.7881   -1.8340 C   0  0  0  0  0  0  0  0  0  0  0  0
    0.8430   -0.5070   -2.4180 C   0  0  0  0  0  0  0  0  0  0  0  0
    2.1596   -1.0237   -2.1092 C   0  0  0  0  0  0  0  0  0  0  0  0
    3.0643   -1.0275   -2.9359 O   0  0  0  0  0  0  0  0  0  0  0  0
    2.3128   -1.4616   -0.8108 N   0  0  0  0  0  0  0  0  0  0  0  0
    3.6135   -1.8185   -0.2929 C   0  0  0  0  0  0  0  0  0  0  0  0
    4.2328   -0.6570    0.4421 C   0  0  0  0  0  0  0  0  0  0  0  0
    4.0756   -0.5284    1.8423 C   0  0  0  0  0  0  0  0  0  0  0  0
    4.6251    0.5580    2.5309 C   0  0  0  0  0  0  0  0  0  0  0  0
    5.3158    1.4986    1.7988 C   0  0  0  0  0  0  0  0  0  0  0  0
    5.4669    1.3877    0.4371 C   0  0  0  0  0  0  0  0  0  0  0  0
    4.9381    0.3285   -0.2694 C   0  0  0  0  0  0  0  0  0  0  0  0
    6.1761    2.4204   -0.0917 O   0  0  0  0  0  0  0  0  0  0  0  0
    6.4580    3.1918    1.0940 C   0  0  0  0  0  0  0  0  0  0  0  0
    5.9128    2.6135    2.2990 O   0  0  0  0  0  0  0  0  0  0  0  0
    0.5161    0.4155   -3.4403 C   0  0  0  0  0  0  0  0  0  0  0  0
   -0.7801    0.7362   -3.4706 N   0  0  0  0  0  0  0  0  0  0  0  0
   -1.3194   -0.0085   -2.4694 N   0  0  0  0  0  0  0  0  0  0  0  0
   -2.6876    0.0047   -2.1552 C   0  0  0  0  0  0  0  0  0  0  0  0
   -3.4747    0.7106   -2.7743 O   0  0  0  0  0  0  0  0  0  0  0  0
   -3.0824   -0.9242   -1.0346 C   0  0  0  0  0  0  0  0  0  0  0  0
   -4.5522   -0.8966   -0.6898 C   0  0  0  0  0  0  0  0  0  0  0  0
   -4.8974    0.1437    0.3498 C   0  0  0  0  0  0  0  0  0  0  0  0
   -5.1319    1.4777   -0.0160 C   0  0  0  0  0  0  0  0  0  0  0  0
   -5.4305    2.4389    0.9536 C   0  0  0  0  0  0  0  0  0  0  0  0
   -5.5008    2.0804    2.2994 C   0  0  0  0  0  0  0  0  0  0  0  0
   -5.2704    0.7593    2.6762 C   0  0  0  0  0  0  0  0  0  0  0  0
   -4.9715   -0.1931    1.7052 C   0  0  0  0  0  0  0  0  0  0  0  0
   -4.7560   -1.4578    2.0951 F   0  0  0  0  0  0  0  0  0  0  0  0
   -3.4626   -3.0230    0.6587 H   0  0  0  0  0  0  0  0  0  0  0  0
   -1.8523   -3.6554    0.4044 H   0  0  0  0  0  0  0  0  0  0  0  0
   -2.1009   -2.3457    1.5752 H   0  0  0  0  0  0  0  0  0  0  0  0
   -0.1780   -2.3520   -0.4839 H   0  0  0  0  0  0  0  0  0  0  0  0
    1.6230   -1.1473   -0.1418 H   0  0  0  0  0  0  0  0  0  0  0  0
    3.4694   -2.6636    0.3893 H   0  0  0  0  0  0  0  0  0  0  0  0
    4.2755   -2.1605   -1.0967 H   0  0  0  0  0  0  0  0  0  0  0  0
    3.5245   -1.2808    2.4034 H   0  0  0  0  0  0  0  0  0  0  0  0
    4.5137    0.6612    3.6047 H   0  0  0  0  0  0  0  0  0  0  0  0
    5.0659    0.2680   -1.3464 H   0  0  0  0  0  0  0  0  0  0  0  0
    6.0391    4.1966    0.9672 H   0  0  0  0  0  0  0  0  0  0  0  0
    7.5450    3.2754    1.2069 H   0  0  0  0  0  0  0  0  0  0  0  0
    1.1875    0.8761   -4.1560 H   0  0  0  0  0  0  0  0  0  0  0  0
   -5.1551   -0.7161   -1.5897 H   0  0  0  0  0  0  0  0  0  0  0  0
   -4.9001   -1.8793   -0.3525 H   0  0  0  0  0  0  0  0  0  0  0  0
   -5.0838    1.7805   -1.0617 H   0  0  0  0  0  0  0  0  0  0  0  0
   -5.6042    3.4703    0.6558 H   0  0  0  0  0  0  0  0  0  0  0  0
   -5.7341    2.8304    3.0510 H   0  0  0  0  0  0  0  0  0  0  0  0
   -5.3229    0.4639    3.7195 H   0  0  0  0  0  0  0  0  0  0  0  0
  1  2  1  0
  2  3  1  0
  3  4  1  0
  4  5  2  0
  5  6  1  0
  6  7  2  0
  6  8  1  0
  8  9  1  0
  9 10  1  0
 10 11  2  0
 11 12  1  0
 12 13  2  0
 13 14  1  0
 14 15  2  0
 14 16  1  0
 16 17  1  0
 17 18  1  0
  5 19  1  0
 19 20  2  0
 20 21  1  0
 21 22  1  0
 22 23  2  0
 22 24  1  0
 24 25  1  0
 25 26  1  0
 26 27  2  0
 27 28  1  0
 28 29  2  0
 29 30  1  0
 30 31  2  0
 31 32  1  0
 24  2  2  0
 31 26  1  0
 21  4  1  0
 15 10  1  0
 18 13  1  0
  1 33  1  0
  1 34  1  0
  1 35  1  0
  3 36  1  0
  8 37  1  0
  9 38  1  0
  9 39  1  0
 11 40  1  0
 12 41  1  0
 15 42  1  0
 17 43  1  0
 17 44  1  0
 19 45  1  0
 25 46  1  0
 25 47  1  0
 27 48  1  0
 28 49  1  0
 29 50  1  0
 30 51  1  0
M  END
$$$$
