
     RDKit          3D

 38 41  0  0  0  0  0  0  0  0999 V2000
   -5.1780    2.1792    3.2698 O   0  0  0  0  0  0  0  0  0  0  0  0
   -5.0935    1.7671    2.1163 C   0  0  0  0  0  0  0  0  0  0  0  0
   -3.9962    0.9571    1.6219 C   0  0  0  0  0  0  0  0  0  0  0  0
   -2.8867    0.5925    2.3592 C   0  0  0  0  0  0  0  0  0  0  0  0
   -2.0639   -0.1587    1.5635 N   0  0  0  0  0  0  0  0  0  0  0  0
   -0.8207   -0.7663    2.0147 C   0  0  0  0  0  0  0  0  0  0  0  0
    0.4028   -0.0841    1.4269 C   0  0  0  0  0  0  0  0  0  0  0  0
    0.5895    1.1206    1.5678 O   0  0  0  0  0  0  0  0  0  0  0  0
    1.2508   -0.9668    0.7684 N   0  0  0  0  0  0  0  0  0  0  0  0
    2.4534   -0.6580    0.0946 C   0  0  0  0  0  0  0  0  0  0  0  0
    3.1539   -1.7433   -0.4816 C   0  0  0  0  0  0  0  0  0  0  0  0
    4.3544   -1.5479   -1.1743 C   0  0  0  0  0  0  0  0  0  0  0  0
    4.8289   -0.2610   -1.2761 C   0  0  0  0  0  0  0  0  0  0  0  0
    4.1549    0.7996   -0.7212 C   0  0  0  0  0  0  0  0  0  0  0  0
    2.9684    0.6361   -0.0323 C   0  0  0  0  0  0  0  0  0  0  0  0
    4.7905    1.9837   -0.9360 O   0  0  0  0  0  0  0  0  0  0  0  0
    5.9397    1.5449   -1.6882 C   0  0  0  0  0  0  0  0  0  0  0  0
    5.9704    0.1188   -1.9080 O   0  0  0  0  0  0  0  0  0  0  0  0
   -2.6245   -0.3119    0.3106 C   0  0  0  0  0  0  0  0  0  0  0  0
   -2.1696   -0.9951   -0.8296 C   0  0  0  0  0  0  0  0  0  0  0  0
   -2.9654   -0.9675   -1.9780 C   0  0  0  0  0  0  0  0  0  0  0  0
   -4.1755   -0.2834   -1.9930 C   0  0  0  0  0  0  0  0  0  0  0  0
   -4.6221    0.3952   -0.8547 C   0  0  0  0  0  0  0  0  0  0  0  0
   -3.8388    0.3859    0.3204 C   0  0  0  0  0  0  0  0  0  0  0  0
   -5.8815    1.9987    1.3810 H   0  0  0  0  0  0  0  0  0  0  0  0
   -2.6251    0.8269    3.3844 H   0  0  0  0  0  0  0  0  0  0  0  0
   -0.7679   -0.6921    3.1063 H   0  0  0  0  0  0  0  0  0  0  0  0
   -0.8686   -1.8293    1.7565 H   0  0  0  0  0  0  0  0  0  0  0  0
    0.9939   -1.9458    0.7671 H   0  0  0  0  0  0  0  0  0  0  0  0
    2.7719   -2.7578   -0.3963 H   0  0  0  0  0  0  0  0  0  0  0  0
    4.8936   -2.3781   -1.6161 H   0  0  0  0  0  0  0  0  0  0  0  0
    2.4808    1.5109    0.3795 H   0  0  0  0  0  0  0  0  0  0  0  0
    6.8465    1.8353   -1.1452 H   0  0  0  0  0  0  0  0  0  0  0  0
    5.9358    2.0493   -2.6614 H   0  0  0  0  0  0  0  0  0  0  0  0
   -1.2240   -1.5254   -0.8410 H   0  0  0  0  0  0  0  0  0  0  0  0
   -2.6300   -1.4840   -2.8747 H   0  0  0  0  0  0  0  0  0  0  0  0
   -4.7788   -0.2713   -2.8976 H   0  0  0  0  0  0  0  0  0  0  0  0
   -5.5692    0.9260   -0.8876 H   0  0  0  0  0  0  0  0  0  0  0  0
  1  2  2  0
  2  3  1  0
  3  4  2  0
  4  5  1  0
  5  6  1  0
  6  7  1  0
  7  8  2  0
  7  9  1  0
  9 10  1  0
 10 11  2  0
 11 12  1  0
 12 13  2  0
 13 14  1  0
 14 15  2  0
 14 16  1  0
 16 17  1  0
 17 18  1  0
  5 19  1  0
 19 20  2  0
 20 21  1  0
 21 22  2  0
 22 23  1  0
 23 24  2  0
 24  3  1  0
 15 10  1  0
 24 19  1  0
 18 13  1  0
  2 25  1  0
  4 26  1  0
  6 27  1  0
  6 28  1  0
  9 29  1  0
 11 30  1  0
 12 31  1  0
 15 32  1  0
 17 33  1  0
 17 34  1  0
 20 35  1  0
 21 36  1  0
 22 37  1  0
 23 38  1  0
M  END
$$$$
