
     RDKit          3D

 57 60  0  0  0  0  0  0  0  0999 V2000
   -1.7944    1.1626    4.1670 C   0  0  0  0  0  0  0  0  0  0  0  0
   -1.7619    0.1032    3.2179 O   0  0  0  0  0  0  0  0  0  0  0  0
   -0.5518   -0.2819    2.7159 C   0  0  0  0  0  0  0  0  0  0  0  0
    0.6700    0.2886    3.0931 C   0  0  0  0  0  0  0  0  0  0  0  0
    1.8728   -0.1526    2.5266 C   0  0  0  0  0  0  0  0  0  0  0  0
    1.8691   -1.1747    1.5724 C   0  0  0  0  0  0  0  0  0  0  0  0
    3.1264   -1.6670    0.9487 C   0  0  0  0  0  0  0  0  0  0  0  0
    3.2193   -2.8380    0.6012 O   0  0  0  0  0  0  0  0  0  0  0  0
    4.1164   -0.7259    0.7642 N   0  0  0  0  0  0  0  0  0  0  0  0
    5.3094   -1.0366    0.0072 C   0  0  0  0  0  0  0  0  0  0  0  0
    5.1545   -0.5986   -1.4280 C   0  0  0  0  0  0  0  0  0  0  0  0
    4.5284   -1.4555   -2.3639 C   0  0  0  0  0  0  0  0  0  0  0  0
    4.3398   -1.0595   -3.6916 C   0  0  0  0  0  0  0  0  0  0  0  0
    4.7762    0.1959   -4.0525 C   0  0  0  0  0  0  0  0  0  0  0  0
    5.3789    1.0396   -3.1497 C   0  0  0  0  0  0  0  0  0  0  0  0
    5.5815    0.6763   -1.8345 C   0  0  0  0  0  0  0  0  0  0  0  0
    5.7254    2.2321   -3.7044 O   0  0  0  0  0  0  0  0  0  0  0  0
    5.2715    2.0407   -5.0607 C   0  0  0  0  0  0  0  0  0  0  0  0
    4.6690    0.7504   -5.2892 O   0  0  0  0  0  0  0  0  0  0  0  0
    0.6609   -1.7684    1.2014 C   0  0  0  0  0  0  0  0  0  0  0  0
   -0.5413   -1.3130    1.7636 C   0  0  0  0  0  0  0  0  0  0  0  0
   -2.0593   -2.0730    1.2341 S   0  0  0  0  0  6  0  0  0  0  0  0
   -2.7386   -2.5706    2.4117 O   0  0  0  0  0  0  0  0  0  0  0  0
   -1.7585   -2.9664    0.1316 O   0  0  0  0  0  0  0  0  0  0  0  0
   -2.9535   -0.7820    0.5668 N   0  0  0  0  0  0  0  0  0  0  0  0
   -2.3504   -0.1464   -0.6250 C   0  0  0  0  0  0  0  0  0  0  0  0
   -4.3863   -1.1148    0.3588 C   0  0  0  0  0  0  0  0  0  0  0  0
   -5.2740    0.1042    0.4868 C   0  0  0  0  0  0  0  0  0  0  0  0
   -5.3760    0.7639    1.7220 C   0  0  0  0  0  0  0  0  0  0  0  0
   -6.1941    1.8855    1.8616 C   0  0  0  0  0  0  0  0  0  0  0  0
   -6.9145    2.3616    0.7674 C   0  0  0  0  0  0  0  0  0  0  0  0
   -6.8176    1.7170   -0.4667 C   0  0  0  0  0  0  0  0  0  0  0  0
   -6.0023    0.5918   -0.6077 C   0  0  0  0  0  0  0  0  0  0  0  0
   -1.2500    0.8935    5.0796 H   0  0  0  0  0  0  0  0  0  0  0  0
   -1.4083    2.0925    3.7337 H   0  0  0  0  0  0  0  0  0  0  0  0
   -2.8396    1.3331    4.4416 H   0  0  0  0  0  0  0  0  0  0  0  0
    0.7249    1.0786    3.8364 H   0  0  0  0  0  0  0  0  0  0  0  0
    2.8059    0.2920    2.8639 H   0  0  0  0  0  0  0  0  0  0  0  0
    3.8789    0.2528    0.8509 H   0  0  0  0  0  0  0  0  0  0  0  0
    6.1425   -0.5038    0.4786 H   0  0  0  0  0  0  0  0  0  0  0  0
    5.5364   -2.1074    0.0599 H   0  0  0  0  0  0  0  0  0  0  0  0
    4.1786   -2.4382   -2.0464 H   0  0  0  0  0  0  0  0  0  0  0  0
    3.8606   -1.7151   -4.4098 H   0  0  0  0  0  0  0  0  0  0  0  0
    6.0560    1.3657   -1.1446 H   0  0  0  0  0  0  0  0  0  0  0  0
    6.1267    2.1543   -5.7362 H   0  0  0  0  0  0  0  0  0  0  0  0
    4.5343    2.8167   -5.2947 H   0  0  0  0  0  0  0  0  0  0  0  0
    0.6621   -2.5782    0.4725 H   0  0  0  0  0  0  0  0  0  0  0  0
   -2.8897    0.7706   -0.8763 H   0  0  0  0  0  0  0  0  0  0  0  0
   -1.3153    0.1462   -0.4355 H   0  0  0  0  0  0  0  0  0  0  0  0
   -2.3823   -0.8157   -1.4890 H   0  0  0  0  0  0  0  0  0  0  0  0
   -4.7404   -1.8402    1.1008 H   0  0  0  0  0  0  0  0  0  0  0  0
   -4.5193   -1.5899   -0.6219 H   0  0  0  0  0  0  0  0  0  0  0  0
   -4.8115    0.3972    2.5789 H   0  0  0  0  0  0  0  0  0  0  0  0
   -6.2706    2.3835    2.8253 H   0  0  0  0  0  0  0  0  0  0  0  0
   -7.5533    3.2342    0.8767 H   0  0  0  0  0  0  0  0  0  0  0  0
   -7.3810    2.0896   -1.3189 H   0  0  0  0  0  0  0  0  0  0  0  0
   -5.9406    0.0994   -1.5760 H   0  0  0  0  0  0  0  0  0  0  0  0
  1  2  1  0
  2  3  1  0
  3  4  2  0
  4  5  1  0
  5  6  2  0
  6  7  1  0
  7  8  2  0
  7  9  1  0
  9 10  1  0
 10 11  1  0
 11 12  2  0
 12 13  1  0
 13 14  2  0
 14 15  1  0
 15 16  2  0
 15 17  1  0
 17 18  1  0
 18 19  1  0
  6 20  1  0
 20 21  2  0
 21 22  1  0
 22 23  2  0
 22 24  2  0
 22 25  1  0
 25 26  1  0
 25 27  1  0
 27 28  1  0
 28 29  2  0
 29 30  1  0
 30 31  2  0
 31 32  1  0
 32 33  2  0
 21  3  1  0
 33 28  1  0
 16 11  1  0
 19 14  1  0
  1 34  1  0
  1 35  1  0
  1 36  1  0
  4 37  1  0
  5 38  1  0
  9 39  1  0
 10 40  1  0
 10 41  1  0
 12 42  1  0
 13 43  1  0
 16 44  1  0
 18 45  1  0
 18 46  1  0
 20 47  1  0
 26 48  1  0
 26 49  1  0
 26 50  1  0
 27 51  1  0
 27 52  1  0
 29 53  1  0
 30 54  1  0
 31 55  1  0
 32 56  1  0
 33 57  1  0
M  END
$$$$
