
     RDKit          3D

 39 40  0  0  0  0  0  0  0  0999 V2000
    5.7974    0.0497   -2.3038 C   0  0  0  0  0  0  0  0  0  0  0  0
    5.7013   -0.4480   -0.8662 C   0  0  0  0  0  0  0  0  0  0  0  0
    4.8553    0.4264    0.0799 C   0  0  0  0  0  0  0  0  0  0  0  0
    5.2558    1.9013    0.0199 C   0  0  0  0  0  0  0  0  0  0  0  0
    3.3460    0.2493   -0.1537 C   0  0  0  0  0  0  0  0  0  0  0  0
    2.9103   -0.3961   -1.1004 O   0  0  0  0  0  0  0  0  0  0  0  0
    2.5926    0.8688    0.8203 N   0  0  0  0  0  0  0  0  0  0  0  0
    1.2235    0.9190    0.9007 C   0  0  0  0  0  0  0  0  0  0  0  0
    0.6086    1.5062    1.9038 N   0  0  0  0  0  0  0  0  0  0  0  0
   -0.7651    1.4456    1.7826 N   0  0  0  0  0  0  0  0  0  0  0  0
   -1.1333    0.8159    0.6860 C   0  0  0  0  0  0  0  0  0  0  0  0
   -2.5487    0.5813    0.2748 C   0  0  0  0  0  0  0  0  0  0  0  0
   -3.1289   -0.6430    0.9842 C   0  0  0  0  0  0  0  0  0  0  0  0
   -4.5606   -0.8912    0.5786 C   0  0  0  0  0  0  0  0  0  0  0  0
   -4.8566   -1.7143   -0.5161 C   0  0  0  0  0  0  0  0  0  0  0  0
   -6.1809   -1.9251   -0.9033 C   0  0  0  0  0  0  0  0  0  0  0  0
   -7.2190   -1.3130   -0.2035 C   0  0  0  0  0  0  0  0  0  0  0  0
   -6.9345   -0.4887    0.8836 C   0  0  0  0  0  0  0  0  0  0  0  0
   -5.6112   -0.2764    1.2727 C   0  0  0  0  0  0  0  0  0  0  0  0
    0.1791    0.2566   -0.2693 S   0  0  0  0  0  0  0  0  0  0  0  0
    4.8114    0.1771   -2.7585 H   0  0  0  0  0  0  0  0  0  0  0  0
    6.3549   -0.6720   -2.9100 H   0  0  0  0  0  0  0  0  0  0  0  0
    6.3296    1.0040   -2.3612 H   0  0  0  0  0  0  0  0  0  0  0  0
    5.3050   -1.4710   -0.8727 H   0  0  0  0  0  0  0  0  0  0  0  0
    6.7198   -0.5155   -0.4631 H   0  0  0  0  0  0  0  0  0  0  0  0
    5.0499    0.0598    1.0977 H   0  0  0  0  0  0  0  0  0  0  0  0
    4.9134    2.3723   -0.9077 H   0  0  0  0  0  0  0  0  0  0  0  0
    4.8155    2.4667    0.8479 H   0  0  0  0  0  0  0  0  0  0  0  0
    6.3426    2.0154    0.0893 H   0  0  0  0  0  0  0  0  0  0  0  0
    3.0503    1.3188    1.6006 H   0  0  0  0  0  0  0  0  0  0  0  0
   -2.6201    0.4625   -0.8138 H   0  0  0  0  0  0  0  0  0  0  0  0
   -3.1380    1.4734    0.5233 H   0  0  0  0  0  0  0  0  0  0  0  0
   -3.0762   -0.5165    2.0738 H   0  0  0  0  0  0  0  0  0  0  0  0
   -2.5292   -1.5360    0.7635 H   0  0  0  0  0  0  0  0  0  0  0  0
   -4.0581   -2.1984   -1.0741 H   0  0  0  0  0  0  0  0  0  0  0  0
   -6.4027   -2.5674   -1.7515 H   0  0  0  0  0  0  0  0  0  0  0  0
   -8.2499   -1.4782   -0.5054 H   0  0  0  0  0  0  0  0  0  0  0  0
   -7.7439   -0.0105    1.4291 H   0  0  0  0  0  0  0  0  0  0  0  0
   -5.4052    0.3714    2.1222 H   0  0  0  0  0  0  0  0  0  0  0  0
  1  2  1  0
  2  3  1  0
  3  4  1  0
  3  5  1  0
  5  6  2  0
  5  7  1  0
  7  8  1  0
  8  9  2  0
  9 10  1  0
 10 11  2  0
 11 12  1  0
 12 13  1  0
 13 14  1  0
 14 15  2  0
 15 16  1  0
 16 17  2  0
 17 18  1  0
 18 19  2  0
 11 20  1  0
 20  8  1  0
 19 14  1  0
  1 21  1  0
  1 22  1  0
  1 23  1  0
  2 24  1  0
  2 25  1  0
  3 26  1  0
  4 27  1  0
  4 28  1  0
  4 29  1  0
  7 30  1  0
 12 31  1  0
 12 32  1  0
 13 33  1  0
 13 34  1  0
 15 35  1  0
 16 36  1  0
 17 37  1  0
 18 38  1  0
 19 39  1  0
M  END
$$$$
