
     RDKit          3D

 36 37  0  0  0  0  0  0  0  0999 V2000
    1.7406    0.9881   -1.7071 O   0  0  0  0  0  0  0  0  0  0  0  0
    0.7603    0.2759   -1.4927 C   0  0  0  0  0  0  0  0  0  0  0  0
   -0.5137    0.3308   -2.3375 C   0  0  0  0  0  0  0  0  0  0  0  0
   -1.6678   -0.1958   -1.6777 O   0  0  0  0  0  0  0  0  0  0  0  0
   -2.2296    0.6530   -0.7837 C   0  0  0  0  0  0  0  0  0  0  0  0
   -1.7975    1.7385   -0.4389 O   0  0  0  0  0  0  0  0  0  0  0  0
   -3.4029    0.0148   -0.1641 C   0  0  0  0  0  0  0  0  0  0  0  0
   -3.4323   -0.0242    1.2378 C   0  0  0  0  0  0  0  0  0  0  0  0
   -4.5107   -0.6183    1.8883 C   0  0  0  0  0  0  0  0  0  0  0  0
   -4.5421   -0.6820    3.6058 Cl  0  0  0  0  0  0  0  0  0  0  0  0
   -5.5641   -1.1634    1.1564 C   0  0  0  0  0  0  0  0  0  0  0  0
   -5.5447   -1.1051   -0.2399 C   0  0  0  0  0  0  0  0  0  0  0  0
   -4.4673   -0.5112   -0.9063 C   0  0  0  0  0  0  0  0  0  0  0  0
   -4.5489   -0.4187   -2.6283 Cl  0  0  0  0  0  0  0  0  0  0  0  0
    0.7509   -0.6729   -0.4893 N   0  0  0  0  0  0  0  0  0  0  0  0
    1.9448   -0.9302    0.2928 C   0  0  0  0  0  0  0  0  0  0  0  0
    2.3478    0.2560    1.1830 C   0  0  0  0  0  0  0  0  0  0  0  0
    3.7857    0.4106    1.2516 N   0  0  0  0  0  0  0  0  0  0  0  0
    4.5368    1.2218    0.4339 C   0  0  0  0  0  0  0  0  0  0  0  0
    3.9801    1.9730   -0.5579 O   0  0  0  0  0  0  0  0  0  0  0  0
    5.8474    1.2064    0.6942 C   0  0  0  0  0  0  0  0  0  0  0  0
    6.2287    0.1196    1.9927 S   0  0  0  0  0  0  0  0  0  0  0  0
    4.5236   -0.3243    2.1698 C   0  0  0  0  0  0  0  0  0  0  0  0
    4.1117   -1.1536    2.9651 O   0  0  0  0  0  0  0  0  0  0  0  0
   -0.6917    1.3622   -2.6637 H   0  0  0  0  0  0  0  0  0  0  0  0
   -0.3422   -0.2774   -3.2316 H   0  0  0  0  0  0  0  0  0  0  0  0
   -2.6168    0.4085    1.8144 H   0  0  0  0  0  0  0  0  0  0  0  0
   -6.4076   -1.6249    1.6652 H   0  0  0  0  0  0  0  0  0  0  0  0
   -6.3809   -1.5168   -0.8018 H   0  0  0  0  0  0  0  0  0  0  0  0
    0.0021   -1.3568   -0.4902 H   0  0  0  0  0  0  0  0  0  0  0  0
    2.7431   -1.1859   -0.4142 H   0  0  0  0  0  0  0  0  0  0  0  0
    1.7519   -1.8155    0.9082 H   0  0  0  0  0  0  0  0  0  0  0  0
    1.8999    1.2043    0.8668 H   0  0  0  0  0  0  0  0  0  0  0  0
    1.9668    0.0741    2.1961 H   0  0  0  0  0  0  0  0  0  0  0  0
    3.1460    1.5595   -0.8678 H   0  0  0  0  0  0  0  0  0  0  0  0
    6.5924    1.7799    0.1614 H   0  0  0  0  0  0  0  0  0  0  0  0
  1  2  2  0
  2  3  1  0
  3  4  1  0
  4  5  1  0
  5  6  2  0
  5  7  1  0
  7  8  2  0
  8  9  1  0
  9 10  1  0
  9 11  2  0
 11 12  1  0
 12 13  2  0
 13 14  1  0
  2 15  1  0
 15 16  1  0
 16 17  1  0
 17 18  1  0
 18 19  1  0
 19 20  1  0
 19 21  2  0
 21 22  1  0
 22 23  1  0
 23 24  2  0
 13  7  1  0
 23 18  1  0
  3 25  1  0
  3 26  1  0
  8 27  1  0
 11 28  1  0
 12 29  1  0
 15 30  1  0
 16 31  1  0
 16 32  1  0
 17 33  1  0
 17 34  1  0
 20 35  1  0
 21 36  1  0
M  END
$$$$
