
     RDKit          3D

 40 42  0  0  0  0  0  0  0  0999 V2000
   -2.2408    0.1289   -2.7310 O   0  0  0  0  0  0  0  0  0  0  0  0
   -1.9190    0.0314   -1.5522 C   0  0  0  0  0  0  0  0  0  0  0  0
   -2.7720   -0.0827   -0.4725 N   0  0  0  0  0  0  0  0  0  0  0  0
   -4.1882   -0.1858   -0.4722 C   0  0  0  0  0  0  0  0  0  0  0  0
   -4.9295   -0.2548   -1.6583 C   0  0  0  0  0  0  0  0  0  0  0  0
   -6.3245   -0.3547   -1.6331 C   0  0  0  0  0  0  0  0  0  0  0  0
   -7.0039   -0.3926   -0.4211 C   0  0  0  0  0  0  0  0  0  0  0  0
   -6.2885   -0.3323    0.7726 C   0  0  0  0  0  0  0  0  0  0  0  0
   -4.8855   -0.2316    0.7591 C   0  0  0  0  0  0  0  0  0  0  0  0
   -4.1423   -0.1748    2.0482 C   0  0  0  0  0  0  0  0  0  0  0  0
   -2.9307   -0.0888    2.1641 O   0  0  0  0  0  0  0  0  0  0  0  0
   -4.9364   -0.2262    3.1321 O   0  0  0  0  0  0  0  0  0  0  0  0
   -0.4642    0.0733   -1.2145 C   0  0  0  0  0  0  0  0  0  0  0  0
    0.0692   -0.5891   -0.1038 C   0  0  0  0  0  0  0  0  0  0  0  0
    1.4445   -0.5287    0.1639 C   0  0  0  0  0  0  0  0  0  0  0  0
    2.3045    0.1819   -0.6755 C   0  0  0  0  0  0  0  0  0  0  0  0
    3.6984    0.2892   -0.4825 N   0  0  0  0  0  0  0  0  0  0  0  0
    4.4670   -0.2744    0.5291 C   0  0  0  0  0  0  0  0  0  0  0  0
    4.0134   -0.9719    1.4312 O   0  0  0  0  0  0  0  0  0  0  0  0
    5.8906    0.0309    0.4329 C   0  0  0  0  0  0  0  0  0  0  0  0
    6.6533    0.8035   -0.4307 C   0  0  0  0  0  0  0  0  0  0  0  0
    8.0008    0.7002    0.0018 C   0  0  0  0  0  0  0  0  0  0  0  0
    7.9889   -0.1249    1.1003 C   0  0  0  0  0  0  0  0  0  0  0  0
    9.5179   -0.6345    2.1096 Br  0  0  0  0  0  0  0  0  0  0  0  0
    6.7230   -0.5302    1.3697 O   0  0  0  0  0  0  0  0  0  0  0  0
    1.7672    0.8322   -1.7939 C   0  0  0  0  0  0  0  0  0  0  0  0
    0.3959    0.7752   -2.0647 C   0  0  0  0  0  0  0  0  0  0  0  0
   -2.3523   -0.0251    0.4566 H   0  0  0  0  0  0  0  0  0  0  0  0
   -4.4491   -0.2370   -2.6320 H   0  0  0  0  0  0  0  0  0  0  0  0
   -6.8757   -0.4043   -2.5691 H   0  0  0  0  0  0  0  0  0  0  0  0
   -8.0883   -0.4708   -0.4053 H   0  0  0  0  0  0  0  0  0  0  0  0
   -6.8362   -0.3681    1.7111 H   0  0  0  0  0  0  0  0  0  0  0  0
   -4.3196   -0.1697    3.8921 H   0  0  0  0  0  0  0  0  0  0  0  0
   -0.5568   -1.1820    0.5586 H   0  0  0  0  0  0  0  0  0  0  0  0
    1.8064   -1.0606    1.0387 H   0  0  0  0  0  0  0  0  0  0  0  0
    4.1888    0.8307   -1.1783 H   0  0  0  0  0  0  0  0  0  0  0  0
    6.3003    1.3787   -1.2740 H   0  0  0  0  0  0  0  0  0  0  0  0
    8.8708    1.1693   -0.4360 H   0  0  0  0  0  0  0  0  0  0  0  0
    2.4026    1.3892   -2.4773 H   0  0  0  0  0  0  0  0  0  0  0  0
    0.0001    1.2813   -2.9432 H   0  0  0  0  0  0  0  0  0  0  0  0
  1  2  2  0
  2  3  1  0
  3  4  1  0
  4  5  2  0
  5  6  1  0
  6  7  2  0
  7  8  1  0
  8  9  2  0
  9 10  1  0
 10 11  2  0
 10 12  1  0
  2 13  1  0
 13 14  2  0
 14 15  1  0
 15 16  2  0
 16 17  1  0
 17 18  1  0
 18 19  2  0
 18 20  1  0
 20 21  2  0
 21 22  1  0
 22 23  2  0
 23 24  1  0
 23 25  1  0
 16 26  1  0
 26 27  2  0
  9  4  1  0
 27 13  1  0
 25 20  1  0
  3 28  1  0
  5 29  1  0
  6 30  1  0
  7 31  1  0
  8 32  1  0
 12 33  1  0
 14 34  1  0
 15 35  1  0
 17 36  1  0
 21 37  1  0
 22 38  1  0
 26 39  1  0
 27 40  1  0
M  END
$$$$
