
     RDKit          3D

 36 36  0  0  0  0  0  0  0  0999 V2000
    0.4511   -4.0363    4.1586 C   0  0  0  0  0  0  0  0  0  0  0  0
   -0.0422   -3.6254    2.7857 C   0  0  0  0  0  0  0  0  0  0  0  0
    1.0823   -3.2261    2.0039 O   0  0  0  0  0  0  0  0  0  0  0  0
    0.6897   -2.8143    0.6928 C   0  0  0  0  0  0  0  0  0  0  0  0
    1.9525   -2.4656   -0.0864 C   0  0  0  0  0  0  0  0  0  0  0  0
    1.6736   -2.0610   -1.5287 C   0  0  0  0  0  0  0  0  0  0  0  0
    1.0685   -0.7456   -1.6302 N   0  0  0  0  0  0  0  0  0  0  0  0
   -0.2946   -0.5742   -1.7350 C   0  0  0  0  0  0  0  0  0  0  0  0
   -1.1015   -1.4952   -1.7243 O   0  0  0  0  0  0  0  0  0  0  0  0
   -0.7332    0.8391   -1.8642 C   0  0  0  0  0  0  0  0  0  0  0  0
   -1.6034    1.1510   -2.9439 C   0  0  0  0  0  0  0  0  0  0  0  0
   -2.3113    1.4091   -3.8270 N   0  0  0  0  0  0  0  0  0  0  0  0
   -0.3623    1.6841   -0.8845 C   0  0  0  0  0  0  0  0  0  0  0  0
   -0.7110    3.0630   -0.8481 C   0  0  0  0  0  0  0  0  0  0  0  0
   -0.8063    3.8994    0.2633 C   0  0  0  0  0  0  0  0  0  0  0  0
   -1.1700    5.1946   -0.1847 C   0  0  0  0  0  0  0  0  0  0  0  0
   -1.2548    5.0864   -1.5482 C   0  0  0  0  0  0  0  0  0  0  0  0
   -1.5588    6.0469   -2.5612 N   0  0  0  0  0  4  0  0  0  0  0  0
   -1.9047    7.1677   -2.1625 O   0  0  0  0  0  0  0  0  0  0  0  0
   -1.4357    5.7031   -3.7426 O   0  0  0  0  0  1  0  0  0  0  0  0
   -0.9833    3.8245   -1.9648 O   0  0  0  0  0  0  0  0  0  0  0  0
    0.9728   -3.2057    4.6455 H   0  0  0  0  0  0  0  0  0  0  0  0
    1.1680   -4.8604    4.0801 H   0  0  0  0  0  0  0  0  0  0  0  0
   -0.3811   -4.3516    4.7941 H   0  0  0  0  0  0  0  0  0  0  0  0
   -0.5469   -4.4696    2.3034 H   0  0  0  0  0  0  0  0  0  0  0  0
   -0.7450   -2.7900    2.8769 H   0  0  0  0  0  0  0  0  0  0  0  0
    0.0328   -1.9429    0.7794 H   0  0  0  0  0  0  0  0  0  0  0  0
    0.1494   -3.6290    0.1974 H   0  0  0  0  0  0  0  0  0  0  0  0
    2.6170   -3.3389   -0.0820 H   0  0  0  0  0  0  0  0  0  0  0  0
    2.4990   -1.6711    0.4373 H   0  0  0  0  0  0  0  0  0  0  0  0
    1.0408   -2.8032   -2.0274 H   0  0  0  0  0  0  0  0  0  0  0  0
    2.6191   -2.0063   -2.0789 H   0  0  0  0  0  0  0  0  0  0  0  0
    1.6896    0.0496   -1.7175 H   0  0  0  0  0  0  0  0  0  0  0  0
    0.2179    1.3102   -0.0432 H   0  0  0  0  0  0  0  0  0  0  0  0
   -0.6406    3.5980    1.2902 H   0  0  0  0  0  0  0  0  0  0  0  0
   -1.3372    6.0857    0.4052 H   0  0  0  0  0  0  0  0  0  0  0  0
  1  2  1  0
  2  3  1  0
  3  4  1  0
  4  5  1  0
  5  6  1  0
  6  7  1  0
  7  8  1  0
  8  9  2  0
  8 10  1  0
 10 11  1  0
 11 12  3  0
 10 13  2  3
 13 14  1  0
 14 15  2  0
 15 16  1  0
 16 17  2  0
 17 18  1  0
 18 19  2  0
 18 20  1  0
 17 21  1  0
 21 14  1  0
  1 22  1  0
  1 23  1  0
  1 24  1  0
  2 25  1  0
  2 26  1  0
  4 27  1  0
  4 28  1  0
  5 29  1  0
  5 30  1  0
  6 31  1  0
  6 32  1  0
  7 33  1  0
 13 34  1  0
 15 35  1  0
 16 36  1  0
M  CHG  2  18   1  20  -1
M  END
$$$$
