
     RDKit          3D

 32 33  0  0  0  0  0  0  0  0999 V2000
    4.1520   -1.1572   -1.4726 C   0  0  0  0  0  0  0  0  0  0  0  0
    4.3724   -0.2663   -0.2623 C   0  0  0  0  0  0  0  0  0  0  0  0
    3.0503   -0.4647    0.9687 S   0  0  0  0  0  0  0  0  0  0  0  0
    1.7037    0.3398    0.2264 C   0  0  0  0  0  0  0  0  0  0  0  0
    1.6315    1.4187   -0.6215 C   0  0  0  0  0  0  0  0  0  0  0  0
    0.3339    1.6928   -0.9560 N   0  0  0  0  0  0  0  0  0  0  0  0
   -0.4061    0.8196   -0.2977 C   0  0  0  0  0  0  0  0  0  0  0  0
   -1.8629    0.7485   -0.3745 C   0  0  0  0  0  0  0  0  0  0  0  0
   -2.6607    1.1716    0.6951 C   0  0  0  0  0  0  0  0  0  0  0  0
   -4.0523    1.0900    0.6113 C   0  0  0  0  0  0  0  0  0  0  0  0
   -4.6535    0.5945   -0.5452 C   0  0  0  0  0  0  0  0  0  0  0  0
   -3.8663    0.1891   -1.6223 C   0  0  0  0  0  0  0  0  0  0  0  0
   -2.4751    0.2706   -1.5393 C   0  0  0  0  0  0  0  0  0  0  0  0
    0.3964   -0.0352    0.4429 N   0  0  0  0  0  0  0  0  0  0  0  0
   -0.0724   -1.1663    1.2260 C   0  0  0  0  0  0  0  0  0  0  0  0
   -0.2005   -0.8523    2.7074 C   0  0  0  0  0  0  0  0  0  0  0  0
    4.9870   -1.0440   -2.1720 H   0  0  0  0  0  0  0  0  0  0  0  0
    3.2355   -0.8969   -2.0116 H   0  0  0  0  0  0  0  0  0  0  0  0
    4.1007   -2.2139   -1.1888 H   0  0  0  0  0  0  0  0  0  0  0  0
    5.3150   -0.5453    0.2204 H   0  0  0  0  0  0  0  0  0  0  0  0
    4.4644    0.7822   -0.5607 H   0  0  0  0  0  0  0  0  0  0  0  0
    2.4411    2.0162   -1.0177 H   0  0  0  0  0  0  0  0  0  0  0  0
   -2.2033    1.5835    1.5912 H   0  0  0  0  0  0  0  0  0  0  0  0
   -4.6670    1.4229    1.4436 H   0  0  0  0  0  0  0  0  0  0  0  0
   -5.7370    0.5370   -0.6127 H   0  0  0  0  0  0  0  0  0  0  0  0
   -4.3345   -0.1823   -2.5303 H   0  0  0  0  0  0  0  0  0  0  0  0
   -1.8663   -0.0339   -2.3881 H   0  0  0  0  0  0  0  0  0  0  0  0
   -1.0381   -1.4913    0.8253 H   0  0  0  0  0  0  0  0  0  0  0  0
    0.6173   -2.0019    1.0660 H   0  0  0  0  0  0  0  0  0  0  0  0
    0.7612   -0.5635    3.1426 H   0  0  0  0  0  0  0  0  0  0  0  0
   -0.5654   -1.7308    3.2488 H   0  0  0  0  0  0  0  0  0  0  0  0
   -0.9010   -0.0311    2.8834 H   0  0  0  0  0  0  0  0  0  0  0  0
  1  2  1  0
  2  3  1  0
  3  4  1  0
  4  5  2  0
  5  6  1  0
  6  7  2  0
  7  8  1  0
  8  9  2  0
  9 10  1  0
 10 11  2  0
 11 12  1  0
 12 13  2  0
  7 14  1  0
 14 15  1  0
 15 16  1  0
 14  4  1  0
 13  8  1  0
  1 17  1  0
  1 18  1  0
  1 19  1  0
  2 20  1  0
  2 21  1  0
  5 22  1  0
  9 23  1  0
 10 24  1  0
 11 25  1  0
 12 26  1  0
 13 27  1  0
 15 28  1  0
 15 29  1  0
 16 30  1  0
 16 31  1  0
 16 32  1  0
M  END
$$$$
