
     RDKit          3D

 61 65  0  0  0  0  0  0  0  0999 V2000
   -7.6679    3.3451   -2.8816 C   0  0  0  0  0  0  0  0  0  0  0  0
   -6.7753    2.4443   -2.0817 C   0  0  0  0  0  0  0  0  0  0  0  0
   -5.8341    2.9770   -1.1958 C   0  0  0  0  0  0  0  0  0  0  0  0
   -4.9783    2.1349   -0.4766 C   0  0  0  0  0  0  0  0  0  0  0  0
   -5.0283    0.7373   -0.6264 C   0  0  0  0  0  0  0  0  0  0  0  0
   -4.1286   -0.1642    0.1200 C   0  0  0  0  0  0  0  0  0  0  0  0
   -2.8256    0.1714    0.4413 C   0  0  0  0  0  0  0  0  0  0  0  0
   -2.0525   -0.7543    1.1426 C   0  0  0  0  0  0  0  0  0  0  0  0
   -0.6425   -0.3700    1.3899 C   0  0  0  0  0  0  0  0  0  0  0  0
   -0.4267    0.6874    1.9671 O   0  0  0  0  0  0  0  0  0  0  0  0
    0.2820   -1.2589    0.8736 N   0  0  0  0  0  0  0  0  0  0  0  0
    1.6866   -1.1802    0.9602 C   0  0  0  0  0  0  0  0  0  0  0  0
    2.4204   -2.2248    0.3804 C   0  0  0  0  0  0  0  0  0  0  0  0
    3.8168   -2.2373    0.4389 C   0  0  0  0  0  0  0  0  0  0  0  0
    4.4860   -1.1853    1.0680 C   0  0  0  0  0  0  0  0  0  0  0  0
    6.2618   -1.2183    1.1666 S   0  0  0  0  0  6  0  0  0  0  0  0
    6.6369   -2.5856    1.4656 O   0  0  0  0  0  0  0  0  0  0  0  0
    6.6907   -0.1227    2.0096 O   0  0  0  0  0  0  0  0  0  0  0  0
    6.7943   -0.9224   -0.4106 N   0  0  0  0  0  0  0  0  0  0  0  0
    6.0454    0.0860   -1.1400 C   0  0  0  0  0  0  0  0  0  0  0  0
    5.1624   -0.2169   -2.1261 O   0  0  0  0  0  0  0  0  0  0  0  0
    4.6251    0.9476   -2.6410 N   0  0  0  0  0  0  0  0  0  0  0  0
    5.2137    1.9440   -1.9702 C   0  0  0  0  0  0  0  0  0  0  0  0
    4.8719    3.3529   -2.2811 C   0  0  0  0  0  0  0  0  0  0  0  0
    6.1428    1.4541   -1.0104 C   0  0  0  0  0  0  0  0  0  0  0  0
    7.0032    2.2434   -0.1016 C   0  0  0  0  0  0  0  0  0  0  0  0
    3.7708   -0.1431    1.6564 C   0  0  0  0  0  0  0  0  0  0  0  0
    2.3724   -0.1436    1.5987 C   0  0  0  0  0  0  0  0  0  0  0  0
   -2.5917   -1.9888    1.5650 C   0  0  0  0  0  0  0  0  0  0  0  0
   -1.9124   -2.9548    2.3540 C   0  0  0  0  0  0  0  0  0  0  0  0
   -2.5219   -4.1585    2.7022 C   0  0  0  0  0  0  0  0  0  0  0  0
   -3.8185   -4.4124    2.2809 C   0  0  0  0  0  0  0  0  0  0  0  0
   -4.4998   -3.4547    1.5268 C   0  0  0  0  0  0  0  0  0  0  0  0
   -3.9162   -2.2451    1.1692 C   0  0  0  0  0  0  0  0  0  0  0  0
   -4.6486   -1.3708    0.4590 N   0  0  0  0  0  0  0  0  0  0  0  0
   -5.9805    0.2203   -1.5240 C   0  0  0  0  0  0  0  0  0  0  0  0
   -6.8357    1.0585   -2.2472 C   0  0  0  0  0  0  0  0  0  0  0  0
   -7.2066    3.5657   -3.8487 H   0  0  0  0  0  0  0  0  0  0  0  0
   -7.8499    4.2869   -2.3542 H   0  0  0  0  0  0  0  0  0  0  0  0
   -8.6422    2.8741   -3.0505 H   0  0  0  0  0  0  0  0  0  0  0  0
   -5.7626    4.0529   -1.0513 H   0  0  0  0  0  0  0  0  0  0  0  0
   -4.2800    2.5924    0.2212 H   0  0  0  0  0  0  0  0  0  0  0  0
   -2.3952    1.1193    0.1364 H   0  0  0  0  0  0  0  0  0  0  0  0
   -0.0868   -2.0554    0.3668 H   0  0  0  0  0  0  0  0  0  0  0  0
    1.9152   -3.0507   -0.1161 H   0  0  0  0  0  0  0  0  0  0  0  0
    4.3652   -3.0652   -0.0036 H   0  0  0  0  0  0  0  0  0  0  0  0
    6.8998   -1.8055   -0.9098 H   0  0  0  0  0  0  0  0  0  0  0  0
    5.7292    3.8587   -2.7372 H   0  0  0  0  0  0  0  0  0  0  0  0
    4.5977    3.8937   -1.3683 H   0  0  0  0  0  0  0  0  0  0  0  0
    4.0307    3.4203   -2.9789 H   0  0  0  0  0  0  0  0  0  0  0  0
    7.8881    1.6760    0.2108 H   0  0  0  0  0  0  0  0  0  0  0  0
    7.3582    3.1542   -0.5962 H   0  0  0  0  0  0  0  0  0  0  0  0
    6.4464    2.5373    0.7941 H   0  0  0  0  0  0  0  0  0  0  0  0
    4.2813    0.6664    2.1727 H   0  0  0  0  0  0  0  0  0  0  0  0
    1.8468    0.6810    2.0714 H   0  0  0  0  0  0  0  0  0  0  0  0
   -0.9047   -2.7676    2.7221 H   0  0  0  0  0  0  0  0  0  0  0  0
   -1.9893   -4.8873    3.3081 H   0  0  0  0  0  0  0  0  0  0  0  0
   -4.3093   -5.3458    2.5459 H   0  0  0  0  0  0  0  0  0  0  0  0
   -5.5232   -3.6539    1.2148 H   0  0  0  0  0  0  0  0  0  0  0  0
   -6.0571   -0.8563   -1.6690 H   0  0  0  0  0  0  0  0  0  0  0  0
   -7.5495    0.6174   -2.9390 H   0  0  0  0  0  0  0  0  0  0  0  0
  1  2  1  0
  2  3  2  0
  3  4  1  0
  4  5  2  0
  5  6  1  0
  6  7  2  0
  7  8  1  0
  8  9  1  0
  9 10  2  0
  9 11  1  0
 11 12  1  0
 12 13  2  0
 13 14  1  0
 14 15  2  0
 15 16  1  0
 16 17  2  0
 16 18  2  0
 16 19  1  0
 19 20  1  0
 20 21  1  0
 21 22  1  0
 22 23  2  0
 23 24  1  0
 23 25  1  0
 25 26  1  0
 15 27  1  0
 27 28  2  0
  8 29  2  0
 29 30  1  0
 30 31  2  0
 31 32  1  0
 32 33  2  0
 33 34  1  0
 34 35  2  0
  5 36  1  0
 36 37  2  0
 37  2  1  0
 35  6  1  0
 28 12  1  0
 34 29  1  0
 25 20  2  0
  1 38  1  0
  1 39  1  0
  1 40  1  0
  3 41  1  0
  4 42  1  0
  7 43  1  0
 11 44  1  0
 13 45  1  0
 14 46  1  0
 19 47  1  0
 24 48  1  0
 24 49  1  0
 24 50  1  0
 26 51  1  0
 26 52  1  0
 26 53  1  0
 27 54  1  0
 28 55  1  0
 30 56  1  0
 31 57  1  0
 32 58  1  0
 33 59  1  0
 36 60  1  0
 37 61  1  0
M  END
$$$$
