
     RDKit          3D

 39 40  0  0  0  0  0  0  0  0999 V2000
    5.8019   -0.7042    0.5816 C   0  0  0  0  0  0  0  0  0  0  0  0
    5.6366    0.6545   -0.0864 C   0  0  0  0  0  0  0  0  0  0  0  0
    4.7491    0.5933   -1.3389 C   0  0  0  0  0  0  0  0  0  0  0  0
    4.7415    1.9357   -2.0711 C   0  0  0  0  0  0  0  0  0  0  0  0
    3.3179    0.1433   -1.0278 C   0  0  0  0  0  0  0  0  0  0  0  0
    2.8852   -0.8914   -1.5267 O   0  0  0  0  0  0  0  0  0  0  0  0
    2.6398    0.9889   -0.1820 N   0  0  0  0  0  0  0  0  0  0  0  0
    1.3560    0.8418    0.2797 C   0  0  0  0  0  0  0  0  0  0  0  0
    0.8020    1.7245    1.0816 N   0  0  0  0  0  0  0  0  0  0  0  0
   -0.4904    1.3813    1.4238 N   0  0  0  0  0  0  0  0  0  0  0  0
   -0.8610    0.2478    0.8651 C   0  0  0  0  0  0  0  0  0  0  0  0
   -2.2014   -0.3859    1.0356 C   0  0  0  0  0  0  0  0  0  0  0  0
   -3.2246    0.2336    0.0827 C   0  0  0  0  0  0  0  0  0  0  0  0
   -4.5853   -0.3974    0.2445 C   0  0  0  0  0  0  0  0  0  0  0  0
   -5.4943    0.1079    1.1835 C   0  0  0  0  0  0  0  0  0  0  0  0
   -6.7448   -0.4894    1.3482 C   0  0  0  0  0  0  0  0  0  0  0  0
   -7.0960   -1.5977    0.5798 C   0  0  0  0  0  0  0  0  0  0  0  0
   -6.1969   -2.1109   -0.3531 C   0  0  0  0  0  0  0  0  0  0  0  0
   -4.9456   -1.5155   -0.5195 C   0  0  0  0  0  0  0  0  0  0  0  0
    0.3491   -0.4722   -0.1174 S   0  0  0  0  0  0  0  0  0  0  0  0
    4.8471   -1.0846    0.9573 H   0  0  0  0  0  0  0  0  0  0  0  0
    6.4873   -0.6243    1.4314 H   0  0  0  0  0  0  0  0  0  0  0  0
    6.2149   -1.4377   -0.1181 H   0  0  0  0  0  0  0  0  0  0  0  0
    5.2356    1.3642    0.6463 H   0  0  0  0  0  0  0  0  0  0  0  0
    6.6311    1.0226   -0.3677 H   0  0  0  0  0  0  0  0  0  0  0  0
    5.1714   -0.1522   -2.0263 H   0  0  0  0  0  0  0  0  0  0  0  0
    4.4180    2.7550   -1.4205 H   0  0  0  0  0  0  0  0  0  0  0  0
    4.0626    1.9065   -2.9303 H   0  0  0  0  0  0  0  0  0  0  0  0
    5.7435    2.1787   -2.4403 H   0  0  0  0  0  0  0  0  0  0  0  0
    3.0878    1.8257    0.1631 H   0  0  0  0  0  0  0  0  0  0  0  0
   -2.1390   -1.4702    0.8781 H   0  0  0  0  0  0  0  0  0  0  0  0
   -2.5248   -0.2471    2.0753 H   0  0  0  0  0  0  0  0  0  0  0  0
   -2.8957    0.1248   -0.9593 H   0  0  0  0  0  0  0  0  0  0  0  0
   -3.3028    1.3156    0.2537 H   0  0  0  0  0  0  0  0  0  0  0  0
   -5.2344    0.9715    1.7920 H   0  0  0  0  0  0  0  0  0  0  0  0
   -7.4455   -0.0895    2.0766 H   0  0  0  0  0  0  0  0  0  0  0  0
   -8.0703   -2.0617    0.7083 H   0  0  0  0  0  0  0  0  0  0  0  0
   -6.4705   -2.9757   -0.9519 H   0  0  0  0  0  0  0  0  0  0  0  0
   -4.2549   -1.9296   -1.2508 H   0  0  0  0  0  0  0  0  0  0  0  0
  1  2  1  0
  2  3  1  0
  3  4  1  0
  3  5  1  0
  5  6  2  0
  5  7  1  0
  7  8  1  0
  8  9  2  0
  9 10  1  0
 10 11  2  0
 11 12  1  0
 12 13  1  0
 13 14  1  0
 14 15  2  0
 15 16  1  0
 16 17  2  0
 17 18  1  0
 18 19  2  0
 11 20  1  0
 20  8  1  0
 19 14  1  0
  1 21  1  0
  1 22  1  0
  1 23  1  0
  2 24  1  0
  2 25  1  0
  3 26  1  0
  4 27  1  0
  4 28  1  0
  4 29  1  0
  7 30  1  0
 12 31  1  0
 12 32  1  0
 13 33  1  0
 13 34  1  0
 15 35  1  0
 16 36  1  0
 17 37  1  0
 18 38  1  0
 19 39  1  0
M  END
$$$$
