
     RDKit          3D

 48 50  0  0  0  0  0  0  0  0999 V2000
    5.4818    2.7135   -1.2759 C   0  0  0  0  0  0  0  0  0  0  0  0
    4.9795    2.5122    0.0384 O   0  0  0  0  0  0  0  0  0  0  0  0
    4.3445    1.3277    0.2866 C   0  0  0  0  0  0  0  0  0  0  0  0
    4.2572    0.2448   -0.5864 C   0  0  0  0  0  0  0  0  0  0  0  0
    3.5805   -0.9236   -0.2060 C   0  0  0  0  0  0  0  0  0  0  0  0
    2.9820   -1.0232    1.0538 C   0  0  0  0  0  0  0  0  0  0  0  0
    2.2974   -2.1166    1.5159 O   0  0  0  0  0  0  0  0  0  0  0  0
    2.2013   -3.2880    0.7008 C   0  0  0  0  0  0  0  0  0  0  0  0
    1.0943   -3.1084   -0.2629 C   0  0  0  0  0  0  0  0  0  0  0  0
   -0.1338   -2.4985   -0.2082 C   0  0  0  0  0  0  0  0  0  0  0  0
   -0.6799   -2.6543   -1.5120 C   0  0  0  0  0  0  0  0  0  0  0  0
   -1.9592   -2.1543   -2.0383 C   0  0  0  0  0  0  0  0  0  0  0  0
   -2.4161   -2.4769   -3.1319 O   0  0  0  0  0  0  0  0  0  0  0  0
   -2.6092   -1.2671   -1.2057 N   0  0  0  0  0  0  0  0  0  0  0  0
   -3.8007   -0.5209   -1.5850 C   0  0  0  0  0  0  0  0  0  0  0  0
   -3.4515    0.6122   -2.5527 C   0  0  0  0  0  0  0  0  0  0  0  0
   -4.5363    0.0017   -0.3318 C   0  0  0  0  0  0  0  0  0  0  0  0
   -3.6960    0.9112    0.5406 C   0  0  0  0  0  0  0  0  0  0  0  0
   -4.1389    2.1917    0.8632 C   0  0  0  0  0  0  0  0  0  0  0  0
   -3.3454    2.9894    1.6833 C   0  0  0  0  0  0  0  0  0  0  0  0
   -2.1395    2.4925    2.1636 C   0  0  0  0  0  0  0  0  0  0  0  0
   -1.7712    1.2086    1.8014 C   0  0  0  0  0  0  0  0  0  0  0  0
   -2.5179    0.4088    1.0051 N   0  0  0  0  0  0  0  0  0  0  0  0
    0.1705   -3.3554   -2.2838 N   0  0  0  0  0  0  0  0  0  0  0  0
    1.2736   -3.6319   -1.5014 O   0  0  0  0  0  0  0  0  0  0  0  0
    3.0648    0.0778    1.9218 C   0  0  0  0  0  0  0  0  0  0  0  0
    2.3116    0.0547    3.4821 Cl  0  0  0  0  0  0  0  0  0  0  0  0
    3.7472    1.2371    1.5440 C   0  0  0  0  0  0  0  0  0  0  0  0
    4.6777    2.6605   -2.0186 H   0  0  0  0  0  0  0  0  0  0  0  0
    6.2806    2.0020   -1.5061 H   0  0  0  0  0  0  0  0  0  0  0  0
    5.9115    3.7186   -1.3184 H   0  0  0  0  0  0  0  0  0  0  0  0
    4.7050    0.2738   -1.5763 H   0  0  0  0  0  0  0  0  0  0  0  0
    3.5368   -1.7287   -0.9335 H   0  0  0  0  0  0  0  0  0  0  0  0
    1.9525   -4.1194    1.3706 H   0  0  0  0  0  0  0  0  0  0  0  0
    3.1566   -3.5437    0.2318 H   0  0  0  0  0  0  0  0  0  0  0  0
   -0.5583   -1.9957    0.6481 H   0  0  0  0  0  0  0  0  0  0  0  0
   -2.1217   -0.8960   -0.3928 H   0  0  0  0  0  0  0  0  0  0  0  0
   -4.4684   -1.2172   -2.1087 H   0  0  0  0  0  0  0  0  0  0  0  0
   -4.3463    1.1820   -2.8242 H   0  0  0  0  0  0  0  0  0  0  0  0
   -3.0125    0.2186   -3.4764 H   0  0  0  0  0  0  0  0  0  0  0  0
   -2.7198    1.3041   -2.1193 H   0  0  0  0  0  0  0  0  0  0  0  0
   -4.8467   -0.8491    0.2885 H   0  0  0  0  0  0  0  0  0  0  0  0
   -5.4555    0.5151   -0.6405 H   0  0  0  0  0  0  0  0  0  0  0  0
   -5.0842    2.5705    0.4871 H   0  0  0  0  0  0  0  0  0  0  0  0
   -3.6666    3.9925    1.9481 H   0  0  0  0  0  0  0  0  0  0  0  0
   -1.5024    3.0899    2.8068 H   0  0  0  0  0  0  0  0  0  0  0  0
   -0.8389    0.7768    2.1561 H   0  0  0  0  0  0  0  0  0  0  0  0
    3.8104    2.0808    2.2277 H   0  0  0  0  0  0  0  0  0  0  0  0
  1  2  1  0
  2  3  1  0
  3  4  2  0
  4  5  1  0
  5  6  2  0
  6  7  1  0
  7  8  1  0
  8  9  1  0
  9 10  2  0
 10 11  1  0
 11 12  1  0
 12 13  2  0
 12 14  1  0
 14 15  1  0
 15 16  1  0
 15 17  1  0
 17 18  1  0
 18 19  2  0
 19 20  1  0
 20 21  2  0
 21 22  1  0
 22 23  2  0
 11 24  2  0
 24 25  1  0
  6 26  1  0
 26 27  1  0
 26 28  2  0
 28  3  1  0
 25  9  1  0
 23 18  1  0
  1 29  1  0
  1 30  1  0
  1 31  1  0
  4 32  1  0
  5 33  1  0
  8 34  1  0
  8 35  1  0
 10 36  1  0
 14 37  1  0
 15 38  1  0
 16 39  1  0
 16 40  1  0
 16 41  1  0
 17 42  1  0
 17 43  1  0
 19 44  1  0
 20 45  1  0
 21 46  1  0
 22 47  1  0
 28 48  1  0
M  END
$$$$
