
     RDKit          3D

 51 53  0  0  0  0  0  0  0  0999 V2000
    6.1277   -2.3900   -4.0028 C   0  0  0  0  0  0  0  0  0  0  0  0
    5.1927   -1.8051   -3.1057 O   0  0  0  0  0  0  0  0  0  0  0  0
    5.7014   -1.0622   -2.0745 C   0  0  0  0  0  0  0  0  0  0  0  0
    7.0535   -0.8209   -1.8329 C   0  0  0  0  0  0  0  0  0  0  0  0
    7.4378   -0.0440   -0.7393 C   0  0  0  0  0  0  0  0  0  0  0  0
    6.4725    0.4919    0.1142 C   0  0  0  0  0  0  0  0  0  0  0  0
    5.1131    0.2580   -0.1167 C   0  0  0  0  0  0  0  0  0  0  0  0
    4.2022    0.8288    0.7875 N   0  0  0  0  0  0  0  0  0  0  0  0
    2.8260    0.7504    0.7723 C   0  0  0  0  0  0  0  0  0  0  0  0
    2.0876    0.1811   -0.0193 O   0  0  0  0  0  0  0  0  0  0  0  0
    2.1948    1.5122    1.9512 C   0  0  0  0  0  0  0  0  0  0  0  0
    2.9249    2.0898    2.7469 O   0  0  0  0  0  0  0  0  0  0  0  0
    0.8171    1.4335    1.9445 N   0  0  0  0  0  0  0  0  0  0  0  0
    0.0826    1.9686    2.9583 N   0  0  0  0  0  0  0  0  0  0  0  0
   -1.2153    1.9225    2.9010 C   0  0  0  0  0  0  0  0  0  0  0  0
   -2.0165    1.4633    1.7769 C   0  0  0  0  0  0  0  0  0  0  0  0
   -1.8193    1.7225    0.3994 C   0  0  0  0  0  0  0  0  0  0  0  0
   -2.8238    1.1020   -0.3147 C   0  0  0  0  0  0  0  0  0  0  0  0
   -2.9416    1.0185   -1.7997 C   0  0  0  0  0  0  0  0  0  0  0  0
   -3.6753    0.4794    0.5917 N   0  0  0  0  0  0  0  0  0  0  0  0
   -4.8302   -0.2891    0.2616 C   0  0  0  0  0  0  0  0  0  0  0  0
   -5.7441    0.1839   -0.6867 C   0  0  0  0  0  0  0  0  0  0  0  0
   -6.8758   -0.5722   -1.0048 C   0  0  0  0  0  0  0  0  0  0  0  0
   -7.1001   -1.8032   -0.3821 C   0  0  0  0  0  0  0  0  0  0  0  0
   -8.5212   -2.6802   -0.8235 Cl  0  0  0  0  0  0  0  0  0  0  0  0
   -6.1859   -2.2795    0.5638 C   0  0  0  0  0  0  0  0  0  0  0  0
   -6.3924   -3.7954    1.3679 Cl  0  0  0  0  0  0  0  0  0  0  0  0
   -5.0526   -1.5235    0.8856 C   0  0  0  0  0  0  0  0  0  0  0  0
   -3.1986    0.7367    1.8798 C   0  0  0  0  0  0  0  0  0  0  0  0
   -3.9162    0.3232    3.1265 C   0  0  0  0  0  0  0  0  0  0  0  0
    4.7375   -0.5196   -1.2141 C   0  0  0  0  0  0  0  0  0  0  0  0
    6.7082   -1.6218   -4.5241 H   0  0  0  0  0  0  0  0  0  0  0  0
    6.7830   -3.0978   -3.4842 H   0  0  0  0  0  0  0  0  0  0  0  0
    5.5640   -2.9494   -4.7558 H   0  0  0  0  0  0  0  0  0  0  0  0
    7.8313   -1.2214   -2.4742 H   0  0  0  0  0  0  0  0  0  0  0  0
    8.4919    0.1444   -0.5514 H   0  0  0  0  0  0  0  0  0  0  0  0
    6.7986    1.0935    0.9592 H   0  0  0  0  0  0  0  0  0  0  0  0
    4.5782    1.3747    1.5612 H   0  0  0  0  0  0  0  0  0  0  0  0
    0.3797    0.8454    1.2363 H   0  0  0  0  0  0  0  0  0  0  0  0
   -1.7675    2.2699    3.7897 H   0  0  0  0  0  0  0  0  0  0  0  0
   -1.0121    2.2976   -0.0405 H   0  0  0  0  0  0  0  0  0  0  0  0
   -3.6475    1.7649   -2.1758 H   0  0  0  0  0  0  0  0  0  0  0  0
   -3.2543    0.0228   -2.1277 H   0  0  0  0  0  0  0  0  0  0  0  0
   -1.9723    1.2189   -2.2702 H   0  0  0  0  0  0  0  0  0  0  0  0
   -5.6193    1.1559   -1.1574 H   0  0  0  0  0  0  0  0  0  0  0  0
   -7.5857   -0.1897   -1.7351 H   0  0  0  0  0  0  0  0  0  0  0  0
   -4.3316   -1.9279    1.5914 H   0  0  0  0  0  0  0  0  0  0  0  0
   -5.0028    0.3462    2.9999 H   0  0  0  0  0  0  0  0  0  0  0  0
   -3.6089   -0.6820    3.4304 H   0  0  0  0  0  0  0  0  0  0  0  0
   -3.6892    1.0019    3.9545 H   0  0  0  0  0  0  0  0  0  0  0  0
    3.6939   -0.7275   -1.4299 H   0  0  0  0  0  0  0  0  0  0  0  0
  1  2  1  0
  2  3  1  0
  3  4  2  0
  4  5  1  0
  5  6  2  0
  6  7  1  0
  7  8  1  0
  8  9  1  0
  9 10  2  0
  9 11  1  0
 11 12  2  0
 11 13  1  0
 13 14  1  0
 14 15  2  3
 15 16  1  0
 16 17  1  0
 17 18  2  0
 18 19  1  0
 18 20  1  0
 20 21  1  0
 21 22  2  0
 22 23  1  0
 23 24  2  0
 24 25  1  0
 24 26  1  0
 26 27  1  0
 26 28  2  0
 20 29  1  0
 29 30  1  0
  7 31  2  0
 31  3  1  0
 29 16  2  0
 28 21  1  0
  1 32  1  0
  1 33  1  0
  1 34  1  0
  4 35  1  0
  5 36  1  0
  6 37  1  0
  8 38  1  0
 13 39  1  0
 15 40  1  0
 17 41  1  0
 19 42  1  0
 19 43  1  0
 19 44  1  0
 22 45  1  0
 23 46  1  0
 28 47  1  0
 30 48  1  0
 30 49  1  0
 30 50  1  0
 31 51  1  0
M  END
$$$$
