
     RDKit          3D

 42 46  0  0  0  0  0  0  0  0999 V2000
    5.0637    1.9484    0.8287 C   0  0  0  0  0  0  0  0  0  0  0  0
    5.2536    0.6711    0.3050 C   0  0  0  0  0  0  0  0  0  0  0  0
    4.1712   -0.0593   -0.2077 C   0  0  0  0  0  0  0  0  0  0  0  0
    4.3517   -1.3428   -0.7343 C   0  0  0  0  0  0  0  0  0  0  0  0
    3.2685   -2.0613   -1.2411 C   0  0  0  0  0  0  0  0  0  0  0  0
    1.9786   -1.5146   -1.2351 C   0  0  0  0  0  0  0  0  0  0  0  0
    0.8977   -2.2390   -1.7443 C   0  0  0  0  0  0  0  0  0  0  0  0
   -0.3835   -1.6938   -1.7410 C   0  0  0  0  0  0  0  0  0  0  0  0
   -0.6213   -0.4074   -1.2264 C   0  0  0  0  0  0  0  0  0  0  0  0
   -2.0476    0.1212   -1.2693 C   0  0  0  0  0  0  0  0  0  0  0  0
   -2.6753    0.2572    0.0539 N   0  0  0  0  0  0  0  0  0  0  0  0
   -3.9966    0.9137   -0.0295 C   0  0  0  0  0  0  0  0  0  0  0  0
   -5.1748   -0.0700    0.0410 C   0  0  0  0  0  0  0  0  0  0  0  0
   -5.1932   -0.8440    1.2477 O   0  0  0  0  0  0  0  0  0  0  0  0
   -3.8889   -1.0296    1.8170 C   0  0  0  0  0  0  0  0  0  0  0  0
   -2.7790   -1.0418    0.7556 C   0  0  0  0  0  0  0  0  0  0  0  0
    0.4632    0.3470   -0.6976 C   0  0  0  0  0  0  0  0  0  0  0  0
    0.3180    1.6407   -0.1549 C   0  0  0  0  0  0  0  0  0  0  0  0
    1.4061    2.3554    0.3530 C   0  0  0  0  0  0  0  0  0  0  0  0
    2.6887    1.8035    0.3394 C   0  0  0  0  0  0  0  0  0  0  0  0
    3.7891    2.5111    0.8461 C   0  0  0  0  0  0  0  0  0  0  0  0
    2.8742    0.5084   -0.1931 C   0  0  0  0  0  0  0  0  0  0  0  0
    1.7662   -0.2178   -0.7089 C   0  0  0  0  0  0  0  0  0  0  0  0
    5.9091    2.5053    1.2239 H   0  0  0  0  0  0  0  0  0  0  0  0
    6.2556    0.2482    0.3006 H   0  0  0  0  0  0  0  0  0  0  0  0
    5.3395   -1.7973   -0.7547 H   0  0  0  0  0  0  0  0  0  0  0  0
    3.4438   -3.0570   -1.6427 H   0  0  0  0  0  0  0  0  0  0  0  0
    1.0432   -3.2373   -2.1508 H   0  0  0  0  0  0  0  0  0  0  0  0
   -1.2031   -2.2844   -2.1448 H   0  0  0  0  0  0  0  0  0  0  0  0
   -2.0120    1.0970   -1.7722 H   0  0  0  0  0  0  0  0  0  0  0  0
   -2.6662   -0.5146   -1.9177 H   0  0  0  0  0  0  0  0  0  0  0  0
   -4.0834    1.5413   -0.9243 H   0  0  0  0  0  0  0  0  0  0  0  0
   -4.0667    1.5948    0.8281 H   0  0  0  0  0  0  0  0  0  0  0  0
   -5.1522   -0.7630   -0.8081 H   0  0  0  0  0  0  0  0  0  0  0  0
   -6.1227    0.4753   -0.0110 H   0  0  0  0  0  0  0  0  0  0  0  0
   -3.7186   -0.2370    2.5552 H   0  0  0  0  0  0  0  0  0  0  0  0
   -3.9020   -1.9807    2.3590 H   0  0  0  0  0  0  0  0  0  0  0  0
   -1.8227   -1.2727    1.2374 H   0  0  0  0  0  0  0  0  0  0  0  0
   -3.0063   -1.8454    0.0427 H   0  0  0  0  0  0  0  0  0  0  0  0
   -0.6600    2.1142   -0.1075 H   0  0  0  0  0  0  0  0  0  0  0  0
    1.2347    3.3480    0.7630 H   0  0  0  0  0  0  0  0  0  0  0  0
    3.6595    3.5087    1.2597 H   0  0  0  0  0  0  0  0  0  0  0  0
  1  2  2  0
  2  3  1  0
  3  4  2  0
  4  5  1  0
  5  6  2  0
  6  7  1  0
  7  8  2  0
  8  9  1  0
  9 10  1  0
 10 11  1  0
 11 12  1  0
 12 13  1  0
 13 14  1  0
 14 15  1  0
 15 16  1  0
  9 17  2  0
 17 18  1  0
 18 19  2  0
 19 20  1  0
 20 21  2  0
 20 22  1  0
 22 23  2  0
 21  1  1  0
 22  3  1  0
 23  6  1  0
 16 11  1  0
 23 17  1  0
  1 24  1  0
  2 25  1  0
  4 26  1  0
  5 27  1  0
  7 28  1  0
  8 29  1  0
 10 30  1  0
 10 31  1  0
 12 32  1  0
 12 33  1  0
 13 34  1  0
 13 35  1  0
 15 36  1  0
 15 37  1  0
 16 38  1  0
 16 39  1  0
 18 40  1  0
 19 41  1  0
 21 42  1  0
M  END
$$$$
