
     RDKit          3D

 57 60  0  0  0  0  0  0  0  0999 V2000
   -1.5175   -1.4534    3.6832 C   0  0  0  0  0  0  0  0  0  0  0  0
   -1.6591   -1.1305    2.3071 O   0  0  0  0  0  0  0  0  0  0  0  0
   -0.6238   -0.5025    1.6767 C   0  0  0  0  0  0  0  0  0  0  0  0
    0.5814   -0.1599    2.3012 C   0  0  0  0  0  0  0  0  0  0  0  0
    1.5984    0.4908    1.5905 C   0  0  0  0  0  0  0  0  0  0  0  0
    1.4258    0.8027    0.2379 C   0  0  0  0  0  0  0  0  0  0  0  0
    2.4778    1.5013   -0.5486 C   0  0  0  0  0  0  0  0  0  0  0  0
    2.1599    2.2168   -1.4922 O   0  0  0  0  0  0  0  0  0  0  0  0
    3.7811    1.2600   -0.1699 N   0  0  0  0  0  0  0  0  0  0  0  0
    4.8902    1.7422   -0.9635 C   0  0  0  0  0  0  0  0  0  0  0  0
    5.3929    0.6594   -1.8858 C   0  0  0  0  0  0  0  0  0  0  0  0
    4.7457    0.4266   -3.1228 C   0  0  0  0  0  0  0  0  0  0  0  0
    5.1732   -0.5917   -3.9800 C   0  0  0  0  0  0  0  0  0  0  0  0
    6.2403   -1.3624   -3.5751 C   0  0  0  0  0  0  0  0  0  0  0  0
    6.8720   -1.1490   -2.3723 C   0  0  0  0  0  0  0  0  0  0  0  0
    6.4745   -0.1524   -1.5061 C   0  0  0  0  0  0  0  0  0  0  0  0
    7.8942   -2.0205   -2.1603 O   0  0  0  0  0  0  0  0  0  0  0  0
    7.8318   -2.8078   -3.3689 C   0  0  0  0  0  0  0  0  0  0  0  0
    6.7871   -2.3935   -4.2721 O   0  0  0  0  0  0  0  0  0  0  0  0
    0.2237    0.4791   -0.3947 C   0  0  0  0  0  0  0  0  0  0  0  0
   -0.7908   -0.1721    0.3234 C   0  0  0  0  0  0  0  0  0  0  0  0
   -2.2990   -0.5751   -0.5268 S   0  0  0  0  0  6  0  0  0  0  0  0
   -2.2410    0.0089   -1.8518 O   0  0  0  0  0  0  0  0  0  0  0  0
   -2.5280   -1.9951   -0.3706 O   0  0  0  0  0  0  0  0  0  0  0  0
   -3.4987    0.2889    0.3249 N   0  0  0  0  0  0  0  0  0  0  0  0
   -3.3496    1.7614    0.2960 C   0  0  0  0  0  0  0  0  0  0  0  0
   -4.8767   -0.1423   -0.0296 C   0  0  0  0  0  0  0  0  0  0  0  0
   -5.8652    0.1136    1.0877 C   0  0  0  0  0  0  0  0  0  0  0  0
   -6.9793    0.9385    0.8907 C   0  0  0  0  0  0  0  0  0  0  0  0
   -7.8850    1.1596    1.9294 C   0  0  0  0  0  0  0  0  0  0  0  0
   -7.6890    0.5567    3.1696 C   0  0  0  0  0  0  0  0  0  0  0  0
   -6.5848   -0.2694    3.3760 C   0  0  0  0  0  0  0  0  0  0  0  0
   -5.6777   -0.4907    2.3404 C   0  0  0  0  0  0  0  0  0  0  0  0
   -0.6896   -2.1523    3.8415 H   0  0  0  0  0  0  0  0  0  0  0  0
   -2.4385   -1.9488    4.0076 H   0  0  0  0  0  0  0  0  0  0  0  0
   -1.3958   -0.5491    4.2876 H   0  0  0  0  0  0  0  0  0  0  0  0
    0.7624   -0.3783    3.3498 H   0  0  0  0  0  0  0  0  0  0  0  0
    2.5075    0.7698    2.1171 H   0  0  0  0  0  0  0  0  0  0  0  0
    3.9714    0.4756    0.4376 H   0  0  0  0  0  0  0  0  0  0  0  0
    4.6049    2.6333   -1.5360 H   0  0  0  0  0  0  0  0  0  0  0  0
    5.6797    2.0441   -0.2649 H   0  0  0  0  0  0  0  0  0  0  0  0
    3.8958    1.0444   -3.4123 H   0  0  0  0  0  0  0  0  0  0  0  0
    4.6780   -0.7715   -4.9274 H   0  0  0  0  0  0  0  0  0  0  0  0
    6.9905   -0.0115   -0.5622 H   0  0  0  0  0  0  0  0  0  0  0  0
    7.6629   -3.8555   -3.0942 H   0  0  0  0  0  0  0  0  0  0  0  0
    8.7943   -2.7312   -3.8882 H   0  0  0  0  0  0  0  0  0  0  0  0
    0.0854    0.7313   -1.4458 H   0  0  0  0  0  0  0  0  0  0  0  0
   -2.3635    2.0622    0.6585 H   0  0  0  0  0  0  0  0  0  0  0  0
   -3.5029    2.1549   -0.7132 H   0  0  0  0  0  0  0  0  0  0  0  0
   -4.0793    2.2294    0.9620 H   0  0  0  0  0  0  0  0  0  0  0  0
   -5.1933    0.3641   -0.9488 H   0  0  0  0  0  0  0  0  0  0  0  0
   -4.9130   -1.2188   -0.2367 H   0  0  0  0  0  0  0  0  0  0  0  0
   -7.1499    1.4167   -0.0713 H   0  0  0  0  0  0  0  0  0  0  0  0
   -8.7479    1.8014    1.7689 H   0  0  0  0  0  0  0  0  0  0  0  0
   -8.3959    0.7277    3.9756 H   0  0  0  0  0  0  0  0  0  0  0  0
   -6.4311   -0.7412    4.3414 H   0  0  0  0  0  0  0  0  0  0  0  0
   -4.8169   -1.1348    2.5055 H   0  0  0  0  0  0  0  0  0  0  0  0
  1  2  1  0
  2  3  1  0
  3  4  2  0
  4  5  1  0
  5  6  2  0
  6  7  1  0
  7  8  2  0
  7  9  1  0
  9 10  1  0
 10 11  1  0
 11 12  2  0
 12 13  1  0
 13 14  2  0
 14 15  1  0
 15 16  2  0
 15 17  1  0
 17 18  1  0
 18 19  1  0
  6 20  1  0
 20 21  2  0
 21 22  1  0
 22 23  2  0
 22 24  2  0
 22 25  1  0
 25 26  1  0
 25 27  1  0
 27 28  1  0
 28 29  2  0
 29 30  1  0
 30 31  2  0
 31 32  1  0
 32 33  2  0
 21  3  1  0
 33 28  1  0
 16 11  1  0
 19 14  1  0
  1 34  1  0
  1 35  1  0
  1 36  1  0
  4 37  1  0
  5 38  1  0
  9 39  1  0
 10 40  1  0
 10 41  1  0
 12 42  1  0
 13 43  1  0
 16 44  1  0
 18 45  1  0
 18 46  1  0
 20 47  1  0
 26 48  1  0
 26 49  1  0
 26 50  1  0
 27 51  1  0
 27 52  1  0
 29 53  1  0
 30 54  1  0
 31 55  1  0
 32 56  1  0
 33 57  1  0
M  END
$$$$
