
     RDKit          3D

 60 65  0  0  0  0  0  0  0  0999 V2000
   -5.0486   -4.3078    1.3507 O   0  0  0  0  0  0  0  0  0  0  0  0
   -4.2474   -3.4282    1.0539 C   0  0  0  0  0  0  0  0  0  0  0  0
   -2.8764   -3.5976    1.2073 N   0  0  0  0  0  0  0  0  0  0  0  0
   -1.9230   -2.6305    0.8810 C   0  0  0  0  0  0  0  0  0  0  0  0
   -0.4827   -3.0758    1.0853 C   0  0  0  0  0  0  0  0  0  0  0  0
    0.4380   -1.9095    1.4602 C   0  0  0  0  0  0  0  0  0  0  0  0
    1.9060   -2.3230    1.4115 C   0  0  0  0  0  0  0  0  0  0  0  0
    2.2570   -2.9723    0.1260 N   0  0  0  0  0  0  0  0  0  0  0  0
    3.8334   -2.7364   -0.4633 S   0  0  0  0  0  6  0  0  0  0  0  0
    4.7420   -2.8257    0.6606 O   0  0  0  0  0  0  0  0  0  0  0  0
    4.0118   -3.5652   -1.6372 O   0  0  0  0  0  0  0  0  0  0  0  0
    3.8110   -1.0416   -1.0116 C   0  0  0  0  0  0  0  0  0  0  0  0
    3.3140   -0.7321   -2.2840 C   0  0  0  0  0  0  0  0  0  0  0  0
    3.3054    0.5956   -2.7180 C   0  0  0  0  0  0  0  0  0  0  0  0
    3.8190    1.5980   -1.8949 C   0  0  0  0  0  0  0  0  0  0  0  0
    4.3195    1.2821   -0.6262 C   0  0  0  0  0  0  0  0  0  0  0  0
    4.3364   -0.0408   -0.1879 C   0  0  0  0  0  0  0  0  0  0  0  0
    4.8190    2.2174    0.2428 O   0  0  0  0  0  0  0  0  0  0  0  0
    4.5298    3.5567   -0.1819 C   0  0  0  0  0  0  0  0  0  0  0  0
    4.7134    3.7142   -1.6821 C   0  0  0  0  0  0  0  0  0  0  0  0
    3.7903    2.8744   -2.3885 O   0  0  0  0  0  0  0  0  0  0  0  0
    1.1632   -3.1057   -0.8547 C   0  0  0  0  0  0  0  0  0  0  0  0
   -0.0071   -3.8153   -0.1793 C   0  0  0  0  0  0  0  0  0  0  0  0
   -2.2123   -1.4640    0.3711 N   0  0  0  0  0  0  0  0  0  0  0  0
   -3.5468   -1.2703    0.2183 C   0  0  0  0  0  0  0  0  0  0  0  0
   -4.5739   -2.1383    0.5083 C   0  0  0  0  0  0  0  0  0  0  0  0
   -5.7727   -1.5927    0.1703 N   0  0  0  0  0  0  0  0  0  0  0  0
   -5.5286   -0.3860   -0.3447 N   0  0  0  0  0  0  0  0  0  0  0  0
   -4.1872   -0.1768   -0.2926 N   0  0  0  0  0  0  0  0  0  0  0  0
   -3.6068    1.0272   -0.8511 C   0  0  0  0  0  0  0  0  0  0  0  0
   -3.7168    2.1920    0.0925 C   0  0  0  0  0  0  0  0  0  0  0  0
   -4.8822    2.9771    0.1378 C   0  0  0  0  0  0  0  0  0  0  0  0
   -4.9660    4.0671    1.0083 C   0  0  0  0  0  0  0  0  0  0  0  0
   -3.8926    4.3845    1.8410 C   0  0  0  0  0  0  0  0  0  0  0  0
   -2.7373    3.6025    1.8156 C   0  0  0  0  0  0  0  0  0  0  0  0
   -2.6587    2.5161    0.9474 C   0  0  0  0  0  0  0  0  0  0  0  0
   -1.5360    1.7820    0.9328 F   0  0  0  0  0  0  0  0  0  0  0  0
   -2.6024   -4.4956    1.5831 H   0  0  0  0  0  0  0  0  0  0  0  0
   -0.4771   -3.7946    1.9163 H   0  0  0  0  0  0  0  0  0  0  0  0
    0.1875   -1.5500    2.4664 H   0  0  0  0  0  0  0  0  0  0  0  0
    0.2851   -1.0547    0.7901 H   0  0  0  0  0  0  0  0  0  0  0  0
    2.1142   -3.0399    2.2149 H   0  0  0  0  0  0  0  0  0  0  0  0
    2.5247   -1.4393    1.5951 H   0  0  0  0  0  0  0  0  0  0  0  0
    2.9363   -1.5151   -2.9380 H   0  0  0  0  0  0  0  0  0  0  0  0
    2.9187    0.8486   -3.7008 H   0  0  0  0  0  0  0  0  0  0  0  0
    4.7494   -0.2781    0.7900 H   0  0  0  0  0  0  0  0  0  0  0  0
    5.2124    4.2239    0.3552 H   0  0  0  0  0  0  0  0  0  0  0  0
    3.5026    3.8005    0.1189 H   0  0  0  0  0  0  0  0  0  0  0  0
    5.7346    3.4553   -1.9931 H   0  0  0  0  0  0  0  0  0  0  0  0
    4.5182    4.7501   -1.9803 H   0  0  0  0  0  0  0  0  0  0  0  0
    0.8591   -2.1241   -1.2362 H   0  0  0  0  0  0  0  0  0  0  0  0
    1.4839   -3.7122   -1.7077 H   0  0  0  0  0  0  0  0  0  0  0  0
    0.3109   -4.8291    0.1091 H   0  0  0  0  0  0  0  0  0  0  0  0
   -0.8176   -3.9460   -0.9082 H   0  0  0  0  0  0  0  0  0  0  0  0
   -4.1220    1.2435   -1.7938 H   0  0  0  0  0  0  0  0  0  0  0  0
   -2.5615    0.8230   -1.1154 H   0  0  0  0  0  0  0  0  0  0  0  0
   -5.7348    2.7377   -0.4985 H   0  0  0  0  0  0  0  0  0  0  0  0
   -5.8728    4.6711    1.0346 H   0  0  0  0  0  0  0  0  0  0  0  0
   -3.9593    5.2381    2.5121 H   0  0  0  0  0  0  0  0  0  0  0  0
   -1.8962    3.8352    2.4616 H   0  0  0  0  0  0  0  0  0  0  0  0
  1  2  2  0
  2  3  1  0
  3  4  1  0
  4  5  1  0
  5  6  1  0
  6  7  1  0
  7  8  1  0
  8  9  1  0
  9 10  2  0
  9 11  2  0
  9 12  1  0
 12 13  2  0
 13 14  1  0
 14 15  2  0
 15 16  1  0
 16 17  2  0
 16 18  1  0
 18 19  1  0
 19 20  1  0
 20 21  1  0
  8 22  1  0
 22 23  1  0
  4 24  2  0
 24 25  1  0
 25 26  2  0
 26 27  1  0
 27 28  2  0
 28 29  1  0
 29 30  1  0
 30 31  1  0
 31 32  2  0
 32 33  1  0
 33 34  2  0
 34 35  1  0
 35 36  2  0
 36 37  1  0
 26  2  1  0
 36 31  1  0
 23  5  1  0
 29 25  1  0
 17 12  1  0
 21 15  1  0
  3 38  1  0
  5 39  1  0
  6 40  1  0
  6 41  1  0
  7 42  1  0
  7 43  1  0
 13 44  1  0
 14 45  1  0
 17 46  1  0
 19 47  1  0
 19 48  1  0
 20 49  1  0
 20 50  1  0
 22 51  1  0
 22 52  1  0
 23 53  1  0
 23 54  1  0
 30 55  1  0
 30 56  1  0
 32 57  1  0
 33 58  1  0
 34 59  1  0
 35 60  1  0
M  END
$$$$
