
     RDKit          3D

 38 39  0  0  0  0  0  0  0  0999 V2000
   -1.6548    0.7695   -0.4466 O   0  0  0  0  0  0  0  0  0  0  0  0
   -0.5793    0.7501    0.1399 C   0  0  0  0  0  0  0  0  0  0  0  0
   -0.4630    0.7069    1.6231 C   0  0  0  0  0  0  0  0  0  0  0  0
   -1.4836    0.5322    2.4804 C   0  0  0  0  0  0  0  0  0  0  0  0
   -2.8999    0.3248    2.1375 C   0  0  0  0  0  0  0  0  0  0  0  0
   -3.7819    1.3876    2.4044 C   0  0  0  0  0  0  0  0  0  0  0  0
   -5.1438    1.2897    2.0886 C   0  0  0  0  0  0  0  0  0  0  0  0
   -5.6498    0.1301    1.4992 C   0  0  0  0  0  0  0  0  0  0  0  0
   -4.7966   -0.9419    1.2287 C   0  0  0  0  0  0  0  0  0  0  0  0
   -3.4312   -0.8420    1.5533 C   0  0  0  0  0  0  0  0  0  0  0  0
   -2.5875   -2.0053    1.2839 N   0  0  0  0  0  4  0  0  0  0  0  0
   -1.7803   -2.3540    2.1612 O   0  0  0  0  0  0  0  0  0  0  0  0
   -2.7696   -2.6088    0.2155 O   0  0  0  0  0  1  0  0  0  0  0  0
    0.6464    0.7608   -0.4826 N   0  0  0  0  0  0  0  0  0  0  0  0
    0.7882    0.8066   -1.9288 C   0  0  0  0  0  0  0  0  0  0  0  0
    1.6233   -0.3661   -2.4667 C   0  0  0  0  0  0  0  0  0  0  0  0
    3.0435   -0.3733   -1.9409 C   0  0  0  0  0  0  0  0  0  0  0  0
    3.4444   -1.3401   -1.0051 C   0  0  0  0  0  0  0  0  0  0  0  0
    4.7454   -1.3320   -0.4991 C   0  0  0  0  0  0  0  0  0  0  0  0
    5.6437   -0.3603   -0.9276 C   0  0  0  0  0  0  0  0  0  0  0  0
    6.8909   -0.3491   -0.4351 F   0  0  0  0  0  0  0  0  0  0  0  0
    5.2684    0.6024   -1.8575 C   0  0  0  0  0  0  0  0  0  0  0  0
    3.9691    0.5951   -2.3674 C   0  0  0  0  0  0  0  0  0  0  0  0
    0.5357    0.8306    2.0328 H   0  0  0  0  0  0  0  0  0  0  0  0
   -1.2752    0.5272    3.5486 H   0  0  0  0  0  0  0  0  0  0  0  0
   -3.4113    2.3138    2.8452 H   0  0  0  0  0  0  0  0  0  0  0  0
   -5.8088    2.1295    2.2926 H   0  0  0  0  0  0  0  0  0  0  0  0
   -6.7077    0.0664    1.2457 H   0  0  0  0  0  0  0  0  0  0  0  0
   -5.1979   -1.8450    0.7673 H   0  0  0  0  0  0  0  0  0  0  0  0
    1.4981    0.7493    0.0641 H   0  0  0  0  0  0  0  0  0  0  0  0
   -0.2007    0.7953   -2.4036 H   0  0  0  0  0  0  0  0  0  0  0  0
    1.2616    1.7701   -2.1681 H   0  0  0  0  0  0  0  0  0  0  0  0
    1.6604   -0.3188   -3.5629 H   0  0  0  0  0  0  0  0  0  0  0  0
    1.1274   -1.3167   -2.2152 H   0  0  0  0  0  0  0  0  0  0  0  0
    2.7448   -2.1032   -0.6652 H   0  0  0  0  0  0  0  0  0  0  0  0
    5.0625   -2.0774    0.2238 H   0  0  0  0  0  0  0  0  0  0  0  0
    5.9887    1.3486   -2.1800 H   0  0  0  0  0  0  0  0  0  0  0  0
    3.6806    1.3476   -3.1000 H   0  0  0  0  0  0  0  0  0  0  0  0
  1  2  2  0
  2  3  1  0
  3  4  2  3
  4  5  1  0
  5  6  2  0
  6  7  1  0
  7  8  2  0
  8  9  1  0
  9 10  2  0
 10 11  1  0
 11 12  2  0
 11 13  1  0
  2 14  1  0
 14 15  1  0
 15 16  1  0
 16 17  1  0
 17 18  2  0
 18 19  1  0
 19 20  2  0
 20 21  1  0
 20 22  1  0
 22 23  2  0
 10  5  1  0
 23 17  1  0
  3 24  1  0
  4 25  1  0
  6 26  1  0
  7 27  1  0
  8 28  1  0
  9 29  1  0
 14 30  1  0
 15 31  1  0
 15 32  1  0
 16 33  1  0
 16 34  1  0
 18 35  1  0
 19 36  1  0
 22 37  1  0
 23 38  1  0
M  CHG  2  11   1  13  -1
M  END
$$$$
