
     RDKit          3D

 27 27  0  0  0  0  0  0  0  0999 V2000
    2.6937    0.4610   -2.5178 C   0  0  0  0  0  0  0  0  0  0  0  0
    1.8580    0.2061   -1.3217 C   0  0  0  0  0  0  0  0  0  0  0  0
    2.2670   -0.1735   -0.0369 C   0  0  0  0  0  0  0  0  0  0  0  0
    1.1133   -0.2862    0.7275 C   0  0  0  0  0  0  0  0  0  0  0  0
    1.0346   -0.6537    2.1140 C   0  0  0  0  0  0  0  0  0  0  0  0
    0.0586   -0.7695    2.8364 O   0  0  0  0  0  0  0  0  0  0  0  0
    2.2628   -0.8915    2.6274 O   0  0  0  0  0  0  0  0  0  0  0  0
    0.0802    0.0316   -0.1414 N   0  0  0  0  0  0  0  0  0  0  0  0
   -1.3830    0.0894    0.0834 C   0  0  0  0  0  0  0  0  0  0  0  0
   -2.1411    0.5007   -1.2143 C   0  0  0  0  0  0  0  0  0  0  0  0
   -1.7373    1.1607    1.1321 C   0  0  0  0  0  0  0  0  0  0  0  0
   -1.9360   -1.2954    0.4698 C   0  0  0  0  0  0  0  0  0  0  0  0
    0.5349    0.3304   -1.3860 N   0  0  0  0  0  0  0  0  0  0  0  0
    2.4210   -0.2210   -3.3297 H   0  0  0  0  0  0  0  0  0  0  0  0
    2.5593    1.4893   -2.8686 H   0  0  0  0  0  0  0  0  0  0  0  0
    3.7557    0.3152   -2.2960 H   0  0  0  0  0  0  0  0  0  0  0  0
    3.2782   -0.3478    0.3062 H   0  0  0  0  0  0  0  0  0  0  0  0
    2.0726   -1.1271    3.5581 H   0  0  0  0  0  0  0  0  0  0  0  0
   -1.8304    1.4917   -1.5664 H   0  0  0  0  0  0  0  0  0  0  0  0
   -1.9686   -0.2155   -2.0267 H   0  0  0  0  0  0  0  0  0  0  0  0
   -3.2236    0.5422   -1.0435 H   0  0  0  0  0  0  0  0  0  0  0  0
   -1.3430    0.9418    2.1244 H   0  0  0  0  0  0  0  0  0  0  0  0
   -2.8237    1.2605    1.2407 H   0  0  0  0  0  0  0  0  0  0  0  0
   -1.3411    2.1403    0.8388 H   0  0  0  0  0  0  0  0  0  0  0  0
   -1.5538   -1.6636    1.4219 H   0  0  0  0  0  0  0  0  0  0  0  0
   -1.6796   -2.0440   -0.2894 H   0  0  0  0  0  0  0  0  0  0  0  0
   -3.0286   -1.2720    0.5579 H   0  0  0  0  0  0  0  0  0  0  0  0
  1  2  1  0
  2  3  1  0
  3  4  2  0
  4  5  1  0
  5  6  2  0
  5  7  1  0
  4  8  1  0
  8  9  1  0
  9 10  1  0
  9 11  1  0
  9 12  1  0
  8 13  1  0
 13  2  2  0
  1 14  1  0
  1 15  1  0
  1 16  1  0
  3 17  1  0
  7 18  1  0
 10 19  1  0
 10 20  1  0
 10 21  1  0
 11 22  1  0
 11 23  1  0
 11 24  1  0
 12 25  1  0
 12 26  1  0
 12 27  1  0
M  END
$$$$
