
     RDKit          3D

 51 55  0  0  0  0  0  0  0  0999 V2000
    1.7501   -0.7818   -2.4590 O   0  0  0  0  0  0  0  0  0  0  0  0
    0.9742   -1.0195   -1.5342 C   0  0  0  0  0  0  0  0  0  0  0  0
   -0.5102   -1.2912   -1.8141 C   0  0  0  0  0  0  0  0  0  0  0  0
   -1.4111   -0.3031   -1.2016 N   0  0  0  0  0  0  0  0  0  0  0  0
   -1.7313   -0.4698    0.1414 C   0  0  0  0  0  0  0  0  0  0  0  0
   -1.2412   -1.3977    0.7956 O   0  0  0  0  0  0  0  0  0  0  0  0
   -2.5543    0.5947    0.8305 C   0  0  0  0  0  0  0  0  0  0  0  0
   -4.0494    0.5132    0.5591 C   0  0  0  0  0  0  0  0  0  0  0  0
   -4.7320   -0.5252    1.3948 C   0  0  0  0  0  0  0  0  0  0  0  0
   -5.8730   -0.5083    2.1767 C   0  0  0  0  0  0  0  0  0  0  0  0
   -6.0160   -1.8146    2.7098 C   0  0  0  0  0  0  0  0  0  0  0  0
   -4.9514   -2.5413    2.2306 C   0  0  0  0  0  0  0  0  0  0  0  0
   -4.1693   -1.7692    1.4322 O   0  0  0  0  0  0  0  0  0  0  0  0
   -4.5288    0.2785   -1.1889 S   0  0  0  0  0  0  0  0  0  0  0  0
   -3.2326    1.1893   -2.0106 C   0  0  0  0  0  0  0  0  0  0  0  0
   -3.6355    2.2641   -2.8192 C   0  0  0  0  0  0  0  0  0  0  0  0
   -2.7181    2.9263   -3.6251 C   0  0  0  0  0  0  0  0  0  0  0  0
   -1.3959    2.5045   -3.6557 C   0  0  0  0  0  0  0  0  0  0  0  0
   -0.9852    1.4323   -2.8664 C   0  0  0  0  0  0  0  0  0  0  0  0
   -1.8856    0.7735   -2.0144 C   0  0  0  0  0  0  0  0  0  0  0  0
    1.2993   -1.0997   -0.1907 N   0  0  0  0  0  0  0  0  0  0  0  0
    2.5345   -0.8124    0.4217 C   0  0  0  0  0  0  0  0  0  0  0  0
    2.5728   -0.8698    1.8214 C   0  0  0  0  0  0  0  0  0  0  0  0
    3.7442   -0.5647    2.5195 C   0  0  0  0  0  0  0  0  0  0  0  0
    4.8906   -0.2083    1.8199 C   0  0  0  0  0  0  0  0  0  0  0  0
    4.8695   -0.1789    0.4228 C   0  0  0  0  0  0  0  0  0  0  0  0
    3.6906   -0.4613   -0.2730 C   0  0  0  0  0  0  0  0  0  0  0  0
    5.9693    0.1330   -0.3259 O   0  0  0  0  0  0  0  0  0  0  0  0
    7.1725   -0.0148    0.4369 C   0  0  0  0  0  0  0  0  0  0  0  0
    7.0373    0.6815    1.7758 C   0  0  0  0  0  0  0  0  0  0  0  0
    5.9980    0.0967    2.5670 O   0  0  0  0  0  0  0  0  0  0  0  0
   -0.7474   -2.2910   -1.4262 H   0  0  0  0  0  0  0  0  0  0  0  0
   -0.6775   -1.3354   -2.8979 H   0  0  0  0  0  0  0  0  0  0  0  0
   -2.3574    0.5260    1.9095 H   0  0  0  0  0  0  0  0  0  0  0  0
   -2.1626    1.5778    0.5449 H   0  0  0  0  0  0  0  0  0  0  0  0
   -4.4715    1.4844    0.8542 H   0  0  0  0  0  0  0  0  0  0  0  0
   -6.5371    0.3350    2.3211 H   0  0  0  0  0  0  0  0  0  0  0  0
   -6.8000   -2.1817    3.3599 H   0  0  0  0  0  0  0  0  0  0  0  0
   -4.6333   -3.5630    2.3438 H   0  0  0  0  0  0  0  0  0  0  0  0
   -4.6769    2.5757   -2.8455 H   0  0  0  0  0  0  0  0  0  0  0  0
   -3.0439    3.7556   -4.2471 H   0  0  0  0  0  0  0  0  0  0  0  0
   -0.6769    3.0069   -4.2924 H   0  0  0  0  0  0  0  0  0  0  0  0
    0.0629    1.1504   -2.9124 H   0  0  0  0  0  0  0  0  0  0  0  0
    0.5328   -1.3549    0.4343 H   0  0  0  0  0  0  0  0  0  0  0  0
    1.6808   -1.1292    2.3897 H   0  0  0  0  0  0  0  0  0  0  0  0
    3.7561   -0.5748    3.6105 H   0  0  0  0  0  0  0  0  0  0  0  0
    3.7149   -0.4201   -1.3553 H   0  0  0  0  0  0  0  0  0  0  0  0
    7.9927    0.4228   -0.1386 H   0  0  0  0  0  0  0  0  0  0  0  0
    7.3831   -1.0845    0.5585 H   0  0  0  0  0  0  0  0  0  0  0  0
    7.9692    0.5990    2.3412 H   0  0  0  0  0  0  0  0  0  0  0  0
    6.8100    1.7453    1.6460 H   0  0  0  0  0  0  0  0  0  0  0  0
  1  2  2  0
  2  3  1  0
  3  4  1  0
  4  5  1  0
  5  6  2  0
  5  7  1  0
  7  8  1  0
  8  9  1  0
  9 10  2  0
 10 11  1  0
 11 12  2  0
 12 13  1  0
  8 14  1  0
 14 15  1  0
 15 16  2  0
 16 17  1  0
 17 18  2  0
 18 19  1  0
 19 20  2  0
  2 21  1  0
 21 22  1  0
 22 23  2  0
 23 24  1  0
 24 25  2  0
 25 26  1  0
 26 27  2  0
 26 28  1  0
 28 29  1  0
 29 30  1  0
 30 31  1  0
 20  4  1  0
 27 22  1  0
 13  9  1  0
 20 15  1  0
 31 25  1  0
  3 32  1  0
  3 33  1  0
  7 34  1  0
  7 35  1  0
  8 36  1  0
 10 37  1  0
 11 38  1  0
 12 39  1  0
 16 40  1  0
 17 41  1  0
 18 42  1  0
 19 43  1  0
 21 44  1  0
 23 45  1  0
 24 46  1  0
 27 47  1  0
 29 48  1  0
 29 49  1  0
 30 50  1  0
 30 51  1  0
M  END
$$$$
