
     RDKit          3D

 74 79  0  0  0  0  0  0  0  0999 V2000
    9.3080   -2.9704   -2.6150 C   0  0  0  0  0  0  0  0  0  0  0  0
    7.9994   -3.0769   -3.1606 O   0  0  0  0  0  0  0  0  0  0  0  0
    7.0396   -2.2654   -2.6211 C   0  0  0  0  0  0  0  0  0  0  0  0
    7.2280   -1.3243   -1.6123 C   0  0  0  0  0  0  0  0  0  0  0  0
    6.1463   -0.5583   -1.1535 C   0  0  0  0  0  0  0  0  0  0  0  0
    4.8527   -0.7105   -1.6851 C   0  0  0  0  0  0  0  0  0  0  0  0
    3.7319    0.1195   -1.1996 C   0  0  0  0  0  0  0  0  0  0  0  0
    2.4314   -0.3439   -1.1216 C   0  0  0  0  0  0  0  0  0  0  0  0
    1.4412    0.5288   -0.6726 C   0  0  0  0  0  0  0  0  0  0  0  0
    0.0777   -0.0316   -0.5837 C   0  0  0  0  0  0  0  0  0  0  0  0
   -0.4413   -0.4469   -1.6136 O   0  0  0  0  0  0  0  0  0  0  0  0
   -0.4614   -0.0224    0.6822 N   0  0  0  0  0  0  0  0  0  0  0  0
   -1.7196   -0.5201    1.0795 C   0  0  0  0  0  0  0  0  0  0  0  0
   -2.5089   -1.3364    0.2702 C   0  0  0  0  0  0  0  0  0  0  0  0
   -3.7622   -1.7545    0.7214 C   0  0  0  0  0  0  0  0  0  0  0  0
   -4.7439   -2.8284   -0.3084 S   0  0  0  0  0  6  0  0  0  0  0  0
   -5.8672   -3.2754    0.4914 O   0  0  0  0  0  0  0  0  0  0  0  0
   -3.8365   -3.7787   -0.9176 O   0  0  0  0  0  0  0  0  0  0  0  0
   -5.3545   -1.8073   -1.5043 N   0  0  0  0  0  0  0  0  0  0  0  0
   -4.4563   -1.3866   -2.6126 C   0  0  0  0  0  0  0  0  0  0  0  0
   -5.2209   -0.4640   -3.5692 C   0  0  0  0  0  0  0  0  0  0  0  0
   -5.6714    0.7491   -2.9442 O   0  0  0  0  0  0  0  0  0  0  0  0
   -5.8990    0.6177   -1.5345 C   0  0  0  0  0  0  0  0  0  0  0  0
   -6.3600   -0.7828   -1.1160 C   0  0  0  0  0  0  0  0  0  0  0  0
   -4.2094   -1.4098    1.9974 C   0  0  0  0  0  0  0  0  0  0  0  0
   -3.4022   -0.6229    2.8229 C   0  0  0  0  0  0  0  0  0  0  0  0
   -2.1498   -0.1695    2.3818 C   0  0  0  0  0  0  0  0  0  0  0  0
   -1.3071    0.6475    3.1785 N   0  0  0  0  0  0  0  0  0  0  0  0
   -1.8060    2.0428    3.2677 C   0  0  0  0  0  0  0  0  0  0  0  0
   -1.0820    2.7780    4.4046 C   0  0  0  0  0  0  0  0  0  0  0  0
   -1.3444    2.2121    5.6990 O   0  0  0  0  0  0  0  0  0  0  0  0
   -1.6225    0.8038    5.6611 C   0  0  0  0  0  0  0  0  0  0  0  0
   -0.9447    0.0634    4.4962 C   0  0  0  0  0  0  0  0  0  0  0  0
    1.7367    1.8692   -0.3444 C   0  0  0  0  0  0  0  0  0  0  0  0
    0.7814    2.8494    0.0333 C   0  0  0  0  0  0  0  0  0  0  0  0
    1.1691    4.1536    0.3271 C   0  0  0  0  0  0  0  0  0  0  0  0
    2.5110    4.4986    0.2498 C   0  0  0  0  0  0  0  0  0  0  0  0
    3.4522    3.5391   -0.1267 C   0  0  0  0  0  0  0  0  0  0  0  0
    3.0907    2.2354   -0.4368 C   0  0  0  0  0  0  0  0  0  0  0  0
    4.0534    1.3844   -0.8291 N   0  0  0  0  0  0  0  0  0  0  0  0
    4.6872   -1.6618   -2.7063 C   0  0  0  0  0  0  0  0  0  0  0  0
    5.7668   -2.4260   -3.1662 C   0  0  0  0  0  0  0  0  0  0  0  0
    9.3135   -3.2133   -1.5466 H   0  0  0  0  0  0  0  0  0  0  0  0
    9.9468   -3.6962   -3.1263 H   0  0  0  0  0  0  0  0  0  0  0  0
    9.7278   -1.9736   -2.7893 H   0  0  0  0  0  0  0  0  0  0  0  0
    8.1995   -1.1536   -1.1610 H   0  0  0  0  0  0  0  0  0  0  0  0
    6.3222    0.1771   -0.3682 H   0  0  0  0  0  0  0  0  0  0  0  0
    2.1770   -1.3650   -1.3884 H   0  0  0  0  0  0  0  0  0  0  0  0
    0.0354    0.4424    1.4390 H   0  0  0  0  0  0  0  0  0  0  0  0
   -2.1491   -1.6794   -0.6949 H   0  0  0  0  0  0  0  0  0  0  0  0
   -3.5946   -0.8460   -2.2134 H   0  0  0  0  0  0  0  0  0  0  0  0
   -4.1107   -2.2691   -3.1610 H   0  0  0  0  0  0  0  0  0  0  0  0
   -6.1009   -0.9747   -3.9807 H   0  0  0  0  0  0  0  0  0  0  0  0
   -4.5804   -0.1808   -4.4120 H   0  0  0  0  0  0  0  0  0  0  0  0
   -4.9710    0.8871   -1.0163 H   0  0  0  0  0  0  0  0  0  0  0  0
   -6.6531    1.3618   -1.2563 H   0  0  0  0  0  0  0  0  0  0  0  0
   -6.5549   -0.7942   -0.0389 H   0  0  0  0  0  0  0  0  0  0  0  0
   -7.2975   -1.0376   -1.6253 H   0  0  0  0  0  0  0  0  0  0  0  0
   -5.1717   -1.7602    2.3655 H   0  0  0  0  0  0  0  0  0  0  0  0
   -3.7664   -0.3652    3.8125 H   0  0  0  0  0  0  0  0  0  0  0  0
   -2.8871    2.0650    3.4605 H   0  0  0  0  0  0  0  0  0  0  0  0
   -1.6131    2.5543    2.3178 H   0  0  0  0  0  0  0  0  0  0  0  0
   -1.3959    3.8271    4.4361 H   0  0  0  0  0  0  0  0  0  0  0  0
    0.0029    2.7605    4.2452 H   0  0  0  0  0  0  0  0  0  0  0  0
   -1.2900    0.3807    6.6153 H   0  0  0  0  0  0  0  0  0  0  0  0
   -2.7104    0.6840    5.6190 H   0  0  0  0  0  0  0  0  0  0  0  0
    0.1423    0.1728    4.6010 H   0  0  0  0  0  0  0  0  0  0  0  0
   -1.1601   -1.0103    4.5463 H   0  0  0  0  0  0  0  0  0  0  0  0
   -0.2800    2.6076    0.0671 H   0  0  0  0  0  0  0  0  0  0  0  0
    0.4264    4.8988    0.5957 H   0  0  0  0  0  0  0  0  0  0  0  0
    2.8299    5.5149    0.4659 H   0  0  0  0  0  0  0  0  0  0  0  0
    4.5002    3.8230   -0.2028 H   0  0  0  0  0  0  0  0  0  0  0  0
    3.7197   -1.8063   -3.1846 H   0  0  0  0  0  0  0  0  0  0  0  0
    5.6098   -3.1493   -3.9631 H   0  0  0  0  0  0  0  0  0  0  0  0
  1  2  1  0
  2  3  1  0
  3  4  2  0
  4  5  1  0
  5  6  2  0
  6  7  1  0
  7  8  2  0
  8  9  1  0
  9 10  1  0
 10 11  2  0
 10 12  1  0
 12 13  1  0
 13 14  2  0
 14 15  1  0
 15 16  1  0
 16 17  2  0
 16 18  2  0
 16 19  1  0
 19 20  1  0
 20 21  1  0
 21 22  1  0
 22 23  1  0
 23 24  1  0
 15 25  2  0
 25 26  1  0
 26 27  2  0
 27 28  1  0
 28 29  1  0
 29 30  1  0
 30 31  1  0
 31 32  1  0
 32 33  1  0
  9 34  2  0
 34 35  1  0
 35 36  2  0
 36 37  1  0
 37 38  2  0
 38 39  1  0
 39 40  2  0
  6 41  1  0
 41 42  2  0
 42  3  1  0
 40  7  1  0
 27 13  1  0
 33 28  1  0
 39 34  1  0
 24 19  1  0
  1 43  1  0
  1 44  1  0
  1 45  1  0
  4 46  1  0
  5 47  1  0
  8 48  1  0
 12 49  1  0
 14 50  1  0
 20 51  1  0
 20 52  1  0
 21 53  1  0
 21 54  1  0
 23 55  1  0
 23 56  1  0
 24 57  1  0
 24 58  1  0
 25 59  1  0
 26 60  1  0
 29 61  1  0
 29 62  1  0
 30 63  1  0
 30 64  1  0
 32 65  1  0
 32 66  1  0
 33 67  1  0
 33 68  1  0
 35 69  1  0
 36 70  1  0
 37 71  1  0
 38 72  1  0
 41 73  1  0
 42 74  1  0
M  END
$$$$
