
     RDKit          3D

 43 45  0  0  0  0  0  0  0  0999 V2000
   -0.1197    3.1268    1.7144 C   0  0  0  0  0  0  0  0  0  0  0  0
   -1.1214    2.9907    0.6063 C   0  0  0  0  0  0  0  0  0  0  0  0
   -1.0304    3.5526   -0.4777 O   0  0  0  0  0  0  0  0  0  0  0  0
   -2.1494    2.1582    1.0365 O   0  0  0  0  0  0  0  0  0  0  0  0
   -3.0479    1.8360    0.0127 C   0  0  0  0  0  0  0  0  0  0  0  0
   -4.2444    2.5494   -0.0623 C   0  0  0  0  0  0  0  0  0  0  0  0
   -5.1679    2.2266   -1.0551 C   0  0  0  0  0  0  0  0  0  0  0  0
   -4.8973    1.1909   -1.9522 C   0  0  0  0  0  0  0  0  0  0  0  0
   -3.7029    0.4688   -1.8589 C   0  0  0  0  0  0  0  0  0  0  0  0
   -2.7649    0.7813   -0.8692 C   0  0  0  0  0  0  0  0  0  0  0  0
   -1.5209    0.0179   -0.7421 C   0  0  0  0  0  0  0  0  0  0  0  0
   -0.5704    0.0333   -1.6901 C   0  0  0  0  0  0  0  0  0  0  0  0
    0.7342   -0.6233   -1.5332 C   0  0  0  0  0  0  0  0  0  0  0  0
    1.6632   -0.5907   -2.5619 C   0  0  0  0  0  0  0  0  0  0  0  0
    2.9045   -1.1860   -2.3573 C   0  0  0  0  0  0  0  0  0  0  0  0
    3.1959   -1.7894   -1.1284 C   0  0  0  0  0  0  0  0  0  0  0  0
    4.4427   -2.3975   -0.8821 C   0  0  0  0  0  0  0  0  0  0  0  0
    4.7130   -2.9976    0.3484 C   0  0  0  0  0  0  0  0  0  0  0  0
    3.7446   -2.9888    1.3442 C   0  0  0  0  0  0  0  0  0  0  0  0
    2.5196   -2.3657    1.0935 C   0  0  0  0  0  0  0  0  0  0  0  0
    1.5540   -2.4072    2.1118 O   0  0  0  0  0  0  0  0  0  0  0  0
    1.3705   -1.1710    2.7174 C   0  0  0  0  0  0  0  0  0  0  0  0
    0.1487   -1.2373    3.5845 C   0  0  0  0  0  0  0  0  0  0  0  0
    2.0906   -0.1849    2.6224 O   0  0  0  0  0  0  0  0  0  0  0  0
    2.1998   -1.7733   -0.1326 C   0  0  0  0  0  0  0  0  0  0  0  0
    0.9874   -1.2141   -0.3430 N   0  0  0  0  0  0  0  0  0  0  0  0
    0.2504    2.1394    2.0023 H   0  0  0  0  0  0  0  0  0  0  0  0
   -0.5782    3.6309    2.5684 H   0  0  0  0  0  0  0  0  0  0  0  0
    0.7276    3.7237    1.3652 H   0  0  0  0  0  0  0  0  0  0  0  0
   -4.4509    3.3529    0.6377 H   0  0  0  0  0  0  0  0  0  0  0  0
   -6.0994    2.7817   -1.1316 H   0  0  0  0  0  0  0  0  0  0  0  0
   -5.6203    0.9411   -2.7249 H   0  0  0  0  0  0  0  0  0  0  0  0
   -3.5152   -0.3431   -2.5574 H   0  0  0  0  0  0  0  0  0  0  0  0
   -1.3754   -0.5011    0.2017 H   0  0  0  0  0  0  0  0  0  0  0  0
   -0.7234    0.5927   -2.6086 H   0  0  0  0  0  0  0  0  0  0  0  0
    1.4407   -0.1065   -3.5067 H   0  0  0  0  0  0  0  0  0  0  0  0
    3.6415   -1.1666   -3.1560 H   0  0  0  0  0  0  0  0  0  0  0  0
    5.2109   -2.4070   -1.6528 H   0  0  0  0  0  0  0  0  0  0  0  0
    5.6769   -3.4672    0.5270 H   0  0  0  0  0  0  0  0  0  0  0  0
    3.9388   -3.4520    2.3066 H   0  0  0  0  0  0  0  0  0  0  0  0
   -0.7113   -1.5567    2.9900 H   0  0  0  0  0  0  0  0  0  0  0  0
   -0.0642   -0.2422    3.9857 H   0  0  0  0  0  0  0  0  0  0  0  0
    0.3208   -1.9258    4.4153 H   0  0  0  0  0  0  0  0  0  0  0  0
  1  2  1  0
  2  3  2  0
  2  4  1  0
  4  5  1  0
  5  6  2  0
  6  7  1  0
  7  8  2  0
  8  9  1  0
  9 10  2  0
 10 11  1  0
 11 12  2  0
 12 13  1  0
 13 14  2  0
 14 15  1  0
 15 16  2  0
 16 17  1  0
 17 18  2  0
 18 19  1  0
 19 20  2  0
 20 21  1  0
 21 22  1  0
 22 23  1  0
 22 24  2  0
 20 25  1  0
 25 26  2  0
 10  5  1  0
 26 13  1  0
 25 16  1  0
  1 27  1  0
  1 28  1  0
  1 29  1  0
  6 30  1  0
  7 31  1  0
  8 32  1  0
  9 33  1  0
 11 34  1  0
 12 35  1  0
 14 36  1  0
 15 37  1  0
 17 38  1  0
 18 39  1  0
 19 40  1  0
 23 41  1  0
 23 42  1  0
 23 43  1  0
M  END
$$$$
