
     RDKit          3D

 60 63  0  0  0  0  0  0  0  0999 V2000
    4.3777    0.5519   -3.2306 C   0  0  0  0  0  0  0  0  0  0  0  0
    5.3188    1.0974   -2.1670 C   0  0  0  0  0  0  0  0  0  0  0  0
    4.7001    0.9089   -0.8985 O   0  0  0  0  0  0  0  0  0  0  0  0
    5.3794    1.3174    0.2192 C   0  0  0  0  0  0  0  0  0  0  0  0
    6.6341    1.9382    0.1961 C   0  0  0  0  0  0  0  0  0  0  0  0
    7.2616    2.3215    1.3862 C   0  0  0  0  0  0  0  0  0  0  0  0
    6.6447    2.0895    2.6123 C   0  0  0  0  0  0  0  0  0  0  0  0
    5.3967    1.4718    2.6523 C   0  0  0  0  0  0  0  0  0  0  0  0
    4.7630    1.0865    1.4618 C   0  0  0  0  0  0  0  0  0  0  0  0
    3.4328    0.4358    1.5291 C   0  0  0  0  0  0  0  0  0  0  0  0
    2.9026    0.0920    2.6638 N   0  0  0  0  0  0  0  0  0  0  0  0
    1.6453   -0.4590    2.6334 N   0  0  0  0  0  0  0  0  0  0  0  0
    0.5860   -0.0002    1.8506 C   0  0  0  0  0  0  0  0  0  0  0  0
    0.6713    0.8479    0.9668 O   0  0  0  0  0  0  0  0  0  0  0  0
   -0.6871   -0.6104    2.2372 C   0  0  0  0  0  0  0  0  0  0  0  0
   -0.8068   -1.4004    3.3490 N   0  0  0  0  0  0  0  0  0  0  0  0
   -2.0645   -1.7890    3.4461 N   0  0  0  0  0  0  0  0  0  0  0  0
   -2.7881   -1.2381    2.4239 N   0  0  0  0  0  0  0  0  0  0  0  0
   -4.1910   -1.4360    2.3473 C   0  0  0  0  0  0  0  0  0  0  0  0
   -4.9399   -0.7923    1.4515 N   0  0  0  0  0  0  0  0  0  0  0  0
   -6.2380   -1.2242    1.7161 O   0  0  0  0  0  0  0  0  0  0  0  0
   -6.2652   -2.1232    2.7776 N   0  0  0  0  0  0  0  0  0  0  0  0
   -4.9969   -2.2559    3.1641 C   0  0  0  0  0  0  0  0  0  0  0  0
   -4.5916   -3.0569    4.1697 N   0  0  0  0  0  0  0  0  0  0  0  0
   -1.9226   -0.5128    1.6096 C   0  0  0  0  0  0  0  0  0  0  0  0
   -2.2698    0.1764    0.3365 C   0  0  0  0  0  0  0  0  0  0  0  0
   -1.8030   -0.6294   -0.7990 N   0  0  0  0  0  0  0  0  0  0  0  0
   -1.3672    0.2047   -1.9282 C   0  0  0  0  0  0  0  0  0  0  0  0
   -2.5213    0.8556   -2.6931 C   0  0  0  0  0  0  0  0  0  0  0  0
   -3.5158   -0.2011   -3.1867 C   0  0  0  0  0  0  0  0  0  0  0  0
   -4.7136    0.4529   -3.8705 C   0  0  0  0  0  0  0  0  0  0  0  0
   -3.9646   -1.0873   -2.0192 C   0  0  0  0  0  0  0  0  0  0  0  0
   -2.7657   -1.6461   -1.2450 C   0  0  0  0  0  0  0  0  0  0  0  0
    3.4203    1.0849   -3.2082 H   0  0  0  0  0  0  0  0  0  0  0  0
    4.8137    0.6509   -4.2282 H   0  0  0  0  0  0  0  0  0  0  0  0
    4.1591   -0.5057   -3.0453 H   0  0  0  0  0  0  0  0  0  0  0  0
    5.4883    2.1628   -2.3540 H   0  0  0  0  0  0  0  0  0  0  0  0
    6.2668    0.5487   -2.2124 H   0  0  0  0  0  0  0  0  0  0  0  0
    7.1554    2.1411   -0.7333 H   0  0  0  0  0  0  0  0  0  0  0  0
    8.2360    2.8035    1.3538 H   0  0  0  0  0  0  0  0  0  0  0  0
    7.1324    2.3894    3.5370 H   0  0  0  0  0  0  0  0  0  0  0  0
    4.9189    1.2952    3.6135 H   0  0  0  0  0  0  0  0  0  0  0  0
    2.9322    0.2298    0.5680 H   0  0  0  0  0  0  0  0  0  0  0  0
    1.3880   -0.9589    3.4813 H   0  0  0  0  0  0  0  0  0  0  0  0
   -5.2848   -3.4037    4.8248 H   0  0  0  0  0  0  0  0  0  0  0  0
   -3.6563   -2.9588    4.5632 H   0  0  0  0  0  0  0  0  0  0  0  0
   -1.7491    1.1443    0.3540 H   0  0  0  0  0  0  0  0  0  0  0  0
   -3.3201    0.4560    0.2488 H   0  0  0  0  0  0  0  0  0  0  0  0
   -0.7915   -0.4247   -2.6201 H   0  0  0  0  0  0  0  0  0  0  0  0
   -0.6621    0.9748   -1.5915 H   0  0  0  0  0  0  0  0  0  0  0  0
   -3.0296    1.5864   -2.0514 H   0  0  0  0  0  0  0  0  0  0  0  0
   -2.1189    1.4130   -3.5478 H   0  0  0  0  0  0  0  0  0  0  0  0
   -3.0074   -0.8349   -3.9259 H   0  0  0  0  0  0  0  0  0  0  0  0
   -5.4176   -0.3043   -4.2313 H   0  0  0  0  0  0  0  0  0  0  0  0
   -4.3888    1.0466   -4.7321 H   0  0  0  0  0  0  0  0  0  0  0  0
   -5.2515    1.1166   -3.1859 H   0  0  0  0  0  0  0  0  0  0  0  0
   -4.5676   -1.9209   -2.3990 H   0  0  0  0  0  0  0  0  0  0  0  0
   -4.6162   -0.5158   -1.3483 H   0  0  0  0  0  0  0  0  0  0  0  0
   -3.1182   -2.2467   -0.3994 H   0  0  0  0  0  0  0  0  0  0  0  0
   -2.2330   -2.3560   -1.8926 H   0  0  0  0  0  0  0  0  0  0  0  0
  1  2  1  0
  2  3  1  0
  3  4  1  0
  4  5  2  0
  5  6  1  0
  6  7  2  0
  7  8  1  0
  8  9  2  0
  9 10  1  0
 10 11  2  3
 11 12  1  0
 12 13  1  0
 13 14  2  0
 13 15  1  0
 15 16  1  0
 16 17  2  0
 17 18  1  0
 18 19  1  0
 19 20  2  0
 20 21  1  0
 21 22  1  0
 22 23  2  0
 23 24  1  0
 18 25  1  0
 25 26  1  0
 26 27  1  0
 27 28  1  0
 28 29  1  0
 29 30  1  0
 30 31  1  0
 30 32  1  0
 32 33  1  0
  9  4  1  0
 25 15  2  0
 33 27  1  0
 23 19  1  0
  1 34  1  0
  1 35  1  0
  1 36  1  0
  2 37  1  0
  2 38  1  0
  5 39  1  0
  6 40  1  0
  7 41  1  0
  8 42  1  0
 10 43  1  0
 12 44  1  0
 24 45  1  0
 24 46  1  0
 26 47  1  0
 26 48  1  0
 28 49  1  0
 28 50  1  0
 29 51  1  0
 29 52  1  0
 30 53  1  0
 31 54  1  0
 31 55  1  0
 31 56  1  0
 32 57  1  0
 32 58  1  0
 33 59  1  0
 33 60  1  0
M  END
$$$$
