
     RDKit          3D

 48 49  0  0  0  0  0  0  0  0999 V2000
   -5.0768   -1.2566    1.0749 C   0  0  0  0  0  0  0  0  0  0  0  0
   -4.7904    0.2230    1.2856 C   0  0  0  0  0  0  0  0  0  0  0  0
   -4.9680    1.0323    0.0735 N   0  0  0  0  0  0  0  0  0  0  0  0
   -6.2508    1.7150   -0.1047 C   0  0  0  0  0  0  0  0  0  0  0  0
   -7.3338    0.8255   -0.6927 C   0  0  0  0  0  0  0  0  0  0  0  0
   -4.1051    1.0044   -1.0273 C   0  0  0  0  0  0  0  0  0  0  0  0
   -4.3968    1.4581   -2.1324 O   0  0  0  0  0  0  0  0  0  0  0  0
   -2.7636    0.3997   -0.8872 C   0  0  0  0  0  0  0  0  0  0  0  0
   -2.4085   -0.6550   -1.7291 C   0  0  0  0  0  0  0  0  0  0  0  0
   -1.1308   -1.2145   -1.6389 C   0  0  0  0  0  0  0  0  0  0  0  0
   -0.1938   -0.7163   -0.7216 C   0  0  0  0  0  0  0  0  0  0  0  0
    1.0727   -1.3377   -0.6995 N   0  0  0  0  0  0  0  0  0  0  0  0
    2.1419   -1.0484    0.1400 C   0  0  0  0  0  0  0  0  0  0  0  0
    2.1547   -0.2011    1.0264 O   0  0  0  0  0  0  0  0  0  0  0  0
    3.3726   -1.9138   -0.1832 C   0  0  0  0  0  0  0  0  0  0  0  0
    4.4370   -1.8629    0.7510 O   0  0  0  0  0  0  0  0  0  0  0  0
    5.3912   -0.8908    0.6137 C   0  0  0  0  0  0  0  0  0  0  0  0
    5.2120    0.2976   -0.1030 C   0  0  0  0  0  0  0  0  0  0  0  0
    6.2383    1.2471   -0.1722 C   0  0  0  0  0  0  0  0  0  0  0  0
    7.4516    1.0094    0.4845 C   0  0  0  0  0  0  0  0  0  0  0  0
    8.5278    2.0047    0.4090 N   0  0  0  0  0  4  0  0  0  0  0  0
    8.3278    3.0171   -0.2764 O   0  0  0  0  0  0  0  0  0  0  0  0
    9.5738    1.7697    1.0295 O   0  0  0  0  0  1  0  0  0  0  0  0
    7.6456   -0.1667    1.2139 C   0  0  0  0  0  0  0  0  0  0  0  0
    6.6133   -1.1062    1.2777 C   0  0  0  0  0  0  0  0  0  0  0  0
    6.8962   -2.5513    2.1864 Cl  0  0  0  0  0  0  0  0  0  0  0  0
   -0.5521    0.3601    0.0949 C   0  0  0  0  0  0  0  0  0  0  0  0
   -1.8295    0.9259    0.0061 C   0  0  0  0  0  0  0  0  0  0  0  0
   -6.1106   -1.4272    0.7653 H   0  0  0  0  0  0  0  0  0  0  0  0
   -4.4272   -1.6905    0.3099 H   0  0  0  0  0  0  0  0  0  0  0  0
   -4.9119   -1.8061    2.0071 H   0  0  0  0  0  0  0  0  0  0  0  0
   -5.4419    0.6198    2.0722 H   0  0  0  0  0  0  0  0  0  0  0  0
   -3.7674    0.3368    1.6510 H   0  0  0  0  0  0  0  0  0  0  0  0
   -6.1012    2.5724   -0.7718 H   0  0  0  0  0  0  0  0  0  0  0  0
   -6.5710    2.1234    0.8602 H   0  0  0  0  0  0  0  0  0  0  0  0
   -7.0023    0.3496   -1.6207 H   0  0  0  0  0  0  0  0  0  0  0  0
   -7.6223    0.0376    0.0078 H   0  0  0  0  0  0  0  0  0  0  0  0
   -8.2290    1.4164   -0.9108 H   0  0  0  0  0  0  0  0  0  0  0  0
   -3.1233   -1.0353   -2.4553 H   0  0  0  0  0  0  0  0  0  0  0  0
   -0.8823   -2.0391   -2.3021 H   0  0  0  0  0  0  0  0  0  0  0  0
    1.1985   -2.0962   -1.3591 H   0  0  0  0  0  0  0  0  0  0  0  0
    3.0328   -2.9567   -0.1926 H   0  0  0  0  0  0  0  0  0  0  0  0
    3.7194   -1.6929   -1.2006 H   0  0  0  0  0  0  0  0  0  0  0  0
    4.2738    0.5337   -0.5963 H   0  0  0  0  0  0  0  0  0  0  0  0
    6.0684    2.1672   -0.7291 H   0  0  0  0  0  0  0  0  0  0  0  0
    8.5821   -0.3596    1.7326 H   0  0  0  0  0  0  0  0  0  0  0  0
    0.1422    0.7965    0.8064 H   0  0  0  0  0  0  0  0  0  0  0  0
   -2.0833    1.7815    0.6272 H   0  0  0  0  0  0  0  0  0  0  0  0
  1  2  1  0
  2  3  1  0
  3  4  1  0
  4  5  1  0
  3  6  1  0
  6  7  2  0
  6  8  1  0
  8  9  2  0
  9 10  1  0
 10 11  2  0
 11 12  1  0
 12 13  1  0
 13 14  2  0
 13 15  1  0
 15 16  1  0
 16 17  1  0
 17 18  2  0
 18 19  1  0
 19 20  2  0
 20 21  1  0
 21 22  2  0
 21 23  1  0
 20 24  1  0
 24 25  2  0
 25 26  1  0
 11 27  1  0
 27 28  2  0
 28  8  1  0
 25 17  1  0
  1 29  1  0
  1 30  1  0
  1 31  1  0
  2 32  1  0
  2 33  1  0
  4 34  1  0
  4 35  1  0
  5 36  1  0
  5 37  1  0
  5 38  1  0
  9 39  1  0
 10 40  1  0
 12 41  1  0
 15 42  1  0
 15 43  1  0
 18 44  1  0
 19 45  1  0
 24 46  1  0
 27 47  1  0
 28 48  1  0
M  CHG  2  21   1  23  -1
M  END
$$$$
