
     RDKit          3D

 61 66  0  0  0  0  0  0  0  0999 V2000
   -2.5465   -1.8836   -0.7195 C   0  0  0  0  0  0  0  0  0  0  0  0
   -3.7320   -0.9228   -0.8275 C   0  0  0  0  0  0  0  0  0  0  0  0
   -4.4260   -1.0709   -2.1821 C   0  0  0  0  0  0  0  0  0  0  0  0
   -3.4891    0.5411   -0.4637 C   0  0  0  0  0  0  0  0  0  0  0  0
   -4.5976    1.2195    0.0909 C   0  0  0  0  0  0  0  0  0  0  0  0
   -4.5095    2.5332    0.5605 C   0  0  0  0  0  0  0  0  0  0  0  0
   -3.3034    3.2155    0.4992 C   0  0  0  0  0  0  0  0  0  0  0  0
   -2.1926    2.5911   -0.0556 C   0  0  0  0  0  0  0  0  0  0  0  0
   -2.2899    1.2763   -0.5574 C   0  0  0  0  0  0  0  0  0  0  0  0
   -1.1324    0.7780   -1.1895 N   0  0  0  0  0  0  0  0  0  0  0  0
    0.0531    0.4162   -0.5823 C   0  0  0  0  0  0  0  0  0  0  0  0
    0.3546    0.4847    1.1222 S   0  0  0  0  0  0  0  0  0  0  0  0
    1.1963   -1.1152    1.3557 C   0  0  0  0  0  0  0  0  0  0  0  0
    1.8208   -1.1851    2.7275 C   0  0  0  0  0  0  0  0  0  0  0  0
    1.0115   -1.5258    3.7466 C   0  0  0  0  0  0  0  0  0  0  0  0
    1.4642   -1.8004    5.1091 C   0  0  0  0  0  0  0  0  0  0  0  0
    0.6635   -2.0059    6.0118 O   0  0  0  0  0  0  0  0  0  0  0  0
    2.8263   -1.8726    5.2821 O   0  0  0  0  0  0  0  0  0  0  0  0
    3.7156   -1.5016    4.2517 C   0  0  0  0  0  0  0  0  0  0  0  0
    5.0545   -1.5962    4.6158 C   0  0  0  0  0  0  0  0  0  0  0  0
    6.0282   -1.2168    3.7084 C   0  0  0  0  0  0  0  0  0  0  0  0
    5.6741   -0.6922    2.4619 C   0  0  0  0  0  0  0  0  0  0  0  0
    6.7113   -0.2854    1.6032 C   0  0  0  0  0  0  0  0  0  0  0  0
    6.4438    0.2941    0.3682 C   0  0  0  0  0  0  0  0  0  0  0  0
    5.1310    0.4926   -0.0085 C   0  0  0  0  0  0  0  0  0  0  0  0
    4.0899    0.0855    0.8377 C   0  0  0  0  0  0  0  0  0  0  0  0
    4.3019   -0.5609    2.0855 C   0  0  0  0  0  0  0  0  0  0  0  0
    3.2859   -1.0500    2.9871 C   0  0  0  0  0  0  0  0  0  0  0  0
    0.8977   -0.0432   -1.4726 N   0  0  0  0  0  0  0  0  0  0  0  0
    0.3056    0.0741   -2.6992 N   0  0  0  0  0  0  0  0  0  0  0  0
   -0.8915    0.6294   -2.5546 C   0  0  0  0  0  0  0  0  0  0  0  0
   -1.7486    0.9994   -3.6861 C   0  0  0  0  0  0  0  0  0  0  0  0
   -1.6163    0.3060   -4.8969 C   0  0  0  0  0  0  0  0  0  0  0  0
   -2.3998    0.6458   -5.9981 C   0  0  0  0  0  0  0  0  0  0  0  0
   -3.2993    1.6883   -5.8643 C   0  0  0  0  0  0  0  0  0  0  0  0
   -3.4539    2.3954   -4.7271 N   0  0  0  0  0  0  0  0  0  0  0  0
   -2.6720    2.0423   -3.6736 C   0  0  0  0  0  0  0  0  0  0  0  0
   -1.8489   -1.7823   -1.5545 H   0  0  0  0  0  0  0  0  0  0  0  0
   -2.0034   -1.7453    0.2202 H   0  0  0  0  0  0  0  0  0  0  0  0
   -2.9007   -2.9212   -0.7389 H   0  0  0  0  0  0  0  0  0  0  0  0
   -4.4406   -1.3016   -0.0753 H   0  0  0  0  0  0  0  0  0  0  0  0
   -3.7981   -0.7246   -3.0041 H   0  0  0  0  0  0  0  0  0  0  0  0
   -5.3651   -0.5055   -2.2106 H   0  0  0  0  0  0  0  0  0  0  0  0
   -4.6723   -2.1221   -2.3756 H   0  0  0  0  0  0  0  0  0  0  0  0
   -5.5586    0.7123    0.1791 H   0  0  0  0  0  0  0  0  0  0  0  0
   -5.3860    3.0168    0.9835 H   0  0  0  0  0  0  0  0  0  0  0  0
   -3.2317    4.2343    0.8728 H   0  0  0  0  0  0  0  0  0  0  0  0
   -1.2595    3.1504   -0.1190 H   0  0  0  0  0  0  0  0  0  0  0  0
    1.9079   -1.3588    0.5635 H   0  0  0  0  0  0  0  0  0  0  0  0
    0.4231   -1.8922    1.2691 H   0  0  0  0  0  0  0  0  0  0  0  0
   -0.0568   -1.6485    3.6105 H   0  0  0  0  0  0  0  0  0  0  0  0
    5.3334   -1.9650    5.6005 H   0  0  0  0  0  0  0  0  0  0  0  0
    7.0722   -1.3051    3.9993 H   0  0  0  0  0  0  0  0  0  0  0  0
    7.7513   -0.4112    1.8944 H   0  0  0  0  0  0  0  0  0  0  0  0
    7.2573    0.6059   -0.2828 H   0  0  0  0  0  0  0  0  0  0  0  0
    4.9005    0.9696   -0.9589 H   0  0  0  0  0  0  0  0  0  0  0  0
    3.0994    0.3327    0.4876 H   0  0  0  0  0  0  0  0  0  0  0  0
   -0.8943   -0.5035   -4.9900 H   0  0  0  0  0  0  0  0  0  0  0  0
   -2.3018    0.1141   -6.9376 H   0  0  0  0  0  0  0  0  0  0  0  0
   -3.9319    1.9955   -6.6930 H   0  0  0  0  0  0  0  0  0  0  0  0
   -2.8246    2.6751   -2.8067 H   0  0  0  0  0  0  0  0  0  0  0  0
  1  2  1  0
  2  3  1  0
  2  4  1  0
  4  5  2  0
  5  6  1  0
  6  7  2  0
  7  8  1  0
  8  9  2  0
  9 10  1  0
 10 11  1  0
 11 12  1  0
 12 13  1  0
 13 14  1  0
 14 15  2  0
 15 16  1  0
 16 17  2  0
 16 18  1  0
 18 19  1  0
 19 20  2  0
 20 21  1  0
 21 22  2  0
 22 23  1  0
 23 24  2  0
 24 25  1  0
 25 26  2  0
 26 27  1  0
 27 28  2  0
 11 29  2  0
 29 30  1  0
 30 31  2  0
 31 32  1  0
 32 33  2  0
 33 34  1  0
 34 35  2  0
 35 36  1  0
 36 37  2  0
  9  4  1  0
 31 10  1  0
 37 32  1  0
 28 14  1  0
 28 19  1  0
 27 22  1  0
  1 38  1  0
  1 39  1  0
  1 40  1  0
  2 41  1  0
  3 42  1  0
  3 43  1  0
  3 44  1  0
  5 45  1  0
  6 46  1  0
  7 47  1  0
  8 48  1  0
 13 49  1  0
 13 50  1  0
 15 51  1  0
 20 52  1  0
 21 53  1  0
 23 54  1  0
 24 55  1  0
 25 56  1  0
 26 57  1  0
 33 58  1  0
 34 59  1  0
 35 60  1  0
 37 61  1  0
M  END
$$$$
