
     RDKit          3D

 93 97  0  0  0  0  0  0  0  0999 V2000
   -6.6339    2.6829   -3.0001 C   0  0  0  0  0  0  0  0  0  0  0  0
   -6.2582    1.9550   -1.7168 C   0  0  0  0  0  0  0  0  0  0  0  0
   -5.3607    0.7427   -1.9616 C   0  0  0  0  0  0  0  0  0  0  0  0
   -3.9332    1.1158   -2.2900 C   0  0  0  0  0  0  0  0  0  0  0  0
   -3.4918    2.2552   -2.3508 O   0  0  0  0  0  0  0  0  0  0  0  0
   -3.2046   -0.0185   -2.4912 O   0  0  0  0  0  0  0  0  0  0  0  0
   -1.8203    0.1938   -2.8021 C   0  0  0  0  0  0  0  0  0  0  0  0
   -1.0233   -1.0420   -2.3944 C   0  0  1  0  0  0  0  0  0  0  0  0
    0.4794   -0.9385   -2.7944 C   0  0  0  0  0  0  0  0  0  0  0  0
    1.2495   -0.8579   -1.4560 C   0  0  2  0  0  0  0  0  0  0  0  0
    1.0600    0.5497   -1.1286 O   0  0  0  0  0  0  0  0  0  0  0  0
    1.7097    1.1654   -0.1221 C   0  0  0  0  0  0  0  0  0  0  0  0
    2.4514    0.6562    0.7017 O   0  0  0  0  0  0  0  0  0  0  0  0
    1.3905    2.6076   -0.0753 C   0  0  0  0  0  0  0  0  0  0  0  0
    0.6421    3.2506   -0.9844 C   0  0  0  0  0  0  0  0  0  0  0  0
    0.3336    4.6859   -0.9221 C   0  0  0  0  0  0  0  0  0  0  0  0
   -0.9240    5.1242   -1.3574 C   0  0  0  0  0  0  0  0  0  0  0  0
   -1.2487    6.4826   -1.3404 C   0  0  0  0  0  0  0  0  0  0  0  0
   -0.3143    7.4163   -0.8997 C   0  0  0  0  0  0  0  0  0  0  0  0
    0.9474    6.9960   -0.4868 C   0  0  0  0  0  0  0  0  0  0  0  0
    1.2720    5.6371   -0.5012 C   0  0  0  0  0  0  0  0  0  0  0  0
    2.7538   -1.2063   -1.6489 C   0  0  0  0  0  0  0  0  0  0  0  0
    3.5723   -0.3470   -1.9846 O   0  0  0  0  0  0  0  0  0  0  0  0
    3.2423   -2.6146   -1.5071 C   0  0  0  0  0  0  0  0  0  0  0  0
    3.1085   -3.4607   -2.7362 C   0  0  0  0  0  0  0  0  0  0  0  0
    3.8638   -3.0461   -0.3883 C   0  0  0  0  0  0  0  0  0  0  0  0
    4.0572   -2.3461    0.8980 C   0  0  0  0  0  0  0  0  0  0  0  0
    3.5603   -3.0687    2.1523 C   0  0  2  0  0  0  0  0  0  0  0  0
    2.6790   -2.3481    3.1504 C   0  0  0  0  0  0  0  0  0  0  0  0
    1.2300   -2.8905    3.2479 C   0  0  0  0  0  0  0  0  0  0  0  0
    0.3812   -2.8693    1.9797 C   0  0  2  0  0  0  0  0  0  0  0  0
   -1.0412   -3.3043    2.1292 C   0  0  0  0  0  0  0  0  0  0  0  0
    1.0594   -3.4929    0.9130 O   0  0  0  0  0  0  0  0  0  0  0  0
    0.8396   -2.0623    0.7612 C   0  0  1  0  0  0  0  0  0  0  0  0
    0.3794   -1.8547   -0.6387 C   0  0  1  0  0  0  0  0  0  0  0  0
   -1.0451   -1.3590   -0.8672 C   0  0  1  0  0  0  0  0  0  0  0  0
   -1.2680   -0.1830   -0.0734 O   0  0  0  0  0  0  0  0  0  0  0  0
   -2.4168   -0.1137    0.6546 C   0  0  0  0  0  0  0  0  0  0  0  0
   -3.2926   -0.9657    0.6775 O   0  0  0  0  0  0  0  0  0  0  0  0
   -2.4548    1.2025    1.3962 C   0  0  0  0  0  0  0  0  0  0  0  0
   -3.5121    1.2382    2.4982 C   0  0  0  0  0  0  0  0  0  0  0  0
   -3.1410    0.3711    3.6941 C   0  0  0  0  0  0  0  0  0  0  0  0
    5.0438   -2.7716    1.9701 C   0  0  0  0  0  0  0  0  0  0  0  0
    5.9714   -3.9410    1.7380 C   0  0  0  0  0  0  0  0  0  0  0  0
    5.6853   -1.6658    2.7782 C   0  0  0  0  0  0  0  0  0  0  0  0
   -5.7478    3.0617   -3.5206 H   0  0  0  0  0  0  0  0  0  0  0  0
   -7.1752    2.0192   -3.6812 H   0  0  0  0  0  0  0  0  0  0  0  0
   -7.2841    3.5331   -2.7728 H   0  0  0  0  0  0  0  0  0  0  0  0
   -5.7730    2.6564   -1.0298 H   0  0  0  0  0  0  0  0  0  0  0  0
   -7.1807    1.6143   -1.2303 H   0  0  0  0  0  0  0  0  0  0  0  0
   -5.7622    0.1314   -2.7779 H   0  0  0  0  0  0  0  0  0  0  0  0
   -5.3377    0.1376   -1.0470 H   0  0  0  0  0  0  0  0  0  0  0  0
   -1.4238    1.0860   -2.3060 H   0  0  0  0  0  0  0  0  0  0  0  0
   -1.7462    0.3385   -3.8860 H   0  0  0  0  0  0  0  0  0  0  0  0
   -1.4414   -1.9146   -2.9156 H   0  0  0  0  0  0  0  0  0  0  0  0
    0.7656   -1.8320   -3.3618 H   0  0  0  0  0  0  0  0  0  0  0  0
    0.6725   -0.0735   -3.4396 H   0  0  0  0  0  0  0  0  0  0  0  0
    1.8264    3.1202    0.7751 H   0  0  0  0  0  0  0  0  0  0  0  0
    0.2058    2.7194   -1.8274 H   0  0  0  0  0  0  0  0  0  0  0  0
   -1.6683    4.4092   -1.7073 H   0  0  0  0  0  0  0  0  0  0  0  0
   -2.2295    6.8074   -1.6754 H   0  0  0  0  0  0  0  0  0  0  0  0
   -0.5655    8.4742   -0.8902 H   0  0  0  0  0  0  0  0  0  0  0  0
    1.6837    7.7259   -0.1595 H   0  0  0  0  0  0  0  0  0  0  0  0
    2.2707    5.3352   -0.1954 H   0  0  0  0  0  0  0  0  0  0  0  0
    3.4152   -2.9018   -3.6268 H   0  0  0  0  0  0  0  0  0  0  0  0
    2.0724   -3.7854   -2.8704 H   0  0  0  0  0  0  0  0  0  0  0  0
    3.7357   -4.3578   -2.6818 H   0  0  0  0  0  0  0  0  0  0  0  0
    4.2321   -4.0703   -0.4138 H   0  0  0  0  0  0  0  0  0  0  0  0
    3.9324   -1.2708    0.8263 H   0  0  0  0  0  0  0  0  0  0  0  0
    3.2846   -4.1175    2.0854 H   0  0  0  0  0  0  0  0  0  0  0  0
    2.6547   -1.2723    2.9451 H   0  0  0  0  0  0  0  0  0  0  0  0
    3.1354   -2.4620    4.1400 H   0  0  0  0  0  0  0  0  0  0  0  0
    1.2699   -3.9264    3.6091 H   0  0  0  0  0  0  0  0  0  0  0  0
    0.7056   -2.3087    4.0157 H   0  0  0  0  0  0  0  0  0  0  0  0
   -1.5197   -3.4970    1.1652 H   0  0  0  0  0  0  0  0  0  0  0  0
   -1.0988   -4.2295    2.7106 H   0  0  0  0  0  0  0  0  0  0  0  0
   -1.6169   -2.5354    2.6541 H   0  0  0  0  0  0  0  0  0  0  0  0
    1.6241   -1.3688    1.0032 H   0  0  0  0  0  0  0  0  0  0  0  0
    0.4507   -2.8308   -1.1478 H   0  0  0  0  0  0  0  0  0  0  0  0
   -1.7781   -2.1432   -0.6523 H   0  0  0  0  0  0  0  0  0  0  0  0
   -1.4655    1.3958    1.8282 H   0  0  0  0  0  0  0  0  0  0  0  0
   -2.6727    1.9854    0.6610 H   0  0  0  0  0  0  0  0  0  0  0  0
   -3.6261    2.2718    2.8423 H   0  0  0  0  0  0  0  0  0  0  0  0
   -4.4859    0.9229    2.1054 H   0  0  0  0  0  0  0  0  0  0  0  0
   -2.1827    0.6833    4.1199 H   0  0  0  0  0  0  0  0  0  0  0  0
   -3.0670   -0.6850    3.4206 H   0  0  0  0  0  0  0  0  0  0  0  0
   -3.9024    0.4616    4.4742 H   0  0  0  0  0  0  0  0  0  0  0  0
    5.4548   -4.8164    1.3296 H   0  0  0  0  0  0  0  0  0  0  0  0
    6.7691   -3.6555    1.0441 H   0  0  0  0  0  0  0  0  0  0  0  0
    6.4338   -4.2484    2.6820 H   0  0  0  0  0  0  0  0  0  0  0  0
    5.0362   -0.7874    2.8777 H   0  0  0  0  0  0  0  0  0  0  0  0
    5.9283   -2.0243    3.7837 H   0  0  0  0  0  0  0  0  0  0  0  0
    6.6133   -1.3364    2.2981 H   0  0  0  0  0  0  0  0  0  0  0  0
  1  2  1  0
  2  3  1  0
  3  4  1  0
  4  5  2  0
  4  6  1  0
  6  7  1  0
  7  8  1  0
  8  9  1  0
  9 10  1  0
 10 11  1  1
 11 12  1  0
 12 13  2  0
 12 14  1  0
 14 15  2  0
 15 16  1  0
 16 17  2  0
 17 18  1  0
 18 19  2  0
 19 20  1  0
 20 21  2  0
 10 22  1  0
 22 23  2  0
 22 24  1  0
 24 25  1  0
 24 26  2  3
 26 27  1  0
 27 28  1  0
 28 29  1  0
 29 30  1  0
 30 31  1  0
 31 32  1  1
 31 33  1  0
 33 34  1  0
 34 35  1  0
 35 36  1  0
 36 37  1  0
 37 38  1  0
 38 39  2  0
 38 40  1  0
 40 41  1  0
 41 42  1  0
 28 43  1  0
 43 44  1  0
 43 45  1  0
 36  8  1  0
 35 10  1  0
 21 16  1  0
 43 27  1  0
 34 31  1  0
  1 46  1  0
  1 47  1  0
  1 48  1  0
  2 49  1  0
  2 50  1  0
  3 51  1  0
  3 52  1  0
  7 53  1  0
  7 54  1  0
  8 55  1  6
  9 56  1  0
  9 57  1  0
 14 58  1  0
 15 59  1  0
 17 60  1  0
 18 61  1  0
 19 62  1  0
 20 63  1  0
 21 64  1  0
 25 65  1  0
 25 66  1  0
 25 67  1  0
 26 68  1  0
 27 69  1  0
 28 70  1  6
 29 71  1  0
 29 72  1  0
 30 73  1  0
 30 74  1  0
 32 75  1  0
 32 76  1  0
 32 77  1  0
 34 78  1  1
 35 79  1  6
 36 80  1  6
 40 81  1  0
 40 82  1  0
 41 83  1  0
 41 84  1  0
 42 85  1  0
 42 86  1  0
 42 87  1  0
 44 88  1  0
 44 89  1  0
 44 90  1  0
 45 91  1  0
 45 92  1  0
 45 93  1  0
M  END
$$$$
