
     RDKit          3D

 57 59  0  0  0  0  0  0  0  0999 V2000
   10.1954   -1.7069   -0.7951 C   0  0  0  0  0  0  0  0  0  0  0  0
    9.5663   -0.9642   -1.8320 O   0  0  0  0  0  0  0  0  0  0  0  0
    8.2267   -0.7258   -1.6945 C   0  0  0  0  0  0  0  0  0  0  0  0
    7.4144   -1.1771   -0.6561 C   0  0  0  0  0  0  0  0  0  0  0  0
    6.0513   -0.8611   -0.6474 C   0  0  0  0  0  0  0  0  0  0  0  0
    5.4843   -0.0898   -1.6668 C   0  0  0  0  0  0  0  0  0  0  0  0
    4.1473    0.1400   -1.5187 O   0  0  0  0  0  0  0  0  0  0  0  0
    3.4490    0.8772   -2.5236 C   0  0  0  0  0  0  0  0  0  0  0  0
    3.5213    2.3888   -2.2838 C   0  0  0  0  0  0  0  0  0  0  0  0
    2.7395    2.9068   -0.7172 S   0  0  0  0  0  0  0  0  0  0  0  0
    1.0734    2.6250   -1.0753 C   0  0  0  0  0  0  0  0  0  0  0  0
    0.5353    2.5606   -2.2671 N   0  0  0  0  0  0  0  0  0  0  0  0
   -0.8089    2.3327   -2.1062 N   0  0  0  0  0  0  0  0  0  0  0  0
   -1.0628    2.2647   -0.8147 C   0  0  0  0  0  0  0  0  0  0  0  0
   -2.4002    2.0324   -0.2080 C   0  0  0  0  0  0  0  0  0  0  0  0
   -2.6868    0.5397   -0.0635 C   0  0  0  0  0  0  0  0  0  0  0  0
   -3.9571    0.3012    0.6024 N   0  0  0  0  0  0  0  0  0  0  0  0
   -4.1343   -0.8125    1.4006 C   0  0  0  0  0  0  0  0  0  0  0  0
   -3.2281   -1.5829    1.7032 O   0  0  0  0  0  0  0  0  0  0  0  0
   -5.5172   -1.0659    1.8868 C   0  0  0  0  0  0  0  0  0  0  0  0
   -5.8960   -2.3844    2.1611 C   0  0  0  0  0  0  0  0  0  0  0  0
   -7.1811   -2.6676    2.6424 C   0  0  0  0  0  0  0  0  0  0  0  0
   -8.0884   -1.6335    2.8704 C   0  0  0  0  0  0  0  0  0  0  0  0
   -9.3601   -1.7680    3.3595 O   0  0  0  0  0  0  0  0  0  0  0  0
   -9.7908   -3.0886    3.6694 C   0  0  0  0  0  0  0  0  0  0  0  0
   -7.7064   -0.3168    2.6006 C   0  0  0  0  0  0  0  0  0  0  0  0
   -6.4269   -0.0275    2.1133 C   0  0  0  0  0  0  0  0  0  0  0  0
    0.1146    2.4240   -0.1222 N   0  0  0  0  0  0  0  0  0  0  0  0
    0.3048    2.3740    1.3066 C   0  0  0  0  0  0  0  0  0  0  0  0
    6.2978    0.3624   -2.7029 C   0  0  0  0  0  0  0  0  0  0  0  0
    7.6606    0.0408   -2.7141 C   0  0  0  0  0  0  0  0  0  0  0  0
   11.2552   -1.8042   -1.0525 H   0  0  0  0  0  0  0  0  0  0  0  0
   10.1289   -1.1771    0.1633 H   0  0  0  0  0  0  0  0  0  0  0  0
    9.7768   -2.7191   -0.7185 H   0  0  0  0  0  0  0  0  0  0  0  0
    7.8017   -1.7803    0.1598 H   0  0  0  0  0  0  0  0  0  0  0  0
    5.4229   -1.2208    0.1654 H   0  0  0  0  0  0  0  0  0  0  0  0
    3.8031    0.6194   -3.5293 H   0  0  0  0  0  0  0  0  0  0  0  0
    2.4077    0.5329   -2.4955 H   0  0  0  0  0  0  0  0  0  0  0  0
    4.5658    2.7120   -2.2266 H   0  0  0  0  0  0  0  0  0  0  0  0
    3.0585    2.9269   -3.1145 H   0  0  0  0  0  0  0  0  0  0  0  0
   -2.4801    2.5357    0.7624 H   0  0  0  0  0  0  0  0  0  0  0  0
   -3.1684    2.4914   -0.8438 H   0  0  0  0  0  0  0  0  0  0  0  0
   -2.7450    0.0583   -1.0465 H   0  0  0  0  0  0  0  0  0  0  0  0
   -1.8803    0.0460    0.4920 H   0  0  0  0  0  0  0  0  0  0  0  0
   -4.7818    0.7187    0.1901 H   0  0  0  0  0  0  0  0  0  0  0  0
   -5.1887   -3.1976    2.0037 H   0  0  0  0  0  0  0  0  0  0  0  0
   -7.4297   -3.7049    2.8397 H   0  0  0  0  0  0  0  0  0  0  0  0
   -9.1370   -3.5633    4.4100 H   0  0  0  0  0  0  0  0  0  0  0  0
   -9.8630   -3.6983    2.7603 H   0  0  0  0  0  0  0  0  0  0  0  0
  -10.7918   -3.0185    4.1069 H   0  0  0  0  0  0  0  0  0  0  0  0
   -8.4103    0.4933    2.7889 H   0  0  0  0  0  0  0  0  0  0  0  0
   -6.1532    1.0108    1.9512 H   0  0  0  0  0  0  0  0  0  0  0  0
    0.4271    3.3952    1.6726 H   0  0  0  0  0  0  0  0  0  0  0  0
    1.1891    1.7722    1.5320 H   0  0  0  0  0  0  0  0  0  0  0  0
   -0.5523    1.9063    1.7873 H   0  0  0  0  0  0  0  0  0  0  0  0
    5.9182    0.9697   -3.5168 H   0  0  0  0  0  0  0  0  0  0  0  0
    8.2896    0.3973   -3.5279 H   0  0  0  0  0  0  0  0  0  0  0  0
  1  2  1  0
  2  3  1  0
  3  4  2  0
  4  5  1  0
  5  6  2  0
  6  7  1  0
  7  8  1  0
  8  9  1  0
  9 10  1  0
 10 11  1  0
 11 12  2  0
 12 13  1  0
 13 14  2  0
 14 15  1  0
 15 16  1  0
 16 17  1  0
 17 18  1  0
 18 19  2  0
 18 20  1  0
 20 21  2  0
 21 22  1  0
 22 23  2  0
 23 24  1  0
 24 25  1  0
 23 26  1  0
 26 27  2  0
 14 28  1  0
 28 29  1  0
  6 30  1  0
 30 31  2  0
 31  3  1  0
 28 11  1  0
 27 20  1  0
  1 32  1  0
  1 33  1  0
  1 34  1  0
  4 35  1  0
  5 36  1  0
  8 37  1  0
  8 38  1  0
  9 39  1  0
  9 40  1  0
 15 41  1  0
 15 42  1  0
 16 43  1  0
 16 44  1  0
 17 45  1  0
 21 46  1  0
 22 47  1  0
 25 48  1  0
 25 49  1  0
 25 50  1  0
 26 51  1  0
 27 52  1  0
 29 53  1  0
 29 54  1  0
 29 55  1  0
 30 56  1  0
 31 57  1  0
M  END
$$$$
