
     RDKit          3D

 53 58  0  0  0  0  0  0  0  0999 V2000
    1.0323   -1.5092    1.7998 O   0  0  0  0  0  0  0  0  0  0  0  0
    1.4889   -1.1718    0.7060 C   0  0  0  0  0  0  0  0  0  0  0  0
    0.7208   -1.5668   -0.5724 C   0  0  0  0  0  0  0  0  0  0  0  0
   -0.6924   -1.1667   -0.4511 N   0  0  0  0  0  4  0  0  0  0  0  0
   -1.2956   -0.0545   -1.0378 C   0  0  0  0  0  0  0  0  0  0  0  0
   -2.6145    0.0239   -0.6061 C   0  0  0  0  0  0  0  0  0  0  0  0
   -3.6536    1.1414   -0.9833 C   0  0  0  0  0  0  0  0  0  0  0  0
   -4.9206    1.1657   -0.3924 C   0  0  0  0  0  0  0  0  0  0  0  0
   -5.8319    2.1706   -0.7308 C   0  0  0  0  0  0  0  0  0  0  0  0
   -5.4753    3.1441   -1.6551 C   0  0  0  0  0  0  0  0  0  0  0  0
   -6.3497    4.1040   -1.9756 F   0  0  0  0  0  0  0  0  0  0  0  0
   -4.2204    3.1338   -2.2489 C   0  0  0  0  0  0  0  0  0  0  0  0
   -3.3044    2.1335   -1.9126 C   0  0  0  0  0  0  0  0  0  0  0  0
   -2.7477   -1.0851    0.2101 N   0  0  0  0  0  0  0  0  0  0  0  0
   -1.6018   -1.7535    0.3224 C   0  0  0  0  0  0  0  0  0  0  0  0
   -1.7017   -2.9324    1.2156 C   0  0  0  0  0  0  0  0  0  0  0  0
   -3.2290   -3.0930    1.3583 C   0  0  0  0  0  0  0  0  0  0  0  0
   -3.8105   -1.6999    0.9949 C   0  0  0  0  0  0  0  0  0  0  0  0
    2.5924   -0.3347    0.4812 N   0  0  0  0  0  0  0  0  0  0  0  0
    2.8182    0.8510    1.2784 C   0  0  0  0  0  0  0  0  0  0  0  0
    2.2205    1.0048    2.5464 C   0  0  0  0  0  0  0  0  0  0  0  0
    2.4136    2.1525    3.3254 C   0  0  0  0  0  0  0  0  0  0  0  0
    3.2046    3.1880    2.8542 C   0  0  0  0  0  0  0  0  0  0  0  0
    3.7930    3.0760    1.5991 C   0  0  0  0  0  0  0  0  0  0  0  0
    3.6001    1.9260    0.8120 C   0  0  0  0  0  0  0  0  0  0  0  0
    4.2830    1.9808   -0.8267 S   0  0  0  0  0  0  0  0  0  0  0  0
    4.3925    0.2496   -1.1575 C   0  0  0  0  0  0  0  0  0  0  0  0
    5.3136   -0.1594   -2.1361 C   0  0  0  0  0  0  0  0  0  0  0  0
    5.4567   -1.5041   -2.4658 C   0  0  0  0  0  0  0  0  0  0  0  0
    4.6876   -2.4537   -1.8098 C   0  0  0  0  0  0  0  0  0  0  0  0
    3.7617   -2.0525   -0.8419 C   0  0  0  0  0  0  0  0  0  0  0  0
    3.5749   -0.6906   -0.5154 C   0  0  0  0  0  0  0  0  0  0  0  0
    1.1248   -1.0827   -1.4663 H   0  0  0  0  0  0  0  0  0  0  0  0
    0.7674   -2.6518   -0.7039 H   0  0  0  0  0  0  0  0  0  0  0  0
   -0.6923    0.5638   -1.6818 H   0  0  0  0  0  0  0  0  0  0  0  0
   -5.2297    0.4359    0.3452 H   0  0  0  0  0  0  0  0  0  0  0  0
   -6.8177    2.2050   -0.2764 H   0  0  0  0  0  0  0  0  0  0  0  0
   -3.9657    3.9064   -2.9705 H   0  0  0  0  0  0  0  0  0  0  0  0
   -2.3331    2.1555   -2.4004 H   0  0  0  0  0  0  0  0  0  0  0  0
   -1.2320   -2.6592    2.1616 H   0  0  0  0  0  0  0  0  0  0  0  0
   -1.2145   -3.7850    0.7423 H   0  0  0  0  0  0  0  0  0  0  0  0
   -3.5822   -3.8273    0.6246 H   0  0  0  0  0  0  0  0  0  0  0  0
   -3.5325   -3.4356    2.3500 H   0  0  0  0  0  0  0  0  0  0  0  0
   -3.9804   -1.0955    1.8905 H   0  0  0  0  0  0  0  0  0  0  0  0
   -4.7268   -1.7981    0.4086 H   0  0  0  0  0  0  0  0  0  0  0  0
    1.6152    0.2266    3.0023 H   0  0  0  0  0  0  0  0  0  0  0  0
    1.9489    2.2285    4.3066 H   0  0  0  0  0  0  0  0  0  0  0  0
    3.3608    4.0800    3.4566 H   0  0  0  0  0  0  0  0  0  0  0  0
    4.4003    3.9019    1.2315 H   0  0  0  0  0  0  0  0  0  0  0  0
    5.9375    0.5733   -2.6461 H   0  0  0  0  0  0  0  0  0  0  0  0
    6.1846   -1.8072   -3.2160 H   0  0  0  0  0  0  0  0  0  0  0  0
    4.8245   -3.5097   -2.0350 H   0  0  0  0  0  0  0  0  0  0  0  0
    3.2376   -2.8427   -0.3081 H   0  0  0  0  0  0  0  0  0  0  0  0
  1  2  2  0
  2  3  1  0
  3  4  1  0
  4  5  1  0
  5  6  2  0
  6  7  1  0
  7  8  2  0
  8  9  1  0
  9 10  2  0
 10 11  1  0
 10 12  1  0
 12 13  2  0
  6 14  1  0
 14 15  1  0
 15 16  1  0
 16 17  1  0
 17 18  1  0
  2 19  1  0
 19 20  1  0
 20 21  2  0
 21 22  1  0
 22 23  2  0
 23 24  1  0
 24 25  2  0
 25 26  1  0
 26 27  1  0
 27 28  2  0
 28 29  1  0
 29 30  2  0
 30 31  1  0
 31 32  2  0
 15  4  2  0
 32 19  1  0
 13  7  1  0
 18 14  1  0
 25 20  1  0
 32 27  1  0
  3 33  1  0
  3 34  1  0
  5 35  1  0
  8 36  1  0
  9 37  1  0
 12 38  1  0
 13 39  1  0
 16 40  1  0
 16 41  1  0
 17 42  1  0
 17 43  1  0
 18 44  1  0
 18 45  1  0
 21 46  1  0
 22 47  1  0
 23 48  1  0
 24 49  1  0
 28 50  1  0
 29 51  1  0
 30 52  1  0
 31 53  1  0
M  CHG  1   4   1
M  END
$$$$
