
     RDKit          3D

 37 38  0  0  0  0  0  0  0  0999 V2000
   -5.5981   -0.6212   -2.4865 C   0  0  0  0  0  0  0  0  0  0  0  0
   -5.0273    0.0025   -1.2931 N   0  0  0  0  0  0  0  0  0  0  0  0
   -5.9439    0.1569   -0.1641 C   0  0  0  0  0  0  0  0  0  0  0  0
   -3.6554   -0.1122   -1.0496 C   0  0  0  0  0  0  0  0  0  0  0  0
   -2.7526   -0.5426   -2.0368 C   0  0  0  0  0  0  0  0  0  0  0  0
   -1.3711   -0.6377   -1.8041 C   0  0  0  0  0  0  0  0  0  0  0  0
   -0.8307   -0.2812   -0.5700 C   0  0  0  0  0  0  0  0  0  0  0  0
    0.6167   -0.4128   -0.3547 C   0  0  0  0  0  0  0  0  0  0  0  0
    1.3458    0.4898    0.3219 C   0  0  0  0  0  0  0  0  0  0  0  0
    2.7925    0.3779    0.5395 C   0  0  0  0  0  0  0  0  0  0  0  0
    3.3321    0.8143    1.7483 C   0  0  0  0  0  0  0  0  0  0  0  0
    4.7044    0.7402    1.9599 C   0  0  0  0  0  0  0  0  0  0  0  0
    5.5234    0.2552    1.0006 N   0  0  0  0  0  4  0  0  0  0  0  0
    6.9749    0.1966    1.2427 C   0  0  0  0  0  0  0  0  0  0  0  0
    5.0272   -0.1504   -0.1892 C   0  0  0  0  0  0  0  0  0  0  0  0
    3.6611   -0.0960   -0.4428 C   0  0  0  0  0  0  0  0  0  0  0  0
   -1.7031    0.1456    0.4300 C   0  0  0  0  0  0  0  0  0  0  0  0
   -3.0833    0.2351    0.1862 C   0  0  0  0  0  0  0  0  0  0  0  0
   -6.6779   -0.4456   -2.5504 H   0  0  0  0  0  0  0  0  0  0  0  0
   -5.1708   -0.1936   -3.3999 H   0  0  0  0  0  0  0  0  0  0  0  0
   -5.4395   -1.7052   -2.4774 H   0  0  0  0  0  0  0  0  0  0  0  0
   -5.7445    1.0839    0.3840 H   0  0  0  0  0  0  0  0  0  0  0  0
   -5.8741   -0.6973    0.5185 H   0  0  0  0  0  0  0  0  0  0  0  0
   -6.9844    0.2259   -0.5011 H   0  0  0  0  0  0  0  0  0  0  0  0
   -3.1006   -0.8175   -3.0281 H   0  0  0  0  0  0  0  0  0  0  0  0
   -0.7317   -0.9819   -2.6134 H   0  0  0  0  0  0  0  0  0  0  0  0
    1.0664   -1.2985   -0.7959 H   0  0  0  0  0  0  0  0  0  0  0  0
    0.8655    1.3682    0.7510 H   0  0  0  0  0  0  0  0  0  0  0  0
    2.6893    1.2068    2.5346 H   0  0  0  0  0  0  0  0  0  0  0  0
    5.1559    1.0694    2.8917 H   0  0  0  0  0  0  0  0  0  0  0  0
    7.4005    1.1470    0.9112 H   0  0  0  0  0  0  0  0  0  0  0  0
    7.3987   -0.6383    0.6787 H   0  0  0  0  0  0  0  0  0  0  0  0
    7.1543    0.0400    2.3095 H   0  0  0  0  0  0  0  0  0  0  0  0
    5.7309   -0.5107   -0.9344 H   0  0  0  0  0  0  0  0  0  0  0  0
    3.2872   -0.4129   -1.4144 H   0  0  0  0  0  0  0  0  0  0  0  0
   -1.3359    0.4105    1.4177 H   0  0  0  0  0  0  0  0  0  0  0  0
   -3.7018    0.5897    1.0054 H   0  0  0  0  0  0  0  0  0  0  0  0
  1  2  1  0
  2  3  1  0
  2  4  1  0
  4  5  2  0
  5  6  1  0
  6  7  2  0
  7  8  1  0
  8  9  2  3
  9 10  1  0
 10 11  2  0
 11 12  1  0
 12 13  2  0
 13 14  1  0
 13 15  1  0
 15 16  2  0
  7 17  1  0
 17 18  2  0
 18  4  1  0
 16 10  1  0
  1 19  1  0
  1 20  1  0
  1 21  1  0
  3 22  1  0
  3 23  1  0
  3 24  1  0
  5 25  1  0
  6 26  1  0
  8 27  1  0
  9 28  1  0
 11 29  1  0
 12 30  1  0
 14 31  1  0
 14 32  1  0
 14 33  1  0
 15 34  1  0
 16 35  1  0
 17 36  1  0
 18 37  1  0
M  CHG  1  13   1
M  END
$$$$
