
     RDKit          3D

 87 91  0  0  0  0  0  0  0  0999 V2000
   -0.3313    8.3779   -1.4052 C   0  0  0  0  0  0  0  0  0  0  0  0
    0.2702    7.2802   -0.5447 C   0  0  0  0  0  0  0  0  0  0  0  0
    0.6644    6.0730   -1.3603 C   0  0  0  0  0  0  0  0  0  0  0  0
    0.5117    5.9474   -2.5662 O   0  0  0  0  0  0  0  0  0  0  0  0
    1.2088    5.1305   -0.5405 O   0  0  0  0  0  0  0  0  0  0  0  0
    1.6010    3.8997   -1.1621 C   0  0  0  0  0  0  0  0  0  0  0  0
    0.3997    2.9882   -1.4083 C   0  0  1  0  0  0  0  0  0  0  0  0
    0.8181    1.6122   -1.9740 C   0  0  0  0  0  0  0  0  0  0  0  0
   -0.2042    0.5544   -1.4406 C   0  0  2  0  0  0  0  0  0  0  0  0
    0.4323   -0.2901   -0.4661 O   0  0  0  0  0  0  0  0  0  0  0  0
    1.5147   -1.0157   -0.8418 C   0  0  0  0  0  0  0  0  0  0  0  0
    2.0286   -1.0363   -1.9468 O   0  0  0  0  0  0  0  0  0  0  0  0
    1.9822   -1.7968    0.3191 C   0  0  0  0  0  0  0  0  0  0  0  0
    2.9488   -2.7122    0.1533 C   0  0  0  0  0  0  0  0  0  0  0  0
    3.5103   -3.5346    1.2335 C   0  0  0  0  0  0  0  0  0  0  0  0
    2.7468   -3.9805    2.3213 C   0  0  0  0  0  0  0  0  0  0  0  0
    3.3206   -4.7848    3.3107 C   0  0  0  0  0  0  0  0  0  0  0  0
    4.6597   -5.1587    3.2175 C   0  0  0  0  0  0  0  0  0  0  0  0
    5.4250   -4.7360    2.1330 C   0  0  0  0  0  0  0  0  0  0  0  0
    4.8516   -3.9326    1.1441 C   0  0  0  0  0  0  0  0  0  0  0  0
   -0.9523   -0.1525   -2.6131 C   0  0  0  0  0  0  0  0  0  0  0  0
   -1.6401    0.4885   -3.4164 O   0  0  0  0  0  0  0  0  0  0  0  0
   -0.7681   -1.6091   -2.8772 C   0  0  0  0  0  0  0  0  0  0  0  0
   -0.0913   -1.8817   -4.1929 C   0  0  0  0  0  0  0  0  0  0  0  0
   -1.1826   -2.6001   -2.0678 C   0  0  0  0  0  0  0  0  0  0  0  0
   -1.9248   -2.5831   -0.7944 C   0  0  0  0  0  0  0  0  0  0  0  0
   -3.4006   -2.2416   -0.7395 C   0  0  2  0  0  0  0  0  0  0  0  0
   -4.1588   -1.5610    0.3739 C   0  0  0  0  0  0  0  0  0  0  0  0
   -3.3933   -1.0335    1.5872 C   0  0  0  0  0  0  0  0  0  0  0  0
   -2.2408   -0.0888    1.3020 C   0  0  2  0  0  0  0  0  0  0  0  0
   -1.0357   -0.3268    2.1611 C   0  0  0  0  0  0  0  0  0  0  0  0
   -2.6124    1.3105    1.3383 O   0  0  0  0  0  0  0  0  0  0  0  0
   -2.3143    0.7920    0.0484 C   0  0  1  0  0  0  0  0  0  0  0  0
   -1.2446    1.4693   -0.7341 C   0  0  1  0  0  0  0  0  0  0  0  0
   -0.4676    2.6630   -0.1770 C   0  0  1  0  0  0  0  0  0  0  0  0
    0.3711    2.3085    0.9258 O   0  0  0  0  0  0  0  0  0  0  0  0
    0.4231    3.1933    1.9617 C   0  0  0  0  0  0  0  0  0  0  0  0
   -0.1880    4.2500    2.0349 O   0  0  0  0  0  0  0  0  0  0  0  0
    1.3293    2.6817    3.0537 C   0  0  0  0  0  0  0  0  0  0  0  0
    2.7205    2.3542    2.5446 C   0  0  0  0  0  0  0  0  0  0  0  0
   -2.9615   -3.6928   -0.5870 C   0  0  0  0  0  0  0  0  0  0  0  0
   -3.3864   -4.6182   -1.7089 C   0  0  0  0  0  0  0  0  0  0  0  0
   -2.9479   -4.3873    0.7551 C   0  0  0  0  0  0  0  0  0  0  0  0
    0.3821    8.7173   -2.1641 H   0  0  0  0  0  0  0  0  0  0  0  0
   -1.2290    8.0233   -1.9227 H   0  0  0  0  0  0  0  0  0  0  0  0
   -0.6086    9.2383   -0.7885 H   0  0  0  0  0  0  0  0  0  0  0  0
    1.1622    7.6660   -0.0394 H   0  0  0  0  0  0  0  0  0  0  0  0
   -0.4621    6.9653    0.2063 H   0  0  0  0  0  0  0  0  0  0  0  0
    2.3207    3.4236   -0.4871 H   0  0  0  0  0  0  0  0  0  0  0  0
    2.1434    4.0997   -2.0941 H   0  0  0  0  0  0  0  0  0  0  0  0
   -0.2526    3.4689   -2.1501 H   0  0  0  0  0  0  0  0  0  0  0  0
    0.8277    1.6580   -3.0692 H   0  0  0  0  0  0  0  0  0  0  0  0
    1.8416    1.3938   -1.6521 H   0  0  0  0  0  0  0  0  0  0  0  0
    1.5316   -1.5842    1.2773 H   0  0  0  0  0  0  0  0  0  0  0  0
    3.3880   -2.8663   -0.8320 H   0  0  0  0  0  0  0  0  0  0  0  0
    1.6948   -3.7220    2.4098 H   0  0  0  0  0  0  0  0  0  0  0  0
    2.7203   -5.1250    4.1510 H   0  0  0  0  0  0  0  0  0  0  0  0
    5.1059   -5.7846    3.9859 H   0  0  0  0  0  0  0  0  0  0  0  0
    6.4687   -5.0314    2.0536 H   0  0  0  0  0  0  0  0  0  0  0  0
    5.4668   -3.6143    0.3045 H   0  0  0  0  0  0  0  0  0  0  0  0
    0.8386   -1.3101   -4.2783 H   0  0  0  0  0  0  0  0  0  0  0  0
    0.1589   -2.9406   -4.3157 H   0  0  0  0  0  0  0  0  0  0  0  0
   -0.7442   -1.5946   -5.0250 H   0  0  0  0  0  0  0  0  0  0  0  0
   -0.9316   -3.6068   -2.4045 H   0  0  0  0  0  0  0  0  0  0  0  0
   -1.3018   -2.3440    0.0569 H   0  0  0  0  0  0  0  0  0  0  0  0
   -3.8671   -1.9750   -1.6879 H   0  0  0  0  0  0  0  0  0  0  0  0
   -4.7247   -0.7300   -0.0672 H   0  0  0  0  0  0  0  0  0  0  0  0
   -4.9343   -2.2514    0.7306 H   0  0  0  0  0  0  0  0  0  0  0  0
   -4.1049   -0.5228    2.2480 H   0  0  0  0  0  0  0  0  0  0  0  0
   -3.0265   -1.8829    2.1706 H   0  0  0  0  0  0  0  0  0  0  0  0
   -0.1796    0.2787    1.8856 H   0  0  0  0  0  0  0  0  0  0  0  0
   -0.7242   -1.3747    2.1066 H   0  0  0  0  0  0  0  0  0  0  0  0
   -1.2687   -0.1092    3.2098 H   0  0  0  0  0  0  0  0  0  0  0  0
   -3.1683    0.6465   -0.6082 H   0  0  0  0  0  0  0  0  0  0  0  0
   -1.8401    1.9415   -1.5351 H   0  0  0  0  0  0  0  0  0  0  0  0
   -1.1480    3.4874    0.0640 H   0  0  0  0  0  0  0  0  0  0  0  0
    0.8640    1.8068    3.5178 H   0  0  0  0  0  0  0  0  0  0  0  0
    1.4022    3.4590    3.8243 H   0  0  0  0  0  0  0  0  0  0  0  0
    2.6998    1.5414    1.8107 H   0  0  0  0  0  0  0  0  0  0  0  0
    3.3651    2.0468    3.3733 H   0  0  0  0  0  0  0  0  0  0  0  0
    3.1734    3.2269    2.0620 H   0  0  0  0  0  0  0  0  0  0  0  0
   -3.4725   -4.1054   -2.6716 H   0  0  0  0  0  0  0  0  0  0  0  0
   -2.6654   -5.4344   -1.8228 H   0  0  0  0  0  0  0  0  0  0  0  0
   -4.3653   -5.0567   -1.4842 H   0  0  0  0  0  0  0  0  0  0  0  0
   -2.4677   -5.3688    0.6674 H   0  0  0  0  0  0  0  0  0  0  0  0
   -3.9695   -4.5427    1.1174 H   0  0  0  0  0  0  0  0  0  0  0  0
   -2.3908   -3.8313    1.5120 H   0  0  0  0  0  0  0  0  0  0  0  0
  1  2  1  0
  2  3  1  0
  3  4  2  0
  3  5  1  0
  5  6  1  0
  6  7  1  0
  7  8  1  0
  8  9  1  0
  9 10  1  1
 10 11  1  0
 11 12  2  0
 11 13  1  0
 13 14  2  0
 14 15  1  0
 15 16  2  0
 16 17  1  0
 17 18  2  0
 18 19  1  0
 19 20  2  0
  9 21  1  0
 21 22  2  0
 21 23  1  0
 23 24  1  0
 23 25  2  3
 25 26  1  0
 26 27  1  0
 27 28  1  0
 28 29  1  0
 29 30  1  0
 30 31  1  1
 30 32  1  0
 32 33  1  0
 33 34  1  0
 34 35  1  0
 35 36  1  0
 36 37  1  0
 37 38  2  0
 37 39  1  0
 39 40  1  0
 27 41  1  0
 41 42  1  0
 41 43  1  0
 35  7  1  0
 34  9  1  0
 20 15  1  0
 41 26  1  0
 33 30  1  0
  1 44  1  0
  1 45  1  0
  1 46  1  0
  2 47  1  0
  2 48  1  0
  6 49  1  0
  6 50  1  0
  7 51  1  6
  8 52  1  0
  8 53  1  0
 13 54  1  0
 14 55  1  0
 16 56  1  0
 17 57  1  0
 18 58  1  0
 19 59  1  0
 20 60  1  0
 24 61  1  0
 24 62  1  0
 24 63  1  0
 25 64  1  0
 26 65  1  0
 27 66  1  6
 28 67  1  0
 28 68  1  0
 29 69  1  0
 29 70  1  0
 31 71  1  0
 31 72  1  0
 31 73  1  0
 33 74  1  6
 34 75  1  6
 35 76  1  1
 39 77  1  0
 39 78  1  0
 40 79  1  0
 40 80  1  0
 40 81  1  0
 42 82  1  0
 42 83  1  0
 42 84  1  0
 43 85  1  0
 43 86  1  0
 43 87  1  0
M  END
$$$$
