
     RDKit          3D

 44 46  0  0  0  0  0  0  0  0999 V2000
   -5.8511    3.2403   -1.6779 C   0  0  0  0  0  0  0  0  0  0  0  0
   -5.5382    1.8557   -1.7279 O   0  0  0  0  0  0  0  0  0  0  0  0
   -4.3694    1.4459   -1.1366 C   0  0  0  0  0  0  0  0  0  0  0  0
   -3.4034    2.3105   -0.6139 C   0  0  0  0  0  0  0  0  0  0  0  0
   -2.2367    1.8031   -0.0342 C   0  0  0  0  0  0  0  0  0  0  0  0
   -2.0249    0.4240    0.0394 C   0  0  0  0  0  0  0  0  0  0  0  0
   -0.7933   -0.1428    0.6084 C   0  0  0  0  0  0  0  0  0  0  0  0
   -0.2958    0.1035    1.8367 C   0  0  0  0  0  0  0  0  0  0  0  0
   -0.9299    0.9233    2.8106 C   0  0  0  0  0  0  0  0  0  0  0  0
   -1.4444    1.6373    3.5677 N   0  0  0  0  0  0  0  0  0  0  0  0
    0.9548   -0.6010    2.2471 C   0  0  0  0  0  0  0  0  0  0  0  0
    0.9750   -1.2265    3.2987 O   0  0  0  0  0  0  0  0  0  0  0  0
    1.9980   -0.4261    1.3524 N   0  0  0  0  0  0  0  0  0  0  0  0
    3.3082   -0.9767    1.4174 C   0  0  0  0  0  0  0  0  0  0  0  0
    3.6781   -1.8565    2.4402 C   0  0  0  0  0  0  0  0  0  0  0  0
    4.9603   -2.3926    2.4849 C   0  0  0  0  0  0  0  0  0  0  0  0
    5.8860   -2.0556    1.5036 C   0  0  0  0  0  0  0  0  0  0  0  0
    5.5685   -1.1921    0.4706 C   0  0  0  0  0  0  0  0  0  0  0  0
    6.5339   -0.9324   -0.4280 N   0  0  0  0  0  0  0  0  0  0  0  0
    6.2581   -0.0941   -1.4450 C   0  0  0  0  0  0  0  0  0  0  0  0
    5.0352    0.5136   -1.6159 C   0  0  0  0  0  0  0  0  0  0  0  0
    4.0367    0.2419   -0.6845 C   0  0  0  0  0  0  0  0  0  0  0  0
    4.2678   -0.6329    0.4076 C   0  0  0  0  0  0  0  0  0  0  0  0
   -2.9846   -0.4449   -0.4976 C   0  0  0  0  0  0  0  0  0  0  0  0
   -4.1575    0.0544   -1.0789 C   0  0  0  0  0  0  0  0  0  0  0  0
   -5.1445   -0.7284   -1.6256 O   0  0  0  0  0  0  0  0  0  0  0  0
   -5.0568   -2.1330   -1.4351 C   0  0  0  0  0  0  0  0  0  0  0  0
   -5.9056    3.5987   -0.6445 H   0  0  0  0  0  0  0  0  0  0  0  0
   -5.1352    3.8260   -2.2635 H   0  0  0  0  0  0  0  0  0  0  0  0
   -6.8387    3.3765   -2.1291 H   0  0  0  0  0  0  0  0  0  0  0  0
   -3.5255    3.3883   -0.6456 H   0  0  0  0  0  0  0  0  0  0  0  0
   -1.5032    2.5076    0.3520 H   0  0  0  0  0  0  0  0  0  0  0  0
   -0.2964   -0.8580   -0.0468 H   0  0  0  0  0  0  0  0  0  0  0  0
    1.8198    0.1941    0.5770 H   0  0  0  0  0  0  0  0  0  0  0  0
    2.9923   -2.1542    3.2268 H   0  0  0  0  0  0  0  0  0  0  0  0
    5.2384   -3.0741    3.2851 H   0  0  0  0  0  0  0  0  0  0  0  0
    6.8868   -2.4802    1.5465 H   0  0  0  0  0  0  0  0  0  0  0  0
    7.0761    0.0789   -2.1383 H   0  0  0  0  0  0  0  0  0  0  0  0
    4.8607    1.1830   -2.4507 H   0  0  0  0  0  0  0  0  0  0  0  0
    3.0817    0.7323   -0.8347 H   0  0  0  0  0  0  0  0  0  0  0  0
   -2.8022   -1.5141   -0.4517 H   0  0  0  0  0  0  0  0  0  0  0  0
   -5.0212   -2.3892   -0.3710 H   0  0  0  0  0  0  0  0  0  0  0  0
   -4.1977   -2.5484   -1.9717 H   0  0  0  0  0  0  0  0  0  0  0  0
   -5.9604   -2.5848   -1.8555 H   0  0  0  0  0  0  0  0  0  0  0  0
  1  2  1  0
  2  3  1  0
  3  4  2  0
  4  5  1  0
  5  6  2  0
  6  7  1  0
  7  8  2  3
  8  9  1  0
  9 10  3  0
  8 11  1  0
 11 12  2  0
 11 13  1  0
 13 14  1  0
 14 15  2  0
 15 16  1  0
 16 17  2  0
 17 18  1  0
 18 19  2  0
 19 20  1  0
 20 21  2  0
 21 22  1  0
 22 23  2  0
  6 24  1  0
 24 25  2  0
 25 26  1  0
 26 27  1  0
 25  3  1  0
 23 14  1  0
 23 18  1  0
  1 28  1  0
  1 29  1  0
  1 30  1  0
  4 31  1  0
  5 32  1  0
  7 33  1  0
 13 34  1  0
 15 35  1  0
 16 36  1  0
 17 37  1  0
 20 38  1  0
 21 39  1  0
 22 40  1  0
 24 41  1  0
 27 42  1  0
 27 43  1  0
 27 44  1  0
M  END
$$$$
