
     RDKit          3D

 37 39  0  0  0  0  0  0  0  0999 V2000
   -6.7946    2.1966    0.5897 C   0  0  0  0  0  0  0  0  0  0  0  0
   -5.7773    1.5983    1.5483 C   0  0  0  0  0  0  0  0  0  0  0  0
   -4.8897    0.6151    0.8608 C   0  0  0  0  0  0  0  0  0  0  0  0
   -5.1729   -0.6597    0.6874 N   0  0  0  0  0  0  0  0  0  0  0  0
   -4.1669   -1.3236    0.0147 N   0  0  0  0  0  0  0  0  0  0  0  0
   -3.1659   -0.5287   -0.2925 C   0  0  0  0  0  0  0  0  0  0  0  0
   -2.0596   -0.9877   -0.9625 N   0  0  0  0  0  0  0  0  0  0  0  0
   -0.9550   -0.2506   -1.3439 C   0  0  0  0  0  0  0  0  0  0  0  0
   -0.7780    0.9463   -1.1494 O   0  0  0  0  0  0  0  0  0  0  0  0
    0.0833   -1.1290   -2.0623 C   0  0  0  0  0  0  0  0  0  0  0  0
    1.2650   -0.4757   -2.4931 O   0  0  0  0  0  0  0  0  0  0  0  0
    2.3127   -0.4288   -1.6157 C   0  0  0  0  0  0  0  0  0  0  0  0
    3.5615   -0.2367   -2.2055 C   0  0  0  0  0  0  0  0  0  0  0  0
    4.7157   -0.1729   -1.4222 C   0  0  0  0  0  0  0  0  0  0  0  0
    4.6369   -0.2874   -0.0275 C   0  0  0  0  0  0  0  0  0  0  0  0
    5.7858   -0.2261    0.7777 C   0  0  0  0  0  0  0  0  0  0  0  0
    5.6897   -0.3312    2.1659 C   0  0  0  0  0  0  0  0  0  0  0  0
    4.4450   -0.4961    2.7658 C   0  0  0  0  0  0  0  0  0  0  0  0
    3.2937   -0.5591    1.9787 C   0  0  0  0  0  0  0  0  0  0  0  0
    3.3720   -0.4601    0.5795 C   0  0  0  0  0  0  0  0  0  0  0  0
    2.2194   -0.5243   -0.2262 C   0  0  0  0  0  0  0  0  0  0  0  0
   -3.3683    1.0828    0.2160 S   0  0  0  0  0  0  0  0  0  0  0  0
   -7.4232    1.4186    0.1429 H   0  0  0  0  0  0  0  0  0  0  0  0
   -6.3025    2.7390   -0.2247 H   0  0  0  0  0  0  0  0  0  0  0  0
   -7.4472    2.8982    1.1190 H   0  0  0  0  0  0  0  0  0  0  0  0
   -5.1884    2.4005    2.0080 H   0  0  0  0  0  0  0  0  0  0  0  0
   -6.3057    1.0907    2.3639 H   0  0  0  0  0  0  0  0  0  0  0  0
   -2.1149   -1.9723   -1.1859 H   0  0  0  0  0  0  0  0  0  0  0  0
   -0.4051   -1.5010   -2.9716 H   0  0  0  0  0  0  0  0  0  0  0  0
    0.3114   -2.0131   -1.4526 H   0  0  0  0  0  0  0  0  0  0  0  0
    3.6395   -0.1398   -3.2855 H   0  0  0  0  0  0  0  0  0  0  0  0
    5.6760   -0.0283   -1.9116 H   0  0  0  0  0  0  0  0  0  0  0  0
    6.7666   -0.0923    0.3271 H   0  0  0  0  0  0  0  0  0  0  0  0
    6.5866   -0.2802    2.7776 H   0  0  0  0  0  0  0  0  0  0  0  0
    4.3682   -0.5733    3.8471 H   0  0  0  0  0  0  0  0  0  0  0  0
    2.3306   -0.6842    2.4684 H   0  0  0  0  0  0  0  0  0  0  0  0
    1.2556   -0.6238    0.2613 H   0  0  0  0  0  0  0  0  0  0  0  0
  1  2  1  0
  2  3  1  0
  3  4  2  0
  4  5  1  0
  5  6  2  0
  6  7  1  0
  7  8  1  0
  8  9  2  0
  8 10  1  0
 10 11  1  0
 11 12  1  0
 12 13  2  0
 13 14  1  0
 14 15  2  0
 15 16  1  0
 16 17  2  0
 17 18  1  0
 18 19  2  0
 19 20  1  0
 20 21  2  0
  6 22  1  0
 22  3  1  0
 21 12  1  0
 20 15  1  0
  1 23  1  0
  1 24  1  0
  1 25  1  0
  2 26  1  0
  2 27  1  0
  7 28  1  0
 10 29  1  0
 10 30  1  0
 13 31  1  0
 14 32  1  0
 16 33  1  0
 17 34  1  0
 18 35  1  0
 19 36  1  0
 21 37  1  0
M  END
$$$$
