
     RDKit          3D

 45 44  0  0  0  0  0  0  0  0999 V2000
    5.9412   -1.7641    2.8964 C   0  0  0  0  0  0  0  0  0  0  0  0
    5.1066   -1.8261    1.6266 C   0  0  0  0  0  0  0  0  0  0  0  0
    4.0610   -2.9410    1.6992 C   0  0  0  0  0  0  0  0  0  0  0  0
    3.2396   -3.0521    0.4178 C   0  0  0  0  0  0  0  0  0  0  0  0
    2.3931   -1.9003    0.2103 N   0  0  0  0  0  0  0  0  0  0  0  0
    1.8729   -1.6019   -1.0122 C   0  0  0  0  0  0  0  0  0  0  0  0
    2.1647   -2.1490   -2.0637 O   0  0  0  0  0  0  0  0  0  0  0  0
    0.9658   -0.6052   -0.8730 O   0  0  0  0  0  0  0  0  0  0  0  0
    0.3528   -0.1975   -2.1088 C   0  0  0  0  0  0  0  0  0  0  0  0
   -0.5906    0.9911   -1.8524 C   0  0  0  0  0  0  0  0  0  0  0  0
    0.1735    2.1878   -1.2567 C   0  0  0  0  0  0  0  0  0  0  0  0
   -0.6602    3.4611   -1.1939 C   0  0  0  0  0  0  0  0  0  0  0  0
   -1.6745    0.5787   -0.9694 N   0  0  0  0  0  0  0  0  0  0  0  0
   -2.9749    0.9292   -1.1518 C   0  0  0  0  0  0  0  0  0  0  0  0
   -3.4123    1.5594   -2.1014 O   0  0  0  0  0  0  0  0  0  0  0  0
   -3.7014    0.4725   -0.1038 O   0  0  0  0  0  0  0  0  0  0  0  0
   -5.1089    0.7728   -0.1336 C   0  0  0  0  0  0  0  0  0  0  0  0
   -5.3447    2.1710    0.4271 C   0  0  0  0  0  0  0  0  0  0  0  0
   -5.8099   -0.2757    0.7217 C   0  0  0  0  0  0  0  0  0  0  0  0
    6.6822   -0.9619    2.8240 H   0  0  0  0  0  0  0  0  0  0  0  0
    6.4750   -2.7055    3.0615 H   0  0  0  0  0  0  0  0  0  0  0  0
    5.3118   -1.5676    3.7701 H   0  0  0  0  0  0  0  0  0  0  0  0
    4.6176   -0.8570    1.4754 H   0  0  0  0  0  0  0  0  0  0  0  0
    5.7690   -1.9929    0.7692 H   0  0  0  0  0  0  0  0  0  0  0  0
    4.5665   -3.8984    1.8745 H   0  0  0  0  0  0  0  0  0  0  0  0
    3.3954   -2.7666    2.5536 H   0  0  0  0  0  0  0  0  0  0  0  0
    2.5800   -3.9252    0.4760 H   0  0  0  0  0  0  0  0  0  0  0  0
    3.8907   -3.1895   -0.4528 H   0  0  0  0  0  0  0  0  0  0  0  0
    1.9138   -1.4772    0.9923 H   0  0  0  0  0  0  0  0  0  0  0  0
   -0.2160   -1.0409   -2.5191 H   0  0  0  0  0  0  0  0  0  0  0  0
    1.1300    0.0975   -2.8245 H   0  0  0  0  0  0  0  0  0  0  0  0
   -1.0221    1.2897   -2.8157 H   0  0  0  0  0  0  0  0  0  0  0  0
    0.5288    1.9516   -0.2462 H   0  0  0  0  0  0  0  0  0  0  0  0
    1.0600    2.3909   -1.8700 H   0  0  0  0  0  0  0  0  0  0  0  0
   -0.0444    4.2954   -0.8428 H   0  0  0  0  0  0  0  0  0  0  0  0
   -1.0533    3.7230   -2.1812 H   0  0  0  0  0  0  0  0  0  0  0  0
   -1.5008    3.3561   -0.5016 H   0  0  0  0  0  0  0  0  0  0  0  0
   -1.4560    0.1142   -0.0988 H   0  0  0  0  0  0  0  0  0  0  0  0
   -5.4966    0.7001   -1.1572 H   0  0  0  0  0  0  0  0  0  0  0  0
   -6.4123    2.4084    0.4628 H   0  0  0  0  0  0  0  0  0  0  0  0
   -4.8446    2.9275   -0.1863 H   0  0  0  0  0  0  0  0  0  0  0  0
   -4.9299    2.2626    1.4370 H   0  0  0  0  0  0  0  0  0  0  0  0
   -5.4282   -0.2658    1.7488 H   0  0  0  0  0  0  0  0  0  0  0  0
   -6.8914   -0.1110    0.7470 H   0  0  0  0  0  0  0  0  0  0  0  0
   -5.6191   -1.2791    0.3256 H   0  0  0  0  0  0  0  0  0  0  0  0
  1  2  1  0
  2  3  1  0
  3  4  1  0
  4  5  1  0
  5  6  1  0
  6  7  2  0
  6  8  1  0
  8  9  1  0
  9 10  1  0
 10 11  1  0
 11 12  1  0
 10 13  1  0
 13 14  1  0
 14 15  2  0
 14 16  1  0
 16 17  1  0
 17 18  1  0
 17 19  1  0
  1 20  1  0
  1 21  1  0
  1 22  1  0
  2 23  1  0
  2 24  1  0
  3 25  1  0
  3 26  1  0
  4 27  1  0
  4 28  1  0
  5 29  1  0
  9 30  1  0
  9 31  1  0
 10 32  1  0
 11 33  1  0
 11 34  1  0
 12 35  1  0
 12 36  1  0
 12 37  1  0
 13 38  1  0
 17 39  1  0
 18 40  1  0
 18 41  1  0
 18 42  1  0
 19 43  1  0
 19 44  1  0
 19 45  1  0
M  END
$$$$
