
     RDKit          3D

 35 37  0  0  0  0  0  0  0  0999 V2000
   -3.7442   -2.0812    0.4074 C   0  0  0  0  0  0  0  0  0  0  0  0
   -3.5787   -0.5893    0.5056 C   0  0  0  0  0  0  0  0  0  0  0  0
   -4.0914    0.0926    1.6194 C   0  0  0  0  0  0  0  0  0  0  0  0
   -3.9515    1.4744    1.7291 C   0  0  0  0  0  0  0  0  0  0  0  0
   -3.2990    2.1860    0.7275 C   0  0  0  0  0  0  0  0  0  0  0  0
   -2.7847    1.5200   -0.3878 C   0  0  0  0  0  0  0  0  0  0  0  0
   -2.9224    0.1335   -0.5081 C   0  0  0  0  0  0  0  0  0  0  0  0
   -2.4329   -0.6202   -1.5443 O   0  0  0  0  0  0  0  0  0  0  0  0
   -1.8628    0.0512   -2.6623 C   0  0  0  0  0  0  0  0  0  0  0  0
   -0.4110    0.5005   -2.4646 C   0  0  0  0  0  0  0  0  0  0  0  0
    0.0917    1.3359   -3.2088 O   0  0  0  0  0  0  0  0  0  0  0  0
    0.2045   -0.1513   -1.4202 N   0  0  0  0  0  0  0  0  0  0  0  0
    1.4928    0.1047   -1.0507 C   0  0  0  0  0  0  0  0  0  0  0  0
    2.3857    0.9012   -1.5803 N   0  0  0  0  0  0  0  0  0  0  0  0
    3.5811    0.8612   -0.8819 N   0  0  0  0  0  0  0  0  0  0  0  0
    3.5336    0.0349    0.1445 C   0  0  0  0  0  0  0  0  0  0  0  0
    4.6503   -0.1791    1.0240 C   0  0  0  0  0  0  0  0  0  0  0  0
    4.7644   -0.9991    2.1401 C   0  0  0  0  0  0  0  0  0  0  0  0
    6.0764   -0.8451    2.6524 C   0  0  0  0  0  0  0  0  0  0  0  0
    6.6983    0.0578    1.8283 C   0  0  0  0  0  0  0  0  0  0  0  0
    5.8543    0.4637    0.8495 O   0  0  0  0  0  0  0  0  0  0  0  0
    2.0159   -0.7566    0.3255 S   0  0  0  0  0  0  0  0  0  0  0  0
   -4.2749   -2.4854    1.2759 H   0  0  0  0  0  0  0  0  0  0  0  0
   -4.3228   -2.3401   -0.4852 H   0  0  0  0  0  0  0  0  0  0  0  0
   -2.7649   -2.5686    0.3612 H   0  0  0  0  0  0  0  0  0  0  0  0
   -4.6062   -0.4503    2.4092 H   0  0  0  0  0  0  0  0  0  0  0  0
   -4.3525    1.9956    2.5948 H   0  0  0  0  0  0  0  0  0  0  0  0
   -3.1880    3.2646    0.8127 H   0  0  0  0  0  0  0  0  0  0  0  0
   -2.2794    2.1235   -1.1357 H   0  0  0  0  0  0  0  0  0  0  0  0
   -2.4831    0.8946   -2.9865 H   0  0  0  0  0  0  0  0  0  0  0  0
   -1.8525   -0.6682   -3.4892 H   0  0  0  0  0  0  0  0  0  0  0  0
   -0.3375   -0.7872   -0.8497 H   0  0  0  0  0  0  0  0  0  0  0  0
    3.9911   -1.6383    2.5438 H   0  0  0  0  0  0  0  0  0  0  0  0
    6.5130   -1.3308    3.5138 H   0  0  0  0  0  0  0  0  0  0  0  0
    7.6872    0.4948    1.8020 H   0  0  0  0  0  0  0  0  0  0  0  0
  1  2  1  0
  2  3  2  0
  3  4  1  0
  4  5  2  0
  5  6  1  0
  6  7  2  0
  7  8  1  0
  8  9  1  0
  9 10  1  0
 10 11  2  0
 10 12  1  0
 12 13  1  0
 13 14  2  0
 14 15  1  0
 15 16  2  0
 16 17  1  0
 17 18  2  0
 18 19  1  0
 19 20  2  0
 20 21  1  0
 16 22  1  0
  7  2  1  0
 22 13  1  0
 21 17  1  0
  1 23  1  0
  1 24  1  0
  1 25  1  0
  3 26  1  0
  4 27  1  0
  5 28  1  0
  6 29  1  0
  9 30  1  0
  9 31  1  0
 12 32  1  0
 18 33  1  0
 19 34  1  0
 20 35  1  0
M  END
$$$$
