
     RDKit          3D

 29 29  0  0  0  0  0  0  0  0999 V2000
   -5.8084   -2.7944    0.5561 C   0  0  0  0  0  0  0  0  0  0  0  0
   -4.6787   -2.3888    0.5070 C   0  0  0  0  0  0  0  0  0  0  0  0
   -3.2966   -1.8919    0.4483 C   0  0  0  0  0  0  0  0  0  0  0  0
   -3.2255   -0.7680   -0.4846 N   0  0  0  0  0  0  0  0  0  0  0  0
   -1.9078   -0.1263   -0.4880 C   0  0  0  0  0  0  0  0  0  0  0  0
   -0.8371   -0.9780   -1.1775 C   0  0  0  0  0  0  0  0  0  0  0  0
    0.4813   -0.2192   -1.3223 C   0  0  0  0  0  0  0  0  0  0  0  0
    0.9689    0.1009   -0.0208 O   0  0  0  0  0  0  0  0  0  0  0  0
    2.1219    0.8332    0.0749 C   0  0  0  0  0  0  0  0  0  0  0  0
    2.9186    1.2043   -1.0132 C   0  0  0  0  0  0  0  0  0  0  0  0
    4.0846    1.9514   -0.8126 C   0  0  0  0  0  0  0  0  0  0  0  0
    4.4595    2.3287    0.4750 C   0  0  0  0  0  0  0  0  0  0  0  0
    5.8946    3.2470    0.7108 Cl  0  0  0  0  0  0  0  0  0  0  0  0
    3.6817    1.9671    1.5693 C   0  0  0  0  0  0  0  0  0  0  0  0
    2.5179    1.2213    1.3675 C   0  0  0  0  0  0  0  0  0  0  0  0
    1.5791    0.7973    2.7583 Cl  0  0  0  0  0  0  0  0  0  0  0  0
   -6.8108   -3.1535    0.5928 H   0  0  0  0  0  0  0  0  0  0  0  0
   -2.9829   -1.5824    1.4519 H   0  0  0  0  0  0  0  0  0  0  0  0
   -2.6425   -2.7076    0.1237 H   0  0  0  0  0  0  0  0  0  0  0  0
   -3.9203   -0.0806   -0.1917 H   0  0  0  0  0  0  0  0  0  0  0  0
   -1.6076    0.1388    0.5329 H   0  0  0  0  0  0  0  0  0  0  0  0
   -2.0064    0.8177   -1.0375 H   0  0  0  0  0  0  0  0  0  0  0  0
   -1.1832   -1.2836   -2.1720 H   0  0  0  0  0  0  0  0  0  0  0  0
   -0.6552   -1.8867   -0.5922 H   0  0  0  0  0  0  0  0  0  0  0  0
    0.3166    0.6951   -1.9051 H   0  0  0  0  0  0  0  0  0  0  0  0
    1.2006   -0.8639   -1.8407 H   0  0  0  0  0  0  0  0  0  0  0  0
    2.6654    0.9263   -2.0314 H   0  0  0  0  0  0  0  0  0  0  0  0
    4.6959    2.2335   -1.6668 H   0  0  0  0  0  0  0  0  0  0  0  0
    3.9763    2.2621    2.5725 H   0  0  0  0  0  0  0  0  0  0  0  0
  1  2  3  0
  2  3  1  0
  3  4  1  0
  4  5  1  0
  5  6  1  0
  6  7  1  0
  7  8  1  0
  8  9  1  0
  9 10  2  0
 10 11  1  0
 11 12  2  0
 12 13  1  0
 12 14  1  0
 14 15  2  0
 15 16  1  0
 15  9  1  0
  1 17  1  0
  3 18  1  0
  3 19  1  0
  4 20  1  0
  5 21  1  0
  5 22  1  0
  6 23  1  0
  6 24  1  0
  7 25  1  0
  7 26  1  0
 10 27  1  0
 11 28  1  0
 14 29  1  0
M  END
$$$$
