
     RDKit          3D

 33 34  0  0  0  0  0  0  0  0999 V2000
   -1.8375    2.5903    0.4828 C   0  0  0  0  0  0  0  0  0  0  0  0
   -1.9154    1.1333    0.9202 C   0  0  0  0  0  0  0  0  0  0  0  0
   -1.6178    0.2190   -0.2055 N   0  0  0  0  0  0  0  0  0  0  0  0
   -2.1593   -1.1443   -0.0233 C   0  0  0  0  0  0  0  0  0  0  0  0
   -3.5915   -1.1964   -0.5413 C   0  0  0  0  0  0  0  0  0  0  0  0
   -0.2125    0.1792   -0.4967 C   0  0  0  0  0  0  0  0  0  0  0  0
    0.1530    0.7799   -1.7174 C   0  0  0  0  0  0  0  0  0  0  0  0
    1.4756    0.8109   -2.1234 C   0  0  0  0  0  0  0  0  0  0  0  0
    2.4358    0.2266   -1.2967 C   0  0  0  0  0  0  0  0  0  0  0  0
    3.8074    0.2729   -1.7685 N   0  0  0  0  0  4  0  0  0  0  0  0
    4.3103    1.3935   -1.9237 O   0  0  0  0  0  0  0  0  0  0  0  0
    4.3673   -0.8072   -1.9979 O   0  0  0  0  0  1  0  0  0  0  0  0
    2.1218   -0.3868   -0.0557 C   0  0  0  0  0  0  0  0  0  0  0  0
    3.0748   -0.9690    0.8189 C   0  0  0  0  0  0  0  0  0  0  0  0
    2.6848   -1.5509    2.0164 C   0  0  0  0  0  0  0  0  0  0  0  0
    1.3457   -1.5381    2.3217 C   0  0  0  0  0  0  0  0  0  0  0  0
    0.4066   -0.9900    1.5243 N   0  0  0  0  0  0  0  0  0  0  0  0
    0.7664   -0.4139    0.3504 C   0  0  0  0  0  0  0  0  0  0  0  0
   -0.8143    2.8800    0.2242 H   0  0  0  0  0  0  0  0  0  0  0  0
   -2.4728    2.7729   -0.3902 H   0  0  0  0  0  0  0  0  0  0  0  0
   -2.1733    3.2453    1.2930 H   0  0  0  0  0  0  0  0  0  0  0  0
   -1.2642    0.9631    1.7848 H   0  0  0  0  0  0  0  0  0  0  0  0
   -2.9397    0.9540    1.2687 H   0  0  0  0  0  0  0  0  0  0  0  0
   -1.5800   -1.8828   -0.5933 H   0  0  0  0  0  0  0  0  0  0  0  0
   -2.1399   -1.4458    1.0309 H   0  0  0  0  0  0  0  0  0  0  0  0
   -3.6350   -0.9080   -1.5970 H   0  0  0  0  0  0  0  0  0  0  0  0
   -4.2470   -0.5208    0.0169 H   0  0  0  0  0  0  0  0  0  0  0  0
   -3.9917   -2.2107   -0.4467 H   0  0  0  0  0  0  0  0  0  0  0  0
   -0.6193    1.2232   -2.3433 H   0  0  0  0  0  0  0  0  0  0  0  0
    1.7451    1.2799   -3.0666 H   0  0  0  0  0  0  0  0  0  0  0  0
    4.1358   -0.9797    0.5757 H   0  0  0  0  0  0  0  0  0  0  0  0
    3.4079   -2.0014    2.6867 H   0  0  0  0  0  0  0  0  0  0  0  0
    0.9732   -1.9782    3.2422 H   0  0  0  0  0  0  0  0  0  0  0  0
  1  2  1  0
  2  3  1  0
  3  4  1  0
  4  5  1  0
  3  6  1  0
  6  7  2  0
  7  8  1  0
  8  9  2  0
  9 10  1  0
 10 11  2  0
 10 12  1  0
  9 13  1  0
 13 14  2  0
 14 15  1  0
 15 16  2  0
 16 17  1  0
 17 18  2  0
 18  6  1  0
 18 13  1  0
  1 19  1  0
  1 20  1  0
  1 21  1  0
  2 22  1  0
  2 23  1  0
  4 24  1  0
  4 25  1  0
  5 26  1  0
  5 27  1  0
  5 28  1  0
  7 29  1  0
  8 30  1  0
 14 31  1  0
 15 32  1  0
 16 33  1  0
M  CHG  2  10   1  12  -1
M  END
$$$$
