
     RDKit          3D

 61 66  0  0  0  0  0  0  0  0999 V2000
   -4.1348    2.0871   -1.4751 C   0  0  0  0  0  0  0  0  0  0  0  0
   -3.0965    2.3793   -0.3914 C   0  0  0  0  0  0  0  0  0  0  0  0
   -2.1324    3.4766   -0.8457 C   0  0  0  0  0  0  0  0  0  0  0  0
   -2.4867    1.1011    0.1787 C   0  0  0  0  0  0  0  0  0  0  0  0
   -3.2375    0.4772    1.2021 C   0  0  0  0  0  0  0  0  0  0  0  0
   -2.7711   -0.6446    1.8930 C   0  0  0  0  0  0  0  0  0  0  0  0
   -1.5321   -1.1847    1.5836 C   0  0  0  0  0  0  0  0  0  0  0  0
   -0.7733   -0.6145    0.5681 C   0  0  0  0  0  0  0  0  0  0  0  0
   -1.2508    0.5066   -0.1413 C   0  0  0  0  0  0  0  0  0  0  0  0
   -0.4200    0.9680   -1.1844 N   0  0  0  0  0  0  0  0  0  0  0  0
    0.8193    1.5616   -1.0536 C   0  0  0  0  0  0  0  0  0  0  0  0
    1.5520    1.9833    0.4587 S   0  0  0  0  0  0  0  0  0  0  0  0
    3.2813    1.5234    0.1383 C   0  0  0  0  0  0  0  0  0  0  0  0
    3.4517    0.0389   -0.0848 C   0  0  0  0  0  0  0  0  0  0  0  0
    3.8153   -0.3286   -1.3287 C   0  0  0  0  0  0  0  0  0  0  0  0
    3.9242   -1.7087   -1.7930 C   0  0  0  0  0  0  0  0  0  0  0  0
    4.3401   -1.9760   -2.9128 O   0  0  0  0  0  0  0  0  0  0  0  0
    3.4881   -2.6691   -0.9090 O   0  0  0  0  0  0  0  0  0  0  0  0
    3.1601   -2.3455    0.4240 C   0  0  0  0  0  0  0  0  0  0  0  0
    2.8228   -3.4609    1.1856 C   0  0  0  0  0  0  0  0  0  0  0  0
    2.5241   -3.2983    2.5237 C   0  0  0  0  0  0  0  0  0  0  0  0
    2.5958   -2.0366    3.1164 C   0  0  0  0  0  0  0  0  0  0  0  0
    2.3187   -1.9562    4.4917 C   0  0  0  0  0  0  0  0  0  0  0  0
    2.3986   -0.7503    5.1753 C   0  0  0  0  0  0  0  0  0  0  0  0
    2.7686    0.3885    4.4860 C   0  0  0  0  0  0  0  0  0  0  0  0
    3.0462    0.3191    3.1140 C   0  0  0  0  0  0  0  0  0  0  0  0
    2.9526   -0.8785    2.3527 C   0  0  0  0  0  0  0  0  0  0  0  0
    3.1973   -1.0306    0.9350 C   0  0  0  0  0  0  0  0  0  0  0  0
    1.3364    1.8076   -2.2328 N   0  0  0  0  0  0  0  0  0  0  0  0
    0.4638    1.3273   -3.1704 N   0  0  0  0  0  0  0  0  0  0  0  0
   -0.5683    0.7677   -2.5554 C   0  0  0  0  0  0  0  0  0  0  0  0
   -1.6440    0.0687   -3.2578 C   0  0  0  0  0  0  0  0  0  0  0  0
   -2.2844   -1.0737   -2.7751 C   0  0  0  0  0  0  0  0  0  0  0  0
   -3.3019   -1.6742   -3.5192 C   0  0  0  0  0  0  0  0  0  0  0  0
   -3.6456   -1.1177   -4.7372 C   0  0  0  0  0  0  0  0  0  0  0  0
   -3.0435   -0.0278   -5.2521 N   0  0  0  0  0  0  0  0  0  0  0  0
   -2.0519    0.5272   -4.5101 C   0  0  0  0  0  0  0  0  0  0  0  0
   -3.6732    1.7155   -2.3910 H   0  0  0  0  0  0  0  0  0  0  0  0
   -4.6829    2.9976   -1.7343 H   0  0  0  0  0  0  0  0  0  0  0  0
   -4.8660    1.3440   -1.1438 H   0  0  0  0  0  0  0  0  0  0  0  0
   -3.6462    2.8427    0.4425 H   0  0  0  0  0  0  0  0  0  0  0  0
   -1.3548    3.6599   -0.0965 H   0  0  0  0  0  0  0  0  0  0  0  0
   -2.6767    4.4179   -0.9881 H   0  0  0  0  0  0  0  0  0  0  0  0
   -1.6571    3.2474   -1.8027 H   0  0  0  0  0  0  0  0  0  0  0  0
   -4.2060    0.8856    1.4911 H   0  0  0  0  0  0  0  0  0  0  0  0
   -3.3740   -1.0833    2.6839 H   0  0  0  0  0  0  0  0  0  0  0  0
   -1.1568   -2.0471    2.1272 H   0  0  0  0  0  0  0  0  0  0  0  0
    0.1847   -1.0672    0.3226 H   0  0  0  0  0  0  0  0  0  0  0  0
    3.9413    1.8826    0.9303 H   0  0  0  0  0  0  0  0  0  0  0  0
    3.6050    2.0977   -0.7381 H   0  0  0  0  0  0  0  0  0  0  0  0
    4.0071    0.3994   -2.1130 H   0  0  0  0  0  0  0  0  0  0  0  0
    2.8031   -4.4500    0.7354 H   0  0  0  0  0  0  0  0  0  0  0  0
    2.2629   -4.1785    3.1090 H   0  0  0  0  0  0  0  0  0  0  0  0
    2.0432   -2.8472    5.0545 H   0  0  0  0  0  0  0  0  0  0  0  0
    2.1853   -0.7051    6.2396 H   0  0  0  0  0  0  0  0  0  0  0  0
    2.8511    1.3393    5.0081 H   0  0  0  0  0  0  0  0  0  0  0  0
    3.3584    1.2546    2.6739 H   0  0  0  0  0  0  0  0  0  0  0  0
   -2.0045   -1.5283   -1.8323 H   0  0  0  0  0  0  0  0  0  0  0  0
   -3.8101   -2.5584   -3.1553 H   0  0  0  0  0  0  0  0  0  0  0  0
   -4.4321   -1.5473   -5.3517 H   0  0  0  0  0  0  0  0  0  0  0  0
   -1.5842    1.3956   -4.9683 H   0  0  0  0  0  0  0  0  0  0  0  0
  1  2  1  0
  2  3  1  0
  2  4  1  0
  4  5  2  0
  5  6  1  0
  6  7  2  0
  7  8  1  0
  8  9  2  0
  9 10  1  0
 10 11  1  0
 11 12  1  0
 12 13  1  0
 13 14  1  0
 14 15  2  0
 15 16  1  0
 16 17  2  0
 16 18  1  0
 18 19  1  0
 19 20  2  0
 20 21  1  0
 21 22  2  0
 22 23  1  0
 23 24  2  0
 24 25  1  0
 25 26  2  0
 26 27  1  0
 27 28  2  0
 11 29  2  0
 29 30  1  0
 30 31  2  0
 31 32  1  0
 32 33  2  0
 33 34  1  0
 34 35  2  0
 35 36  1  0
 36 37  2  0
  9  4  1  0
 31 10  1  0
 37 32  1  0
 28 14  1  0
 28 19  1  0
 27 22  1  0
  1 38  1  0
  1 39  1  0
  1 40  1  0
  2 41  1  0
  3 42  1  0
  3 43  1  0
  3 44  1  0
  5 45  1  0
  6 46  1  0
  7 47  1  0
  8 48  1  0
 13 49  1  0
 13 50  1  0
 15 51  1  0
 20 52  1  0
 21 53  1  0
 23 54  1  0
 24 55  1  0
 25 56  1  0
 26 57  1  0
 33 58  1  0
 34 59  1  0
 35 60  1  0
 37 61  1  0
M  END
$$$$
