
     RDKit          3D

 57 59  0  0  0  0  0  0  0  0999 V2000
    9.0760    0.7912   -3.8888 C   0  0  0  0  0  0  0  0  0  0  0  0
    8.8702    1.7474   -2.8574 O   0  0  0  0  0  0  0  0  0  0  0  0
    7.9947    1.4055   -1.8642 C   0  0  0  0  0  0  0  0  0  0  0  0
    7.3112    0.1933   -1.7471 C   0  0  0  0  0  0  0  0  0  0  0  0
    6.4412   -0.0302   -0.6694 C   0  0  0  0  0  0  0  0  0  0  0  0
    6.2512    0.9558    0.2995 C   0  0  0  0  0  0  0  0  0  0  0  0
    5.4418    0.8611    1.3973 O   0  0  0  0  0  0  0  0  0  0  0  0
    4.8637   -0.4199    1.6710 C   0  0  0  0  0  0  0  0  0  0  0  0
    4.1726   -0.3748    3.0340 C   0  0  0  0  0  0  0  0  0  0  0  0
    2.6399    0.6146    3.0258 S   0  0  0  0  0  0  0  0  0  0  0  0
    1.5340   -0.4943    2.2947 C   0  0  0  0  0  0  0  0  0  0  0  0
    1.8238   -1.6713    1.7940 N   0  0  0  0  0  0  0  0  0  0  0  0
    0.6543   -2.2364    1.3483 N   0  0  0  0  0  0  0  0  0  0  0  0
   -0.3287   -1.3914    1.5928 C   0  0  0  0  0  0  0  0  0  0  0  0
   -1.7674   -1.6249    1.2956 C   0  0  0  0  0  0  0  0  0  0  0  0
   -2.1327   -1.1194   -0.1003 C   0  0  0  0  0  0  0  0  0  0  0  0
   -3.5626   -1.1662   -0.3491 N   0  0  0  0  0  0  0  0  0  0  0  0
   -4.4119   -0.2458    0.2332 C   0  0  0  0  0  0  0  0  0  0  0  0
   -4.0203    0.6242    1.0057 O   0  0  0  0  0  0  0  0  0  0  0  0
   -5.8533   -0.3309   -0.1367 C   0  0  0  0  0  0  0  0  0  0  0  0
   -6.6446    0.8162    0.0079 C   0  0  0  0  0  0  0  0  0  0  0  0
   -8.0067    0.7881   -0.3166 C   0  0  0  0  0  0  0  0  0  0  0  0
   -8.5911   -0.3907   -0.7807 C   0  0  0  0  0  0  0  0  0  0  0  0
   -9.9018   -0.5551   -1.1329 O   0  0  0  0  0  0  0  0  0  0  0  0
  -10.7636    0.5605   -0.9456 C   0  0  0  0  0  0  0  0  0  0  0  0
   -7.8039   -1.5381   -0.9116 C   0  0  0  0  0  0  0  0  0  0  0  0
   -6.4428   -1.5161   -0.5877 C   0  0  0  0  0  0  0  0  0  0  0  0
    0.1920   -0.2585    2.1744 N   0  0  0  0  0  0  0  0  0  0  0  0
   -0.5224    0.9210    2.5927 C   0  0  0  0  0  0  0  0  0  0  0  0
    6.9274    2.1706    0.1740 C   0  0  0  0  0  0  0  0  0  0  0  0
    7.7958    2.3923   -0.8977 C   0  0  0  0  0  0  0  0  0  0  0  0
    9.7765    1.2247   -4.6090 H   0  0  0  0  0  0  0  0  0  0  0  0
    8.1433    0.5774   -4.4215 H   0  0  0  0  0  0  0  0  0  0  0  0
    9.5263   -0.1258   -3.4951 H   0  0  0  0  0  0  0  0  0  0  0  0
    7.4299   -0.6014   -2.4760 H   0  0  0  0  0  0  0  0  0  0  0  0
    5.9238   -0.9842   -0.6218 H   0  0  0  0  0  0  0  0  0  0  0  0
    5.6622   -1.1703    1.7295 H   0  0  0  0  0  0  0  0  0  0  0  0
    4.1646   -0.6999    0.8753 H   0  0  0  0  0  0  0  0  0  0  0  0
    3.9501   -1.3873    3.3851 H   0  0  0  0  0  0  0  0  0  0  0  0
    4.8404    0.0895    3.7672 H   0  0  0  0  0  0  0  0  0  0  0  0
   -1.9749   -2.7021    1.3493 H   0  0  0  0  0  0  0  0  0  0  0  0
   -2.3951   -1.1685    2.0686 H   0  0  0  0  0  0  0  0  0  0  0  0
   -1.6492   -1.7353   -0.8663 H   0  0  0  0  0  0  0  0  0  0  0  0
   -1.7970   -0.0852   -0.2467 H   0  0  0  0  0  0  0  0  0  0  0  0
   -3.8874   -1.7152   -1.1335 H   0  0  0  0  0  0  0  0  0  0  0  0
   -6.2015    1.7405    0.3753 H   0  0  0  0  0  0  0  0  0  0  0  0
   -8.5787    1.7026   -0.1944 H   0  0  0  0  0  0  0  0  0  0  0  0
  -10.8053    0.8546    0.1078 H   0  0  0  0  0  0  0  0  0  0  0  0
  -11.7719    0.2587   -1.2470 H   0  0  0  0  0  0  0  0  0  0  0  0
  -10.4637    1.4006   -1.5803 H   0  0  0  0  0  0  0  0  0  0  0  0
   -8.2602   -2.4632   -1.2594 H   0  0  0  0  0  0  0  0  0  0  0  0
   -5.8766   -2.4383   -0.6689 H   0  0  0  0  0  0  0  0  0  0  0  0
    0.0054    1.8050    2.2248 H   0  0  0  0  0  0  0  0  0  0  0  0
   -0.5679    0.9263    3.6851 H   0  0  0  0  0  0  0  0  0  0  0  0
   -1.5310    0.9252    2.1787 H   0  0  0  0  0  0  0  0  0  0  0  0
    6.7815    2.9511    0.9176 H   0  0  0  0  0  0  0  0  0  0  0  0
    8.3205    3.3427   -0.9789 H   0  0  0  0  0  0  0  0  0  0  0  0
  1  2  1  0
  2  3  1  0
  3  4  2  0
  4  5  1  0
  5  6  2  0
  6  7  1  0
  7  8  1  0
  8  9  1  0
  9 10  1  0
 10 11  1  0
 11 12  2  0
 12 13  1  0
 13 14  2  0
 14 15  1  0
 15 16  1  0
 16 17  1  0
 17 18  1  0
 18 19  2  0
 18 20  1  0
 20 21  2  0
 21 22  1  0
 22 23  2  0
 23 24  1  0
 24 25  1  0
 23 26  1  0
 26 27  2  0
 14 28  1  0
 28 29  1  0
  6 30  1  0
 30 31  2  0
 31  3  1  0
 28 11  1  0
 27 20  1  0
  1 32  1  0
  1 33  1  0
  1 34  1  0
  4 35  1  0
  5 36  1  0
  8 37  1  0
  8 38  1  0
  9 39  1  0
  9 40  1  0
 15 41  1  0
 15 42  1  0
 16 43  1  0
 16 44  1  0
 17 45  1  0
 21 46  1  0
 22 47  1  0
 25 48  1  0
 25 49  1  0
 25 50  1  0
 26 51  1  0
 27 52  1  0
 29 53  1  0
 29 54  1  0
 29 55  1  0
 30 56  1  0
 31 57  1  0
M  END
$$$$
