
     RDKit          3D

 21 21  0  0  0  0  0  0  0  0999 V2000
    3.0976   -0.2546   -0.2717 C   0  0  0  0  0  0  0  0  0  0  0  0
    1.6151   -0.0022   -0.2267 C   0  0  0  0  0  0  0  0  0  0  0  0
    1.1169    1.1894   -0.7623 C   0  0  0  0  0  0  0  0  0  0  0  0
   -0.2477    1.4234   -0.7475 C   0  0  0  0  0  0  0  0  0  0  0  0
   -0.7259    2.5901   -1.2825 O   0  0  0  0  0  0  0  0  0  0  0  0
   -1.1665    0.4978   -0.2290 C   0  0  0  0  0  0  0  0  0  0  0  0
   -2.5223    0.9157   -0.1661 N   0  0  0  0  0  0  0  0  0  0  0  0
   -0.6845   -0.6666    0.3926 C   0  0  0  0  0  0  0  0  0  0  0  0
   -1.6214   -1.6509    1.0450 C   0  0  0  0  0  0  0  0  0  0  0  0
    0.7104   -0.9242    0.3462 C   0  0  0  0  0  0  0  0  0  0  0  0
    1.3359   -2.4078    1.0083 Cl  0  0  0  0  0  0  0  0  0  0  0  0
    3.6307    0.5707   -0.7562 H   0  0  0  0  0  0  0  0  0  0  0  0
    3.3141   -1.1620   -0.8446 H   0  0  0  0  0  0  0  0  0  0  0  0
    3.4998   -0.3522    0.7417 H   0  0  0  0  0  0  0  0  0  0  0  0
    1.7784    1.9333   -1.1978 H   0  0  0  0  0  0  0  0  0  0  0  0
   -1.6982    2.4743   -1.2405 H   0  0  0  0  0  0  0  0  0  0  0  0
   -2.6728    1.4230    0.7081 H   0  0  0  0  0  0  0  0  0  0  0  0
   -3.1587    0.1213   -0.1862 H   0  0  0  0  0  0  0  0  0  0  0  0
   -1.8018   -2.4968    0.3744 H   0  0  0  0  0  0  0  0  0  0  0  0
   -1.2133   -2.0174    1.9925 H   0  0  0  0  0  0  0  0  0  0  0  0
   -2.5857   -1.2042    1.3025 H   0  0  0  0  0  0  0  0  0  0  0  0
  1  2  1  0
  2  3  2  0
  3  4  1  0
  4  5  1  0
  4  6  2  0
  6  7  1  0
  6  8  1  0
  8  9  1  0
  8 10  2  0
 10 11  1  0
 10  2  1  0
  1 12  1  0
  1 13  1  0
  1 14  1  0
  3 15  1  0
  5 16  1  0
  7 17  1  0
  7 18  1  0
  9 19  1  0
  9 20  1  0
  9 21  1  0
M  END
$$$$
