
     RDKit          3D

 64 67  0  0  0  0  0  0  0  0999 V2000
    9.7461    0.2199    0.7875 C   0  0  0  0  0  0  0  0  0  0  0  0
    8.7844    0.4290    1.8139 O   0  0  0  0  0  0  0  0  0  0  0  0
    7.5089   -0.0032    1.5762 C   0  0  0  0  0  0  0  0  0  0  0  0
    6.6142    0.2336    2.6213 C   0  0  0  0  0  0  0  0  0  0  0  0
    5.2769   -0.1605    2.5254 C   0  0  0  0  0  0  0  0  0  0  0  0
    4.8185   -0.7971    1.3736 C   0  0  0  0  0  0  0  0  0  0  0  0
    3.4868   -1.2363    1.1964 N   0  0  0  0  0  0  0  0  0  0  0  0
    2.4235   -1.1258    2.0721 C   0  0  0  0  0  0  0  0  0  0  0  0
    2.4491   -0.5915    3.1784 O   0  0  0  0  0  0  0  0  0  0  0  0
    1.1456   -1.7464    1.5336 C   0  0  0  0  0  0  0  0  0  0  0  0
    0.0784   -0.4359    0.8698 S   0  0  0  0  0  0  0  0  0  0  0  0
   -1.3106   -1.3762    0.4609 C   0  0  0  0  0  0  0  0  0  0  0  0
   -1.3031   -2.6443    0.1232 N   0  0  0  0  0  0  0  0  0  0  0  0
   -2.6034   -3.0250   -0.0836 N   0  0  0  0  0  0  0  0  0  0  0  0
   -3.3832   -1.9806    0.1329 C   0  0  0  0  0  0  0  0  0  0  0  0
   -4.8742   -1.9964    0.0697 C   0  0  0  0  0  0  0  0  0  0  0  0
   -5.4441   -1.2286   -1.0850 C   0  0  0  0  0  0  0  0  0  0  0  0
   -6.3053   -0.1437   -1.0650 C   0  0  0  0  0  0  0  0  0  0  0  0
   -6.5668    0.2305   -2.4015 C   0  0  0  0  0  0  0  0  0  0  0  0
   -5.8796   -0.6458   -3.2112 C   0  0  0  0  0  0  0  0  0  0  0  0
   -5.2109   -1.5363   -2.4102 N   0  0  0  0  0  0  0  0  0  0  0  0
   -4.3871   -2.6154   -2.9150 C   0  0  0  0  0  0  0  0  0  0  0  0
   -2.5930   -0.8956    0.4445 N   0  0  0  0  0  0  0  0  0  0  0  0
   -3.0272    0.4554    0.7376 C   0  0  0  0  0  0  0  0  0  0  0  0
   -2.8355    1.4024   -0.4480 C   0  0  0  0  0  0  0  0  0  0  0  0
   -3.2003    2.8198   -0.0849 C   0  0  0  0  0  0  0  0  0  0  0  0
   -2.2878    3.6278    0.6093 C   0  0  0  0  0  0  0  0  0  0  0  0
   -2.6283    4.9343    0.9645 C   0  0  0  0  0  0  0  0  0  0  0  0
   -3.8822    5.4437    0.6307 C   0  0  0  0  0  0  0  0  0  0  0  0
   -4.7966    4.6476   -0.0582 C   0  0  0  0  0  0  0  0  0  0  0  0
   -4.4580    3.3412   -0.4151 C   0  0  0  0  0  0  0  0  0  0  0  0
    5.7170   -1.0381    0.3111 C   0  0  0  0  0  0  0  0  0  0  0  0
    5.1685   -1.6730   -0.7821 O   0  0  0  0  0  0  0  0  0  0  0  0
    6.0538   -2.0264   -1.8390 C   0  0  0  0  0  0  0  0  0  0  0  0
    7.0560   -0.6373    0.4170 C   0  0  0  0  0  0  0  0  0  0  0  0
    9.8717   -0.8456    0.5727 H   0  0  0  0  0  0  0  0  0  0  0  0
   10.7067    0.6018    1.1461 H   0  0  0  0  0  0  0  0  0  0  0  0
    9.4816    0.7778   -0.1160 H   0  0  0  0  0  0  0  0  0  0  0  0
    6.9602    0.7261    3.5267 H   0  0  0  0  0  0  0  0  0  0  0  0
    4.6271    0.0397    3.3699 H   0  0  0  0  0  0  0  0  0  0  0  0
    3.3245   -1.6703    0.2919 H   0  0  0  0  0  0  0  0  0  0  0  0
    0.6479   -2.2675    2.3591 H   0  0  0  0  0  0  0  0  0  0  0  0
    1.3733   -2.4853    0.7580 H   0  0  0  0  0  0  0  0  0  0  0  0
   -5.2206   -3.0357    0.0066 H   0  0  0  0  0  0  0  0  0  0  0  0
   -5.2788   -1.6079    1.0125 H   0  0  0  0  0  0  0  0  0  0  0  0
   -6.7022    0.3302   -0.1756 H   0  0  0  0  0  0  0  0  0  0  0  0
   -7.1969    1.0425   -2.7408 H   0  0  0  0  0  0  0  0  0  0  0  0
   -5.8171   -0.7055   -4.2903 H   0  0  0  0  0  0  0  0  0  0  0  0
   -3.3421   -2.3054   -2.8484 H   0  0  0  0  0  0  0  0  0  0  0  0
   -4.5725   -3.5153   -2.3247 H   0  0  0  0  0  0  0  0  0  0  0  0
   -4.6514   -2.8108   -3.9575 H   0  0  0  0  0  0  0  0  0  0  0  0
   -4.0779    0.4239    1.0432 H   0  0  0  0  0  0  0  0  0  0  0  0
   -2.4725    0.7953    1.6202 H   0  0  0  0  0  0  0  0  0  0  0  0
   -3.4330    1.0700   -1.3045 H   0  0  0  0  0  0  0  0  0  0  0  0
   -1.7977    1.3871   -0.8021 H   0  0  0  0  0  0  0  0  0  0  0  0
   -1.3039    3.2462    0.8758 H   0  0  0  0  0  0  0  0  0  0  0  0
   -1.9130    5.5554    1.4996 H   0  0  0  0  0  0  0  0  0  0  0  0
   -4.1456    6.4618    0.9050 H   0  0  0  0  0  0  0  0  0  0  0  0
   -5.7720    5.0474   -0.3224 H   0  0  0  0  0  0  0  0  0  0  0  0
   -5.1813    2.7376   -0.9592 H   0  0  0  0  0  0  0  0  0  0  0  0
    5.4715   -2.5566   -2.5985 H   0  0  0  0  0  0  0  0  0  0  0  0
    6.4817   -1.1343   -2.3113 H   0  0  0  0  0  0  0  0  0  0  0  0
    6.8374   -2.7069   -1.4891 H   0  0  0  0  0  0  0  0  0  0  0  0
    7.7442   -0.8218   -0.3974 H   0  0  0  0  0  0  0  0  0  0  0  0
  1  2  1  0
  2  3  1  0
  3  4  2  0
  4  5  1  0
  5  6  2  0
  6  7  1  0
  7  8  1  0
  8  9  2  0
  8 10  1  0
 10 11  1  0
 11 12  1  0
 12 13  2  0
 13 14  1  0
 14 15  2  0
 15 16  1  0
 16 17  1  0
 17 18  2  0
 18 19  1  0
 19 20  2  0
 20 21  1  0
 21 22  1  0
 15 23  1  0
 23 24  1  0
 24 25  1  0
 25 26  1  0
 26 27  2  0
 27 28  1  0
 28 29  2  0
 29 30  1  0
 30 31  2  0
  6 32  1  0
 32 33  1  0
 33 34  1  0
 32 35  2  0
 35  3  1  0
 23 12  1  0
 31 26  1  0
 21 17  1  0
  1 36  1  0
  1 37  1  0
  1 38  1  0
  4 39  1  0
  5 40  1  0
  7 41  1  0
 10 42  1  0
 10 43  1  0
 16 44  1  0
 16 45  1  0
 18 46  1  0
 19 47  1  0
 20 48  1  0
 22 49  1  0
 22 50  1  0
 22 51  1  0
 24 52  1  0
 24 53  1  0
 25 54  1  0
 25 55  1  0
 27 56  1  0
 28 57  1  0
 29 58  1  0
 30 59  1  0
 31 60  1  0
 34 61  1  0
 34 62  1  0
 34 63  1  0
 35 64  1  0
M  END
$$$$
