
     RDKit          3D

 36 37  0  0  0  0  0  0  0  0999 V2000
   -1.2991   -1.7705   -0.3702 O   0  0  0  0  0  0  0  0  0  0  0  0
   -0.6977   -0.9913   -1.1092 C   0  0  0  0  0  0  0  0  0  0  0  0
    0.4872   -1.4163   -1.9799 C   0  0  0  0  0  0  0  0  0  0  0  0
    1.7477   -1.1665   -1.3564 O   0  0  0  0  0  0  0  0  0  0  0  0
    2.1336    0.1323   -1.3580 C   0  0  0  0  0  0  0  0  0  0  0  0
    1.5268    1.0641   -1.8586 O   0  0  0  0  0  0  0  0  0  0  0  0
    3.3989    0.2496   -0.6130 C   0  0  0  0  0  0  0  0  0  0  0  0
    4.5019   -0.5007   -1.0481 C   0  0  0  0  0  0  0  0  0  0  0  0
    5.7234   -0.3963   -0.3822 C   0  0  0  0  0  0  0  0  0  0  0  0
    5.8467    0.4544    0.7152 C   0  0  0  0  0  0  0  0  0  0  0  0
    4.7493    1.1998    1.1528 C   0  0  0  0  0  0  0  0  0  0  0  0
    3.5210    1.1005    0.4908 C   0  0  0  0  0  0  0  0  0  0  0  0
    2.0664    2.1038    1.1853 Br  0  0  0  0  0  0  0  0  0  0  0  0
   -1.0494    0.3396   -1.2170 N   0  0  0  0  0  0  0  0  0  0  0  0
   -1.9985    0.9185   -0.2836 C   0  0  0  0  0  0  0  0  0  0  0  0
   -3.4272    0.3826   -0.4617 C   0  0  0  0  0  0  0  0  0  0  0  0
   -4.1028    0.2149    0.8086 N   0  0  0  0  0  0  0  0  0  0  0  0
   -4.1284   -0.9446    1.5474 C   0  0  0  0  0  0  0  0  0  0  0  0
   -3.4938   -2.0808    1.1421 O   0  0  0  0  0  0  0  0  0  0  0  0
   -4.8242   -0.8600    2.6849 C   0  0  0  0  0  0  0  0  0  0  0  0
   -5.4788    0.7302    2.9171 S   0  0  0  0  0  0  0  0  0  0  0  0
   -4.7624    1.2867    1.3956 C   0  0  0  0  0  0  0  0  0  0  0  0
   -4.8494    2.4305    0.9792 O   0  0  0  0  0  0  0  0  0  0  0  0
    0.4085   -2.4952   -2.1518 H   0  0  0  0  0  0  0  0  0  0  0  0
    0.4310   -0.9368   -2.9648 H   0  0  0  0  0  0  0  0  0  0  0  0
    4.4148   -1.1630   -1.9067 H   0  0  0  0  0  0  0  0  0  0  0  0
    6.5795   -0.9768   -0.7189 H   0  0  0  0  0  0  0  0  0  0  0  0
    6.7989    0.5358    1.2353 H   0  0  0  0  0  0  0  0  0  0  0  0
    4.8625    1.8519    2.0163 H   0  0  0  0  0  0  0  0  0  0  0  0
   -0.3292    0.9614   -1.5933 H   0  0  0  0  0  0  0  0  0  0  0  0
   -1.6204    0.7179    0.7261 H   0  0  0  0  0  0  0  0  0  0  0  0
   -1.9840    2.0037   -0.4316 H   0  0  0  0  0  0  0  0  0  0  0  0
   -3.4673   -0.5616   -1.0155 H   0  0  0  0  0  0  0  0  0  0  0  0
   -3.9942    1.1019   -1.0665 H   0  0  0  0  0  0  0  0  0  0  0  0
   -2.7318   -1.8528    0.5670 H   0  0  0  0  0  0  0  0  0  0  0  0
   -4.9593   -1.6668    3.3909 H   0  0  0  0  0  0  0  0  0  0  0  0
  1  2  2  0
  2  3  1  0
  3  4  1  0
  4  5  1  0
  5  6  2  0
  5  7  1  0
  7  8  2  0
  8  9  1  0
  9 10  2  0
 10 11  1  0
 11 12  2  0
 12 13  1  0
  2 14  1  0
 14 15  1  0
 15 16  1  0
 16 17  1  0
 17 18  1  0
 18 19  1  0
 18 20  2  0
 20 21  1  0
 21 22  1  0
 22 23  2  0
 12  7  1  0
 22 17  1  0
  3 24  1  0
  3 25  1  0
  8 26  1  0
  9 27  1  0
 10 28  1  0
 11 29  1  0
 14 30  1  0
 15 31  1  0
 15 32  1  0
 16 33  1  0
 16 34  1  0
 19 35  1  0
 20 36  1  0
M  END
$$$$
