
     RDKit          3D

 47 50  0  0  0  0  0  0  0  0999 V2000
   -2.0864   -2.9302    1.7364 C   0  0  0  0  0  0  0  0  0  0  0  0
   -1.4203   -1.9746    0.7883 C   0  0  0  0  0  0  0  0  0  0  0  0
   -0.2256   -2.2662    0.3541 N   0  0  0  0  0  0  0  0  0  0  0  0
    0.4521   -1.4017   -0.5142 N   0  0  0  0  0  0  0  0  0  0  0  0
    1.8163   -1.7656   -0.8560 C   0  0  0  0  0  0  0  0  0  0  0  0
    2.8203   -1.0660    0.0633 C   0  0  0  0  0  0  0  0  0  0  0  0
    2.5154   -0.4353    1.0725 O   0  0  0  0  0  0  0  0  0  0  0  0
    4.1328   -1.2278   -0.3363 N   0  0  0  0  0  0  0  0  0  0  0  0
    5.2107   -0.7147    0.4756 C   0  0  0  0  0  0  0  0  0  0  0  0
    6.4770   -0.8087   -0.3112 C   0  0  0  0  0  0  0  0  0  0  0  0
    7.0025    0.1131   -1.1963 C   0  0  0  0  0  0  0  0  0  0  0  0
    8.2339   -0.3228   -1.7659 C   0  0  0  0  0  0  0  0  0  0  0  0
    8.6065   -1.5634   -1.2994 C   0  0  0  0  0  0  0  0  0  0  0  0
    7.4759   -2.1965   -0.1836 S   0  0  0  0  0  0  0  0  0  0  0  0
   -0.0497   -0.1822   -1.0086 C   0  0  0  0  0  0  0  0  0  0  0  0
    0.5774    0.5458   -1.7767 O   0  0  0  0  0  0  0  0  0  0  0  0
   -1.3935    0.1068   -0.5275 C   0  0  0  0  0  0  0  0  0  0  0  0
   -2.1478    1.1548   -0.8647 N   0  0  0  0  0  0  0  0  0  0  0  0
   -3.2676    1.0444   -0.0994 N   0  0  0  0  0  0  0  0  0  0  0  0
   -4.1794    2.1453   -0.0610 C   0  0  0  0  0  0  0  0  0  0  0  0
   -4.0864    3.1366   -1.0540 C   0  0  0  0  0  0  0  0  0  0  0  0
   -4.9542    4.2313   -1.0525 C   0  0  0  0  0  0  0  0  0  0  0  0
   -5.9135    4.3581   -0.0525 C   0  0  0  0  0  0  0  0  0  0  0  0
   -5.9962    3.3973    0.9532 C   0  0  0  0  0  0  0  0  0  0  0  0
   -5.1303    2.2979    0.9552 C   0  0  0  0  0  0  0  0  0  0  0  0
   -3.3139   -0.2016    0.5394 C   0  0  0  0  0  0  0  0  0  0  0  0
   -4.5141   -0.7640    1.2098 C   0  0  0  0  0  0  0  0  0  0  0  0
   -2.0616   -0.7607    0.3434 C   0  0  0  0  0  0  0  0  0  0  0  0
   -2.5072   -2.3887    2.5879 H   0  0  0  0  0  0  0  0  0  0  0  0
   -1.3624   -3.6591    2.1125 H   0  0  0  0  0  0  0  0  0  0  0  0
   -2.8797   -3.4694    1.2123 H   0  0  0  0  0  0  0  0  0  0  0  0
    2.0233   -1.4809   -1.8935 H   0  0  0  0  0  0  0  0  0  0  0  0
    1.9369   -2.8496   -0.7556 H   0  0  0  0  0  0  0  0  0  0  0  0
    4.3582   -1.9063   -1.0521 H   0  0  0  0  0  0  0  0  0  0  0  0
    4.9945    0.3248    0.7463 H   0  0  0  0  0  0  0  0  0  0  0  0
    5.2540   -1.2989    1.4015 H   0  0  0  0  0  0  0  0  0  0  0  0
    6.5230    1.0583   -1.4242 H   0  0  0  0  0  0  0  0  0  0  0  0
    8.8165    0.2453   -2.4807 H   0  0  0  0  0  0  0  0  0  0  0  0
    9.4900   -2.1306   -1.5591 H   0  0  0  0  0  0  0  0  0  0  0  0
   -3.3440    3.0653   -1.8484 H   0  0  0  0  0  0  0  0  0  0  0  0
   -4.8740    4.9847   -1.8319 H   0  0  0  0  0  0  0  0  0  0  0  0
   -6.5847    5.2127   -0.0488 H   0  0  0  0  0  0  0  0  0  0  0  0
   -6.7287    3.5118    1.7487 H   0  0  0  0  0  0  0  0  0  0  0  0
   -5.1998    1.6150    1.7931 H   0  0  0  0  0  0  0  0  0  0  0  0
   -5.4427   -0.4154    0.7486 H   0  0  0  0  0  0  0  0  0  0  0  0
   -4.5169   -0.5145    2.2751 H   0  0  0  0  0  0  0  0  0  0  0  0
   -4.5368   -1.8535    1.1209 H   0  0  0  0  0  0  0  0  0  0  0  0
  1  2  1  0
  2  3  2  0
  3  4  1  0
  4  5  1  0
  5  6  1  0
  6  7  2  0
  6  8  1  0
  8  9  1  0
  9 10  1  0
 10 11  2  0
 11 12  1  0
 12 13  2  0
 13 14  1  0
  4 15  1  0
 15 16  2  0
 15 17  1  0
 17 18  2  0
 18 19  1  0
 19 20  1  0
 20 21  2  0
 21 22  1  0
 22 23  2  0
 23 24  1  0
 24 25  2  0
 19 26  1  0
 26 27  1  0
 26 28  2  0
 28  2  1  0
 14 10  1  0
 28 17  1  0
 25 20  1  0
  1 29  1  0
  1 30  1  0
  1 31  1  0
  5 32  1  0
  5 33  1  0
  8 34  1  0
  9 35  1  0
  9 36  1  0
 11 37  1  0
 12 38  1  0
 13 39  1  0
 21 40  1  0
 22 41  1  0
 23 42  1  0
 24 43  1  0
 25 44  1  0
 27 45  1  0
 27 46  1  0
 27 47  1  0
M  END
$$$$
