
     RDKit          3D

 25 26  0  0  0  0  0  0  0  0999 V2000
   -4.7932    0.3622    0.1907 O   0  0  0  0  0  0  0  0  0  0  0  0
   -3.5995    0.2006    0.0036 C   0  0  0  0  0  0  0  0  0  0  0  0
   -2.9493   -0.2790   -1.2591 C   0  0  0  0  0  0  0  0  0  0  0  0
   -1.4742   -0.0002   -0.9904 C   0  0  0  0  0  0  0  0  0  0  0  0
   -1.3539   -0.0607    0.4770 N   0  0  0  0  0  0  0  0  0  0  0  0
   -0.2491    0.7732    0.9794 C   0  0  0  0  0  0  0  0  0  0  0  0
    1.1141    0.2520    0.5737 C   0  0  0  0  0  0  0  0  0  0  0  0
    1.9660    1.0268   -0.2277 C   0  0  0  0  0  0  0  0  0  0  0  0
    3.2232    0.5426   -0.5982 C   0  0  0  0  0  0  0  0  0  0  0  0
    3.6353   -0.7173   -0.1691 C   0  0  0  0  0  0  0  0  0  0  0  0
    5.1833   -1.3119   -0.6278 Cl  0  0  0  0  0  0  0  0  0  0  0  0
    2.8021   -1.4983    0.6280 C   0  0  0  0  0  0  0  0  0  0  0  0
    1.5457   -1.0147    0.9990 C   0  0  0  0  0  0  0  0  0  0  0  0
   -2.5988    0.3801    0.9365 N   0  0  0  0  0  0  0  0  0  0  0  0
   -3.3182    0.2780   -2.1235 H   0  0  0  0  0  0  0  0  0  0  0  0
   -3.1457   -1.3494   -1.3735 H   0  0  0  0  0  0  0  0  0  0  0  0
   -1.2268    0.9973   -1.3778 H   0  0  0  0  0  0  0  0  0  0  0  0
   -0.8314   -0.7342   -1.4866 H   0  0  0  0  0  0  0  0  0  0  0  0
   -0.3715    1.8176    0.6620 H   0  0  0  0  0  0  0  0  0  0  0  0
   -0.2750    0.7863    2.0775 H   0  0  0  0  0  0  0  0  0  0  0  0
    1.6575    2.0122   -0.5703 H   0  0  0  0  0  0  0  0  0  0  0  0
    3.8743    1.1515   -1.2197 H   0  0  0  0  0  0  0  0  0  0  0  0
    3.1213   -2.4818    0.9620 H   0  0  0  0  0  0  0  0  0  0  0  0
    0.8967   -1.6323    1.6175 H   0  0  0  0  0  0  0  0  0  0  0  0
   -2.8331    0.4995    1.9167 H   0  0  0  0  0  0  0  0  0  0  0  0
  1  2  2  0
  2  3  1  0
  3  4  1  0
  4  5  1  0
  5  6  1  0
  6  7  1  0
  7  8  2  0
  8  9  1  0
  9 10  2  0
 10 11  1  0
 10 12  1  0
 12 13  2  0
  5 14  1  0
 14  2  1  0
 13  7  1  0
  3 15  1  0
  3 16  1  0
  4 17  1  0
  4 18  1  0
  6 19  1  0
  6 20  1  0
  8 21  1  0
  9 22  1  0
 12 23  1  0
 13 24  1  0
 14 25  1  0
M  END
$$$$
