
     RDKit          3D

 57 61  0  0  0  0  0  0  0  0999 V2000
    0.1278    1.1838    1.8468 O   0  0  0  0  0  0  0  0  0  0  0  0
    0.0228    0.2747    0.7322 C   0  0  0  0  0  0  0  0  0  0  0  0
    1.3804    0.2222    0.0164 C   0  0  0  0  0  0  0  0  0  0  0  0
    2.4170   -0.1576    0.9744 N   0  0  0  0  0  0  0  0  0  0  0  0
    3.7493   -0.0809    0.6265 C   0  0  0  0  0  0  0  0  0  0  0  0
    4.0936   -0.0091   -0.6355 N   0  0  0  0  0  0  0  0  0  0  0  0
    5.4512    0.1298   -0.9910 C   0  0  0  0  0  0  0  0  0  0  0  0
    5.7766    0.2133   -2.3485 C   0  0  0  0  0  0  0  0  0  0  0  0
    7.1051    0.3736   -2.7585 C   0  0  0  0  0  0  0  0  0  0  0  0
    8.1251    0.4538   -1.8080 C   0  0  0  0  0  0  0  0  0  0  0  0
    7.8262    0.3677   -0.4476 C   0  0  0  0  0  0  0  0  0  0  0  0
    6.4921    0.2063   -0.0515 C   0  0  0  0  0  0  0  0  0  0  0  0
    6.1052    0.1000    1.2942 N   0  0  0  0  0  0  0  0  0  0  0  0
    6.8734    0.1211    2.4319 C   0  0  0  0  0  0  0  0  0  0  0  0
    6.0369   -0.0511    3.5157 C   0  0  0  0  0  0  0  0  0  0  0  0
    4.7191   -0.1708    3.0158 C   0  0  0  0  0  0  0  0  0  0  0  0
    4.7832   -0.0549    1.6416 C   0  0  0  0  0  0  0  0  0  0  0  0
   -1.0899    0.7660   -0.2193 C   0  0  0  0  0  0  0  0  0  0  0  0
   -2.3158    1.1274    0.5245 N   0  0  0  0  0  0  0  0  0  0  0  0
   -2.9830   -0.0692    1.1013 C   0  0  0  0  0  0  0  0  0  0  0  0
   -4.5046    0.1113    1.3020 C   0  0  0  0  0  0  0  0  0  0  0  0
   -5.1763    0.3166    0.0067 N   0  0  0  0  0  0  0  0  0  0  0  0
   -6.0056   -0.6664   -0.5406 C   0  0  0  0  0  0  0  0  0  0  0  0
   -5.9773   -2.0109   -0.1498 C   0  0  0  0  0  0  0  0  0  0  0  0
   -6.8371   -2.9637   -0.7141 C   0  0  0  0  0  0  0  0  0  0  0  0
   -7.7537   -2.5849   -1.6889 C   0  0  0  0  0  0  0  0  0  0  0  0
   -7.8050   -1.2585   -2.1001 C   0  0  0  0  0  0  0  0  0  0  0  0
   -6.9396   -0.3189   -1.5305 C   0  0  0  0  0  0  0  0  0  0  0  0
   -4.3923    1.0863   -0.9868 C   0  0  0  0  0  0  0  0  0  0  0  0
   -3.2630    1.9000   -0.3160 C   0  0  0  0  0  0  0  0  0  0  0  0
   -0.7682    1.5720    1.9400 H   0  0  0  0  0  0  0  0  0  0  0  0
   -0.2238   -0.7094    1.1470 H   0  0  0  0  0  0  0  0  0  0  0  0
    1.3500   -0.4861   -0.8183 H   0  0  0  0  0  0  0  0  0  0  0  0
    1.6177    1.2164   -0.3756 H   0  0  0  0  0  0  0  0  0  0  0  0
    2.2226    0.2581    1.8830 H   0  0  0  0  0  0  0  0  0  0  0  0
    4.9836    0.1538   -3.0901 H   0  0  0  0  0  0  0  0  0  0  0  0
    7.3401    0.4366   -3.8201 H   0  0  0  0  0  0  0  0  0  0  0  0
    9.1545    0.5830   -2.1298 H   0  0  0  0  0  0  0  0  0  0  0  0
    8.6375    0.4267    0.2703 H   0  0  0  0  0  0  0  0  0  0  0  0
    7.9453    0.2504    2.3967 H   0  0  0  0  0  0  0  0  0  0  0  0
    6.3466   -0.0811    4.5544 H   0  0  0  0  0  0  0  0  0  0  0  0
    3.8159   -0.3173    3.6011 H   0  0  0  0  0  0  0  0  0  0  0  0
   -1.2923    0.0250   -1.0041 H   0  0  0  0  0  0  0  0  0  0  0  0
   -0.7157    1.6705   -0.7172 H   0  0  0  0  0  0  0  0  0  0  0  0
   -2.8295   -0.9430    0.4583 H   0  0  0  0  0  0  0  0  0  0  0  0
   -2.5242   -0.2912    2.0686 H   0  0  0  0  0  0  0  0  0  0  0  0
   -4.6846    0.9995    1.9259 H   0  0  0  0  0  0  0  0  0  0  0  0
   -4.9206   -0.7287    1.8757 H   0  0  0  0  0  0  0  0  0  0  0  0
   -5.2675   -2.3665    0.5888 H   0  0  0  0  0  0  0  0  0  0  0  0
   -6.7884   -4.0007   -0.3888 H   0  0  0  0  0  0  0  0  0  0  0  0
   -8.4283   -3.3164   -2.1236 H   0  0  0  0  0  0  0  0  0  0  0  0
   -8.5282   -0.9423   -2.8536 H   0  0  0  0  0  0  0  0  0  0  0  0
   -7.0285    0.7153   -1.8510 H   0  0  0  0  0  0  0  0  0  0  0  0
   -3.9450    0.4079   -1.7240 H   0  0  0  0  0  0  0  0  0  0  0  0
   -5.0475    1.7873   -1.5176 H   0  0  0  0  0  0  0  0  0  0  0  0
   -2.7336    2.4816   -1.0741 H   0  0  0  0  0  0  0  0  0  0  0  0
   -3.7296    2.6417    0.3382 H   0  0  0  0  0  0  0  0  0  0  0  0
  1  2  1  0
  2  3  1  0
  3  4  1  0
  4  5  1  0
  5  6  2  0
  6  7  1  0
  7  8  2  0
  8  9  1  0
  9 10  2  0
 10 11  1  0
 11 12  2  0
 12 13  1  0
 13 14  1  0
 14 15  2  0
 15 16  1  0
 16 17  2  0
  2 18  1  0
 18 19  1  0
 19 20  1  0
 20 21  1  0
 21 22  1  0
 22 23  1  0
 23 24  2  0
 24 25  1  0
 25 26  2  0
 26 27  1  0
 27 28  2  0
 22 29  1  0
 29 30  1  0
 17  5  1  0
 30 19  1  0
 12  7  1  0
 17 13  1  0
 28 23  1  0
  1 31  1  0
  2 32  1  0
  3 33  1  0
  3 34  1  0
  4 35  1  0
  8 36  1  0
  9 37  1  0
 10 38  1  0
 11 39  1  0
 14 40  1  0
 15 41  1  0
 16 42  1  0
 18 43  1  0
 18 44  1  0
 20 45  1  0
 20 46  1  0
 21 47  1  0
 21 48  1  0
 24 49  1  0
 25 50  1  0
 26 51  1  0
 27 52  1  0
 28 53  1  0
 29 54  1  0
 29 55  1  0
 30 56  1  0
 30 57  1  0
M  END
$$$$
