
     RDKit          3D

 53 56  0  0  0  0  0  0  0  0999 V2000
   -8.2645    0.3938   -1.5923 C   0  0  0  0  0  0  0  0  0  0  0  0
   -6.8423    0.5150   -1.1316 C   0  0  0  0  0  0  0  0  0  0  0  0
   -6.3121   -0.3963   -0.2130 C   0  0  0  0  0  0  0  0  0  0  0  0
   -4.9753   -0.3074    0.1958 C   0  0  0  0  0  0  0  0  0  0  0  0
   -4.1465    0.7004   -0.3083 C   0  0  0  0  0  0  0  0  0  0  0  0
   -2.7742    0.8289    0.0720 N   0  0  0  0  0  0  0  0  0  0  0  0
   -1.9457    1.5597   -0.7229 N   0  0  0  0  0  0  0  0  0  0  0  0
   -0.7184    1.3327   -0.2526 C   0  0  0  0  0  0  0  0  0  0  0  0
    0.5284    1.8430   -0.8092 C   0  0  0  0  0  0  0  0  0  0  0  0
    0.5929    2.5257   -1.8280 O   0  0  0  0  0  0  0  0  0  0  0  0
    1.6538    1.4678   -0.0478 N   0  0  0  0  0  0  0  0  0  0  0  0
    2.9763    1.9185   -0.4829 C   0  0  0  0  0  0  0  0  0  0  0  0
    3.6878    0.9017   -1.3778 C   0  0  0  0  0  0  0  0  0  0  0  0
    4.6829    1.2019   -2.0347 O   0  0  0  0  0  0  0  0  0  0  0  0
    3.1911   -0.3838   -1.3050 N   0  0  0  0  0  0  0  0  0  0  0  0
    3.8726   -1.5188   -1.8960 C   0  0  0  0  0  0  0  0  0  0  0  0
    4.4594   -2.4685   -0.8454 C   0  0  0  0  0  0  0  0  0  0  0  0
    5.4498   -1.8025    0.0674 C   0  0  0  0  0  0  0  0  0  0  0  0
    6.6948   -1.2929   -0.2444 C   0  0  0  0  0  0  0  0  0  0  0  0
    7.3459   -0.7223    0.8869 C   0  0  0  0  0  0  0  0  0  0  0  0
    6.5797   -0.8197    2.0262 C   0  0  0  0  0  0  0  0  0  0  0  0
    5.0844   -1.5923    1.7295 S   0  0  0  0  0  0  0  0  0  0  0  0
    1.6223    0.6443    1.0869 N   0  0  0  0  0  0  0  0  0  0  0  0
    0.4936    0.1987    1.5656 C   0  0  0  0  0  0  0  0  0  0  0  0
    0.5319   -0.6706    2.7899 C   0  0  0  0  0  0  0  0  0  0  0  0
   -0.7394    0.5451    0.9034 C   0  0  0  0  0  0  0  0  0  0  0  0
   -2.0776    0.3067    1.1700 C   0  0  0  0  0  0  0  0  0  0  0  0
   -2.7167   -0.2993    2.3668 C   0  0  0  0  0  0  0  0  0  0  0  0
   -4.6706    1.5885   -1.2625 C   0  0  0  0  0  0  0  0  0  0  0  0
   -6.0057    1.4973   -1.6671 C   0  0  0  0  0  0  0  0  0  0  0  0
   -8.6724    1.3735   -1.8624 H   0  0  0  0  0  0  0  0  0  0  0  0
   -8.3208   -0.2658   -2.4636 H   0  0  0  0  0  0  0  0  0  0  0  0
   -8.8986   -0.0138   -0.7979 H   0  0  0  0  0  0  0  0  0  0  0  0
   -6.9361   -1.1949    0.1835 H   0  0  0  0  0  0  0  0  0  0  0  0
   -4.6142   -1.0754    0.8684 H   0  0  0  0  0  0  0  0  0  0  0  0
    2.8842    2.8572   -1.0384 H   0  0  0  0  0  0  0  0  0  0  0  0
    3.5949    2.0917    0.4042 H   0  0  0  0  0  0  0  0  0  0  0  0
    2.4946   -0.5452   -0.5830 H   0  0  0  0  0  0  0  0  0  0  0  0
    3.1259   -2.0576   -2.4890 H   0  0  0  0  0  0  0  0  0  0  0  0
    4.6541   -1.1738   -2.5815 H   0  0  0  0  0  0  0  0  0  0  0  0
    4.9557   -3.3026   -1.3569 H   0  0  0  0  0  0  0  0  0  0  0  0
    3.6387   -2.9073   -0.2634 H   0  0  0  0  0  0  0  0  0  0  0  0
    7.1147   -1.3104   -1.2434 H   0  0  0  0  0  0  0  0  0  0  0  0
    8.3243   -0.2586    0.8627 H   0  0  0  0  0  0  0  0  0  0  0  0
    6.8246   -0.4710    3.0198 H   0  0  0  0  0  0  0  0  0  0  0  0
   -0.0882   -1.5588    2.6442 H   0  0  0  0  0  0  0  0  0  0  0  0
    0.1689   -0.1035    3.6510 H   0  0  0  0  0  0  0  0  0  0  0  0
    1.5573   -0.9928    2.9948 H   0  0  0  0  0  0  0  0  0  0  0  0
   -2.1169   -0.1193    3.2632 H   0  0  0  0  0  0  0  0  0  0  0  0
   -2.8209   -1.3815    2.2454 H   0  0  0  0  0  0  0  0  0  0  0  0
   -3.6946    0.1433    2.5776 H   0  0  0  0  0  0  0  0  0  0  0  0
   -4.0507    2.3707   -1.6996 H   0  0  0  0  0  0  0  0  0  0  0  0
   -6.3830    2.2007   -2.4064 H   0  0  0  0  0  0  0  0  0  0  0  0
  1  2  1  0
  2  3  2  0
  3  4  1  0
  4  5  2  0
  5  6  1  0
  6  7  1  0
  7  8  2  0
  8  9  1  0
  9 10  2  0
  9 11  1  0
 11 12  1  0
 12 13  1  0
 13 14  2  0
 13 15  1  0
 15 16  1  0
 16 17  1  0
 17 18  1  0
 18 19  2  0
 19 20  1  0
 20 21  2  0
 21 22  1  0
 11 23  1  0
 23 24  2  0
 24 25  1  0
 24 26  1  0
 26 27  2  0
 27 28  1  0
  5 29  1  0
 29 30  2  0
 30  2  1  0
 27  6  1  0
 26  8  1  0
 22 18  1  0
  1 31  1  0
  1 32  1  0
  1 33  1  0
  3 34  1  0
  4 35  1  0
 12 36  1  0
 12 37  1  0
 15 38  1  0
 16 39  1  0
 16 40  1  0
 17 41  1  0
 17 42  1  0
 19 43  1  0
 20 44  1  0
 21 45  1  0
 25 46  1  0
 25 47  1  0
 25 48  1  0
 28 49  1  0
 28 50  1  0
 28 51  1  0
 29 52  1  0
 30 53  1  0
M  END
$$$$
