
     RDKit          3D

 39 41  0  0  0  0  0  0  0  0999 V2000
    4.1567    0.1555   -2.7549 C   0  0  0  0  0  0  0  0  0  0  0  0
    4.7968   -0.0659   -1.3957 C   0  0  0  0  0  0  0  0  0  0  0  0
    4.2803    0.8392   -0.3813 N   0  0  0  0  0  0  0  0  0  0  0  0
    5.0299    1.9186   -0.0557 N   0  0  0  0  0  0  0  0  0  0  0  0
    4.3211    2.5253    0.8947 C   0  0  0  0  0  0  0  0  0  0  0  0
    3.1177    1.8588    1.1477 C   0  0  0  0  0  0  0  0  0  0  0  0
    1.9057    2.4129    2.4635 Br  0  0  0  0  0  0  0  0  0  0  0  0
    3.0746    0.7743    0.2925 C   0  0  0  0  0  0  0  0  0  0  0  0
    2.0790   -0.2622    0.0891 C   0  0  0  0  0  0  0  0  0  0  0  0
    2.4010   -1.3716   -0.3189 O   0  0  0  0  0  0  0  0  0  0  0  0
    0.7850    0.1526    0.3422 N   0  0  0  0  0  0  0  0  0  0  0  0
   -0.3821   -0.5977    0.2666 C   0  0  0  0  0  0  0  0  0  0  0  0
   -0.3363   -2.2921   -0.0028 S   0  0  0  0  0  0  0  0  0  0  0  0
   -1.9964   -2.3858    0.0777 C   0  0  0  0  0  0  0  0  0  0  0  0
   -2.6107   -1.1878    0.3069 C   0  0  0  0  0  0  0  0  0  0  0  0
   -1.6852   -0.1102    0.4167 C   0  0  0  0  0  0  0  0  0  0  0  0
   -1.9878    1.3008    0.6388 C   0  0  0  0  0  0  0  0  0  0  0  0
   -1.1194    2.1658    0.7031 O   0  0  0  0  0  0  0  0  0  0  0  0
   -3.3240    1.5478    0.7600 O   0  0  0  0  0  0  0  0  0  0  0  0
   -3.6468    2.9212    0.9771 C   0  0  0  0  0  0  0  0  0  0  0  0
   -4.0871   -1.3560    0.3635 C   0  0  0  0  0  0  0  0  0  0  0  0
   -4.2455   -2.9051    0.4733 C   0  0  0  0  0  0  0  0  0  0  0  0
   -2.9221   -3.5331   -0.0576 C   0  0  0  0  0  0  0  0  0  0  0  0
    4.3156    1.1825   -3.1007 H   0  0  0  0  0  0  0  0  0  0  0  0
    3.0771   -0.0216   -2.7259 H   0  0  0  0  0  0  0  0  0  0  0  0
    4.5923   -0.5245   -3.4936 H   0  0  0  0  0  0  0  0  0  0  0  0
    5.8784    0.1014   -1.4661 H   0  0  0  0  0  0  0  0  0  0  0  0
    4.6629   -1.0925   -1.0446 H   0  0  0  0  0  0  0  0  0  0  0  0
    4.7192    3.4192    1.3574 H   0  0  0  0  0  0  0  0  0  0  0  0
    0.6446    1.1370    0.5623 H   0  0  0  0  0  0  0  0  0  0  0  0
   -4.7340    3.0043    1.0603 H   0  0  0  0  0  0  0  0  0  0  0  0
   -3.3171    3.5313    0.1304 H   0  0  0  0  0  0  0  0  0  0  0  0
   -3.2001    3.2775    1.9106 H   0  0  0  0  0  0  0  0  0  0  0  0
   -4.5409   -0.8574    1.2243 H   0  0  0  0  0  0  0  0  0  0  0  0
   -4.5497   -0.9880   -0.5583 H   0  0  0  0  0  0  0  0  0  0  0  0
   -4.3695   -3.1758    1.5304 H   0  0  0  0  0  0  0  0  0  0  0  0
   -5.1256   -3.2719   -0.0641 H   0  0  0  0  0  0  0  0  0  0  0  0
   -2.6282   -4.4014    0.5383 H   0  0  0  0  0  0  0  0  0  0  0  0
   -3.0295   -3.8254   -1.1073 H   0  0  0  0  0  0  0  0  0  0  0  0
  1  2  1  0
  2  3  1  0
  3  4  1  0
  4  5  2  0
  5  6  1  0
  6  7  1  0
  6  8  2  0
  8  9  1  0
  9 10  2  0
  9 11  1  0
 11 12  1  0
 12 13  1  0
 13 14  1  0
 14 15  2  0
 15 16  1  0
 16 17  1  0
 17 18  2  0
 17 19  1  0
 19 20  1  0
 15 21  1  0
 21 22  1  0
 22 23  1  0
  8  3  1  0
 16 12  2  0
 23 14  1  0
  1 24  1  0
  1 25  1  0
  1 26  1  0
  2 27  1  0
  2 28  1  0
  5 29  1  0
 11 30  1  0
 20 31  1  0
 20 32  1  0
 20 33  1  0
 21 34  1  0
 21 35  1  0
 22 36  1  0
 22 37  1  0
 23 38  1  0
 23 39  1  0
M  END
$$$$
