
     RDKit          3D

 31 32  0  0  0  0  0  0  0  0999 V2000
    3.7986    2.3835   -0.4061 O   0  0  0  0  0  0  0  0  0  0  0  0
    4.3313    1.2851   -0.5610 C   0  0  0  0  0  0  0  0  0  0  0  0
    3.6980    0.0533   -0.4364 N   0  0  0  0  0  0  0  0  0  0  0  0
    2.3505   -0.1998   -0.1142 C   0  0  0  0  0  0  0  0  0  0  0  0
    1.4063    0.7905    0.1453 C   0  0  0  0  0  0  0  0  0  0  0  0
    0.0823    0.4477    0.4567 C   0  0  0  0  0  0  0  0  0  0  0  0
   -0.3272   -0.8860    0.5258 C   0  0  0  0  0  0  0  0  0  0  0  0
   -1.6508   -1.2712    0.7940 N   0  0  0  0  0  0  0  0  0  0  0  0
   -2.8781   -0.6070    0.6229 C   0  0  0  0  0  0  0  0  0  0  0  0
   -3.9515   -0.9378    1.4632 C   0  0  0  0  0  0  0  0  0  0  0  0
   -5.1810   -0.2808    1.3579 C   0  0  0  0  0  0  0  0  0  0  0  0
   -5.3539    0.7236    0.4101 C   0  0  0  0  0  0  0  0  0  0  0  0
   -4.2985    1.0690   -0.4293 C   0  0  0  0  0  0  0  0  0  0  0  0
   -3.0700    0.4102   -0.3188 C   0  0  0  0  0  0  0  0  0  0  0  0
    0.6269   -1.8746    0.2594 C   0  0  0  0  0  0  0  0  0  0  0  0
    1.9495   -1.5380   -0.0542 C   0  0  0  0  0  0  0  0  0  0  0  0
    5.8142    1.1927   -0.9231 C   0  0  0  0  0  0  0  0  0  0  0  0
    5.9925    0.3646   -2.4866 Cl  0  0  0  0  0  0  0  0  0  0  0  0
    6.6805    0.2998    0.3474 Cl  0  0  0  0  0  0  0  0  0  0  0  0
    4.2776   -0.7639   -0.6002 H   0  0  0  0  0  0  0  0  0  0  0  0
    1.6575    1.8459    0.1206 H   0  0  0  0  0  0  0  0  0  0  0  0
   -0.6175    1.2495    0.6785 H   0  0  0  0  0  0  0  0  0  0  0  0
   -1.7382   -2.1935    1.2043 H   0  0  0  0  0  0  0  0  0  0  0  0
   -3.8344   -1.7075    2.2217 H   0  0  0  0  0  0  0  0  0  0  0  0
   -5.9992   -0.5511    2.0199 H   0  0  0  0  0  0  0  0  0  0  0  0
   -6.3082    1.2365    0.3255 H   0  0  0  0  0  0  0  0  0  0  0  0
   -4.4278    1.8491   -1.1749 H   0  0  0  0  0  0  0  0  0  0  0  0
   -2.2721    0.6820   -1.0045 H   0  0  0  0  0  0  0  0  0  0  0  0
    0.3449   -2.9243    0.2803 H   0  0  0  0  0  0  0  0  0  0  0  0
    2.6528   -2.3420   -0.2550 H   0  0  0  0  0  0  0  0  0  0  0  0
    6.2447    2.1945   -1.0047 H   0  0  0  0  0  0  0  0  0  0  0  0
  1  2  2  0
  2  3  1  0
  3  4  1  0
  4  5  2  0
  5  6  1  0
  6  7  2  0
  7  8  1  0
  8  9  1  0
  9 10  2  0
 10 11  1  0
 11 12  2  0
 12 13  1  0
 13 14  2  0
  7 15  1  0
 15 16  2  0
  2 17  1  0
 17 18  1  0
 17 19  1  0
 16  4  1  0
 14  9  1  0
  3 20  1  0
  5 21  1  0
  6 22  1  0
  8 23  1  0
 10 24  1  0
 11 25  1  0
 12 26  1  0
 13 27  1  0
 14 28  1  0
 15 29  1  0
 16 30  1  0
 17 31  1  0
M  END
$$$$
