
     RDKit          3D

 48 50  0  0  0  0  0  0  0  0999 V2000
    1.6649   -3.1620    2.2337 C   0  0  0  0  0  0  0  0  0  0  0  0
    2.2480   -2.1479    1.4256 O   0  0  0  0  0  0  0  0  0  0  0  0
    1.6258   -1.8405    0.2453 C   0  0  0  0  0  0  0  0  0  0  0  0
    0.4971   -2.5036   -0.2509 C   0  0  0  0  0  0  0  0  0  0  0  0
   -0.0837   -2.1100   -1.4594 C   0  0  0  0  0  0  0  0  0  0  0  0
    0.4534   -1.0369   -2.1687 C   0  0  0  0  0  0  0  0  0  0  0  0
   -0.1365   -0.5995   -3.4470 C   0  0  0  0  0  0  0  0  0  0  0  0
   -1.3835   -0.3524   -3.7182 N   0  0  0  0  0  0  0  0  0  0  0  0
   -2.2861   -0.3711   -2.7025 N   0  0  0  0  0  0  0  0  0  0  0  0
   -3.6385   -0.1605   -2.9379 C   0  0  0  0  0  0  0  0  0  0  0  0
   -4.1422   -0.0195   -4.0437 O   0  0  0  0  0  0  0  0  0  0  0  0
   -4.4384   -0.1259   -1.6590 C   0  0  0  0  0  0  0  0  0  0  0  0
   -3.6588   -0.2676   -0.5409 N   0  0  0  0  0  0  0  0  0  0  0  0
   -4.2862   -0.2616    0.6540 C   0  0  0  0  0  0  0  0  0  0  0  0
   -3.1887   -0.4738    1.9618 Cl  0  0  0  0  0  0  0  0  0  0  0  0
   -5.6573   -0.1123    0.8170 C   0  0  0  0  0  0  0  0  0  0  0  0
   -6.3974   -0.1247    2.3828 Cl  0  0  0  0  0  0  0  0  0  0  0  0
   -6.4495    0.0694   -0.3340 C   0  0  0  0  0  0  0  0  0  0  0  0
   -7.8643    0.0783   -0.2297 N   0  0  0  0  0  0  0  0  0  0  0  0
   -5.8263    0.0260   -1.6047 C   0  0  0  0  0  0  0  0  0  0  0  0
   -6.8335    0.1850   -3.0048 Cl  0  0  0  0  0  0  0  0  0  0  0  0
    1.5970   -0.3876   -1.7050 C   0  0  0  0  0  0  0  0  0  0  0  0
    2.1951   -0.7864   -0.4958 C   0  0  0  0  0  0  0  0  0  0  0  0
    3.4102   -0.0329   -0.0004 C   0  0  0  0  0  0  0  0  0  0  0  0
    2.9481    1.1268    0.6917 O   0  0  0  0  0  0  0  0  0  0  0  0
    3.8864    1.8796    1.3419 C   0  0  0  0  0  0  0  0  0  0  0  0
    3.3486    2.8532    2.1933 C   0  0  0  0  0  0  0  0  0  0  0  0
    4.1867    3.6974    2.9243 C   0  0  0  0  0  0  0  0  0  0  0  0
    5.5653    3.5703    2.7961 C   0  0  0  0  0  0  0  0  0  0  0  0
    6.3699    4.3798    3.4965 F   0  0  0  0  0  0  0  0  0  0  0  0
    6.1200    2.6177    1.9534 C   0  0  0  0  0  0  0  0  0  0  0  0
    5.2775    1.7788    1.2283 C   0  0  0  0  0  0  0  0  0  0  0  0
    5.8497    0.8816    0.4119 F   0  0  0  0  0  0  0  0  0  0  0  0
    0.6449   -2.8972    2.5284 H   0  0  0  0  0  0  0  0  0  0  0  0
    2.2650   -3.2516    3.1446 H   0  0  0  0  0  0  0  0  0  0  0  0
    1.6894   -4.1306    1.7242 H   0  0  0  0  0  0  0  0  0  0  0  0
    0.0428   -3.3348    0.2799 H   0  0  0  0  0  0  0  0  0  0  0  0
   -0.9471   -2.6491   -1.8427 H   0  0  0  0  0  0  0  0  0  0  0  0
    0.5845   -0.4646   -4.2722 H   0  0  0  0  0  0  0  0  0  0  0  0
   -1.9748   -0.3906   -1.7333 H   0  0  0  0  0  0  0  0  0  0  0  0
   -8.2246    0.4174    0.6602 H   0  0  0  0  0  0  0  0  0  0  0  0
   -8.3407    0.4726   -1.0410 H   0  0  0  0  0  0  0  0  0  0  0  0
    2.0160    0.4450   -2.2673 H   0  0  0  0  0  0  0  0  0  0  0  0
    4.0193   -0.6696    0.6510 H   0  0  0  0  0  0  0  0  0  0  0  0
    4.0147    0.2608   -0.8674 H   0  0  0  0  0  0  0  0  0  0  0  0
    2.2691    2.9469    2.2924 H   0  0  0  0  0  0  0  0  0  0  0  0
    3.7726    4.4486    3.5900 H   0  0  0  0  0  0  0  0  0  0  0  0
    7.1964    2.5297    1.8574 H   0  0  0  0  0  0  0  0  0  0  0  0
  1  2  1  0
  2  3  1  0
  3  4  2  0
  4  5  1  0
  5  6  2  0
  6  7  1  0
  7  8  2  3
  8  9  1  0
  9 10  1  0
 10 11  2  0
 10 12  1  0
 12 13  2  0
 13 14  1  0
 14 15  1  0
 14 16  2  0
 16 17  1  0
 16 18  1  0
 18 19  1  0
 18 20  2  0
 20 21  1  0
  6 22  1  0
 22 23  2  0
 23 24  1  0
 24 25  1  0
 25 26  1  0
 26 27  2  0
 27 28  1  0
 28 29  2  0
 29 30  1  0
 29 31  1  0
 31 32  2  0
 32 33  1  0
 23  3  1  0
 32 26  1  0
 20 12  1  0
  1 34  1  0
  1 35  1  0
  1 36  1  0
  4 37  1  0
  5 38  1  0
  7 39  1  0
  9 40  1  0
 19 41  1  0
 19 42  1  0
 22 43  1  0
 24 44  1  0
 24 45  1  0
 27 46  1  0
 28 47  1  0
 31 48  1  0
M  END
$$$$
