
     RDKit          3D

 46 48  0  0  0  0  0  0  0  0999 V2000
   -0.1725    2.0521   -1.4152 C   0  0  0  0  0  0  0  0  0  0  0  0
    0.8998    1.2977   -0.6614 C   0  0  0  0  0  0  0  0  0  0  0  0
    2.2057    1.1362   -1.3705 C   0  0  0  0  0  0  0  0  0  0  0  0
    3.0664    0.1741   -1.0055 C   0  0  0  0  0  0  0  0  0  0  0  0
    4.3518   -0.0718   -1.6731 C   0  0  0  0  0  0  0  0  0  0  0  0
    5.1646    0.9675   -2.1453 C   0  0  0  0  0  0  0  0  0  0  0  0
    6.3918    0.6899   -2.7537 C   0  0  0  0  0  0  0  0  0  0  0  0
    6.8236   -0.6281   -2.8863 C   0  0  0  0  0  0  0  0  0  0  0  0
    6.0329   -1.6688   -2.4043 C   0  0  0  0  0  0  0  0  0  0  0  0
    4.8064   -1.3913   -1.7955 C   0  0  0  0  0  0  0  0  0  0  0  0
    0.7425    0.8128    0.5359 N   0  0  0  0  0  0  0  0  0  0  0  0
   -0.4505    0.9725    1.1719 N   0  0  0  0  0  0  0  0  0  0  0  0
   -0.6527    0.4020    2.4130 C   0  0  0  0  0  0  0  0  0  0  0  0
    0.1542   -0.2610    3.0525 O   0  0  0  0  0  0  0  0  0  0  0  0
   -1.9827    0.7207    3.0097 C   0  0  0  0  0  0  0  0  0  0  0  0
   -2.6899   -0.3781    3.7662 C   0  0  0  0  0  0  0  0  0  0  0  0
   -3.3184    0.1754    2.5037 C   0  0  0  0  0  0  0  0  0  0  0  0
   -4.5475    1.0371    2.7130 C   0  0  0  0  0  0  0  0  0  0  0  0
   -3.3612   -0.6704    1.2310 C   0  0  0  0  0  0  0  0  0  0  0  0
   -3.3813   -2.0756    1.2587 C   0  0  0  0  0  0  0  0  0  0  0  0
   -3.4281   -2.8345    0.0848 C   0  0  0  0  0  0  0  0  0  0  0  0
   -3.4708   -2.2032   -1.1534 C   0  0  0  0  0  0  0  0  0  0  0  0
   -3.4747   -0.8147   -1.2160 C   0  0  0  0  0  0  0  0  0  0  0  0
   -3.4247   -0.0628   -0.0383 C   0  0  0  0  0  0  0  0  0  0  0  0
   -1.0425    1.4061   -1.5595 H   0  0  0  0  0  0  0  0  0  0  0  0
    0.1793    2.3716   -2.3999 H   0  0  0  0  0  0  0  0  0  0  0  0
   -0.4645    2.9409   -0.8488 H   0  0  0  0  0  0  0  0  0  0  0  0
    2.4009    1.8005   -2.2033 H   0  0  0  0  0  0  0  0  0  0  0  0
    2.8236   -0.4979   -0.1830 H   0  0  0  0  0  0  0  0  0  0  0  0
    4.8616    2.0050   -2.0313 H   0  0  0  0  0  0  0  0  0  0  0  0
    7.0140    1.5041   -3.1158 H   0  0  0  0  0  0  0  0  0  0  0  0
    7.7795   -0.8436   -3.3564 H   0  0  0  0  0  0  0  0  0  0  0  0
    6.3709   -2.6975   -2.4972 H   0  0  0  0  0  0  0  0  0  0  0  0
    4.2047   -2.2170   -1.4209 H   0  0  0  0  0  0  0  0  0  0  0  0
   -1.2090    1.4646    0.7238 H   0  0  0  0  0  0  0  0  0  0  0  0
   -1.9906    1.6955    3.4894 H   0  0  0  0  0  0  0  0  0  0  0  0
   -3.1210   -0.1244    4.7289 H   0  0  0  0  0  0  0  0  0  0  0  0
   -2.2217   -1.3572    3.7670 H   0  0  0  0  0  0  0  0  0  0  0  0
   -4.5131    1.5712    3.6692 H   0  0  0  0  0  0  0  0  0  0  0  0
   -5.4527    0.4201    2.7100 H   0  0  0  0  0  0  0  0  0  0  0  0
   -4.6360    1.7894    1.9224 H   0  0  0  0  0  0  0  0  0  0  0  0
   -3.3597   -2.6021    2.2102 H   0  0  0  0  0  0  0  0  0  0  0  0
   -3.4310   -3.9201    0.1442 H   0  0  0  0  0  0  0  0  0  0  0  0
   -3.5072   -2.7927   -2.0651 H   0  0  0  0  0  0  0  0  0  0  0  0
   -3.5218   -0.3155   -2.1800 H   0  0  0  0  0  0  0  0  0  0  0  0
   -3.4485    1.0216   -0.1164 H   0  0  0  0  0  0  0  0  0  0  0  0
  1  2  1  0
  2  3  1  0
  3  4  2  3
  4  5  1  0
  5  6  2  0
  6  7  1  0
  7  8  2  0
  8  9  1  0
  9 10  2  0
  2 11  2  3
 11 12  1  0
 12 13  1  0
 13 14  2  0
 13 15  1  0
 15 16  1  0
 16 17  1  0
 17 18  1  0
 17 19  1  0
 19 20  2  0
 20 21  1  0
 21 22  2  0
 22 23  1  0
 23 24  2  0
 10  5  1  0
 17 15  1  0
 24 19  1  0
  1 25  1  0
  1 26  1  0
  1 27  1  0
  3 28  1  0
  4 29  1  0
  6 30  1  0
  7 31  1  0
  8 32  1  0
  9 33  1  0
 10 34  1  0
 12 35  1  0
 15 36  1  0
 16 37  1  0
 16 38  1  0
 18 39  1  0
 18 40  1  0
 18 41  1  0
 20 42  1  0
 21 43  1  0
 22 44  1  0
 23 45  1  0
 24 46  1  0
M  END
$$$$
