
     RDKit          3D

 52 55  0  0  0  0  0  0  0  0999 V2000
    5.8570   -1.4979   -0.9636 C   0  0  0  0  0  0  0  0  0  0  0  0
    5.2262   -0.5969   -0.0608 O   0  0  0  0  0  0  0  0  0  0  0  0
    4.0286   -0.0657   -0.4583 C   0  0  0  0  0  0  0  0  0  0  0  0
    3.4747    0.8584    0.4276 C   0  0  0  0  0  0  0  0  0  0  0  0
    2.2602    1.4874    0.1354 C   0  0  0  0  0  0  0  0  0  0  0  0
    1.5774    1.2013   -1.0514 C   0  0  0  0  0  0  0  0  0  0  0  0
    0.3604    1.8740   -1.2722 N   0  0  0  0  0  0  0  0  0  0  0  0
   -0.4807    1.7624   -2.3679 C   0  0  0  0  0  0  0  0  0  0  0  0
   -0.2653    1.1166   -3.3906 O   0  0  0  0  0  0  0  0  0  0  0  0
   -1.7743    2.5456   -2.1999 C   0  0  0  0  0  0  0  0  0  0  0  0
   -3.0601    1.5086   -1.4503 S   0  0  0  0  0  0  0  0  0  0  0  0
   -2.3255    1.2009    0.1194 C   0  0  0  0  0  0  0  0  0  0  0  0
   -1.8793    2.2488    0.7506 N   0  0  0  0  0  0  0  0  0  0  0  0
   -1.2983    2.0209    1.9637 C   0  0  0  0  0  0  0  0  0  0  0  0
   -1.1192    0.8246    2.5170 C   0  0  0  0  0  0  0  0  0  0  0  0
   -1.6036   -0.3830    1.8159 C   0  0  0  0  0  0  0  0  0  0  0  0
   -1.4917   -1.4949    2.3275 O   0  0  0  0  0  0  0  0  0  0  0  0
   -2.2318   -0.1070    0.5938 N   0  0  0  0  0  0  0  0  0  0  0  0
   -2.6654   -1.2283   -0.1725 C   0  0  0  0  0  0  0  0  0  0  0  0
   -4.0341   -1.4495   -0.3801 C   0  0  0  0  0  0  0  0  0  0  0  0
   -4.4592   -2.5556   -1.1173 C   0  0  0  0  0  0  0  0  0  0  0  0
   -3.5225   -3.4409   -1.6516 C   0  0  0  0  0  0  0  0  0  0  0  0
   -2.1578   -3.2319   -1.4433 C   0  0  0  0  0  0  0  0  0  0  0  0
   -1.7254   -2.1377   -0.6896 C   0  0  0  0  0  0  0  0  0  0  0  0
   -0.3940   -1.8480   -0.5175 O   0  0  0  0  0  0  0  0  0  0  0  0
    0.3735   -2.9668   -0.0855 C   0  0  0  0  0  0  0  0  0  0  0  0
   -0.3388    0.8275    4.0466 S   0  0  0  0  0  0  0  0  0  0  0  0
   -0.5214    2.6370    4.2000 C   0  0  0  0  0  0  0  0  0  0  0  0
   -0.7849    3.1660    2.7859 C   0  0  0  0  0  0  0  0  0  0  0  0
    2.1265    0.2678   -1.9299 C   0  0  0  0  0  0  0  0  0  0  0  0
    3.3449   -0.3645   -1.6349 C   0  0  0  0  0  0  0  0  0  0  0  0
    6.8200   -1.7864   -0.5289 H   0  0  0  0  0  0  0  0  0  0  0  0
    5.2597   -2.4088   -1.0897 H   0  0  0  0  0  0  0  0  0  0  0  0
    6.0573   -1.0192   -1.9283 H   0  0  0  0  0  0  0  0  0  0  0  0
    3.9973    1.0948    1.3513 H   0  0  0  0  0  0  0  0  0  0  0  0
    1.8674    2.2051    0.8491 H   0  0  0  0  0  0  0  0  0  0  0  0
    0.0394    2.4742   -0.5202 H   0  0  0  0  0  0  0  0  0  0  0  0
   -1.6092    3.4561   -1.6155 H   0  0  0  0  0  0  0  0  0  0  0  0
   -2.1119    2.8631   -3.1922 H   0  0  0  0  0  0  0  0  0  0  0  0
   -4.7728   -0.7714    0.0356 H   0  0  0  0  0  0  0  0  0  0  0  0
   -5.5203   -2.7245   -1.2809 H   0  0  0  0  0  0  0  0  0  0  0  0
   -3.8561   -4.2923   -2.2409 H   0  0  0  0  0  0  0  0  0  0  0  0
   -1.4451   -3.9131   -1.8968 H   0  0  0  0  0  0  0  0  0  0  0  0
    1.2955   -2.5874    0.3589 H   0  0  0  0  0  0  0  0  0  0  0  0
   -0.1498   -3.5556    0.6778 H   0  0  0  0  0  0  0  0  0  0  0  0
    0.6489   -3.5942   -0.9374 H   0  0  0  0  0  0  0  0  0  0  0  0
    0.3707    3.0864    4.6421 H   0  0  0  0  0  0  0  0  0  0  0  0
   -1.3755    2.8424    4.8532 H   0  0  0  0  0  0  0  0  0  0  0  0
   -1.5046    3.9897    2.8219 H   0  0  0  0  0  0  0  0  0  0  0  0
    0.1396    3.5521    2.3419 H   0  0  0  0  0  0  0  0  0  0  0  0
    1.6274   -0.0065   -2.8543 H   0  0  0  0  0  0  0  0  0  0  0  0
    3.7256   -1.0839   -2.3525 H   0  0  0  0  0  0  0  0  0  0  0  0
  1  2  1  0
  2  3  1  0
  3  4  2  0
  4  5  1  0
  5  6  2  0
  6  7  1  0
  7  8  1  0
  8  9  2  0
  8 10  1  0
 10 11  1  0
 11 12  1  0
 12 13  2  0
 13 14  1  0
 14 15  2  0
 15 16  1  0
 16 17  2  0
 16 18  1  0
 18 19  1  0
 19 20  2  0
 20 21  1  0
 21 22  2  0
 22 23  1  0
 23 24  2  0
 24 25  1  0
 25 26  1  0
 15 27  1  0
 27 28  1  0
 28 29  1  0
  6 30  1  0
 30 31  2  0
 31  3  1  0
 18 12  1  0
 24 19  1  0
 29 14  1  0
  1 32  1  0
  1 33  1  0
  1 34  1  0
  4 35  1  0
  5 36  1  0
  7 37  1  0
 10 38  1  0
 10 39  1  0
 20 40  1  0
 21 41  1  0
 22 42  1  0
 23 43  1  0
 26 44  1  0
 26 45  1  0
 26 46  1  0
 28 47  1  0
 28 48  1  0
 29 49  1  0
 29 50  1  0
 30 51  1  0
 31 52  1  0
M  END
$$$$
