
     RDKit          3D

 41 43  0  0  0  0  0  0  0  0999 V2000
    8.0151    0.0641    1.7841 C   0  0  0  0  0  0  0  0  0  0  0  0
    6.6963    0.1371    1.5464 C   0  0  0  0  0  0  0  0  0  0  0  0
    6.0199   -0.9336    0.8249 C   0  0  0  0  0  0  0  0  0  0  0  0
    4.6969   -0.8661    0.5888 C   0  0  0  0  0  0  0  0  0  0  0  0
    3.8921    0.2867    1.0505 C   0  0  0  0  0  0  0  0  0  0  0  0
    2.5569    0.3503    0.8176 C   0  0  0  0  0  0  0  0  0  0  0  0
    1.8308   -0.6056    0.1592 N   0  0  0  0  0  0  0  0  0  0  0  0
    0.4841   -0.4098   -0.0054 C   0  0  0  0  0  0  0  0  0  0  0  0
   -0.2503   -1.2050   -0.5662 O   0  0  0  0  0  0  0  0  0  0  0  0
    0.1090    0.8940    0.6062 C   0  0  0  0  0  0  0  0  0  0  0  0
   -1.1060    1.4596    0.6584 C   0  0  0  0  0  0  0  0  0  0  0  0
   -2.3442    0.9168    0.0953 C   0  0  0  0  0  0  0  0  0  0  0  0
   -3.3973    0.5746    0.9504 C   0  0  0  0  0  0  0  0  0  0  0  0
   -4.6066    0.0872    0.4366 C   0  0  0  0  0  0  0  0  0  0  0  0
   -4.7792   -0.0649   -0.9414 C   0  0  0  0  0  0  0  0  0  0  0  0
   -5.9200   -0.5214   -1.5469 O   0  0  0  0  0  0  0  0  0  0  0  0
   -7.0376   -0.7913   -0.7128 C   0  0  0  0  0  0  0  0  0  0  0  0
   -3.7122    0.2672   -1.7897 C   0  0  0  0  0  0  0  0  0  0  0  0
   -3.8275    0.1631   -3.1547 O   0  0  0  0  0  0  0  0  0  0  0  0
   -3.5285   -1.1726   -3.5610 C   0  0  0  0  0  0  0  0  0  0  0  0
   -2.5148    0.7791   -1.2833 C   0  0  0  0  0  0  0  0  0  0  0  0
    1.5050    1.6560    1.3122 S   0  0  0  0  0  0  0  0  0  0  0  0
    4.6076    1.3623    1.7727 C   0  0  0  0  0  0  0  0  0  0  0  0
    5.9304    1.2890    2.0057 C   0  0  0  0  0  0  0  0  0  0  0  0
    8.5441    0.8473    2.3185 H   0  0  0  0  0  0  0  0  0  0  0  0
    8.6109   -0.7808    1.4537 H   0  0  0  0  0  0  0  0  0  0  0  0
    6.5970   -1.7859    0.4793 H   0  0  0  0  0  0  0  0  0  0  0  0
    4.2329   -1.6807    0.0478 H   0  0  0  0  0  0  0  0  0  0  0  0
    2.2264   -1.4546   -0.2114 H   0  0  0  0  0  0  0  0  0  0  0  0
   -1.2363    2.4133    1.1667 H   0  0  0  0  0  0  0  0  0  0  0  0
   -3.2876    0.6823    2.0277 H   0  0  0  0  0  0  0  0  0  0  0  0
   -5.3914   -0.1634    1.1424 H   0  0  0  0  0  0  0  0  0  0  0  0
   -6.8232   -1.6121   -0.0208 H   0  0  0  0  0  0  0  0  0  0  0  0
   -7.3575    0.1071   -0.1746 H   0  0  0  0  0  0  0  0  0  0  0  0
   -7.8657   -1.1062   -1.3548 H   0  0  0  0  0  0  0  0  0  0  0  0
   -2.5054   -1.4510   -3.2824 H   0  0  0  0  0  0  0  0  0  0  0  0
   -3.6043   -1.2138   -4.6522 H   0  0  0  0  0  0  0  0  0  0  0  0
   -4.2438   -1.8914   -3.1460 H   0  0  0  0  0  0  0  0  0  0  0  0
   -1.7212    1.0511   -1.9737 H   0  0  0  0  0  0  0  0  0  0  0  0
    4.0674    2.2341    2.1269 H   0  0  0  0  0  0  0  0  0  0  0  0
    6.4378    2.0881    2.5369 H   0  0  0  0  0  0  0  0  0  0  0  0
  1  2  2  0
  2  3  1  0
  3  4  2  0
  4  5  1  0
  5  6  2  3
  6  7  1  0
  7  8  1  0
  8  9  2  0
  8 10  1  0
 10 11  2  3
 11 12  1  0
 12 13  2  0
 13 14  1  0
 14 15  2  0
 15 16  1  0
 16 17  1  0
 15 18  1  0
 18 19  1  0
 19 20  1  0
 18 21  2  0
 10 22  1  0
  5 23  1  0
 23 24  2  0
 24  2  1  0
 22  6  1  0
 21 12  1  0
  1 25  1  0
  1 26  1  0
  3 27  1  0
  4 28  1  0
  7 29  1  0
 11 30  1  0
 13 31  1  0
 14 32  1  0
 17 33  1  0
 17 34  1  0
 17 35  1  0
 20 36  1  0
 20 37  1  0
 20 38  1  0
 21 39  1  0
 23 40  1  0
 24 41  1  0
M  END
$$$$
