
     RDKit          3D

 53 58  0  0  0  0  0  0  0  0999 V2000
   -0.9629   -1.5039   -1.4564 O   0  0  0  0  0  0  0  0  0  0  0  0
   -1.4872   -1.0163   -0.4506 C   0  0  0  0  0  0  0  0  0  0  0  0
   -0.7273   -1.1375    0.8885 C   0  0  0  0  0  0  0  0  0  0  0  0
    0.7183   -0.9211    0.6837 N   0  0  0  0  0  4  0  0  0  0  0  0
    1.4382    0.2367    0.9753 C   0  0  0  0  0  0  0  0  0  0  0  0
    2.7580    0.0613    0.5754 C   0  0  0  0  0  0  0  0  0  0  0  0
    3.9157    1.1198    0.6891 C   0  0  0  0  0  0  0  0  0  0  0  0
    3.6715    2.3587    1.2978 C   0  0  0  0  0  0  0  0  0  0  0  0
    4.6955    3.3063    1.4030 C   0  0  0  0  0  0  0  0  0  0  0  0
    5.9611    3.0204    0.8990 C   0  0  0  0  0  0  0  0  0  0  0  0
    7.2182    4.1842    1.0282 Cl  0  0  0  0  0  0  0  0  0  0  0  0
    6.2099    1.7943    0.2883 C   0  0  0  0  0  0  0  0  0  0  0  0
    5.1879    0.8439    0.1818 C   0  0  0  0  0  0  0  0  0  0  0  0
    2.7684   -1.2273    0.0726 N   0  0  0  0  0  0  0  0  0  0  0  0
    1.5548   -1.7739    0.0989 C   0  0  0  0  0  0  0  0  0  0  0  0
    1.5193   -3.1419   -0.4706 C   0  0  0  0  0  0  0  0  0  0  0  0
    3.0176   -3.4967   -0.5393 C   0  0  0  0  0  0  0  0  0  0  0  0
    3.7524   -2.1287   -0.5110 C   0  0  0  0  0  0  0  0  0  0  0  0
   -2.6583   -0.2389   -0.4202 N   0  0  0  0  0  0  0  0  0  0  0  0
   -3.5115   -0.1981    0.7400 C   0  0  0  0  0  0  0  0  0  0  0  0
   -3.6825   -1.3641    1.5140 C   0  0  0  0  0  0  0  0  0  0  0  0
   -4.4896   -1.3665    2.6545 C   0  0  0  0  0  0  0  0  0  0  0  0
   -5.1534   -0.2077    3.0354 C   0  0  0  0  0  0  0  0  0  0  0  0
   -5.0285    0.9444    2.2627 C   0  0  0  0  0  0  0  0  0  0  0  0
   -4.2282    0.9496    1.1111 C   0  0  0  0  0  0  0  0  0  0  0  0
   -4.1215    2.4514    0.1803 S   0  0  0  0  0  0  0  0  0  0  0  0
   -3.7841    1.7466   -1.4179 C   0  0  0  0  0  0  0  0  0  0  0  0
   -4.1763    2.4955   -2.5394 C   0  0  0  0  0  0  0  0  0  0  0  0
   -3.8880    2.0490   -3.8245 C   0  0  0  0  0  0  0  0  0  0  0  0
   -3.2008    0.8555   -3.9935 C   0  0  0  0  0  0  0  0  0  0  0  0
   -2.8021    0.1090   -2.8785 C   0  0  0  0  0  0  0  0  0  0  0  0
   -3.0849    0.5314   -1.5670 C   0  0  0  0  0  0  0  0  0  0  0  0
   -0.8636   -2.1451    1.2928 H   0  0  0  0  0  0  0  0  0  0  0  0
   -1.0617   -0.3999    1.6229 H   0  0  0  0  0  0  0  0  0  0  0  0
    0.9075    1.0591    1.4247 H   0  0  0  0  0  0  0  0  0  0  0  0
    2.6994    2.6215    1.7050 H   0  0  0  0  0  0  0  0  0  0  0  0
    4.5009    4.2656    1.8783 H   0  0  0  0  0  0  0  0  0  0  0  0
    7.1982    1.5744   -0.1105 H   0  0  0  0  0  0  0  0  0  0  0  0
    5.4215   -0.0897   -0.3134 H   0  0  0  0  0  0  0  0  0  0  0  0
    0.9463   -3.7913    0.1918 H   0  0  0  0  0  0  0  0  0  0  0  0
    1.0729   -3.0663   -1.4632 H   0  0  0  0  0  0  0  0  0  0  0  0
    3.2920   -4.0658    0.3569 H   0  0  0  0  0  0  0  0  0  0  0  0
    3.2752   -4.0997   -1.4140 H   0  0  0  0  0  0  0  0  0  0  0  0
    3.9888   -1.7854   -1.5223 H   0  0  0  0  0  0  0  0  0  0  0  0
    4.6522   -2.1807    0.1058 H   0  0  0  0  0  0  0  0  0  0  0  0
   -3.2468   -2.3136    1.2117 H   0  0  0  0  0  0  0  0  0  0  0  0
   -4.6230   -2.2794    3.2320 H   0  0  0  0  0  0  0  0  0  0  0  0
   -5.7905   -0.2044    3.9176 H   0  0  0  0  0  0  0  0  0  0  0  0
   -5.5741    1.8391    2.5599 H   0  0  0  0  0  0  0  0  0  0  0  0
   -4.7075    3.4380   -2.4177 H   0  0  0  0  0  0  0  0  0  0  0  0
   -4.1997    2.6304   -4.6891 H   0  0  0  0  0  0  0  0  0  0  0  0
   -2.9803    0.4933   -4.9956 H   0  0  0  0  0  0  0  0  0  0  0  0
   -2.3075   -0.8354   -3.0842 H   0  0  0  0  0  0  0  0  0  0  0  0
  1  2  2  0
  2  3  1  0
  3  4  1  0
  4  5  1  0
  5  6  2  0
  6  7  1  0
  7  8  2  0
  8  9  1  0
  9 10  2  0
 10 11  1  0
 10 12  1  0
 12 13  2  0
  6 14  1  0
 14 15  1  0
 15 16  1  0
 16 17  1  0
 17 18  1  0
  2 19  1  0
 19 20  1  0
 20 21  2  0
 21 22  1  0
 22 23  2  0
 23 24  1  0
 24 25  2  0
 25 26  1  0
 26 27  1  0
 27 28  2  0
 28 29  1  0
 29 30  2  0
 30 31  1  0
 31 32  2  0
 15  4  2  0
 32 19  1  0
 13  7  1  0
 18 14  1  0
 25 20  1  0
 32 27  1  0
  3 33  1  0
  3 34  1  0
  5 35  1  0
  8 36  1  0
  9 37  1  0
 12 38  1  0
 13 39  1  0
 16 40  1  0
 16 41  1  0
 17 42  1  0
 17 43  1  0
 18 44  1  0
 18 45  1  0
 21 46  1  0
 22 47  1  0
 23 48  1  0
 24 49  1  0
 28 50  1  0
 29 51  1  0
 30 52  1  0
 31 53  1  0
M  CHG  1   4   1
M  END
$$$$
