
     RDKit          3D

 51 55  0  0  0  0  0  0  0  0999 V2000
    3.1358    1.2763    2.2697 F   0  0  0  0  0  0  0  0  0  0  0  0
    4.3484    1.3011    1.6972 C   0  0  0  0  0  0  0  0  0  0  0  0
    5.1493    2.4261    1.8664 C   0  0  0  0  0  0  0  0  0  0  0  0
    6.4086    2.4704    1.2714 C   0  0  0  0  0  0  0  0  0  0  0  0
    6.8558    1.3894    0.5105 C   0  0  0  0  0  0  0  0  0  0  0  0
    6.0463    0.2623    0.3439 C   0  0  0  0  0  0  0  0  0  0  0  0
    4.7808    0.2067    0.9419 C   0  0  0  0  0  0  0  0  0  0  0  0
    3.8874   -0.9951    0.7604 C   0  0  0  0  0  0  0  0  0  0  0  0
    2.7970   -0.7363   -0.2941 C   0  0  0  0  0  0  0  0  0  0  0  0
    1.9658   -1.9259   -0.5604 N   0  0  0  0  0  0  0  0  0  0  0  0
    1.0399   -2.2457    0.5526 C   0  0  0  0  0  0  0  0  0  0  0  0
   -0.1442   -1.2690    0.7342 C   0  0  0  0  0  0  0  0  0  0  0  0
   -0.9001   -1.1157   -0.5254 N   0  0  0  0  0  0  0  0  0  0  0  0
   -2.1455   -0.4934   -0.4525 C   0  0  0  0  0  0  0  0  0  0  0  0
   -2.3247    0.6511   -1.0631 N   0  0  0  0  0  0  0  0  0  0  0  0
   -3.5619    1.3207   -0.9808 C   0  0  0  0  0  0  0  0  0  0  0  0
   -3.6970    2.5464   -1.6357 C   0  0  0  0  0  0  0  0  0  0  0  0
   -4.8988    3.2575   -1.5789 C   0  0  0  0  0  0  0  0  0  0  0  0
   -5.9818    2.7465   -0.8625 C   0  0  0  0  0  0  0  0  0  0  0  0
   -5.8700    1.5234   -0.2003 C   0  0  0  0  0  0  0  0  0  0  0  0
   -4.6613    0.8239   -0.2657 C   0  0  0  0  0  0  0  0  0  0  0  0
   -4.4664   -0.4178    0.3602 N   0  0  0  0  0  0  0  0  0  0  0  0
   -5.3428   -1.1726    1.1037 C   0  0  0  0  0  0  0  0  0  0  0  0
   -4.7119   -2.3483    1.4497 C   0  0  0  0  0  0  0  0  0  0  0  0
   -3.4060   -2.2977    0.9094 C   0  0  0  0  0  0  0  0  0  0  0  0
   -3.2628   -1.0794    0.2697 C   0  0  0  0  0  0  0  0  0  0  0  0
   -0.0225   -0.7461   -1.6551 C   0  0  0  0  0  0  0  0  0  0  0  0
    1.1519   -1.7403   -1.7876 C   0  0  0  0  0  0  0  0  0  0  0  0
    4.7859    3.2594    2.4590 H   0  0  0  0  0  0  0  0  0  0  0  0
    7.0407    3.3455    1.3987 H   0  0  0  0  0  0  0  0  0  0  0  0
    7.8379    1.4239    0.0445 H   0  0  0  0  0  0  0  0  0  0  0  0
    6.4096   -0.5703   -0.2550 H   0  0  0  0  0  0  0  0  0  0  0  0
    3.4504   -1.2461    1.7337 H   0  0  0  0  0  0  0  0  0  0  0  0
    4.4921   -1.8625    0.4660 H   0  0  0  0  0  0  0  0  0  0  0  0
    2.1882    0.1291   -0.0073 H   0  0  0  0  0  0  0  0  0  0  0  0
    3.3085   -0.4522   -1.2241 H   0  0  0  0  0  0  0  0  0  0  0  0
    0.6300   -3.2465    0.3591 H   0  0  0  0  0  0  0  0  0  0  0  0
    1.5835   -2.3403    1.4982 H   0  0  0  0  0  0  0  0  0  0  0  0
    0.2146   -0.2877    1.0674 H   0  0  0  0  0  0  0  0  0  0  0  0
   -0.7841   -1.6576    1.5323 H   0  0  0  0  0  0  0  0  0  0  0  0
   -2.8547    2.9478   -2.1928 H   0  0  0  0  0  0  0  0  0  0  0  0
   -4.9872    4.2104   -2.0944 H   0  0  0  0  0  0  0  0  0  0  0  0
   -6.9149    3.3032   -0.8218 H   0  0  0  0  0  0  0  0  0  0  0  0
   -6.7260    1.1449    0.3481 H   0  0  0  0  0  0  0  0  0  0  0  0
   -6.3462   -0.8348    1.3177 H   0  0  0  0  0  0  0  0  0  0  0  0
   -5.1503   -3.1576    2.0193 H   0  0  0  0  0  0  0  0  0  0  0  0
   -2.6492   -3.0681    0.9758 H   0  0  0  0  0  0  0  0  0  0  0  0
    0.3559    0.2748   -1.5219 H   0  0  0  0  0  0  0  0  0  0  0  0
   -0.5950   -0.7703   -2.5904 H   0  0  0  0  0  0  0  0  0  0  0  0
    0.7461   -2.7219   -2.0672 H   0  0  0  0  0  0  0  0  0  0  0  0
    1.7948   -1.4414   -2.6246 H   0  0  0  0  0  0  0  0  0  0  0  0
  1  2  1  0
  2  3  2  0
  3  4  1  0
  4  5  2  0
  5  6  1  0
  6  7  2  0
  7  8  1  0
  8  9  1  0
  9 10  1  0
 10 11  1  0
 11 12  1  0
 12 13  1  0
 13 14  1  0
 14 15  2  0
 15 16  1  0
 16 17  2  0
 17 18  1  0
 18 19  2  0
 19 20  1  0
 20 21  2  0
 21 22  1  0
 22 23  1  0
 23 24  2  0
 24 25  1  0
 25 26  2  0
 13 27  1  0
 27 28  1  0
  7  2  1  0
 28 10  1  0
 26 14  1  0
 21 16  1  0
 26 22  1  0
  3 29  1  0
  4 30  1  0
  5 31  1  0
  6 32  1  0
  8 33  1  0
  8 34  1  0
  9 35  1  0
  9 36  1  0
 11 37  1  0
 11 38  1  0
 12 39  1  0
 12 40  1  0
 17 41  1  0
 18 42  1  0
 19 43  1  0
 20 44  1  0
 23 45  1  0
 24 46  1  0
 25 47  1  0
 27 48  1  0
 27 49  1  0
 28 50  1  0
 28 51  1  0
M  END
$$$$
