
     RDKit          3D

 50 53  0  0  0  0  0  0  0  0999 V2000
   -4.1292    3.3397    0.9966 C   0  0  0  0  0  0  0  0  0  0  0  0
   -3.3858    2.0963    0.7911 N   0  0  0  0  0  0  0  0  0  0  0  0
   -3.9109    1.3731   -0.3919 C   0  0  0  0  0  0  0  0  0  0  0  0
   -3.1583    0.0476   -0.6514 C   0  0  0  0  0  0  0  0  0  0  0  0
   -3.1474   -0.7865    0.5629 N   0  0  0  0  0  0  0  0  0  0  0  0
   -2.7024   -2.1086    0.4040 C   0  0  0  0  0  0  0  0  0  0  0  0
   -3.6893   -3.1066    0.4970 C   0  0  0  0  0  0  0  0  0  0  0  0
   -3.3739   -4.4569    0.3609 C   0  0  0  0  0  0  0  0  0  0  0  0
   -2.0578   -4.8335    0.1288 C   0  0  0  0  0  0  0  0  0  0  0  0
   -1.0575   -3.8628    0.0304 C   0  0  0  0  0  0  0  0  0  0  0  0
   -1.3598   -2.5016    0.1639 C   0  0  0  0  0  0  0  0  0  0  0  0
   -0.3754   -1.4919    0.0662 N   0  0  0  0  0  0  0  0  0  0  0  0
    0.9843   -1.6089   -0.1619 C   0  0  0  0  0  0  0  0  0  0  0  0
    1.5748   -2.6738   -0.3148 O   0  0  0  0  0  0  0  0  0  0  0  0
    1.6818   -0.3275   -0.2087 C   0  0  0  0  0  0  0  0  0  0  0  0
    1.2839    0.9905   -0.0589 C   0  0  0  0  0  0  0  0  0  0  0  0
    2.4430    1.7930   -0.2202 C   0  0  0  0  0  0  0  0  0  0  0  0
    3.4935    0.9316   -0.4604 C   0  0  0  0  0  0  0  0  0  0  0  0
    4.9231    1.0980   -0.7116 C   0  0  0  0  0  0  0  0  0  0  0  0
    5.7710   -0.0129   -0.8449 C   0  0  0  0  0  0  0  0  0  0  0  0
    7.1397    0.1487   -1.0830 C   0  0  0  0  0  0  0  0  0  0  0  0
    7.6854    1.4280   -1.1939 C   0  0  0  0  0  0  0  0  0  0  0  0
    9.3819    1.5592   -1.4886 Cl  0  0  0  0  0  0  0  0  0  0  0  0
    6.8553    2.5452   -1.0651 C   0  0  0  0  0  0  0  0  0  0  0  0
    7.4546    4.1622   -1.1899 Cl  0  0  0  0  0  0  0  0  0  0  0  0
    5.4846    2.3785   -0.8257 C   0  0  0  0  0  0  0  0  0  0  0  0
    3.0308   -0.3513   -0.4509 O   0  0  0  0  0  0  0  0  0  0  0  0
   -2.7493   -0.1134    1.8116 C   0  0  0  0  0  0  0  0  0  0  0  0
   -3.5176    1.2178    1.9783 C   0  0  0  0  0  0  0  0  0  0  0  0
   -5.1982    3.1647    1.1647 H   0  0  0  0  0  0  0  0  0  0  0  0
   -4.0200    3.9991    0.1281 H   0  0  0  0  0  0  0  0  0  0  0  0
   -3.7295    3.8853    1.8590 H   0  0  0  0  0  0  0  0  0  0  0  0
   -4.9803    1.1576   -0.2627 H   0  0  0  0  0  0  0  0  0  0  0  0
   -3.8094    2.0037   -1.2834 H   0  0  0  0  0  0  0  0  0  0  0  0
   -2.1430    0.2829   -0.9872 H   0  0  0  0  0  0  0  0  0  0  0  0
   -3.6608   -0.4849   -1.4682 H   0  0  0  0  0  0  0  0  0  0  0  0
   -4.7220   -2.8183    0.6790 H   0  0  0  0  0  0  0  0  0  0  0  0
   -4.1539   -5.2093    0.4369 H   0  0  0  0  0  0  0  0  0  0  0  0
   -1.8012   -5.8843    0.0219 H   0  0  0  0  0  0  0  0  0  0  0  0
   -0.0459   -4.2093   -0.1534 H   0  0  0  0  0  0  0  0  0  0  0  0
   -0.7432   -0.5627    0.1763 H   0  0  0  0  0  0  0  0  0  0  0  0
    0.2851    1.3512    0.1433 H   0  0  0  0  0  0  0  0  0  0  0  0
    2.4960    2.8712   -0.1651 H   0  0  0  0  0  0  0  0  0  0  0  0
    5.3715   -1.0239   -0.7620 H   0  0  0  0  0  0  0  0  0  0  0  0
    7.7707   -0.7319   -1.1797 H   0  0  0  0  0  0  0  0  0  0  0  0
    4.8574    3.2617   -0.7312 H   0  0  0  0  0  0  0  0  0  0  0  0
   -2.9736   -0.7551    2.6726 H   0  0  0  0  0  0  0  0  0  0  0  0
   -1.6753    0.0992    1.8302 H   0  0  0  0  0  0  0  0  0  0  0  0
   -3.1217    1.7319    2.8624 H   0  0  0  0  0  0  0  0  0  0  0  0
   -4.5760    0.9978    2.1736 H   0  0  0  0  0  0  0  0  0  0  0  0
  1  2  1  0
  2  3  1  0
  3  4  1  0
  4  5  1  0
  5  6  1  0
  6  7  2  0
  7  8  1  0
  8  9  2  0
  9 10  1  0
 10 11  2  0
 11 12  1  0
 12 13  1  0
 13 14  2  0
 13 15  1  0
 15 16  2  0
 16 17  1  0
 17 18  2  0
 18 19  1  0
 19 20  2  0
 20 21  1  0
 21 22  2  0
 22 23  1  0
 22 24  1  0
 24 25  1  0
 24 26  2  0
 18 27  1  0
  5 28  1  0
 28 29  1  0
 29  2  1  0
 11  6  1  0
 27 15  1  0
 26 19  1  0
  1 30  1  0
  1 31  1  0
  1 32  1  0
  3 33  1  0
  3 34  1  0
  4 35  1  0
  4 36  1  0
  7 37  1  0
  8 38  1  0
  9 39  1  0
 10 40  1  0
 12 41  1  0
 16 42  1  0
 17 43  1  0
 20 44  1  0
 21 45  1  0
 26 46  1  0
 28 47  1  0
 28 48  1  0
 29 49  1  0
 29 50  1  0
M  END
$$$$
