
     RDKit          3D

 39 40  0  0  0  0  0  0  0  0999 V2000
   -0.9665    2.1136   -1.0669 C   0  0  0  0  0  0  0  0  0  0  0  0
   -1.7559    1.0014   -0.4047 C   0  0  0  0  0  0  0  0  0  0  0  0
   -1.8067    0.8462    0.9319 C   0  0  0  0  0  0  0  0  0  0  0  0
   -1.0397    1.7195    1.8601 C   0  0  0  0  0  0  0  0  0  0  0  0
    0.2416    1.8792    1.9700 N   0  0  0  0  0  0  0  0  0  0  0  0
    1.0513    1.0819    1.2166 N   0  0  0  0  0  0  0  0  0  0  0  0
    2.4201    1.2753    1.1995 C   0  0  0  0  0  0  0  0  0  0  0  0
    3.0027    2.1948    1.7685 O   0  0  0  0  0  0  0  0  0  0  0  0
    3.2134    0.2791    0.4069 C   0  0  0  0  0  0  0  0  0  0  0  0
    4.6070    0.4592    0.3718 C   0  0  0  0  0  0  0  0  0  0  0  0
    5.4151   -0.4241   -0.3422 C   0  0  0  0  0  0  0  0  0  0  0  0
    7.2872   -0.1656   -0.3793 Br  0  0  0  0  0  0  0  0  0  0  0  0
    4.8548   -1.4972   -1.0303 C   0  0  0  0  0  0  0  0  0  0  0  0
    3.4732   -1.6909   -1.0055 C   0  0  0  0  0  0  0  0  0  0  0  0
    2.6564   -0.8078   -0.2910 C   0  0  0  0  0  0  0  0  0  0  0  0
    1.3015   -1.0294   -0.2898 O   0  0  0  0  0  0  0  0  0  0  0  0
   -2.7066   -0.1689    1.5170 C   0  0  0  0  0  0  0  0  0  0  0  0
   -2.8980   -0.1831    2.7316 O   0  0  0  0  0  0  0  0  0  0  0  0
   -3.2893   -1.0557    0.6368 N   0  0  0  0  0  0  0  0  0  0  0  0
   -4.1388   -2.0985    1.1821 C   0  0  0  0  0  0  0  0  0  0  0  0
   -3.2501   -0.9205   -0.7433 C   0  0  0  0  0  0  0  0  0  0  0  0
   -3.8779   -1.6784   -1.4848 O   0  0  0  0  0  0  0  0  0  0  0  0
   -2.4659    0.1276   -1.2353 N   0  0  0  0  0  0  0  0  0  0  0  0
   -2.4218    0.2942   -2.6889 C   0  0  0  0  0  0  0  0  0  0  0  0
   -0.1035    1.7038   -1.6018 H   0  0  0  0  0  0  0  0  0  0  0  0
   -1.5918    2.6671   -1.7752 H   0  0  0  0  0  0  0  0  0  0  0  0
   -0.5952    2.8642   -0.3644 H   0  0  0  0  0  0  0  0  0  0  0  0
   -1.6742    2.3012    2.5518 H   0  0  0  0  0  0  0  0  0  0  0  0
    0.6721    0.2679    0.7383 H   0  0  0  0  0  0  0  0  0  0  0  0
    5.0587    1.2936    0.9067 H   0  0  0  0  0  0  0  0  0  0  0  0
    5.4855   -2.1865   -1.5869 H   0  0  0  0  0  0  0  0  0  0  0  0
    3.0562   -2.5341   -1.5495 H   0  0  0  0  0  0  0  0  0  0  0  0
    1.1203   -1.8539   -0.7786 H   0  0  0  0  0  0  0  0  0  0  0  0
   -3.8722   -2.3343    2.2163 H   0  0  0  0  0  0  0  0  0  0  0  0
   -5.1760   -1.7495    1.1512 H   0  0  0  0  0  0  0  0  0  0  0  0
   -4.0566   -3.0106    0.5827 H   0  0  0  0  0  0  0  0  0  0  0  0
   -2.9212   -0.5223   -3.2176 H   0  0  0  0  0  0  0  0  0  0  0  0
   -2.9281    1.2265   -2.9570 H   0  0  0  0  0  0  0  0  0  0  0  0
   -1.3812    0.3151   -3.0266 H   0  0  0  0  0  0  0  0  0  0  0  0
  1  2  1  0
  2  3  2  0
  3  4  1  0
  4  5  2  3
  5  6  1  0
  6  7  1  0
  7  8  2  0
  7  9  1  0
  9 10  2  0
 10 11  1  0
 11 12  1  0
 11 13  2  0
 13 14  1  0
 14 15  2  0
 15 16  1  0
  3 17  1  0
 17 18  2  0
 17 19  1  0
 19 20  1  0
 19 21  1  0
 21 22  2  0
 21 23  1  0
 23 24  1  0
 23  2  1  0
 15  9  1  0
  1 25  1  0
  1 26  1  0
  1 27  1  0
  4 28  1  0
  6 29  1  0
 10 30  1  0
 13 31  1  0
 14 32  1  0
 16 33  1  0
 20 34  1  0
 20 35  1  0
 20 36  1  0
 24 37  1  0
 24 38  1  0
 24 39  1  0
M  END
$$$$
