
     RDKit          3D

 44 46  0  0  0  0  0  0  0  0999 V2000
   -3.3489   -3.6740   -2.3656 C   0  0  0  0  0  0  0  0  0  0  0  0
   -3.2501   -2.2274   -1.9779 C   0  0  0  0  0  0  0  0  0  0  0  0
   -3.4147   -1.8426   -0.6401 C   0  0  0  0  0  0  0  0  0  0  0  0
   -3.2898   -0.5035   -0.2685 C   0  0  0  0  0  0  0  0  0  0  0  0
   -2.9729    0.4517   -1.2372 C   0  0  0  0  0  0  0  0  0  0  0  0
   -2.7961    2.1588   -0.7715 S   0  0  0  0  0  6  0  0  0  0  0  0
   -3.1270    2.9636   -1.9293 O   0  0  0  0  0  0  0  0  0  0  0  0
   -3.4710    2.3559    0.4940 O   0  0  0  0  0  0  0  0  0  0  0  0
   -1.1266    2.3207   -0.5494 N   0  0  0  0  0  0  0  0  0  0  0  0
   -0.4657    1.4400    0.3528 C   0  0  0  0  0  0  0  0  0  0  0  0
   -0.7068    1.5214    1.7241 C   0  0  0  0  0  0  0  0  0  0  0  0
   -0.0963    0.6260    2.6162 C   0  0  0  0  0  0  0  0  0  0  0  0
   -0.3899    0.7490    4.0839 C   0  0  0  0  0  0  0  0  0  0  0  0
    0.7672   -0.3530    2.0971 C   0  0  0  0  0  0  0  0  0  0  0  0
    1.3897   -1.2539    2.9223 O   0  0  0  0  0  0  0  0  0  0  0  0
    1.0122   -0.4408    0.7148 C   0  0  0  0  0  0  0  0  0  0  0  0
    2.0826   -1.6941    0.0199 S   0  0  0  0  0  0  0  0  0  0  0  0
    3.5954   -0.8342   -0.1149 C   0  0  0  0  0  0  0  0  0  0  0  0
    4.7406   -1.4810   -0.3596 N   0  0  0  0  0  0  0  0  0  0  0  0
    5.6205   -0.4713   -0.3963 N   0  0  0  0  0  0  0  0  0  0  0  0
    5.0069    0.7329   -0.2058 C   0  0  0  0  0  0  0  0  0  0  0  0
    5.7349    2.0175   -0.2052 C   0  0  0  0  0  0  0  0  0  0  0  0
    3.7189    0.5302   -0.0363 N   0  0  0  0  0  0  0  0  0  0  0  0
    0.3846    0.4605   -0.1533 C   0  0  0  0  0  0  0  0  0  0  0  0
   -2.8114    0.0848   -2.5758 C   0  0  0  0  0  0  0  0  0  0  0  0
   -2.9407   -1.2562   -2.9401 C   0  0  0  0  0  0  0  0  0  0  0  0
   -3.6943   -3.7792   -3.3994 H   0  0  0  0  0  0  0  0  0  0  0  0
   -4.0673   -4.2005   -1.7283 H   0  0  0  0  0  0  0  0  0  0  0  0
   -2.3704   -4.1545   -2.2688 H   0  0  0  0  0  0  0  0  0  0  0  0
   -3.6417   -2.5867    0.1210 H   0  0  0  0  0  0  0  0  0  0  0  0
   -3.4261   -0.2185    0.7723 H   0  0  0  0  0  0  0  0  0  0  0  0
   -0.6510    2.5404   -1.4233 H   0  0  0  0  0  0  0  0  0  0  0  0
   -1.3753    2.2935    2.1020 H   0  0  0  0  0  0  0  0  0  0  0  0
    0.5230    1.0028    4.6320 H   0  0  0  0  0  0  0  0  0  0  0  0
   -0.7992   -0.1907    4.4690 H   0  0  0  0  0  0  0  0  0  0  0  0
   -1.1272    1.5335    4.2855 H   0  0  0  0  0  0  0  0  0  0  0  0
    1.2357   -1.0201    3.8492 H   0  0  0  0  0  0  0  0  0  0  0  0
    6.6011   -0.6724   -0.5561 H   0  0  0  0  0  0  0  0  0  0  0  0
    6.1860    2.2050   -1.1844 H   0  0  0  0  0  0  0  0  0  0  0  0
    6.5282    2.0128    0.5488 H   0  0  0  0  0  0  0  0  0  0  0  0
    5.0556    2.8452    0.0213 H   0  0  0  0  0  0  0  0  0  0  0  0
    0.5642    0.3904   -1.2224 H   0  0  0  0  0  0  0  0  0  0  0  0
   -2.5850    0.8291   -3.3355 H   0  0  0  0  0  0  0  0  0  0  0  0
   -2.8023   -1.5414   -3.9812 H   0  0  0  0  0  0  0  0  0  0  0  0
  1  2  1  0
  2  3  2  0
  3  4  1  0
  4  5  2  0
  5  6  1  0
  6  7  2  0
  6  8  2  0
  6  9  1  0
  9 10  1  0
 10 11  2  0
 11 12  1  0
 12 13  1  0
 12 14  2  0
 14 15  1  0
 14 16  1  0
 16 17  1  0
 17 18  1  0
 18 19  2  0
 19 20  1  0
 20 21  1  0
 21 22  1  0
 21 23  2  0
 16 24  2  0
  5 25  1  0
 25 26  2  0
 26  2  1  0
 24 10  1  0
 23 18  1  0
  1 27  1  0
  1 28  1  0
  1 29  1  0
  3 30  1  0
  4 31  1  0
  9 32  1  0
 11 33  1  0
 13 34  1  0
 13 35  1  0
 13 36  1  0
 15 37  1  0
 20 38  1  0
 22 39  1  0
 22 40  1  0
 22 41  1  0
 24 42  1  0
 25 43  1  0
 26 44  1  0
M  END
$$$$
