
     RDKit          3D

 31 32  0  0  0  0  0  0  0  0999 V2000
    4.0644    1.0098    1.7969 O   0  0  0  0  0  0  0  0  0  0  0  0
    4.4700    0.7620    0.6619 C   0  0  0  0  0  0  0  0  0  0  0  0
    3.6941    0.2855   -0.3892 N   0  0  0  0  0  0  0  0  0  0  0  0
    2.3170   -0.0102   -0.3853 C   0  0  0  0  0  0  0  0  0  0  0  0
    1.4871    0.1315    0.7241 C   0  0  0  0  0  0  0  0  0  0  0  0
    0.1233   -0.1848    0.6379 C   0  0  0  0  0  0  0  0  0  0  0  0
   -0.4407   -0.6573   -0.5496 C   0  0  0  0  0  0  0  0  0  0  0  0
   -1.8076   -0.9467   -0.6898 N   0  0  0  0  0  0  0  0  0  0  0  0
   -2.9435   -0.4862   -0.0008 C   0  0  0  0  0  0  0  0  0  0  0  0
   -2.9867    0.7462    0.6605 C   0  0  0  0  0  0  0  0  0  0  0  0
   -4.1262    1.1478    1.3646 C   0  0  0  0  0  0  0  0  0  0  0  0
   -5.2398    0.3147    1.4242 C   0  0  0  0  0  0  0  0  0  0  0  0
   -5.2140   -0.9181    0.7788 C   0  0  0  0  0  0  0  0  0  0  0  0
   -4.0733   -1.3143    0.0746 C   0  0  0  0  0  0  0  0  0  0  0  0
    0.3995   -0.7925   -1.6606 C   0  0  0  0  0  0  0  0  0  0  0  0
    1.7613   -0.4760   -1.5808 C   0  0  0  0  0  0  0  0  0  0  0  0
    5.9424    0.9736    0.3070 C   0  0  0  0  0  0  0  0  0  0  0  0
    6.6596   -0.5738   -0.1963 Cl  0  0  0  0  0  0  0  0  0  0  0  0
    6.0708    2.1661   -1.0058 Cl  0  0  0  0  0  0  0  0  0  0  0  0
    4.1793    0.1346   -1.2681 H   0  0  0  0  0  0  0  0  0  0  0  0
    1.8601    0.4819    1.6809 H   0  0  0  0  0  0  0  0  0  0  0  0
   -0.4847   -0.0856    1.5336 H   0  0  0  0  0  0  0  0  0  0  0  0
   -2.0144   -1.6284   -1.4104 H   0  0  0  0  0  0  0  0  0  0  0  0
   -2.1420    1.4277    0.6085 H   0  0  0  0  0  0  0  0  0  0  0  0
   -4.1409    2.1139    1.8622 H   0  0  0  0  0  0  0  0  0  0  0  0
   -6.1248    0.6258    1.9727 H   0  0  0  0  0  0  0  0  0  0  0  0
   -6.0780   -1.5755    0.8264 H   0  0  0  0  0  0  0  0  0  0  0  0
   -4.0698   -2.2883   -0.4078 H   0  0  0  0  0  0  0  0  0  0  0  0
   -0.0033   -1.1355   -2.6103 H   0  0  0  0  0  0  0  0  0  0  0  0
    2.3719   -0.5961   -2.4719 H   0  0  0  0  0  0  0  0  0  0  0  0
    6.4890    1.3480    1.1769 H   0  0  0  0  0  0  0  0  0  0  0  0
  1  2  2  0
  2  3  1  0
  3  4  1  0
  4  5  2  0
  5  6  1  0
  6  7  2  0
  7  8  1  0
  8  9  1  0
  9 10  2  0
 10 11  1  0
 11 12  2  0
 12 13  1  0
 13 14  2  0
  7 15  1  0
 15 16  2  0
  2 17  1  0
 17 18  1  0
 17 19  1  0
 16  4  1  0
 14  9  1  0
  3 20  1  0
  5 21  1  0
  6 22  1  0
  8 23  1  0
 10 24  1  0
 11 25  1  0
 12 26  1  0
 13 27  1  0
 14 28  1  0
 15 29  1  0
 16 30  1  0
 17 31  1  0
M  END
$$$$
