
     RDKit          3D

 34 36  0  0  0  0  0  0  0  0999 V2000
    3.4891    0.2837   -1.4841 C   0  0  0  0  0  0  0  0  0  0  0  0
    3.9814   -0.0626   -0.1688 N   0  0  0  0  0  0  0  0  0  0  0  0
    5.2151   -0.5996   -0.0647 N   0  0  0  0  0  0  0  0  0  0  0  0
    5.4077   -0.6861    1.2534 C   0  0  0  0  0  0  0  0  0  0  0  0
    4.2937   -0.2416    1.9845 C   0  0  0  0  0  0  0  0  0  0  0  0
    4.1739   -0.2289    3.6748 Cl  0  0  0  0  0  0  0  0  0  0  0  0
    3.3546    0.1240    1.0409 C   0  0  0  0  0  0  0  0  0  0  0  0
    2.0263    0.6517    1.2471 C   0  0  0  0  0  0  0  0  0  0  0  0
    1.8261    1.5788    2.0198 O   0  0  0  0  0  0  0  0  0  0  0  0
    1.0724   -0.0203    0.5079 N   0  0  0  0  0  0  0  0  0  0  0  0
   -0.2844    0.2554    0.4077 C   0  0  0  0  0  0  0  0  0  0  0  0
   -0.9830    1.6100    1.1860 S   0  0  0  0  0  0  0  0  0  0  0  0
   -2.4817    1.2293    0.5684 C   0  0  0  0  0  0  0  0  0  0  0  0
   -2.4983    0.1091   -0.2161 C   0  0  0  0  0  0  0  0  0  0  0  0
   -1.2112   -0.4966   -0.3250 C   0  0  0  0  0  0  0  0  0  0  0  0
   -0.8137   -1.6878   -1.0714 C   0  0  0  0  0  0  0  0  0  0  0  0
   -1.8146   -2.4965   -1.5228 N   0  0  0  0  0  0  0  0  0  0  0  0
    0.3624   -1.9876   -1.2673 O   0  0  0  0  0  0  0  0  0  0  0  0
   -3.8687   -0.1296   -0.7443 C   0  0  0  0  0  0  0  0  0  0  0  0
   -4.5927    1.2183   -0.4387 C   0  0  0  0  0  0  0  0  0  0  0  0
   -3.7921    1.9052    0.7060 C   0  0  0  0  0  0  0  0  0  0  0  0
    2.8390    1.1584   -1.4102 H   0  0  0  0  0  0  0  0  0  0  0  0
    2.9429   -0.5757   -1.8794 H   0  0  0  0  0  0  0  0  0  0  0  0
    4.3381    0.5217   -2.1307 H   0  0  0  0  0  0  0  0  0  0  0  0
    6.3480   -1.0726    1.6245 H   0  0  0  0  0  0  0  0  0  0  0  0
    1.3640   -0.8532   -0.0016 H   0  0  0  0  0  0  0  0  0  0  0  0
   -2.7502   -2.4313   -1.1533 H   0  0  0  0  0  0  0  0  0  0  0  0
   -1.5281   -3.3832   -1.9159 H   0  0  0  0  0  0  0  0  0  0  0  0
   -4.3501   -0.9498   -0.2015 H   0  0  0  0  0  0  0  0  0  0  0  0
   -3.8800   -0.3440   -1.8165 H   0  0  0  0  0  0  0  0  0  0  0  0
   -5.6472    1.0757   -0.1831 H   0  0  0  0  0  0  0  0  0  0  0  0
   -4.5535    1.8540   -1.3333 H   0  0  0  0  0  0  0  0  0  0  0  0
   -3.7415    2.9877    0.5607 H   0  0  0  0  0  0  0  0  0  0  0  0
   -4.2438    1.6839    1.6783 H   0  0  0  0  0  0  0  0  0  0  0  0
  1  2  1  0
  2  3  1  0
  3  4  2  0
  4  5  1  0
  5  6  1  0
  5  7  2  0
  7  8  1  0
  8  9  2  0
  8 10  1  0
 10 11  1  0
 11 12  1  0
 12 13  1  0
 13 14  2  0
 14 15  1  0
 15 16  1  0
 16 17  1  0
 16 18  2  0
 14 19  1  0
 19 20  1  0
 20 21  1  0
  7  2  1  0
 15 11  2  0
 21 13  1  0
  1 22  1  0
  1 23  1  0
  1 24  1  0
  4 25  1  0
 10 26  1  0
 17 27  1  0
 17 28  1  0
 19 29  1  0
 19 30  1  0
 20 31  1  0
 20 32  1  0
 21 33  1  0
 21 34  1  0
M  END
$$$$
