
     RDKit          3D

 33 34  0  0  0  0  0  0  0  0999 V2000
   -6.1443    0.9049   -1.2118 C   0  0  0  0  0  0  0  0  0  0  0  0
   -4.6510    0.9710   -0.9457 C   0  0  0  0  0  0  0  0  0  0  0  0
   -4.2664   -0.2378   -0.2936 O   0  0  0  0  0  0  0  0  0  0  0  0
   -2.9462   -0.3804    0.0311 C   0  0  0  0  0  0  0  0  0  0  0  0
   -1.9345    0.5491   -0.2143 C   0  0  0  0  0  0  0  0  0  0  0  0
   -0.6152    0.2756    0.1709 C   0  0  0  0  0  0  0  0  0  0  0  0
   -0.2995   -0.9356    0.7992 C   0  0  0  0  0  0  0  0  0  0  0  0
    1.0879   -1.2679    1.2284 C   0  0  0  0  0  0  0  0  0  0  0  0
    1.2824   -2.0726    2.1324 O   0  0  0  0  0  0  0  0  0  0  0  0
    2.1062   -0.6525    0.5361 N   0  0  0  0  0  0  0  0  0  0  0  0
    3.4782   -1.0368    0.7721 C   0  0  0  0  0  0  0  0  0  0  0  0
    4.3645   -0.0557    0.1016 C   0  0  0  0  0  0  0  0  0  0  0  0
    5.3274    0.8196    0.5596 C   0  0  0  0  0  0  0  0  0  0  0  0
    5.8261    1.4973   -0.5788 C   0  0  0  0  0  0  0  0  0  0  0  0
    5.1357    0.9963   -1.6570 C   0  0  0  0  0  0  0  0  0  0  0  0
    4.2433    0.0550   -1.2554 O   0  0  0  0  0  0  0  0  0  0  0  0
   -1.3170   -1.8587    1.0592 C   0  0  0  0  0  0  0  0  0  0  0  0
   -2.6304   -1.5813    0.6714 C   0  0  0  0  0  0  0  0  0  0  0  0
   -6.6981    0.7863   -0.2746 H   0  0  0  0  0  0  0  0  0  0  0  0
   -6.3864    0.0391   -1.8371 H   0  0  0  0  0  0  0  0  0  0  0  0
   -6.4911    1.8117   -1.7150 H   0  0  0  0  0  0  0  0  0  0  0  0
   -4.1220    1.0734   -1.9002 H   0  0  0  0  0  0  0  0  0  0  0  0
   -4.4399    1.8335   -0.3031 H   0  0  0  0  0  0  0  0  0  0  0  0
   -2.1376    1.5001   -0.6956 H   0  0  0  0  0  0  0  0  0  0  0  0
    0.1460    1.0308   -0.0045 H   0  0  0  0  0  0  0  0  0  0  0  0
    1.9092   -0.2491   -0.3701 H   0  0  0  0  0  0  0  0  0  0  0  0
    3.6662   -1.0732    1.8503 H   0  0  0  0  0  0  0  0  0  0  0  0
    3.6296   -2.0405    0.3612 H   0  0  0  0  0  0  0  0  0  0  0  0
    5.6296    0.9506    1.5897 H   0  0  0  0  0  0  0  0  0  0  0  0
    6.5937    2.2576   -0.6106 H   0  0  0  0  0  0  0  0  0  0  0  0
    5.1601    1.1944   -2.7196 H   0  0  0  0  0  0  0  0  0  0  0  0
   -1.0919   -2.7972    1.5616 H   0  0  0  0  0  0  0  0  0  0  0  0
   -3.4146   -2.3070    0.8740 H   0  0  0  0  0  0  0  0  0  0  0  0
  1  2  1  0
  2  3  1  0
  3  4  1  0
  4  5  2  0
  5  6  1  0
  6  7  2  0
  7  8  1  0
  8  9  2  0
  8 10  1  0
 10 11  1  0
 11 12  1  0
 12 13  2  0
 13 14  1  0
 14 15  2  0
 15 16  1  0
  7 17  1  0
 17 18  2  0
 18  4  1  0
 16 12  1  0
  1 19  1  0
  1 20  1  0
  1 21  1  0
  2 22  1  0
  2 23  1  0
  5 24  1  0
  6 25  1  0
 10 26  1  0
 11 27  1  0
 11 28  1  0
 13 29  1  0
 14 30  1  0
 15 31  1  0
 17 32  1  0
 18 33  1  0
M  END
$$$$
