
     RDKit          3D

 57 61  0  0  0  0  0  0  0  0999 V2000
    0.3372    3.0779   -0.6269 O   0  0  0  0  0  0  0  0  0  0  0  0
    0.1853    1.7548   -1.1680 C   0  0  0  0  0  0  0  0  0  0  0  0
    1.5817    1.1193   -1.2879 C   0  0  0  0  0  0  0  0  0  0  0  0
    2.2803    1.1750   -0.0084 N   0  0  0  0  0  0  0  0  0  0  0  0
    3.5453    0.6510    0.1368 C   0  0  0  0  0  0  0  0  0  0  0  0
    4.0092   -0.1773   -0.7634 N   0  0  0  0  0  0  0  0  0  0  0  0
    5.3085   -0.7081   -0.6358 C   0  0  0  0  0  0  0  0  0  0  0  0
    5.7600   -1.6001   -1.6118 C   0  0  0  0  0  0  0  0  0  0  0  0
    7.0426   -2.1508   -1.5367 C   0  0  0  0  0  0  0  0  0  0  0  0
    7.8919   -1.8049   -0.4824 C   0  0  0  0  0  0  0  0  0  0  0  0
    7.4617   -0.9149    0.5043 C   0  0  0  0  0  0  0  0  0  0  0  0
    6.1727   -0.3815    0.4212 C   0  0  0  0  0  0  0  0  0  0  0  0
    5.6521    0.4990    1.3850 N   0  0  0  0  0  0  0  0  0  0  0  0
    6.2270    0.9847    2.5359 C   0  0  0  0  0  0  0  0  0  0  0  0
    5.3081    1.7969    3.1652 C   0  0  0  0  0  0  0  0  0  0  0  0
    4.1349    1.8013    2.3736 C   0  0  0  0  0  0  0  0  0  0  0  0
    4.3762    1.0025    1.2701 C   0  0  0  0  0  0  0  0  0  0  0  0
   -0.7362    0.9249   -0.2489 C   0  0  0  0  0  0  0  0  0  0  0  0
   -2.1516    1.3527   -0.3365 N   0  0  0  0  0  0  0  0  0  0  0  0
   -2.8677    0.9606    0.9026 C   0  0  0  0  0  0  0  0  0  0  0  0
   -4.4031    0.8619    0.7441 C   0  0  0  0  0  0  0  0  0  0  0  0
   -4.7567   -0.1532   -0.2659 N   0  0  0  0  0  0  0  0  0  0  0  0
   -5.8065   -1.0316   -0.0329 C   0  0  0  0  0  0  0  0  0  0  0  0
   -6.9516   -0.6248    0.6745 C   0  0  0  0  0  0  0  0  0  0  0  0
   -8.0221   -1.4950    0.9169 C   0  0  0  0  0  0  0  0  0  0  0  0
   -7.9769   -2.8032    0.4474 C   0  0  0  0  0  0  0  0  0  0  0  0
   -6.8641   -3.2344   -0.2635 C   0  0  0  0  0  0  0  0  0  0  0  0
   -5.7999   -2.3553   -0.5064 C   0  0  0  0  0  0  0  0  0  0  0  0
   -3.7305   -0.4400   -1.2799 C   0  0  0  0  0  0  0  0  0  0  0  0
   -2.8359    0.8002   -1.5293 C   0  0  0  0  0  0  0  0  0  0  0  0
   -0.0874    3.6923   -1.2645 H   0  0  0  0  0  0  0  0  0  0  0  0
   -0.2383    1.8402   -2.1750 H   0  0  0  0  0  0  0  0  0  0  0  0
    2.1645    1.6860   -2.0268 H   0  0  0  0  0  0  0  0  0  0  0  0
    1.4925    0.0850   -1.6406 H   0  0  0  0  0  0  0  0  0  0  0  0
    2.1135    2.0541    0.4755 H   0  0  0  0  0  0  0  0  0  0  0  0
    5.1009   -1.8651   -2.4364 H   0  0  0  0  0  0  0  0  0  0  0  0
    7.3797   -2.8487   -2.3016 H   0  0  0  0  0  0  0  0  0  0  0  0
    8.8896   -2.2338   -0.4300 H   0  0  0  0  0  0  0  0  0  0  0  0
    8.1378   -0.6586    1.3135 H   0  0  0  0  0  0  0  0  0  0  0  0
    7.2326    0.7187    2.8288 H   0  0  0  0  0  0  0  0  0  0  0  0
    5.4670    2.3210    4.0976 H   0  0  0  0  0  0  0  0  0  0  0  0
    3.2136    2.3266    2.5878 H   0  0  0  0  0  0  0  0  0  0  0  0
   -0.3861    1.0739    0.7840 H   0  0  0  0  0  0  0  0  0  0  0  0
   -0.6527   -0.1482   -0.4722 H   0  0  0  0  0  0  0  0  0  0  0  0
   -2.6312    1.6880    1.6909 H   0  0  0  0  0  0  0  0  0  0  0  0
   -2.5082   -0.0223    1.2481 H   0  0  0  0  0  0  0  0  0  0  0  0
   -4.8152    0.6139    1.7270 H   0  0  0  0  0  0  0  0  0  0  0  0
   -4.8181    1.8283    0.4408 H   0  0  0  0  0  0  0  0  0  0  0  0
   -7.0432    0.4019    1.0222 H   0  0  0  0  0  0  0  0  0  0  0  0
   -8.8940   -1.1411    1.4588 H   0  0  0  0  0  0  0  0  0  0  0  0
   -8.8061   -3.4827    0.6292 H   0  0  0  0  0  0  0  0  0  0  0  0
   -6.8211   -4.2556   -0.6392 H   0  0  0  0  0  0  0  0  0  0  0  0
   -4.9507   -2.7417   -1.0595 H   0  0  0  0  0  0  0  0  0  0  0  0
   -4.2142   -0.7028   -2.2324 H   0  0  0  0  0  0  0  0  0  0  0  0
   -3.1031   -1.2869   -0.9625 H   0  0  0  0  0  0  0  0  0  0  0  0
   -3.4715    1.6024   -1.9264 H   0  0  0  0  0  0  0  0  0  0  0  0
   -2.1224    0.5671   -2.3267 H   0  0  0  0  0  0  0  0  0  0  0  0
  1  2  1  0
  2  3  1  0
  3  4  1  0
  4  5  1  0
  5  6  2  0
  6  7  1  0
  7  8  2  0
  8  9  1  0
  9 10  2  0
 10 11  1  0
 11 12  2  0
 12 13  1  0
 13 14  1  0
 14 15  2  0
 15 16  1  0
 16 17  2  0
  2 18  1  0
 18 19  1  0
 19 20  1  0
 20 21  1  0
 21 22  1  0
 22 23  1  0
 23 24  2  0
 24 25  1  0
 25 26  2  0
 26 27  1  0
 27 28  2  0
 22 29  1  0
 29 30  1  0
 17  5  1  0
 30 19  1  0
 12  7  1  0
 17 13  1  0
 28 23  1  0
  1 31  1  0
  2 32  1  0
  3 33  1  0
  3 34  1  0
  4 35  1  0
  8 36  1  0
  9 37  1  0
 10 38  1  0
 11 39  1  0
 14 40  1  0
 15 41  1  0
 16 42  1  0
 18 43  1  0
 18 44  1  0
 20 45  1  0
 20 46  1  0
 21 47  1  0
 21 48  1  0
 24 49  1  0
 25 50  1  0
 26 51  1  0
 27 52  1  0
 28 53  1  0
 29 54  1  0
 29 55  1  0
 30 56  1  0
 30 57  1  0
M  END
$$$$
