
     RDKit          3D

 46 48  0  0  0  0  0  0  0  0999 V2000
   -4.2111   -1.7815    2.8624 C   0  0  0  0  0  0  0  0  0  0  0  0
   -2.9635   -1.2926    2.8278 C   0  0  0  0  0  0  0  0  0  0  0  0
   -2.0765   -1.3197    1.6161 C   0  0  0  0  0  0  0  0  0  0  0  0
   -1.7353    0.0119    1.1506 N   0  0  0  0  0  0  0  0  0  0  0  0
   -0.6103    0.7444    1.4262 C   0  0  0  0  0  0  0  0  0  0  0  0
    0.6474    0.2149    2.4873 S   0  0  0  0  0  0  0  0  0  0  0  0
    1.8965    1.5179    2.2617 C   0  0  0  0  0  0  0  0  0  0  0  0
    2.8761    1.1840    1.1584 C   0  0  0  0  0  0  0  0  0  0  0  0
    2.6586    1.6309   -0.1511 C   0  0  0  0  0  0  0  0  0  0  0  0
    3.5657    1.3154   -1.1709 C   0  0  0  0  0  0  0  0  0  0  0  0
    4.7018    0.5423   -0.8972 C   0  0  0  0  0  0  0  0  0  0  0  0
    5.6382    0.2397   -2.0157 C   0  0  0  0  0  0  0  0  0  0  0  0
    5.5275    0.7056   -3.1402 O   0  0  0  0  0  0  0  0  0  0  0  0
    6.6031   -0.6227   -1.6095 O   0  0  0  0  0  0  0  0  0  0  0  0
    7.5366   -0.9817   -2.6281 C   0  0  0  0  0  0  0  0  0  0  0  0
    4.9205    0.0879    0.4088 C   0  0  0  0  0  0  0  0  0  0  0  0
    4.0123    0.4043    1.4263 C   0  0  0  0  0  0  0  0  0  0  0  0
   -0.6717    1.9051    0.8106 N   0  0  0  0  0  0  0  0  0  0  0  0
   -1.8618    1.9531    0.1246 N   0  0  0  0  0  0  0  0  0  0  0  0
   -2.4975    0.8166    0.3328 C   0  0  0  0  0  0  0  0  0  0  0  0
   -3.7942    0.5095   -0.1775 C   0  0  0  0  0  0  0  0  0  0  0  0
   -5.1927    1.2556    0.4677 S   0  0  0  0  0  0  0  0  0  0  0  0
   -6.1713    0.3308   -0.5910 C   0  0  0  0  0  0  0  0  0  0  0  0
   -7.5105    0.4384   -0.5717 N   0  0  0  0  0  0  0  0  0  0  0  0
   -5.5263   -0.4881   -1.3815 N   0  0  0  0  0  0  0  0  0  0  0  0
   -4.1552   -0.3554   -1.1975 C   0  0  0  0  0  0  0  0  0  0  0  0
   -3.2510   -1.1483   -2.0809 C   0  0  0  0  0  0  0  0  0  0  0  0
   -4.6784   -2.2308    1.9890 H   0  0  0  0  0  0  0  0  0  0  0  0
   -4.8024   -1.7403    3.7743 H   0  0  0  0  0  0  0  0  0  0  0  0
   -2.5447   -0.8563    3.7316 H   0  0  0  0  0  0  0  0  0  0  0  0
   -2.5448   -1.8542    0.7837 H   0  0  0  0  0  0  0  0  0  0  0  0
   -1.1577   -1.8667    1.8427 H   0  0  0  0  0  0  0  0  0  0  0  0
    1.4377    2.5022    2.0977 H   0  0  0  0  0  0  0  0  0  0  0  0
    2.4461    1.6091    3.2059 H   0  0  0  0  0  0  0  0  0  0  0  0
    1.7801    2.2309   -0.3879 H   0  0  0  0  0  0  0  0  0  0  0  0
    3.3789    1.6751   -2.1803 H   0  0  0  0  0  0  0  0  0  0  0  0
    8.1736   -0.1254   -2.8672 H   0  0  0  0  0  0  0  0  0  0  0  0
    8.1645   -1.7884   -2.2385 H   0  0  0  0  0  0  0  0  0  0  0  0
    7.0240   -1.3439   -3.5262 H   0  0  0  0  0  0  0  0  0  0  0  0
    5.7951   -0.5120    0.6515 H   0  0  0  0  0  0  0  0  0  0  0  0
    4.1997    0.0420    2.4370 H   0  0  0  0  0  0  0  0  0  0  0  0
   -8.0240   -0.3321   -0.9876 H   0  0  0  0  0  0  0  0  0  0  0  0
   -7.9451    0.8407    0.2496 H   0  0  0  0  0  0  0  0  0  0  0  0
   -2.3072   -0.6198   -2.2627 H   0  0  0  0  0  0  0  0  0  0  0  0
   -3.0288   -2.1178   -1.6250 H   0  0  0  0  0  0  0  0  0  0  0  0
   -3.7221   -1.3304   -3.0527 H   0  0  0  0  0  0  0  0  0  0  0  0
  1  2  2  0
  2  3  1  0
  3  4  1  0
  4  5  1  0
  5  6  1  0
  6  7  1  0
  7  8  1  0
  8  9  2  0
  9 10  1  0
 10 11  2  0
 11 12  1  0
 12 13  2  0
 12 14  1  0
 14 15  1  0
 11 16  1  0
 16 17  2  0
  5 18  2  0
 18 19  1  0
 19 20  2  0
 20 21  1  0
 21 22  1  0
 22 23  1  0
 23 24  1  0
 23 25  2  0
 25 26  1  0
 26 27  1  0
 20  4  1  0
 26 21  2  0
 17  8  1  0
  1 28  1  0
  1 29  1  0
  2 30  1  0
  3 31  1  0
  3 32  1  0
  7 33  1  0
  7 34  1  0
  9 35  1  0
 10 36  1  0
 15 37  1  0
 15 38  1  0
 15 39  1  0
 16 40  1  0
 17 41  1  0
 24 42  1  0
 24 43  1  0
 27 44  1  0
 27 45  1  0
 27 46  1  0
M  END
$$$$
