
     RDKit          3D

 49 53  0  0  0  0  0  0  0  0999 V2000
   -5.3812    0.6844   -1.5325 C   0  0  0  0  0  0  0  0  0  0  0  0
   -4.5972   -0.1491   -0.5627 C   0  0  0  0  0  0  0  0  0  0  0  0
   -5.2202   -0.7072    0.5621 C   0  0  0  0  0  0  0  0  0  0  0  0
   -4.5013   -1.5119    1.4501 C   0  0  0  0  0  0  0  0  0  0  0  0
   -3.1518   -1.7734    1.2203 C   0  0  0  0  0  0  0  0  0  0  0  0
   -2.5275   -1.2214    0.0988 C   0  0  0  0  0  0  0  0  0  0  0  0
   -0.8203   -1.5942   -0.2141 S   0  0  0  0  0  6  0  0  0  0  0  0
   -0.4567   -1.1189   -1.5335 O   0  0  0  0  0  0  0  0  0  0  0  0
   -0.6265   -2.9870    0.1385 O   0  0  0  0  0  0  0  0  0  0  0  0
    0.0010   -0.7125    0.9459 N   0  0  0  0  0  0  0  0  0  0  0  0
    0.2659    0.6462    0.6473 C   0  0  0  0  0  0  0  0  0  0  0  0
   -0.8181    1.3914    0.3636 N   0  0  0  0  0  0  0  0  0  0  0  0
   -0.6062    2.7046    0.1765 C   0  0  0  0  0  0  0  0  0  0  0  0
   -1.6805    3.5267   -0.1383 C   0  0  0  0  0  0  0  0  0  0  0  0
   -1.5105    4.8970   -0.3381 C   0  0  0  0  0  0  0  0  0  0  0  0
   -0.2442    5.4550   -0.2191 C   0  0  0  0  0  0  0  0  0  0  0  0
    0.8423    4.6384    0.0992 C   0  0  0  0  0  0  0  0  0  0  0  0
    0.6870    3.2723    0.2995 C   0  0  0  0  0  0  0  0  0  0  0  0
    1.7626    2.5194    0.6075 N   0  0  0  0  0  0  0  0  0  0  0  0
    1.5564    1.1937    0.7711 C   0  0  0  0  0  0  0  0  0  0  0  0
    2.6911    0.4334    1.1248 N   0  0  0  0  0  0  0  0  0  0  0  0
    3.1809   -0.7173    0.4573 C   0  0  0  0  0  0  0  0  0  0  0  0
    2.8689   -1.0091   -0.8883 C   0  0  0  0  0  0  0  0  0  0  0  0
    3.4002   -2.1360   -1.5268 C   0  0  0  0  0  0  0  0  0  0  0  0
    4.2588   -2.9357   -0.8076 C   0  0  0  0  0  0  0  0  0  0  0  0
    4.5944   -2.6443    0.4918 C   0  0  0  0  0  0  0  0  0  0  0  0
    4.0837   -1.5421    1.1454 C   0  0  0  0  0  0  0  0  0  0  0  0
    5.4617   -3.5494    1.0194 O   0  0  0  0  0  0  0  0  0  0  0  0
    5.6178   -4.4551   -0.0938 C   0  0  0  0  0  0  0  0  0  0  0  0
    4.8714   -4.0600   -1.2630 O   0  0  0  0  0  0  0  0  0  0  0  0
   -3.2457   -0.4269   -0.8012 C   0  0  0  0  0  0  0  0  0  0  0  0
   -4.7444    1.4460   -1.9949 H   0  0  0  0  0  0  0  0  0  0  0  0
   -5.8018    0.0488   -2.3177 H   0  0  0  0  0  0  0  0  0  0  0  0
   -6.1982    1.2089   -1.0261 H   0  0  0  0  0  0  0  0  0  0  0  0
   -6.2749   -0.5198    0.7530 H   0  0  0  0  0  0  0  0  0  0  0  0
   -4.9974   -1.9393    2.3180 H   0  0  0  0  0  0  0  0  0  0  0  0
   -2.5967   -2.4068    1.9079 H   0  0  0  0  0  0  0  0  0  0  0  0
    0.7754   -1.2395    1.3450 H   0  0  0  0  0  0  0  0  0  0  0  0
   -2.6719    3.0881   -0.2281 H   0  0  0  0  0  0  0  0  0  0  0  0
   -2.3655    5.5219   -0.5842 H   0  0  0  0  0  0  0  0  0  0  0  0
   -0.0978    6.5215   -0.3720 H   0  0  0  0  0  0  0  0  0  0  0  0
    1.8331    5.0769    0.1928 H   0  0  0  0  0  0  0  0  0  0  0  0
    3.4463    1.1210    1.1720 H   0  0  0  0  0  0  0  0  0  0  0  0
    2.2091   -0.3618   -1.4630 H   0  0  0  0  0  0  0  0  0  0  0  0
    3.1455   -2.3682   -2.5551 H   0  0  0  0  0  0  0  0  0  0  0  0
    4.3678   -1.3352    2.1716 H   0  0  0  0  0  0  0  0  0  0  0  0
    5.2844   -5.4524    0.2158 H   0  0  0  0  0  0  0  0  0  0  0  0
    6.6806   -4.5056   -0.3571 H   0  0  0  0  0  0  0  0  0  0  0  0
   -2.7500   -0.0158   -1.6785 H   0  0  0  0  0  0  0  0  0  0  0  0
  1  2  1  0
  2  3  2  0
  3  4  1  0
  4  5  2  0
  5  6  1  0
  6  7  1  0
  7  8  2  0
  7  9  2  0
  7 10  1  0
 10 11  1  0
 11 12  2  0
 12 13  1  0
 13 14  2  0
 14 15  1  0
 15 16  2  0
 16 17  1  0
 17 18  2  0
 18 19  1  0
 19 20  2  0
 20 21  1  0
 21 22  1  0
 22 23  2  0
 23 24  1  0
 24 25  2  0
 25 26  1  0
 26 27  2  0
 26 28  1  0
 28 29  1  0
 29 30  1  0
  6 31  2  0
 31  2  1  0
 20 11  1  0
 27 22  1  0
 18 13  1  0
 30 25  1  0
  1 32  1  0
  1 33  1  0
  1 34  1  0
  3 35  1  0
  4 36  1  0
  5 37  1  0
 10 38  1  0
 14 39  1  0
 15 40  1  0
 16 41  1  0
 17 42  1  0
 21 43  1  0
 23 44  1  0
 24 45  1  0
 27 46  1  0
 29 47  1  0
 29 48  1  0
 31 49  1  0
M  END
$$$$
