
     RDKit          3D

 49 51  0  0  0  0  0  0  0  0999 V2000
    5.1980    3.7611    1.0366 C   0  0  0  0  0  0  0  0  0  0  0  0
    4.5227    3.8294   -0.2109 O   0  0  0  0  0  0  0  0  0  0  0  0
    3.8249    2.7201   -0.6209 C   0  0  0  0  0  0  0  0  0  0  0  0
    3.6702    1.5578    0.1455 C   0  0  0  0  0  0  0  0  0  0  0  0
    2.9362    0.4789   -0.3496 C   0  0  0  0  0  0  0  0  0  0  0  0
    2.3491    0.5700   -1.6115 C   0  0  0  0  0  0  0  0  0  0  0  0
    1.4105   -0.7936   -2.2524 S   0  0  0  0  0  6  0  0  0  0  0  0
    1.5320   -1.9111   -1.3416 O   0  0  0  0  0  0  0  0  0  0  0  0
    1.7634   -0.9248   -3.6507 O   0  0  0  0  0  0  0  0  0  0  0  0
   -0.1741   -0.1985   -2.2184 N   0  0  0  0  0  0  0  0  0  0  0  0
   -0.8873   -0.2836   -0.9881 C   0  0  0  0  0  0  0  0  0  0  0  0
   -0.7096    0.6892   -0.0149 C   0  0  0  0  0  0  0  0  0  0  0  0
   -1.3627    0.5583    1.2058 C   0  0  0  0  0  0  0  0  0  0  0  0
   -2.2072   -0.5398    1.4557 C   0  0  0  0  0  0  0  0  0  0  0  0
   -2.3969   -1.5357    0.4709 C   0  0  0  0  0  0  0  0  0  0  0  0
   -1.7069   -1.3895   -0.7434 C   0  0  0  0  0  0  0  0  0  0  0  0
   -3.2417   -2.6767    0.7431 N   0  0  0  0  0  0  0  0  0  0  0  0
   -3.6074   -3.6019   -0.2474 C   0  0  0  0  0  0  0  0  0  0  0  0
   -4.1231   -4.9399    0.2354 C   0  0  0  0  0  0  0  0  0  0  0  0
   -3.5587   -3.4013   -1.4621 O   0  0  0  0  0  0  0  0  0  0  0  0
   -3.6935   -2.8467    2.1297 C   0  0  0  0  0  0  0  0  0  0  0  0
   -4.0656   -1.5303    2.7862 C   0  0  0  0  0  0  0  0  0  0  0  0
   -2.8520   -0.6260    2.8137 C   0  0  0  0  0  0  0  0  0  0  0  0
    2.5027    1.7170   -2.3965 C   0  0  0  0  0  0  0  0  0  0  0  0
    3.2390    2.7980   -1.9041 C   0  0  0  0  0  0  0  0  0  0  0  0
    3.4385    3.9723   -2.5873 O   0  0  0  0  0  0  0  0  0  0  0  0
    2.9777    4.0407   -3.9297 C   0  0  0  0  0  0  0  0  0  0  0  0
    5.7275    4.7076    1.1826 H   0  0  0  0  0  0  0  0  0  0  0  0
    4.4885    3.6471    1.8627 H   0  0  0  0  0  0  0  0  0  0  0  0
    5.9438    2.9593    1.0405 H   0  0  0  0  0  0  0  0  0  0  0  0
    4.1090    1.4612    1.1331 H   0  0  0  0  0  0  0  0  0  0  0  0
    2.8235   -0.4194    0.2542 H   0  0  0  0  0  0  0  0  0  0  0  0
   -0.6764   -0.4980   -3.0553 H   0  0  0  0  0  0  0  0  0  0  0  0
   -0.0763    1.5526   -0.1953 H   0  0  0  0  0  0  0  0  0  0  0  0
   -1.2138    1.3205    1.9683 H   0  0  0  0  0  0  0  0  0  0  0  0
   -1.7592   -2.1490   -1.5154 H   0  0  0  0  0  0  0  0  0  0  0  0
   -5.1844   -4.8628    0.4841 H   0  0  0  0  0  0  0  0  0  0  0  0
   -3.5488   -5.2999    1.0929 H   0  0  0  0  0  0  0  0  0  0  0  0
   -4.0050   -5.6771   -0.5654 H   0  0  0  0  0  0  0  0  0  0  0  0
   -2.8911   -3.3538    2.6797 H   0  0  0  0  0  0  0  0  0  0  0  0
   -4.5756   -3.4920    2.1672 H   0  0  0  0  0  0  0  0  0  0  0  0
   -4.8787   -1.0528    2.2243 H   0  0  0  0  0  0  0  0  0  0  0  0
   -4.4290   -1.7008    3.8056 H   0  0  0  0  0  0  0  0  0  0  0  0
   -2.1120   -1.0097    3.5269 H   0  0  0  0  0  0  0  0  0  0  0  0
   -3.1591    0.3700    3.1541 H   0  0  0  0  0  0  0  0  0  0  0  0
    2.0373    1.7428   -3.3765 H   0  0  0  0  0  0  0  0  0  0  0  0
    3.4418    3.2661   -4.5491 H   0  0  0  0  0  0  0  0  0  0  0  0
    3.2743    5.0127   -4.3357 H   0  0  0  0  0  0  0  0  0  0  0  0
    1.8853    3.9821   -3.9733 H   0  0  0  0  0  0  0  0  0  0  0  0
  1  2  1  0
  2  3  1  0
  3  4  2  0
  4  5  1  0
  5  6  2  0
  6  7  1  0
  7  8  2  0
  7  9  2  0
  7 10  1  0
 10 11  1  0
 11 12  2  0
 12 13  1  0
 13 14  2  0
 14 15  1  0
 15 16  2  0
 15 17  1  0
 17 18  1  0
 18 19  1  0
 18 20  2  0
 17 21  1  0
 21 22  1  0
 22 23  1  0
  6 24  1  0
 24 25  2  0
 25 26  1  0
 26 27  1  0
 25  3  1  0
 16 11  1  0
 23 14  1  0
  1 28  1  0
  1 29  1  0
  1 30  1  0
  4 31  1  0
  5 32  1  0
 10 33  1  0
 12 34  1  0
 13 35  1  0
 16 36  1  0
 19 37  1  0
 19 38  1  0
 19 39  1  0
 21 40  1  0
 21 41  1  0
 22 42  1  0
 22 43  1  0
 23 44  1  0
 23 45  1  0
 24 46  1  0
 27 47  1  0
 27 48  1  0
 27 49  1  0
M  END
$$$$
