
     RDKit          3D

 33 35  0  0  0  0  0  0  0  0999 V2000
    5.5111   -1.3932    0.4382 C   0  0  0  0  0  0  0  0  0  0  0  0
    4.7100   -0.2655    0.7693 O   0  0  0  0  0  0  0  0  0  0  0  0
    3.4081   -0.2877    0.3513 C   0  0  0  0  0  0  0  0  0  0  0  0
    2.7974   -1.3083   -0.3759 C   0  0  0  0  0  0  0  0  0  0  0  0
    1.4492   -1.2040   -0.7337 C   0  0  0  0  0  0  0  0  0  0  0  0
    0.7025   -0.0764   -0.3703 C   0  0  0  0  0  0  0  0  0  0  0  0
    1.3124    0.9640    0.3463 C   0  0  0  0  0  0  0  0  0  0  0  0
    2.6619    0.8396    0.7112 C   0  0  0  0  0  0  0  0  0  0  0  0
    0.5337    2.1826    0.7635 C   0  0  0  0  0  0  0  0  0  0  0  0
   -0.6612    2.4234   -0.1548 C   0  0  0  0  0  0  0  0  0  0  0  0
   -1.5037    1.1773   -0.2584 C   0  0  0  0  0  0  0  0  0  0  0  0
   -2.7956    1.1868    0.1171 C   0  0  0  0  0  0  0  0  0  0  0  0
   -3.6892    0.0840    0.1609 C   0  0  0  0  0  0  0  0  0  0  0  0
   -4.0259   -0.8805   -0.7813 C   0  0  0  0  0  0  0  0  0  0  0  0
   -5.0123   -1.7252   -0.2190 C   0  0  0  0  0  0  0  0  0  0  0  0
   -5.2574   -1.2270    1.0329 C   0  0  0  0  0  0  0  0  0  0  0  0
   -4.4881   -0.1372    1.2654 O   0  0  0  0  0  0  0  0  0  0  0  0
   -0.7366   -0.0106   -0.7551 C   0  0  0  0  0  0  0  0  0  0  0  0
   -1.2173   -0.8679   -1.4835 O   0  0  0  0  0  0  0  0  0  0  0  0
    6.5127   -1.2222    0.8444 H   0  0  0  0  0  0  0  0  0  0  0  0
    5.1170   -2.3059    0.8972 H   0  0  0  0  0  0  0  0  0  0  0  0
    5.6064   -1.5045   -0.6469 H   0  0  0  0  0  0  0  0  0  0  0  0
    3.3358   -2.2007   -0.6776 H   0  0  0  0  0  0  0  0  0  0  0  0
    0.9811   -2.0115   -1.2942 H   0  0  0  0  0  0  0  0  0  0  0  0
    3.1474    1.6289    1.2826 H   0  0  0  0  0  0  0  0  0  0  0  0
    0.1963    2.0456    1.7985 H   0  0  0  0  0  0  0  0  0  0  0  0
    1.1804    3.0679    0.7376 H   0  0  0  0  0  0  0  0  0  0  0  0
   -1.2389    3.2749    0.2245 H   0  0  0  0  0  0  0  0  0  0  0  0
   -0.3175    2.7036   -1.1595 H   0  0  0  0  0  0  0  0  0  0  0  0
   -3.2108    2.1066    0.5225 H   0  0  0  0  0  0  0  0  0  0  0  0
   -3.6037   -0.9623   -1.7737 H   0  0  0  0  0  0  0  0  0  0  0  0
   -5.4860   -2.5816   -0.6764 H   0  0  0  0  0  0  0  0  0  0  0  0
   -5.9192   -1.5131    1.8380 H   0  0  0  0  0  0  0  0  0  0  0  0
  1  2  1  0
  2  3  1  0
  3  4  2  0
  4  5  1  0
  5  6  2  0
  6  7  1  0
  7  8  2  0
  7  9  1  0
  9 10  1  0
 10 11  1  0
 11 12  2  3
 12 13  1  0
 13 14  2  0
 14 15  1  0
 15 16  2  0
 16 17  1  0
 11 18  1  0
 18 19  2  0
  8  3  1  0
 17 13  1  0
 18  6  1  0
  1 20  1  0
  1 21  1  0
  1 22  1  0
  4 23  1  0
  5 24  1  0
  8 25  1  0
  9 26  1  0
  9 27  1  0
 10 28  1  0
 10 29  1  0
 12 30  1  0
 14 31  1  0
 15 32  1  0
 16 33  1  0
M  END
$$$$
