
     RDKit          3D

 44 46  0  0  0  0  0  0  0  0999 V2000
   -4.5901   -3.1492   -0.2702 C   0  0  0  0  0  0  0  0  0  0  0  0
   -3.5424   -2.2906    0.3749 C   0  0  0  0  0  0  0  0  0  0  0  0
   -2.9571   -2.6702    1.5826 C   0  0  0  0  0  0  0  0  0  0  0  0
   -1.9933   -1.8651    2.2179 C   0  0  0  0  0  0  0  0  0  0  0  0
   -1.4351   -2.3748    3.5218 C   0  0  0  0  0  0  0  0  0  0  0  0
   -1.6316   -0.6254    1.6276 C   0  0  0  0  0  0  0  0  0  0  0  0
   -0.4195    0.4193    2.4582 S   0  0  0  0  0  6  0  0  0  0  0  0
   -0.6947    0.3779    3.8799 O   0  0  0  0  0  0  0  0  0  0  0  0
   -0.2913    1.7006    1.7999 O   0  0  0  0  0  0  0  0  0  0  0  0
    1.0277   -0.4381    2.2359 N   0  0  0  0  0  0  0  0  0  0  0  0
    1.6804   -0.3184    0.9782 C   0  0  0  0  0  0  0  0  0  0  0  0
    1.3186   -1.1635   -0.0686 C   0  0  0  0  0  0  0  0  0  0  0  0
    1.9236   -1.0164   -1.3150 C   0  0  0  0  0  0  0  0  0  0  0  0
    2.8761   -0.0179   -1.5113 C   0  0  0  0  0  0  0  0  0  0  0  0
    3.4054    0.0653   -2.7703 O   0  0  0  0  0  0  0  0  0  0  0  0
    3.2510    0.8396   -0.4662 C   0  0  0  0  0  0  0  0  0  0  0  0
    4.5356    2.0734   -0.6121 S   0  0  0  0  0  0  0  0  0  0  0  0
    3.8425    3.1989   -1.7436 C   0  0  0  0  0  0  0  0  0  0  0  0
    3.5617    4.4996   -1.4367 N   0  0  0  0  0  0  0  0  0  0  0  0
    3.0850    4.9737   -2.5631 C   0  0  0  0  0  0  0  0  0  0  0  0
    3.0971    3.9972   -3.5076 N   0  0  0  0  0  0  0  0  0  0  0  0
    3.5929    2.8484   -3.0129 N   0  0  0  0  0  0  0  0  0  0  0  0
    2.6383    0.6792    0.7846 C   0  0  0  0  0  0  0  0  0  0  0  0
   -2.2299   -0.2228    0.4078 C   0  0  0  0  0  0  0  0  0  0  0  0
   -1.9250    1.0668   -0.3064 C   0  0  0  0  0  0  0  0  0  0  0  0
   -3.1825   -1.0681   -0.1940 C   0  0  0  0  0  0  0  0  0  0  0  0
   -5.5860   -2.8293    0.0510 H   0  0  0  0  0  0  0  0  0  0  0  0
   -4.5293   -3.0826   -1.3614 H   0  0  0  0  0  0  0  0  0  0  0  0
   -4.4549   -4.2023   -0.0023 H   0  0  0  0  0  0  0  0  0  0  0  0
   -3.2583   -3.6118    2.0407 H   0  0  0  0  0  0  0  0  0  0  0  0
   -1.6653   -3.4372    3.6630 H   0  0  0  0  0  0  0  0  0  0  0  0
   -1.8768   -1.8327    4.3628 H   0  0  0  0  0  0  0  0  0  0  0  0
   -0.3456   -2.2993    3.5510 H   0  0  0  0  0  0  0  0  0  0  0  0
    1.6045   -0.3742    3.0741 H   0  0  0  0  0  0  0  0  0  0  0  0
    0.5770   -1.9442    0.0763 H   0  0  0  0  0  0  0  0  0  0  0  0
    1.6505   -1.6735   -2.1362 H   0  0  0  0  0  0  0  0  0  0  0  0
    3.7385    0.9813   -2.8909 H   0  0  0  0  0  0  0  0  0  0  0  0
    2.7313    5.9783   -2.7466 H   0  0  0  0  0  0  0  0  0  0  0  0
    2.7979    4.0391   -4.4761 H   0  0  0  0  0  0  0  0  0  0  0  0
    2.8999    1.3409    1.6069 H   0  0  0  0  0  0  0  0  0  0  0  0
   -2.2507    1.9230    0.2916 H   0  0  0  0  0  0  0  0  0  0  0  0
   -0.8606    1.1378   -0.5472 H   0  0  0  0  0  0  0  0  0  0  0  0
   -2.4579    1.1325   -1.2620 H   0  0  0  0  0  0  0  0  0  0  0  0
   -3.6578   -0.7654   -1.1269 H   0  0  0  0  0  0  0  0  0  0  0  0
  1  2  1  0
  2  3  2  0
  3  4  1  0
  4  5  1  0
  4  6  2  0
  6  7  1  0
  7  8  2  0
  7  9  2  0
  7 10  1  0
 10 11  1  0
 11 12  2  0
 12 13  1  0
 13 14  2  0
 14 15  1  0
 14 16  1  0
 16 17  1  0
 17 18  1  0
 18 19  1  0
 19 20  2  0
 20 21  1  0
 21 22  1  0
 16 23  2  0
  6 24  1  0
 24 25  1  0
 24 26  2  0
 26  2  1  0
 23 11  1  0
 22 18  2  0
  1 27  1  0
  1 28  1  0
  1 29  1  0
  3 30  1  0
  5 31  1  0
  5 32  1  0
  5 33  1  0
 10 34  1  0
 12 35  1  0
 13 36  1  0
 15 37  1  0
 20 38  1  0
 21 39  1  0
 23 40  1  0
 25 41  1  0
 25 42  1  0
 25 43  1  0
 26 44  1  0
M  END
$$$$
