
     RDKit          3D

 38 39  0  0  0  0  0  0  0  0999 V2000
   -4.8133    1.5704    2.4785 C   0  0  0  0  0  0  0  0  0  0  0  0
   -3.8504    0.7687    1.8035 O   0  0  0  0  0  0  0  0  0  0  0  0
   -4.1906    0.2524    0.5820 C   0  0  0  0  0  0  0  0  0  0  0  0
   -5.4189    0.4873   -0.0509 C   0  0  0  0  0  0  0  0  0  0  0  0
   -5.7155   -0.1067   -1.2820 C   0  0  0  0  0  0  0  0  0  0  0  0
   -4.7925   -0.9467   -1.8953 C   0  0  0  0  0  0  0  0  0  0  0  0
   -3.5658   -1.1868   -1.2811 C   0  0  0  0  0  0  0  0  0  0  0  0
   -3.2533   -0.5825   -0.0518 C   0  0  0  0  0  0  0  0  0  0  0  0
   -1.9105   -0.8894    0.5164 C   0  0  0  0  0  0  0  0  0  0  0  0
   -1.4138   -1.9976    0.3065 O   0  0  0  0  0  0  0  0  0  0  0  0
   -1.1761    0.1950    1.2996 C   0  0  0  0  0  0  0  0  0  0  0  0
    0.2429    0.0090    1.2660 O   0  0  0  0  0  0  0  0  0  0  0  0
    0.8055    0.3076    0.0688 C   0  0  0  0  0  0  0  0  0  0  0  0
    0.2359    0.7770   -0.9030 O   0  0  0  0  0  0  0  0  0  0  0  0
    2.2449   -0.0109    0.1476 C   0  0  0  0  0  0  0  0  0  0  0  0
    3.0457    0.2496   -0.8967 C   0  0  0  0  0  0  0  0  0  0  0  0
    4.4848   -0.0444   -0.9229 C   0  0  0  0  0  0  0  0  0  0  0  0
    5.0721   -0.4297   -2.1353 C   0  0  0  0  0  0  0  0  0  0  0  0
    6.4420   -0.6937   -2.2117 C   0  0  0  0  0  0  0  0  0  0  0  0
    7.2414   -0.5638   -1.0785 C   0  0  0  0  0  0  0  0  0  0  0  0
    6.6729   -0.1656    0.1294 C   0  0  0  0  0  0  0  0  0  0  0  0
    5.3024    0.0978    0.2062 C   0  0  0  0  0  0  0  0  0  0  0  0
   -5.0385    2.4781    1.9092 H   0  0  0  0  0  0  0  0  0  0  0  0
   -5.7221    0.9990    2.6942 H   0  0  0  0  0  0  0  0  0  0  0  0
   -4.3790    1.8774    3.4348 H   0  0  0  0  0  0  0  0  0  0  0  0
   -6.1782    1.1264    0.3888 H   0  0  0  0  0  0  0  0  0  0  0  0
   -6.6740    0.0841   -1.7594 H   0  0  0  0  0  0  0  0  0  0  0  0
   -5.0237   -1.4135   -2.8495 H   0  0  0  0  0  0  0  0  0  0  0  0
   -2.8440   -1.8421   -1.7666 H   0  0  0  0  0  0  0  0  0  0  0  0
   -1.4264    1.1970    0.9339 H   0  0  0  0  0  0  0  0  0  0  0  0
   -1.4735    0.1182    2.3499 H   0  0  0  0  0  0  0  0  0  0  0  0
    2.5973   -0.4703    1.0623 H   0  0  0  0  0  0  0  0  0  0  0  0
    2.6327    0.6830   -1.8064 H   0  0  0  0  0  0  0  0  0  0  0  0
    4.4651   -0.5374   -3.0319 H   0  0  0  0  0  0  0  0  0  0  0  0
    6.8830   -0.9998   -3.1568 H   0  0  0  0  0  0  0  0  0  0  0  0
    8.3072   -0.7683   -1.1378 H   0  0  0  0  0  0  0  0  0  0  0  0
    7.2965   -0.0546    1.0127 H   0  0  0  0  0  0  0  0  0  0  0  0
    4.8881    0.4256    1.1561 H   0  0  0  0  0  0  0  0  0  0  0  0
  1  2  1  0
  2  3  1  0
  3  4  2  0
  4  5  1  0
  5  6  2  0
  6  7  1  0
  7  8  2  0
  8  9  1  0
  9 10  2  0
  9 11  1  0
 11 12  1  0
 12 13  1  0
 13 14  2  0
 13 15  1  0
 15 16  2  3
 16 17  1  0
 17 18  2  0
 18 19  1  0
 19 20  2  0
 20 21  1  0
 21 22  2  0
  8  3  1  0
 22 17  1  0
  1 23  1  0
  1 24  1  0
  1 25  1  0
  4 26  1  0
  5 27  1  0
  6 28  1  0
  7 29  1  0
 11 30  1  0
 11 31  1  0
 15 32  1  0
 16 33  1  0
 18 34  1  0
 19 35  1  0
 20 36  1  0
 21 37  1  0
 22 38  1  0
M  END
$$$$
