
     RDKit          3D

 56 58  0  0  0  0  0  0  0  0999 V2000
    3.0754   -4.0723    0.1696 C   0  0  0  0  0  0  0  0  0  0  0  0
    2.7044   -3.2656   -0.9447 O   0  0  0  0  0  0  0  0  0  0  0  0
    3.1145   -1.9617   -0.9220 C   0  0  0  0  0  0  0  0  0  0  0  0
    3.6395   -1.2914    0.1821 C   0  0  0  0  0  0  0  0  0  0  0  0
    4.0118    0.0513    0.0730 C   0  0  0  0  0  0  0  0  0  0  0  0
    3.8664    0.7412   -1.1403 C   0  0  0  0  0  0  0  0  0  0  0  0
    4.2152    2.2075   -1.2362 C   0  0  0  0  0  0  0  0  0  0  0  0
    3.0339    3.0180   -1.0808 N   0  0  0  0  0  0  0  0  0  0  0  0
    2.5233    3.2870    0.1664 C   0  0  0  0  0  0  0  0  0  0  0  0
    3.1004    3.1343    1.2312 O   0  0  0  0  0  0  0  0  0  0  0  0
    1.0355    3.7046    0.1458 C   0  0  0  0  0  0  0  0  0  0  0  0
    0.4957    3.9952   -0.9129 O   0  0  0  0  0  0  0  0  0  0  0  0
    0.4308    3.6080    1.3805 N   0  0  0  0  0  0  0  0  0  0  0  0
   -1.0044    3.3739    1.4849 C   0  0  0  0  0  0  0  0  0  0  0  0
   -1.3660    1.8700    1.4147 C   0  0  0  0  0  0  0  0  0  0  0  0
   -0.6729    1.1780    2.4789 O   0  0  0  0  0  0  0  0  0  0  0  0
   -0.3226   -0.1074    1.9520 C   0  0  0  0  0  0  0  0  0  0  0  0
    0.0029    0.1606    0.5007 C   0  0  0  0  0  0  0  0  0  0  0  0
   -0.9109    1.2506    0.1636 N   0  0  0  0  0  0  0  0  0  0  0  0
   -2.0058    1.0792   -1.0899 S   0  0  0  0  0  6  0  0  0  0  0  0
   -2.8179    2.2769   -1.1473 O   0  0  0  0  0  0  0  0  0  0  0  0
   -1.2836    0.5950   -2.2475 O   0  0  0  0  0  0  0  0  0  0  0  0
   -3.0691   -0.2471   -0.5392 C   0  0  0  0  0  0  0  0  0  0  0  0
   -2.7663   -1.5672   -0.8833 C   0  0  0  0  0  0  0  0  0  0  0  0
   -3.6050   -2.6018   -0.4587 C   0  0  0  0  0  0  0  0  0  0  0  0
   -4.7641   -2.3212    0.2808 C   0  0  0  0  0  0  0  0  0  0  0  0
   -5.6495   -3.4367    0.7618 C   0  0  0  0  0  0  0  0  0  0  0  0
   -5.0696   -0.9897    0.5997 C   0  0  0  0  0  0  0  0  0  0  0  0
   -4.2347    0.0487    0.1787 C   0  0  0  0  0  0  0  0  0  0  0  0
    3.3285    0.0647   -2.2413 C   0  0  0  0  0  0  0  0  0  0  0  0
    2.9539   -1.2744   -2.1281 C   0  0  0  0  0  0  0  0  0  0  0  0
    2.8177   -5.1048   -0.0704 H   0  0  0  0  0  0  0  0  0  0  0  0
    2.5139   -3.7906    1.0619 H   0  0  0  0  0  0  0  0  0  0  0  0
    4.1544   -4.0376    0.3559 H   0  0  0  0  0  0  0  0  0  0  0  0
    3.7651   -1.7769    1.1431 H   0  0  0  0  0  0  0  0  0  0  0  0
    4.4012    0.5683    0.9499 H   0  0  0  0  0  0  0  0  0  0  0  0
    4.9536    2.4773   -0.4725 H   0  0  0  0  0  0  0  0  0  0  0  0
    4.6572    2.4283   -2.2150 H   0  0  0  0  0  0  0  0  0  0  0  0
    2.3542    3.0416   -1.8334 H   0  0  0  0  0  0  0  0  0  0  0  0
    1.0169    3.2181    2.1111 H   0  0  0  0  0  0  0  0  0  0  0  0
   -1.5201    3.9307    0.6964 H   0  0  0  0  0  0  0  0  0  0  0  0
   -1.3023    3.7757    2.4596 H   0  0  0  0  0  0  0  0  0  0  0  0
   -2.4369    1.7358    1.5881 H   0  0  0  0  0  0  0  0  0  0  0  0
    0.5221   -0.5249    2.5057 H   0  0  0  0  0  0  0  0  0  0  0  0
   -1.1869   -0.7720    2.0582 H   0  0  0  0  0  0  0  0  0  0  0  0
   -0.0948   -0.7311   -0.1172 H   0  0  0  0  0  0  0  0  0  0  0  0
    1.0231    0.5388    0.3983 H   0  0  0  0  0  0  0  0  0  0  0  0
   -1.8876   -1.8006   -1.4847 H   0  0  0  0  0  0  0  0  0  0  0  0
   -3.3563   -3.6292   -0.7188 H   0  0  0  0  0  0  0  0  0  0  0  0
   -5.5881   -4.3044    0.1010 H   0  0  0  0  0  0  0  0  0  0  0  0
   -5.3540   -3.7444    1.7695 H   0  0  0  0  0  0  0  0  0  0  0  0
   -6.6954   -3.1197    0.7813 H   0  0  0  0  0  0  0  0  0  0  0  0
   -5.9694   -0.7547    1.1702 H   0  0  0  0  0  0  0  0  0  0  0  0
   -4.5020    1.0777    0.4088 H   0  0  0  0  0  0  0  0  0  0  0  0
    3.1897    0.5773   -3.1928 H   0  0  0  0  0  0  0  0  0  0  0  0
    2.5350   -1.7867   -2.9913 H   0  0  0  0  0  0  0  0  0  0  0  0
  1  2  1  0
  2  3  1  0
  3  4  2  0
  4  5  1  0
  5  6  2  0
  6  7  1  0
  7  8  1  0
  8  9  1  0
  9 10  2  0
  9 11  1  0
 11 12  2  0
 11 13  1  0
 13 14  1  0
 14 15  1  0
 15 16  1  0
 16 17  1  0
 17 18  1  0
 18 19  1  0
 19 20  1  0
 20 21  2  0
 20 22  2  0
 20 23  1  0
 23 24  2  0
 24 25  1  0
 25 26  2  0
 26 27  1  0
 26 28  1  0
 28 29  2  0
  6 30  1  0
 30 31  2  0
 31  3  1  0
 19 15  1  0
 29 23  1  0
  1 32  1  0
  1 33  1  0
  1 34  1  0
  4 35  1  0
  5 36  1  0
  7 37  1  0
  7 38  1  0
  8 39  1  0
 13 40  1  0
 14 41  1  0
 14 42  1  0
 15 43  1  0
 17 44  1  0
 17 45  1  0
 18 46  1  0
 18 47  1  0
 24 48  1  0
 25 49  1  0
 27 50  1  0
 27 51  1  0
 27 52  1  0
 28 53  1  0
 29 54  1  0
 30 55  1  0
 31 56  1  0
M  END
$$$$
