
     RDKit          3D

 56 59  0  0  0  0  0  0  0  0999 V2000
    3.5417    3.9721    3.7088 C   0  0  0  0  0  0  0  0  0  0  0  0
    4.6845    3.3616    2.9174 C   0  0  0  0  0  0  0  0  0  0  0  0
    4.3206    3.2015    1.5471 O   0  0  0  0  0  0  0  0  0  0  0  0
    3.7436    2.0283    1.1495 C   0  0  0  0  0  0  0  0  0  0  0  0
    3.5557    1.9150   -0.2311 C   0  0  0  0  0  0  0  0  0  0  0  0
    2.9763    0.7700   -0.7840 C   0  0  0  0  0  0  0  0  0  0  0  0
    2.5767   -0.2810    0.0453 C   0  0  0  0  0  0  0  0  0  0  0  0
    1.9681   -1.4780   -0.5197 C   0  0  0  0  0  0  0  0  0  0  0  0
    0.6501   -1.7218   -0.8841 C   0  0  0  0  0  0  0  0  0  0  0  0
   -0.5008   -0.8252   -0.8081 C   0  0  0  0  0  0  0  0  0  0  0  0
   -0.4273    0.3188   -0.3694 O   0  0  0  0  0  0  0  0  0  0  0  0
   -1.6726   -1.4237   -1.2780 N   0  0  0  0  0  0  0  0  0  0  0  0
   -2.8998   -0.9083   -0.9522 N   0  0  0  0  0  0  0  0  0  0  0  0
   -3.2613    0.2059   -1.5230 C   0  0  0  0  0  0  0  0  0  0  0  0
   -2.4954    0.9235   -2.6132 C   0  0  0  0  0  0  0  0  0  0  0  0
   -4.5246    0.8482   -1.0936 C   0  0  0  0  0  0  0  0  0  0  0  0
   -4.4605    2.1317   -0.5373 C   0  0  0  0  0  0  0  0  0  0  0  0
   -5.6332    2.7703   -0.1311 C   0  0  0  0  0  0  0  0  0  0  0  0
   -6.8660    2.1337   -0.2876 C   0  0  0  0  0  0  0  0  0  0  0  0
   -6.9294    0.8541   -0.8432 C   0  0  0  0  0  0  0  0  0  0  0  0
   -5.7565    0.2007   -1.2299 C   0  0  0  0  0  0  0  0  0  0  0  0
   -5.8411   -1.0269   -1.8330 O   0  0  0  0  0  0  0  0  0  0  0  0
   -6.0925   -2.0419   -0.8593 C   0  0  0  0  0  0  0  0  0  0  0  0
    0.5370   -3.0083   -1.3437 N   0  0  0  0  0  0  0  0  0  0  0  0
    1.7259   -3.5776   -1.2828 N   0  0  0  0  0  0  0  0  0  0  0  0
    2.6321   -2.6757   -0.7977 N   0  0  0  0  0  0  0  0  0  0  0  0
    4.0037   -3.0106   -0.6610 C   0  0  0  0  0  0  0  0  0  0  0  0
    4.9016   -2.1116   -0.2583 N   0  0  0  0  0  0  0  0  0  0  0  0
    6.1098   -2.8047   -0.2746 O   0  0  0  0  0  0  0  0  0  0  0  0
    5.9318   -4.1203   -0.6888 N   0  0  0  0  0  0  0  0  0  0  0  0
    4.6259   -4.2467   -0.9214 C   0  0  0  0  0  0  0  0  0  0  0  0
    4.0359   -5.3855   -1.3320 N   0  0  0  0  0  0  0  0  0  0  0  0
    2.7469   -0.1624    1.4293 C   0  0  0  0  0  0  0  0  0  0  0  0
    3.3286    0.9870    1.9785 C   0  0  0  0  0  0  0  0  0  0  0  0
    2.6652    3.3169    3.7172 H   0  0  0  0  0  0  0  0  0  0  0  0
    3.2258    4.9177    3.2562 H   0  0  0  0  0  0  0  0  0  0  0  0
    3.8456    4.1610    4.7423 H   0  0  0  0  0  0  0  0  0  0  0  0
    5.0576    2.4352    3.3672 H   0  0  0  0  0  0  0  0  0  0  0  0
    5.5274    4.0617    2.9328 H   0  0  0  0  0  0  0  0  0  0  0  0
    3.8602    2.7318   -0.8823 H   0  0  0  0  0  0  0  0  0  0  0  0
    2.8380    0.7153   -1.8612 H   0  0  0  0  0  0  0  0  0  0  0  0
   -1.6448   -2.4417   -1.2830 H   0  0  0  0  0  0  0  0  0  0  0  0
   -1.7274    1.5649   -2.1738 H   0  0  0  0  0  0  0  0  0  0  0  0
   -2.0287    0.2039   -3.2915 H   0  0  0  0  0  0  0  0  0  0  0  0
   -3.1692    1.5489   -3.2081 H   0  0  0  0  0  0  0  0  0  0  0  0
   -3.5019    2.6297   -0.4080 H   0  0  0  0  0  0  0  0  0  0  0  0
   -5.5855    3.7657    0.3050 H   0  0  0  0  0  0  0  0  0  0  0  0
   -7.7796    2.6389    0.0164 H   0  0  0  0  0  0  0  0  0  0  0  0
   -7.8943    0.3759   -0.9891 H   0  0  0  0  0  0  0  0  0  0  0  0
   -5.3689   -2.0046   -0.0368 H   0  0  0  0  0  0  0  0  0  0  0  0
   -7.1126   -1.9660   -0.4694 H   0  0  0  0  0  0  0  0  0  0  0  0
   -5.9931   -3.0120   -1.3555 H   0  0  0  0  0  0  0  0  0  0  0  0
    3.0808   -5.3884   -1.6856 H   0  0  0  0  0  0  0  0  0  0  0  0
    4.6156   -6.1445   -1.6757 H   0  0  0  0  0  0  0  0  0  0  0  0
    2.4255   -0.9591    2.0962 H   0  0  0  0  0  0  0  0  0  0  0  0
    3.4288    1.0362    3.0570 H   0  0  0  0  0  0  0  0  0  0  0  0
  1  2  1  0
  2  3  1  0
  3  4  1  0
  4  5  2  0
  5  6  1  0
  6  7  2  0
  7  8  1  0
  8  9  2  0
  9 10  1  0
 10 11  2  0
 10 12  1  0
 12 13  1  0
 13 14  2  3
 14 15  1  0
 14 16  1  0
 16 17  2  0
 17 18  1  0
 18 19  2  0
 19 20  1  0
 20 21  2  0
 21 22  1  0
 22 23  1  0
  9 24  1  0
 24 25  2  0
 25 26  1  0
 26 27  1  0
 27 28  2  0
 28 29  1  0
 29 30  1  0
 30 31  2  0
 31 32  1  0
  7 33  1  0
 33 34  2  0
 34  4  1  0
 26  8  1  0
 31 27  1  0
 21 16  1  0
  1 35  1  0
  1 36  1  0
  1 37  1  0
  2 38  1  0
  2 39  1  0
  5 40  1  0
  6 41  1  0
 12 42  1  0
 15 43  1  0
 15 44  1  0
 15 45  1  0
 17 46  1  0
 18 47  1  0
 19 48  1  0
 20 49  1  0
 23 50  1  0
 23 51  1  0
 23 52  1  0
 32 53  1  0
 32 54  1  0
 33 55  1  0
 34 56  1  0
M  END
$$$$
