
     RDKit          3D

 62 66  0  0  0  0  0  0  0  0999 V2000
   -3.7704    6.2901   -2.4593 C   0  0  0  0  0  0  0  0  0  0  0  0
   -3.0270    5.1179   -2.1503 O   0  0  0  0  0  0  0  0  0  0  0  0
   -3.7413    4.0054   -1.7977 C   0  0  0  0  0  0  0  0  0  0  0  0
   -5.1238    3.9173   -1.7071 C   0  0  0  0  0  0  0  0  0  0  0  0
   -5.7394    2.7164   -1.3358 C   0  0  0  0  0  0  0  0  0  0  0  0
   -4.9410    1.5917   -1.0524 C   0  0  0  0  0  0  0  0  0  0  0  0
   -5.4869    0.0307   -0.5869 S   0  0  0  0  0  0  0  0  0  0  0  0
   -3.8970   -0.5892   -0.4807 C   0  0  0  0  0  0  0  0  0  0  0  0
   -3.7181   -1.9922   -0.0801 C   0  0  0  0  0  0  0  0  0  0  0  0
   -3.9868   -3.0047   -1.0173 C   0  0  0  0  0  0  0  0  0  0  0  0
   -3.8030   -4.3460   -0.6862 C   0  0  0  0  0  0  0  0  0  0  0  0
   -3.3500   -4.6879    0.5842 C   0  0  0  0  0  0  0  0  0  0  0  0
   -3.0784   -3.6919    1.5267 C   0  0  0  0  0  0  0  0  0  0  0  0
   -3.2528   -2.3405    1.2046 C   0  0  0  0  0  0  0  0  0  0  0  0
   -3.0254   -1.3065    2.0788 O   0  0  0  0  0  0  0  0  0  0  0  0
   -2.2748   -1.6005    3.2484 C   0  0  0  0  0  0  0  0  0  0  0  0
   -2.9515    0.3731   -0.7967 C   0  0  0  0  0  0  0  0  0  0  0  0
   -1.5236    0.0791   -0.7706 C   0  0  0  0  0  0  0  0  0  0  0  0
   -0.9391   -0.6871   -1.7818 C   0  0  0  0  0  0  0  0  0  0  0  0
    0.4296   -0.9624   -1.7439 C   0  0  0  0  0  0  0  0  0  0  0  0
    1.2270   -0.4771   -0.7036 C   0  0  0  0  0  0  0  0  0  0  0  0
    2.5472   -0.8235   -0.7893 O   0  0  0  0  0  0  0  0  0  0  0  0
    3.4074   -0.3754    0.2627 C   0  0  0  0  0  0  0  0  0  0  0  0
    4.8214   -0.9038   -0.0235 C   0  0  0  0  0  0  0  0  0  0  0  0
    5.7952   -0.5641    1.0209 N   0  0  0  0  0  0  0  0  0  0  0  0
    7.0852   -1.2192    0.7909 C   0  0  0  0  0  0  0  0  0  0  0  0
    8.0176   -0.4755    1.7329 C   0  0  0  0  0  0  0  0  0  0  0  0
    7.3963    0.9069    1.8939 C   0  0  0  0  0  0  0  0  0  0  0  0
    6.1100    0.8649    1.0811 C   0  0  0  0  0  0  0  0  0  0  0  0
    0.6435    0.2936    0.3029 C   0  0  0  0  0  0  0  0  0  0  0  0
   -0.7273    0.5725    0.2680 C   0  0  0  0  0  0  0  0  0  0  0  0
   -3.5490    1.6463   -1.1302 C   0  0  0  0  0  0  0  0  0  0  0  0
   -2.9592    2.8798   -1.5124 C   0  0  0  0  0  0  0  0  0  0  0  0
   -4.4214    6.1283   -3.3249 H   0  0  0  0  0  0  0  0  0  0  0  0
   -4.3430    6.6343   -1.5917 H   0  0  0  0  0  0  0  0  0  0  0  0
   -3.0579    7.0781   -2.7217 H   0  0  0  0  0  0  0  0  0  0  0  0
   -5.7656    4.7661   -1.9192 H   0  0  0  0  0  0  0  0  0  0  0  0
   -6.8221    2.6542   -1.2677 H   0  0  0  0  0  0  0  0  0  0  0  0
   -4.3364   -2.7462   -2.0146 H   0  0  0  0  0  0  0  0  0  0  0  0
   -4.0131   -5.1213   -1.4184 H   0  0  0  0  0  0  0  0  0  0  0  0
   -3.2096   -5.7336    0.8464 H   0  0  0  0  0  0  0  0  0  0  0  0
   -2.7400   -4.0044    2.5088 H   0  0  0  0  0  0  0  0  0  0  0  0
   -2.8570   -2.2160    3.9412 H   0  0  0  0  0  0  0  0  0  0  0  0
   -2.0549   -0.6536    3.7505 H   0  0  0  0  0  0  0  0  0  0  0  0
   -1.3194   -2.0754    3.0023 H   0  0  0  0  0  0  0  0  0  0  0  0
   -1.5407   -1.0747   -2.5997 H   0  0  0  0  0  0  0  0  0  0  0  0
    0.8776   -1.5629   -2.5316 H   0  0  0  0  0  0  0  0  0  0  0  0
    3.0607   -0.7713    1.2252 H   0  0  0  0  0  0  0  0  0  0  0  0
    3.4154    0.7204    0.2865 H   0  0  0  0  0  0  0  0  0  0  0  0
    5.1505   -0.5503   -1.0100 H   0  0  0  0  0  0  0  0  0  0  0  0
    4.7527   -1.9966   -0.1100 H   0  0  0  0  0  0  0  0  0  0  0  0
    7.0517   -2.2888    1.0199 H   0  0  0  0  0  0  0  0  0  0  0  0
    7.4250   -1.0931   -0.2451 H   0  0  0  0  0  0  0  0  0  0  0  0
    8.0650   -0.9754    2.7076 H   0  0  0  0  0  0  0  0  0  0  0  0
    9.0352   -0.4207    1.3341 H   0  0  0  0  0  0  0  0  0  0  0  0
    8.0672    1.6951    1.5390 H   0  0  0  0  0  0  0  0  0  0  0  0
    7.1846    1.0975    2.9523 H   0  0  0  0  0  0  0  0  0  0  0  0
    5.3194    1.4462    1.5649 H   0  0  0  0  0  0  0  0  0  0  0  0
    6.2904    1.2822    0.0823 H   0  0  0  0  0  0  0  0  0  0  0  0
    1.2219    0.6912    1.1298 H   0  0  0  0  0  0  0  0  0  0  0  0
   -1.1743    1.1664    1.0624 H   0  0  0  0  0  0  0  0  0  0  0  0
   -1.8766    2.9540   -1.5887 H   0  0  0  0  0  0  0  0  0  0  0  0
  1  2  1  0
  2  3  1  0
  3  4  2  0
  4  5  1  0
  5  6  2  0
  6  7  1  0
  7  8  1  0
  8  9  1  0
  9 10  2  0
 10 11  1  0
 11 12  2  0
 12 13  1  0
 13 14  2  0
 14 15  1  0
 15 16  1  0
  8 17  2  0
 17 18  1  0
 18 19  2  0
 19 20  1  0
 20 21  2  0
 21 22  1  0
 22 23  1  0
 23 24  1  0
 24 25  1  0
 25 26  1  0
 26 27  1  0
 27 28  1  0
 28 29  1  0
 21 30  1  0
 30 31  2  0
 17 32  1  0
 32 33  2  0
 33  3  1  0
 32  6  1  0
 14  9  1  0
 31 18  1  0
 29 25  1  0
  1 34  1  0
  1 35  1  0
  1 36  1  0
  4 37  1  0
  5 38  1  0
 10 39  1  0
 11 40  1  0
 12 41  1  0
 13 42  1  0
 16 43  1  0
 16 44  1  0
 16 45  1  0
 19 46  1  0
 20 47  1  0
 23 48  1  0
 23 49  1  0
 24 50  1  0
 24 51  1  0
 26 52  1  0
 26 53  1  0
 27 54  1  0
 27 55  1  0
 28 56  1  0
 28 57  1  0
 29 58  1  0
 29 59  1  0
 30 60  1  0
 31 61  1  0
 33 62  1  0
M  END
$$$$
