
     RDKit          3D

 46 48  0  0  0  0  0  0  0  0999 V2000
    0.4113    1.2249   -2.3909 C   0  0  0  0  0  0  0  0  0  0  0  0
    0.3099    2.5875   -1.7351 C   0  0  0  0  0  0  0  0  0  0  0  0
    1.2657    3.6554   -2.1478 C   0  0  0  0  0  0  0  0  0  0  0  0
    2.5893    3.5318   -2.3287 C   0  0  0  0  0  0  0  0  0  0  0  0
    3.4177    2.3435   -2.1021 C   0  0  0  0  0  0  0  0  0  0  0  0
    4.2916    1.9156   -3.1085 C   0  0  0  0  0  0  0  0  0  0  0  0
    5.1109    0.8022   -2.9071 C   0  0  0  0  0  0  0  0  0  0  0  0
    5.0695    0.1153   -1.6950 C   0  0  0  0  0  0  0  0  0  0  0  0
    4.2146    0.5444   -0.6818 C   0  0  0  0  0  0  0  0  0  0  0  0
    3.3979    1.6595   -0.8806 C   0  0  0  0  0  0  0  0  0  0  0  0
   -0.6200    2.9341   -0.8840 N   0  0  0  0  0  0  0  0  0  0  0  0
   -1.4522    1.9550   -0.4100 N   0  0  0  0  0  0  0  0  0  0  0  0
   -0.9708    0.9908    0.4682 C   0  0  0  0  0  0  0  0  0  0  0  0
    0.2025    0.7523    0.7230 O   0  0  0  0  0  0  0  0  0  0  0  0
   -2.0420    0.2414    1.1753 C   0  0  0  0  0  0  0  0  0  0  0  0
   -3.2603   -0.2921    0.4684 C   0  0  0  0  0  0  0  0  0  0  0  0
   -2.2038   -1.2662    0.9550 C   0  0  0  0  0  0  0  0  0  0  0  0
   -1.3647   -1.9583   -0.0960 C   0  0  0  0  0  0  0  0  0  0  0  0
   -2.4965   -2.1203    2.1817 C   0  0  0  0  0  0  0  0  0  0  0  0
   -3.6485   -2.9207    2.2644 C   0  0  0  0  0  0  0  0  0  0  0  0
   -3.9088   -3.7092    3.3884 C   0  0  0  0  0  0  0  0  0  0  0  0
   -3.0145   -3.7175    4.4550 C   0  0  0  0  0  0  0  0  0  0  0  0
   -1.8605   -2.9419    4.3951 C   0  0  0  0  0  0  0  0  0  0  0  0
   -1.6057   -2.1557    3.2688 C   0  0  0  0  0  0  0  0  0  0  0  0
    0.9886    1.2799   -3.3181 H   0  0  0  0  0  0  0  0  0  0  0  0
   -0.5874    0.8638   -2.6544 H   0  0  0  0  0  0  0  0  0  0  0  0
    0.8848    0.5054   -1.7211 H   0  0  0  0  0  0  0  0  0  0  0  0
    0.8031    4.6310   -2.2691 H   0  0  0  0  0  0  0  0  0  0  0  0
    3.1487    4.4111   -2.6436 H   0  0  0  0  0  0  0  0  0  0  0  0
    4.3361    2.4403   -4.0598 H   0  0  0  0  0  0  0  0  0  0  0  0
    5.7809    0.4712   -3.6961 H   0  0  0  0  0  0  0  0  0  0  0  0
    5.7041   -0.7529   -1.5381 H   0  0  0  0  0  0  0  0  0  0  0  0
    4.1773    0.0127    0.2657 H   0  0  0  0  0  0  0  0  0  0  0  0
    2.7387    1.9785   -0.0743 H   0  0  0  0  0  0  0  0  0  0  0  0
   -2.3835    2.2933   -0.1881 H   0  0  0  0  0  0  0  0  0  0  0  0
   -2.1899    0.6013    2.1900 H   0  0  0  0  0  0  0  0  0  0  0  0
   -4.2062   -0.2394    0.9973 H   0  0  0  0  0  0  0  0  0  0  0  0
   -3.3599   -0.1440   -0.6015 H   0  0  0  0  0  0  0  0  0  0  0  0
   -1.8293   -2.9044   -0.3943 H   0  0  0  0  0  0  0  0  0  0  0  0
   -1.2506   -1.3524   -1.0011 H   0  0  0  0  0  0  0  0  0  0  0  0
   -0.3640   -2.1747    0.2931 H   0  0  0  0  0  0  0  0  0  0  0  0
   -4.3540   -2.9328    1.4365 H   0  0  0  0  0  0  0  0  0  0  0  0
   -4.8080   -4.3181    3.4275 H   0  0  0  0  0  0  0  0  0  0  0  0
   -3.2137   -4.3312    5.3293 H   0  0  0  0  0  0  0  0  0  0  0  0
   -1.1546   -2.9490    5.2213 H   0  0  0  0  0  0  0  0  0  0  0  0
   -0.6939   -1.5612    3.2329 H   0  0  0  0  0  0  0  0  0  0  0  0
  1  2  1  0
  2  3  1  0
  3  4  2  3
  4  5  1  0
  5  6  2  0
  6  7  1  0
  7  8  2  0
  8  9  1  0
  9 10  2  0
  2 11  2  3
 11 12  1  0
 12 13  1  0
 13 14  2  0
 13 15  1  0
 15 16  1  0
 16 17  1  0
 17 18  1  0
 17 19  1  0
 19 20  2  0
 20 21  1  0
 21 22  2  0
 22 23  1  0
 23 24  2  0
 10  5  1  0
 17 15  1  0
 24 19  1  0
  1 25  1  0
  1 26  1  0
  1 27  1  0
  3 28  1  0
  4 29  1  0
  6 30  1  0
  7 31  1  0
  8 32  1  0
  9 33  1  0
 10 34  1  0
 12 35  1  0
 15 36  1  0
 16 37  1  0
 16 38  1  0
 18 39  1  0
 18 40  1  0
 18 41  1  0
 20 42  1  0
 21 43  1  0
 22 44  1  0
 23 45  1  0
 24 46  1  0
M  END
$$$$
