
     RDKit          3D

 49 52  0  0  0  0  0  0  0  0999 V2000
   -0.1299    3.9772   -1.1142 O   0  0  0  0  0  0  0  0  0  0  0  0
   -1.1044    3.2616   -1.2481 C   0  0  0  0  0  0  0  0  0  0  0  0
   -1.7667    3.1472   -2.4092 O   0  0  0  0  0  0  0  0  0  0  0  0
   -1.7460    2.4831   -0.1765 C   0  0  0  0  0  0  0  0  0  0  0  0
   -2.1475    3.2389    0.9409 C   0  0  0  0  0  0  0  0  0  0  0  0
   -2.8690    2.6446    1.9698 C   0  0  0  0  0  0  0  0  0  0  0  0
   -3.2098    1.3011    1.8723 C   0  0  0  0  0  0  0  0  0  0  0  0
   -2.7950    0.5447    0.7633 C   0  0  0  0  0  0  0  0  0  0  0  0
   -3.2114   -0.8732    0.6844 C   0  0  0  0  0  0  0  0  0  0  0  0
   -3.8210   -1.3965    1.6124 O   0  0  0  0  0  0  0  0  0  0  0  0
   -2.9112   -1.6298   -0.5453 C   0  0  0  0  0  0  0  0  0  0  0  0
   -3.4569   -2.9092   -0.7197 C   0  0  0  0  0  0  0  0  0  0  0  0
   -3.1968   -3.6196   -1.8880 C   0  0  0  0  0  0  0  0  0  0  0  0
   -2.4028   -3.0482   -2.8782 C   0  0  0  0  0  0  0  0  0  0  0  0
   -1.8555   -1.7730   -2.6947 C   0  0  0  0  0  0  0  0  0  0  0  0
   -2.0796   -1.0473   -1.5130 C   0  0  0  0  0  0  0  0  0  0  0  0
   -1.5321    0.2520   -1.3122 N   0  0  0  0  0  0  0  0  0  0  0  0
   -0.0489    0.2986   -1.5316 C   0  0  0  0  0  0  0  0  0  0  0  0
    0.7656   -0.2943   -0.3572 C   0  0  0  0  0  0  0  0  0  0  0  0
    0.7973   -1.7268   -0.4412 O   0  0  0  0  0  0  0  0  0  0  0  0
    2.2222    0.2207   -0.3949 C   0  0  0  0  0  0  0  0  0  0  0  0
    3.0568   -0.4526    0.6176 N   0  0  0  0  0  0  0  0  0  0  0  0
    4.4745   -0.1108    0.4610 C   0  0  0  0  0  0  0  0  0  0  0  0
    5.0853   -0.5872    1.7684 C   0  0  0  0  0  0  0  0  0  0  0  0
    3.9543   -0.5010    2.7863 C   0  0  0  0  0  0  0  0  0  0  0  0
    2.7335   -0.0556    1.9931 C   0  0  0  0  0  0  0  0  0  0  0  0
   -2.0044    1.0976   -0.2653 C   0  0  0  0  0  0  0  0  0  0  0  0
   -1.2973    3.7352   -3.0352 H   0  0  0  0  0  0  0  0  0  0  0  0
   -1.9172    4.3020    0.9935 H   0  0  0  0  0  0  0  0  0  0  0  0
   -3.1900    3.2297    2.8281 H   0  0  0  0  0  0  0  0  0  0  0  0
   -3.8046    0.8375    2.6579 H   0  0  0  0  0  0  0  0  0  0  0  0
   -4.0856   -3.3464    0.0525 H   0  0  0  0  0  0  0  0  0  0  0  0
   -3.6184   -4.6114   -2.0281 H   0  0  0  0  0  0  0  0  0  0  0  0
   -2.2081   -3.5922   -3.7991 H   0  0  0  0  0  0  0  0  0  0  0  0
   -1.2668   -1.3486   -3.5026 H   0  0  0  0  0  0  0  0  0  0  0  0
    0.2243   -0.2197   -2.4579 H   0  0  0  0  0  0  0  0  0  0  0  0
    0.2686    1.3290   -1.7016 H   0  0  0  0  0  0  0  0  0  0  0  0
    0.3090   -0.0337    0.6029 H   0  0  0  0  0  0  0  0  0  0  0  0
    1.5716   -1.9903    0.0982 H   0  0  0  0  0  0  0  0  0  0  0  0
    2.2467    1.3113   -0.2773 H   0  0  0  0  0  0  0  0  0  0  0  0
    2.6379   -0.0163   -1.3831 H   0  0  0  0  0  0  0  0  0  0  0  0
    4.9266   -0.6123   -0.4004 H   0  0  0  0  0  0  0  0  0  0  0  0
    4.6202    0.9719    0.3536 H   0  0  0  0  0  0  0  0  0  0  0  0
    5.4256   -1.6259    1.6806 H   0  0  0  0  0  0  0  0  0  0  0  0
    5.9449    0.0240    2.0607 H   0  0  0  0  0  0  0  0  0  0  0  0
    3.7885   -1.4839    3.2425 H   0  0  0  0  0  0  0  0  0  0  0  0
    4.1867    0.2067    3.5886 H   0  0  0  0  0  0  0  0  0  0  0  0
    1.8252   -0.5400    2.3644 H   0  0  0  0  0  0  0  0  0  0  0  0
    2.6116    1.0315    2.0820 H   0  0  0  0  0  0  0  0  0  0  0  0
  1  2  2  0
  2  3  1  0
  2  4  1  0
  4  5  2  0
  5  6  1  0
  6  7  2  0
  7  8  1  0
  8  9  1  0
  9 10  2  0
  9 11  1  0
 11 12  2  0
 12 13  1  0
 13 14  2  0
 14 15  1  0
 15 16  2  0
 16 17  1  0
 17 18  1  0
 18 19  1  0
 19 20  1  0
 19 21  1  0
 21 22  1  0
 22 23  1  0
 23 24  1  0
 24 25  1  0
 25 26  1  0
 17 27  1  0
 27  4  1  0
 27  8  2  0
 16 11  1  0
 26 22  1  0
  3 28  1  0
  5 29  1  0
  6 30  1  0
  7 31  1  0
 12 32  1  0
 13 33  1  0
 14 34  1  0
 15 35  1  0
 18 36  1  0
 18 37  1  0
 19 38  1  0
 20 39  1  0
 21 40  1  0
 21 41  1  0
 23 42  1  0
 23 43  1  0
 24 44  1  0
 24 45  1  0
 25 46  1  0
 25 47  1  0
 26 48  1  0
 26 49  1  0
M  END
$$$$
