
     RDKit          3D

 39 40  0  0  0  0  0  0  0  0999 V2000
    6.5265    1.0717   -2.4767 C   0  0  0  0  0  0  0  0  0  0  0  0
    5.0402    1.2476   -2.2001 C   0  0  0  0  0  0  0  0  0  0  0  0
    4.6181    0.7814   -0.7953 C   0  0  0  0  0  0  0  0  0  0  0  0
    5.2304    1.6496    0.3058 C   0  0  0  0  0  0  0  0  0  0  0  0
    3.0881    0.7841   -0.6629 C   0  0  0  0  0  0  0  0  0  0  0  0
    2.3747    1.3738   -1.4668 O   0  0  0  0  0  0  0  0  0  0  0  0
    2.6628    0.0741    0.4393 N   0  0  0  0  0  0  0  0  0  0  0  0
    1.3686   -0.1088    0.8567 C   0  0  0  0  0  0  0  0  0  0  0  0
    1.0767   -0.8291    1.9175 N   0  0  0  0  0  0  0  0  0  0  0  0
   -0.2817   -0.8798    2.1574 N   0  0  0  0  0  0  0  0  0  0  0  0
   -0.9632   -0.1913    1.2652 C   0  0  0  0  0  0  0  0  0  0  0  0
   -2.4496   -0.0583    1.2479 C   0  0  0  0  0  0  0  0  0  0  0  0
   -3.0995   -1.2702    0.5786 C   0  0  0  0  0  0  0  0  0  0  0  0
   -4.6029   -1.1482    0.5520 C   0  0  0  0  0  0  0  0  0  0  0  0
   -5.3713   -1.6103    1.6290 C   0  0  0  0  0  0  0  0  0  0  0  0
   -6.7606   -1.4781    1.6132 C   0  0  0  0  0  0  0  0  0  0  0  0
   -7.3930   -0.8793    0.5253 C   0  0  0  0  0  0  0  0  0  0  0  0
   -6.6371   -0.4115   -0.5479 C   0  0  0  0  0  0  0  0  0  0  0  0
   -5.2477   -0.5432   -0.5350 C   0  0  0  0  0  0  0  0  0  0  0  0
    0.0152    0.5642    0.0737 S   0  0  0  0  0  0  0  0  0  0  0  0
    6.8386    0.0365   -2.3067 H   0  0  0  0  0  0  0  0  0  0  0  0
    6.7458    1.3243   -3.5192 H   0  0  0  0  0  0  0  0  0  0  0  0
    7.1336    1.7261   -1.8448 H   0  0  0  0  0  0  0  0  0  0  0  0
    4.7685    2.3002   -2.3489 H   0  0  0  0  0  0  0  0  0  0  0  0
    4.4831    0.6746   -2.9524 H   0  0  0  0  0  0  0  0  0  0  0  0
    4.9547   -0.2553   -0.6609 H   0  0  0  0  0  0  0  0  0  0  0  0
    4.8941    1.3370    1.3000 H   0  0  0  0  0  0  0  0  0  0  0  0
    6.3227    1.5888    0.3013 H   0  0  0  0  0  0  0  0  0  0  0  0
    4.9443    2.6998    0.1809 H   0  0  0  0  0  0  0  0  0  0  0  0
    3.3386   -0.3966    1.0248 H   0  0  0  0  0  0  0  0  0  0  0  0
   -2.7488    0.8664    0.7380 H   0  0  0  0  0  0  0  0  0  0  0  0
   -2.8052    0.0348    2.2822 H   0  0  0  0  0  0  0  0  0  0  0  0
   -2.7271   -1.3882   -0.4476 H   0  0  0  0  0  0  0  0  0  0  0  0
   -2.8186   -2.1946    1.1005 H   0  0  0  0  0  0  0  0  0  0  0  0
   -4.8922   -2.0774    2.4869 H   0  0  0  0  0  0  0  0  0  0  0  0
   -7.3497   -1.8423    2.4509 H   0  0  0  0  0  0  0  0  0  0  0  0
   -8.4749   -0.7771    0.5140 H   0  0  0  0  0  0  0  0  0  0  0  0
   -7.1300    0.0566   -1.3959 H   0  0  0  0  0  0  0  0  0  0  0  0
   -4.6724   -0.1717   -1.3804 H   0  0  0  0  0  0  0  0  0  0  0  0
  1  2  1  0
  2  3  1  0
  3  4  1  0
  3  5  1  0
  5  6  2  0
  5  7  1  0
  7  8  1  0
  8  9  2  0
  9 10  1  0
 10 11  2  0
 11 12  1  0
 12 13  1  0
 13 14  1  0
 14 15  2  0
 15 16  1  0
 16 17  2  0
 17 18  1  0
 18 19  2  0
 11 20  1  0
 20  8  1  0
 19 14  1  0
  1 21  1  0
  1 22  1  0
  1 23  1  0
  2 24  1  0
  2 25  1  0
  3 26  1  0
  4 27  1  0
  4 28  1  0
  4 29  1  0
  7 30  1  0
 12 31  1  0
 12 32  1  0
 13 33  1  0
 13 34  1  0
 15 35  1  0
 16 36  1  0
 17 37  1  0
 18 38  1  0
 19 39  1  0
M  END
$$$$
