
     RDKit          3D

 57 59  0  0  0  0  0  0  0  0999 V2000
   -2.1717   -1.9033   -3.1169 C   0  0  0  0  0  0  0  0  0  0  0  0
   -3.4162   -1.6174   -2.2816 C   0  0  0  0  0  0  0  0  0  0  0  0
   -3.2441   -1.9023   -0.8496 N   0  0  0  0  0  0  0  0  0  0  0  0
   -4.4962   -1.7430   -0.0946 C   0  0  0  0  0  0  0  0  0  0  0  0
   -5.5270   -2.8117   -0.4281 C   0  0  0  0  0  0  0  0  0  0  0  0
   -2.1431   -1.1549   -0.2135 C   0  0  0  0  0  0  0  0  0  0  0  0
   -2.1992    0.3817   -0.2741 C   0  0  0  0  0  0  0  0  0  0  0  0
   -1.0991    0.8876    0.4834 O   0  0  0  0  0  0  0  0  0  0  0  0
   -0.9215    2.2442    0.5425 C   0  0  0  0  0  0  0  0  0  0  0  0
   -1.6322    3.1855   -0.1223 C   0  0  0  0  0  0  0  0  0  0  0  0
   -1.2824    4.6315    0.1080 C   0  0  2  0  0  0  0  0  0  0  0  0
   -1.6770    5.5099   -0.9364 O   0  0  0  0  0  0  0  0  0  0  0  0
   -0.9773    6.6785   -0.7270 C   0  0  0  0  0  0  0  0  0  0  0  0
   -1.2327    7.7249   -1.3018 O   0  0  0  0  0  0  0  0  0  0  0  0
    0.3762    6.5311    0.4214 S   0  0  0  0  0  0  0  0  0  0  0  0
    0.2396    4.7623    0.2462 C   0  0  1  0  0  0  0  0  0  0  0  0
    0.7354    3.8833    1.3396 C   0  0  0  0  0  0  0  0  0  0  0  0
    0.1635    2.6622    1.4466 C   0  0  0  0  0  0  0  0  0  0  0  0
    0.6318    1.7922    2.5548 C   0  0  0  0  0  0  0  0  0  0  0  0
    0.2206    1.9620    3.6992 O   0  0  0  0  0  0  0  0  0  0  0  0
    1.6412    0.7370    2.2760 C   0  0  0  0  0  0  0  0  0  0  0  0
    2.1906    0.4787    1.0821 C   0  0  0  0  0  0  0  0  0  0  0  0
    3.2016   -0.5641    0.8747 C   0  0  0  0  0  0  0  0  0  0  0  0
    3.1362   -1.8077    1.5149 C   0  0  0  0  0  0  0  0  0  0  0  0
    4.1110   -2.7856    1.2800 C   0  0  0  0  0  0  0  0  0  0  0  0
    5.1582   -2.5361    0.3927 C   0  0  0  0  0  0  0  0  0  0  0  0
    6.1709   -3.3971    0.0784 O   0  0  0  0  0  0  0  0  0  0  0  0
    6.1545   -4.6666    0.7159 C   0  0  0  0  0  0  0  0  0  0  0  0
    5.2156   -1.3048   -0.2606 C   0  0  0  0  0  0  0  0  0  0  0  0
    4.2434   -0.3267   -0.0267 C   0  0  0  0  0  0  0  0  0  0  0  0
   -1.3603   -1.1984   -2.8991 H   0  0  0  0  0  0  0  0  0  0  0  0
   -1.8014   -2.9230   -2.9477 H   0  0  0  0  0  0  0  0  0  0  0  0
   -2.4138   -1.8068   -4.1799 H   0  0  0  0  0  0  0  0  0  0  0  0
   -4.2070   -2.2560   -2.6879 H   0  0  0  0  0  0  0  0  0  0  0  0
   -3.7346   -0.5818   -2.4445 H   0  0  0  0  0  0  0  0  0  0  0  0
   -4.9307   -0.7511   -0.2490 H   0  0  0  0  0  0  0  0  0  0  0  0
   -4.2874   -1.8384    0.9788 H   0  0  0  0  0  0  0  0  0  0  0  0
   -5.9596   -2.6658   -1.4226 H   0  0  0  0  0  0  0  0  0  0  0  0
   -5.0874   -3.8098   -0.3837 H   0  0  0  0  0  0  0  0  0  0  0  0
   -6.3457   -2.7780    0.2959 H   0  0  0  0  0  0  0  0  0  0  0  0
   -2.0630   -1.4625    0.8389 H   0  0  0  0  0  0  0  0  0  0  0  0
   -1.1859   -1.4870   -0.6361 H   0  0  0  0  0  0  0  0  0  0  0  0
   -3.1327    0.7494    0.1626 H   0  0  0  0  0  0  0  0  0  0  0  0
   -2.1150    0.7187   -1.3134 H   0  0  0  0  0  0  0  0  0  0  0  0
   -2.4616    2.9578   -0.7786 H   0  0  0  0  0  0  0  0  0  0  0  0
   -1.8250    4.9386    1.0186 H   0  0  0  0  0  0  0  0  0  0  0  0
    0.7543    4.4997   -0.6886 H   0  0  0  0  0  0  0  0  0  0  0  0
    1.5287    4.2108    2.0032 H   0  0  0  0  0  0  0  0  0  0  0  0
    1.9211    0.1758    3.1632 H   0  0  0  0  0  0  0  0  0  0  0  0
    1.9295    1.0546    0.1983 H   0  0  0  0  0  0  0  0  0  0  0  0
    2.3240   -2.0384    2.2003 H   0  0  0  0  0  0  0  0  0  0  0  0
    4.0180   -3.7308    1.8040 H   0  0  0  0  0  0  0  0  0  0  0  0
    7.0228   -5.2325    0.3621 H   0  0  0  0  0  0  0  0  0  0  0  0
    5.2563   -5.2326    0.4454 H   0  0  0  0  0  0  0  0  0  0  0  0
    6.2408   -4.5621    1.8017 H   0  0  0  0  0  0  0  0  0  0  0  0
    6.0237   -1.1043   -0.9594 H   0  0  0  0  0  0  0  0  0  0  0  0
    4.3212    0.6227   -0.5500 H   0  0  0  0  0  0  0  0  0  0  0  0
  1  2  1  0
  2  3  1  0
  3  4  1  0
  4  5  1  0
  3  6  1  0
  6  7  1  0
  7  8  1  0
  8  9  1  0
  9 10  2  0
 10 11  1  0
 11 12  1  0
 12 13  1  0
 13 14  2  0
 13 15  1  0
 15 16  1  0
 16 17  1  0
 17 18  2  0
 18 19  1  0
 19 20  2  0
 19 21  1  0
 21 22  2  0
 22 23  1  0
 23 24  2  0
 24 25  1  0
 25 26  2  0
 26 27  1  0
 27 28  1  0
 26 29  1  0
 29 30  2  0
 18  9  1  0
 30 23  1  0
 16 11  1  0
  1 31  1  0
  1 32  1  0
  1 33  1  0
  2 34  1  0
  2 35  1  0
  4 36  1  0
  4 37  1  0
  5 38  1  0
  5 39  1  0
  5 40  1  0
  6 41  1  0
  6 42  1  0
  7 43  1  0
  7 44  1  0
 10 45  1  0
 11 46  1  1
 16 47  1  6
 17 48  1  0
 21 49  1  0
 22 50  1  0
 24 51  1  0
 25 52  1  0
 28 53  1  0
 28 54  1  0
 28 55  1  0
 29 56  1  0
 30 57  1  0
M  END
$$$$
