
     RDKit          3D

 38 38  0  0  0  0  0  0  0  0999 V2000
    6.9155    1.8037    2.0355 C   0  0  0  0  0  0  0  0  0  0  0  0
    6.1067    2.1859    0.9313 O   0  0  0  0  0  0  0  0  0  0  0  0
    4.9050    1.4199    0.8241 C   0  0  0  0  0  0  0  0  0  0  0  0
    3.7896    1.9974    1.7018 C   0  0  0  0  0  0  0  0  0  0  0  0
    2.5969    1.1666    1.7279 N   0  0  0  0  0  0  0  0  0  0  0  0
    1.7064    1.1529    0.6755 C   0  0  0  0  0  0  0  0  0  0  0  0
    1.8851    1.8334   -0.3315 O   0  0  0  0  0  0  0  0  0  0  0  0
    0.5051    0.2546    0.8231 C   0  0  0  0  0  0  0  0  0  0  0  0
    0.3853   -0.5304    1.9976 C   0  0  0  0  0  0  0  0  0  0  0  0
    0.3525   -1.1452    2.9820 N   0  0  0  0  0  0  0  0  0  0  0  0
   -0.3846    0.2603   -0.1931 C   0  0  0  0  0  0  0  0  0  0  0  0
   -1.6451   -0.4689   -0.3992 C   0  0  0  0  0  0  0  0  0  0  0  0
   -2.1442   -1.4315    0.6503 C   0  0  0  0  0  0  0  0  0  0  0  0
   -2.3198   -0.2404   -1.5476 C   0  0  0  0  0  0  0  0  0  0  0  0
   -3.5873   -0.8676   -1.9321 C   0  0  0  0  0  0  0  0  0  0  0  0
   -3.5883   -2.0673   -2.6514 C   0  0  0  0  0  0  0  0  0  0  0  0
   -4.7963   -2.6659   -3.0138 C   0  0  0  0  0  0  0  0  0  0  0  0
   -6.0055   -2.0684   -2.6591 C   0  0  0  0  0  0  0  0  0  0  0  0
   -6.0091   -0.8723   -1.9421 C   0  0  0  0  0  0  0  0  0  0  0  0
   -4.8024   -0.2718   -1.5786 C   0  0  0  0  0  0  0  0  0  0  0  0
    6.3874    1.9537    2.9809 H   0  0  0  0  0  0  0  0  0  0  0  0
    7.2253    0.7587    1.9388 H   0  0  0  0  0  0  0  0  0  0  0  0
    7.8110    2.4310    2.0369 H   0  0  0  0  0  0  0  0  0  0  0  0
    5.0978    0.3672    1.0647 H   0  0  0  0  0  0  0  0  0  0  0  0
    4.5970    1.4518   -0.2265 H   0  0  0  0  0  0  0  0  0  0  0  0
    3.5227    3.0006    1.3493 H   0  0  0  0  0  0  0  0  0  0  0  0
    4.1247    2.1063    2.7379 H   0  0  0  0  0  0  0  0  0  0  0  0
    2.4556    0.5927    2.5512 H   0  0  0  0  0  0  0  0  0  0  0  0
   -0.1468    0.9228   -1.0312 H   0  0  0  0  0  0  0  0  0  0  0  0
   -3.0907   -1.9116    0.3853 H   0  0  0  0  0  0  0  0  0  0  0  0
   -2.3209   -0.9113    1.5974 H   0  0  0  0  0  0  0  0  0  0  0  0
   -1.4239   -2.2417    0.8037 H   0  0  0  0  0  0  0  0  0  0  0  0
   -1.9470    0.4575   -2.2959 H   0  0  0  0  0  0  0  0  0  0  0  0
   -2.6509   -2.5419   -2.9312 H   0  0  0  0  0  0  0  0  0  0  0  0
   -4.7938   -3.5983   -3.5723 H   0  0  0  0  0  0  0  0  0  0  0  0
   -6.9456   -2.5353   -2.9417 H   0  0  0  0  0  0  0  0  0  0  0  0
   -6.9517   -0.4071   -1.6655 H   0  0  0  0  0  0  0  0  0  0  0  0
   -4.8159    0.6598   -1.0181 H   0  0  0  0  0  0  0  0  0  0  0  0
  1  2  1  0
  2  3  1  0
  3  4  1  0
  4  5  1  0
  5  6  1  0
  6  7  2  0
  6  8  1  0
  8  9  1  0
  9 10  3  0
  8 11  2  3
 11 12  1  0
 12 13  1  0
 12 14  2  3
 14 15  1  0
 15 16  2  0
 16 17  1  0
 17 18  2  0
 18 19  1  0
 19 20  2  0
 20 15  1  0
  1 21  1  0
  1 22  1  0
  1 23  1  0
  3 24  1  0
  3 25  1  0
  4 26  1  0
  4 27  1  0
  5 28  1  0
 11 29  1  0
 13 30  1  0
 13 31  1  0
 13 32  1  0
 14 33  1  0
 16 34  1  0
 17 35  1  0
 18 36  1  0
 19 37  1  0
 20 38  1  0
M  END
$$$$
