
     RDKit          3D

 59 62  0  0  0  0  0  0  0  0999 V2000
    7.6313   -2.0329    2.0904 C   0  0  0  0  0  0  0  0  0  0  0  0
    7.4108   -0.9033    1.2559 O   0  0  0  0  0  0  0  0  0  0  0  0
    6.1142   -0.5092    1.0711 C   0  0  0  0  0  0  0  0  0  0  0  0
    5.9562    0.5784    0.2054 C   0  0  0  0  0  0  0  0  0  0  0  0
    4.6876    1.0894   -0.0814 C   0  0  0  0  0  0  0  0  0  0  0  0
    3.5618    0.5127    0.5036 C   0  0  0  0  0  0  0  0  0  0  0  0
    2.2167    1.0153    0.2332 C   0  0  0  0  0  0  0  0  0  0  0  0
    1.1376    0.4321    0.7846 C   0  0  0  0  0  0  0  0  0  0  0  0
   -0.2610    0.9162    0.5477 C   0  0  0  0  0  0  0  0  0  0  0  0
   -0.7039    0.5210   -0.8107 N   0  0  0  0  0  0  0  0  0  0  0  0
   -1.2091   -0.8822   -0.9156 C   0  0  0  0  0  0  0  0  0  0  0  0
   -0.1430   -1.8036   -1.5244 C   0  0  0  0  0  0  0  0  0  0  0  0
   -0.5133   -3.2751   -1.4166 C   0  0  0  0  0  0  0  0  0  0  0  0
    0.2704   -3.8715   -2.5589 C   0  0  0  0  0  0  0  0  0  0  0  0
    0.1383   -2.8003   -3.6194 C   0  0  0  0  0  0  0  0  0  0  0  0
    0.0230   -1.5474   -2.9328 O   0  0  0  0  0  0  0  0  0  0  0  0
   -1.5002    1.7083   -1.7229 S   0  0  0  0  0  6  0  0  0  0  0  0
   -1.8286    1.1811   -3.0285 O   0  0  0  0  0  0  0  0  0  0  0  0
   -0.7647    2.9493   -1.5826 O   0  0  0  0  0  0  0  0  0  0  0  0
   -3.0423    1.9180   -0.8435 C   0  0  0  0  0  0  0  0  0  0  0  0
   -3.1475    2.8971    0.1500 C   0  0  0  0  0  0  0  0  0  0  0  0
   -4.3626    3.0828    0.8180 C   0  0  0  0  0  0  0  0  0  0  0  0
   -5.4770    2.3015    0.4832 C   0  0  0  0  0  0  0  0  0  0  0  0
   -6.7937    2.4572    1.1694 C   0  0  0  0  0  0  0  0  0  0  0  0
   -6.9854    3.5977    2.1340 C   0  0  0  0  0  0  0  0  0  0  0  0
   -7.6955    1.6520    0.9475 O   0  0  0  0  0  0  0  0  0  0  0  0
   -5.3651    1.3386   -0.5312 C   0  0  0  0  0  0  0  0  0  0  0  0
   -4.1544    1.1532   -1.2037 C   0  0  0  0  0  0  0  0  0  0  0  0
    1.3059   -0.7363    1.6961 C   0  0  0  0  0  0  0  0  0  0  0  0
    0.3405   -1.3118    2.1907 O   0  0  0  0  0  0  0  0  0  0  0  0
    2.5846   -1.1580    1.9456 N   0  0  0  0  0  0  0  0  0  0  0  0
    3.7210   -0.5757    1.3691 C   0  0  0  0  0  0  0  0  0  0  0  0
    4.9883   -1.0892    1.6576 C   0  0  0  0  0  0  0  0  0  0  0  0
    7.3037   -1.8351    3.1162 H   0  0  0  0  0  0  0  0  0  0  0  0
    7.1435   -2.9255    1.6845 H   0  0  0  0  0  0  0  0  0  0  0  0
    8.7080   -2.2248    2.1161 H   0  0  0  0  0  0  0  0  0  0  0  0
    6.8323    1.0304   -0.2545 H   0  0  0  0  0  0  0  0  0  0  0  0
    4.5941    1.9300   -0.7637 H   0  0  0  0  0  0  0  0  0  0  0  0
    2.1080    1.8620   -0.4393 H   0  0  0  0  0  0  0  0  0  0  0  0
   -0.9688    0.5576    1.3023 H   0  0  0  0  0  0  0  0  0  0  0  0
   -0.2546    2.0062    0.6610 H   0  0  0  0  0  0  0  0  0  0  0  0
   -1.5071   -1.2466    0.0745 H   0  0  0  0  0  0  0  0  0  0  0  0
   -2.1052   -0.9179   -1.5432 H   0  0  0  0  0  0  0  0  0  0  0  0
    0.8349   -1.6391   -1.0607 H   0  0  0  0  0  0  0  0  0  0  0  0
   -0.2593   -3.7057   -0.4437 H   0  0  0  0  0  0  0  0  0  0  0  0
   -1.5868   -3.4237   -1.5896 H   0  0  0  0  0  0  0  0  0  0  0  0
   -0.1010   -4.8454   -2.8876 H   0  0  0  0  0  0  0  0  0  0  0  0
    1.3215   -3.9837   -2.2693 H   0  0  0  0  0  0  0  0  0  0  0  0
    0.9960   -2.7721   -4.2971 H   0  0  0  0  0  0  0  0  0  0  0  0
   -0.7715   -2.9402   -4.2123 H   0  0  0  0  0  0  0  0  0  0  0  0
   -2.2948    3.5240    0.4034 H   0  0  0  0  0  0  0  0  0  0  0  0
   -4.4135    3.8442    1.5913 H   0  0  0  0  0  0  0  0  0  0  0  0
   -8.0399    3.6480    2.4242 H   0  0  0  0  0  0  0  0  0  0  0  0
   -6.7261    4.5487    1.6609 H   0  0  0  0  0  0  0  0  0  0  0  0
   -6.3866    3.4330    3.0335 H   0  0  0  0  0  0  0  0  0  0  0  0
   -6.2278    0.7348   -0.8112 H   0  0  0  0  0  0  0  0  0  0  0  0
   -4.0935    0.4219   -2.0074 H   0  0  0  0  0  0  0  0  0  0  0  0
    2.6769   -1.9542    2.5612 H   0  0  0  0  0  0  0  0  0  0  0  0
    5.0764   -1.9322    2.3324 H   0  0  0  0  0  0  0  0  0  0  0  0
  1  2  1  0
  2  3  1  0
  3  4  2  0
  4  5  1  0
  5  6  2  0
  6  7  1  0
  7  8  2  0
  8  9  1  0
  9 10  1  0
 10 11  1  0
 11 12  1  0
 12 13  1  0
 13 14  1  0
 14 15  1  0
 15 16  1  0
 10 17  1  0
 17 18  2  0
 17 19  2  0
 17 20  1  0
 20 21  2  0
 21 22  1  0
 22 23  2  0
 23 24  1  0
 24 25  1  0
 24 26  2  0
 23 27  1  0
 27 28  2  0
  8 29  1  0
 29 30  2  0
 29 31  1  0
 31 32  1  0
 32 33  2  0
 33  3  1  0
 32  6  1  0
 16 12  1  0
 28 20  1  0
  1 34  1  0
  1 35  1  0
  1 36  1  0
  4 37  1  0
  5 38  1  0
  7 39  1  0
  9 40  1  0
  9 41  1  0
 11 42  1  0
 11 43  1  0
 12 44  1  0
 13 45  1  0
 13 46  1  0
 14 47  1  0
 14 48  1  0
 15 49  1  0
 15 50  1  0
 21 51  1  0
 22 52  1  0
 25 53  1  0
 25 54  1  0
 25 55  1  0
 27 56  1  0
 28 57  1  0
 31 58  1  0
 33 59  1  0
M  END
$$$$
