
     RDKit          3D

 33 34  0  0  0  0  0  0  0  0999 V2000
   -2.3676    1.5652   -1.7970 C   0  0  0  0  0  0  0  0  0  0  0  0
   -2.7035    0.5686   -0.6964 C   0  0  0  0  0  0  0  0  0  0  0  0
   -1.5474    0.3267    0.1756 N   0  0  0  0  0  0  0  0  0  0  0  0
   -1.8469    0.1189    1.6037 C   0  0  0  0  0  0  0  0  0  0  0  0
   -2.0513    1.4517    2.3114 C   0  0  0  0  0  0  0  0  0  0  0  0
   -0.3886   -0.3361   -0.2971 C   0  0  0  0  0  0  0  0  0  0  0  0
   -0.4879   -1.2433   -1.3724 C   0  0  0  0  0  0  0  0  0  0  0  0
    0.6238   -1.9132   -1.8620 C   0  0  0  0  0  0  0  0  0  0  0  0
    1.8609   -1.6744   -1.2700 C   0  0  0  0  0  0  0  0  0  0  0  0
    2.9886   -2.4111   -1.8103 N   0  0  0  0  0  4  0  0  0  0  0  0
    3.2689   -2.2160   -3.0004 O   0  0  0  0  0  0  0  0  0  0  0  0
    3.5716   -3.1971   -1.0517 O   0  0  0  0  0  1  0  0  0  0  0  0
    2.0363   -0.7656   -0.2007 C   0  0  0  0  0  0  0  0  0  0  0  0
    3.2885   -0.4729    0.3996 C   0  0  0  0  0  0  0  0  0  0  0  0
    3.3883    0.4427    1.4356 C   0  0  0  0  0  0  0  0  0  0  0  0
    2.2318    1.0527    1.8513 C   0  0  0  0  0  0  0  0  0  0  0  0
    1.0241    0.8032    1.3073 N   0  0  0  0  0  0  0  0  0  0  0  0
    0.8936   -0.0882    0.2935 C   0  0  0  0  0  0  0  0  0  0  0  0
   -3.2626    1.7938   -2.3843 H   0  0  0  0  0  0  0  0  0  0  0  0
   -1.6081    1.1782   -2.4828 H   0  0  0  0  0  0  0  0  0  0  0  0
   -1.9899    2.5017   -1.3729 H   0  0  0  0  0  0  0  0  0  0  0  0
   -3.5231    1.0015   -0.1099 H   0  0  0  0  0  0  0  0  0  0  0  0
   -3.1045   -0.3628   -1.1098 H   0  0  0  0  0  0  0  0  0  0  0  0
   -1.0687   -0.4510    2.1254 H   0  0  0  0  0  0  0  0  0  0  0  0
   -2.7593   -0.4841    1.6974 H   0  0  0  0  0  0  0  0  0  0  0  0
   -2.9037    1.9992    1.8972 H   0  0  0  0  0  0  0  0  0  0  0  0
   -2.2446    1.2873    3.3761 H   0  0  0  0  0  0  0  0  0  0  0  0
   -1.1708    2.0945    2.2196 H   0  0  0  0  0  0  0  0  0  0  0  0
   -1.4458   -1.4588   -1.8353 H   0  0  0  0  0  0  0  0  0  0  0  0
    0.5165   -2.6118   -2.6887 H   0  0  0  0  0  0  0  0  0  0  0  0
    4.2056   -0.9541    0.0647 H   0  0  0  0  0  0  0  0  0  0  0  0
    4.3410    0.6715    1.8989 H   0  0  0  0  0  0  0  0  0  0  0  0
    2.2347    1.7830    2.6550 H   0  0  0  0  0  0  0  0  0  0  0  0
  1  2  1  0
  2  3  1  0
  3  4  1  0
  4  5  1  0
  3  6  1  0
  6  7  2  0
  7  8  1  0
  8  9  2  0
  9 10  1  0
 10 11  2  0
 10 12  1  0
  9 13  1  0
 13 14  2  0
 14 15  1  0
 15 16  2  0
 16 17  1  0
 17 18  2  0
 18  6  1  0
 18 13  1  0
  1 19  1  0
  1 20  1  0
  1 21  1  0
  2 22  1  0
  2 23  1  0
  4 24  1  0
  4 25  1  0
  5 26  1  0
  5 27  1  0
  5 28  1  0
  7 29  1  0
  8 30  1  0
 14 31  1  0
 15 32  1  0
 16 33  1  0
M  CHG  2  10   1  12  -1
M  END
$$$$
