
     RDKit          3D

 67 72  0  0  0  0  0  0  0  0999 V2000
    2.8668    0.6860   -2.5178 O   0  0  0  0  0  0  0  0  0  0  0  0
    2.3996    0.2904   -1.4473 C   0  0  0  0  0  0  0  0  0  0  0  0
    3.2426    0.2490   -0.1523 C   0  0  0  0  0  0  0  0  0  0  0  0
    4.7429    0.2836   -0.4943 C   0  0  0  0  0  0  0  0  0  0  0  0
    5.6262    0.4346    0.7251 C   0  0  0  0  0  0  0  0  0  0  0  0
    6.2305   -0.6878    1.3078 C   0  0  0  0  0  0  0  0  0  0  0  0
    7.0282   -0.5507    2.4444 C   0  0  0  0  0  0  0  0  0  0  0  0
    7.2313    0.7082    3.0070 C   0  0  0  0  0  0  0  0  0  0  0  0
    6.6364    1.8311    2.4343 C   0  0  0  0  0  0  0  0  0  0  0  0
    5.8361    1.6962    1.2988 C   0  0  0  0  0  0  0  0  0  0  0  0
    2.9194   -0.9623    0.6079 N   0  0  0  0  0  0  0  0  0  0  0  0
    1.5517   -1.0500    0.8903 C   0  0  0  0  0  0  0  0  0  0  0  0
    1.2505   -1.6219    2.0624 N   0  0  0  0  0  0  0  0  0  0  0  0
   -0.0497   -1.7638    2.3170 C   0  0  0  0  0  0  0  0  0  0  0  0
   -1.0555   -1.3334    1.5469 N   0  0  0  0  0  0  0  0  0  0  0  0
   -0.7394   -0.7133    0.3906 C   0  0  0  0  0  0  0  0  0  0  0  0
   -1.7921   -0.0827   -0.3010 N   0  0  0  0  0  0  0  0  0  0  0  0
   -1.7319    1.4051   -0.1979 C   0  0  0  0  0  0  0  0  0  0  0  0
   -2.8930    1.9968    0.6332 C   0  0  0  0  0  0  0  0  0  0  0  0
   -4.2196    1.6074    0.0831 N   0  0  0  0  0  0  0  0  0  0  0  0
   -5.2601    1.9345    0.9668 C   0  0  0  0  0  0  0  0  0  0  0  0
   -5.5969    3.2869    1.1437 C   0  0  0  0  0  0  0  0  0  0  0  0
   -6.6123    3.6794    2.0206 C   0  0  0  0  0  0  0  0  0  0  0  0
   -7.3115    2.7206    2.7458 C   0  0  0  0  0  0  0  0  0  0  0  0
   -6.9932    1.3744    2.5916 C   0  0  0  0  0  0  0  0  0  0  0  0
   -5.9765    0.9871    1.7107 C   0  0  0  0  0  0  0  0  0  0  0  0
   -4.2382    0.2830   -0.5847 C   0  0  0  0  0  0  0  0  0  0  0  0
   -3.1398   -0.6481   -0.0300 C   0  0  0  0  0  0  0  0  0  0  0  0
    0.5959   -0.6052   -0.0330 C   0  0  0  0  0  0  0  0  0  0  0  0
    1.0509   -0.0706   -1.2939 N   0  0  0  0  0  0  0  0  0  0  0  0
    0.2639   -0.2484   -2.5135 C   0  0  0  0  0  0  0  0  0  0  0  0
    0.3829   -1.6506   -3.0813 C   0  0  0  0  0  0  0  0  0  0  0  0
   -0.5498   -2.6416   -2.7410 C   0  0  0  0  0  0  0  0  0  0  0  0
   -0.4265   -3.9378   -3.2468 C   0  0  0  0  0  0  0  0  0  0  0  0
    0.6323   -4.2522   -4.0953 C   0  0  0  0  0  0  0  0  0  0  0  0
    0.7834   -5.8491   -4.7181 Cl  0  0  0  0  0  0  0  0  0  0  0  0
    1.5690   -3.2820   -4.4420 C   0  0  0  0  0  0  0  0  0  0  0  0
    1.4454   -1.9862   -3.9354 C   0  0  0  0  0  0  0  0  0  0  0  0
    2.9820    1.1413    0.4343 H   0  0  0  0  0  0  0  0  0  0  0  0
    5.0278   -0.6229   -1.0450 H   0  0  0  0  0  0  0  0  0  0  0  0
    4.9612    1.1186   -1.1728 H   0  0  0  0  0  0  0  0  0  0  0  0
    6.0813   -1.6775    0.8797 H   0  0  0  0  0  0  0  0  0  0  0  0
    7.4936   -1.4264    2.8895 H   0  0  0  0  0  0  0  0  0  0  0  0
    7.8557    0.8144    3.8902 H   0  0  0  0  0  0  0  0  0  0  0  0
    6.7994    2.8135    2.8708 H   0  0  0  0  0  0  0  0  0  0  0  0
    5.3841    2.5838    0.8620 H   0  0  0  0  0  0  0  0  0  0  0  0
    3.4320   -1.1017    1.4756 H   0  0  0  0  0  0  0  0  0  0  0  0
   -0.3188   -2.2608    3.2426 H   0  0  0  0  0  0  0  0  0  0  0  0
   -0.7823    1.7575    0.2237 H   0  0  0  0  0  0  0  0  0  0  0  0
   -1.7917    1.8085   -1.2164 H   0  0  0  0  0  0  0  0  0  0  0  0
   -2.7973    3.0891    0.6327 H   0  0  0  0  0  0  0  0  0  0  0  0
   -2.7954    1.6498    1.6712 H   0  0  0  0  0  0  0  0  0  0  0  0
   -5.0735    4.0494    0.5717 H   0  0  0  0  0  0  0  0  0  0  0  0
   -6.8565    4.7324    2.1294 H   0  0  0  0  0  0  0  0  0  0  0  0
   -8.1015    3.0209    3.4286 H   0  0  0  0  0  0  0  0  0  0  0  0
   -7.5316    0.6208    3.1603 H   0  0  0  0  0  0  0  0  0  0  0  0
   -5.7435   -0.0709    1.6420 H   0  0  0  0  0  0  0  0  0  0  0  0
   -5.2192   -0.2022   -0.5319 H   0  0  0  0  0  0  0  0  0  0  0  0
   -4.0504    0.4553   -1.6526 H   0  0  0  0  0  0  0  0  0  0  0  0
   -3.3214   -0.7859    1.0435 H   0  0  0  0  0  0  0  0  0  0  0  0
   -3.2180   -1.6272   -0.5171 H   0  0  0  0  0  0  0  0  0  0  0  0
    0.6161    0.4608   -3.2740 H   0  0  0  0  0  0  0  0  0  0  0  0
   -0.7847    0.0120   -2.3828 H   0  0  0  0  0  0  0  0  0  0  0  0
   -1.3780   -2.4106   -2.0758 H   0  0  0  0  0  0  0  0  0  0  0  0
   -1.1553   -4.6953   -2.9722 H   0  0  0  0  0  0  0  0  0  0  0  0
    2.3982   -3.5254   -5.1009 H   0  0  0  0  0  0  0  0  0  0  0  0
    2.1879   -1.2376   -4.2087 H   0  0  0  0  0  0  0  0  0  0  0  0
  1  2  2  0
  2  3  1  0
  3  4  1  0
  4  5  1  0
  5  6  2  0
  6  7  1  0
  7  8  2  0
  8  9  1  0
  9 10  2  0
  3 11  1  0
 11 12  1  0
 12 13  2  0
 13 14  1  0
 14 15  2  0
 15 16  1  0
 16 17  1  0
 17 18  1  0
 18 19  1  0
 19 20  1  0
 20 21  1  0
 21 22  2  0
 22 23  1  0
 23 24  2  0
 24 25  1  0
 25 26  2  0
 20 27  1  0
 27 28  1  0
 16 29  2  0
 29 30  1  0
 30 31  1  0
 31 32  1  0
 32 33  2  0
 33 34  1  0
 34 35  2  0
 35 36  1  0
 35 37  1  0
 37 38  2  0
 30  2  1  0
 38 32  1  0
 10  5  1  0
 29 12  1  0
 28 17  1  0
 26 21  1  0
  3 39  1  0
  4 40  1  0
  4 41  1  0
  6 42  1  0
  7 43  1  0
  8 44  1  0
  9 45  1  0
 10 46  1  0
 11 47  1  0
 14 48  1  0
 18 49  1  0
 18 50  1  0
 19 51  1  0
 19 52  1  0
 22 53  1  0
 23 54  1  0
 24 55  1  0
 25 56  1  0
 26 57  1  0
 27 58  1  0
 27 59  1  0
 28 60  1  0
 28 61  1  0
 31 62  1  0
 31 63  1  0
 33 64  1  0
 34 65  1  0
 37 66  1  0
 38 67  1  0
M  END
$$$$
