
     RDKit          3D

 54 58  0  0  0  0  0  0  0  0999 V2000
    1.7756    1.1445    3.4754 O   0  0  0  0  0  0  0  0  0  0  0  0
    1.9981    0.8616    2.3004 C   0  0  0  0  0  0  0  0  0  0  0  0
    1.0616    1.2675    1.1791 C   0  0  0  0  0  0  0  0  0  0  0  0
    0.4350   -0.2114    0.3216 S   0  0  0  0  0  0  0  0  0  0  0  0
   -0.7017    0.5397   -0.7931 C   0  0  0  0  0  0  0  0  0  0  0  0
   -0.4309    1.7576   -1.1538 N   0  0  0  0  0  0  0  0  0  0  0  0
   -1.3429    2.3287   -2.0460 C   0  0  0  0  0  0  0  0  0  0  0  0
   -2.4518    1.6657   -2.4708 C   0  0  0  0  0  0  0  0  0  0  0  0
   -3.3832    2.5865   -3.5385 S   0  0  0  0  0  0  0  0  0  0  0  0
   -2.2794    3.9170   -3.4500 C   0  0  0  0  0  0  0  0  0  0  0  0
   -2.3791    5.1490   -4.1255 C   0  0  0  0  0  0  0  0  0  0  0  0
   -1.3927    6.1132   -3.9208 C   0  0  0  0  0  0  0  0  0  0  0  0
   -0.3297    5.8639   -3.0663 C   0  0  0  0  0  0  0  0  0  0  0  0
   -0.2284    4.6387   -2.4015 C   0  0  0  0  0  0  0  0  0  0  0  0
   -1.2119    3.6401   -2.5873 C   0  0  0  0  0  0  0  0  0  0  0  0
   -2.7707    0.3344   -2.0496 C   0  0  0  0  0  0  0  0  0  0  0  0
   -3.7989   -0.2631   -2.3681 O   0  0  0  0  0  0  0  0  0  0  0  0
   -1.7933   -0.2254   -1.2135 N   0  0  0  0  0  0  0  0  0  0  0  0
   -2.0503   -1.6034   -0.7703 C   0  0  0  0  0  0  0  0  0  0  0  0
   -2.8976   -1.6457    0.5057 C   0  0  0  0  0  0  0  0  0  0  0  0
   -3.0772   -3.0593    0.9977 C   0  0  0  0  0  0  0  0  0  0  0  0
   -4.1175   -3.8561    0.5015 C   0  0  0  0  0  0  0  0  0  0  0  0
   -4.2613   -5.1765    0.9308 C   0  0  0  0  0  0  0  0  0  0  0  0
   -3.3660   -5.7129    1.8541 C   0  0  0  0  0  0  0  0  0  0  0  0
   -2.3301   -4.9274    2.3538 C   0  0  0  0  0  0  0  0  0  0  0  0
   -2.1836   -3.6066    1.9275 C   0  0  0  0  0  0  0  0  0  0  0  0
    3.1381    0.2080    1.8850 N   0  0  0  0  0  0  0  0  0  0  0  0
    4.0717   -0.3302    2.8449 C   0  0  0  0  0  0  0  0  0  0  0  0
    5.3554   -0.5885    2.1482 C   0  0  0  0  0  0  0  0  0  0  0  0
    6.4909    0.1701    1.9371 C   0  0  0  0  0  0  0  0  0  0  0  0
    7.3813   -0.6397    1.1880 C   0  0  0  0  0  0  0  0  0  0  0  0
    6.7344   -1.8368    0.9911 C   0  0  0  0  0  0  0  0  0  0  0  0
    5.4994   -1.8126    1.5625 O   0  0  0  0  0  0  0  0  0  0  0  0
    1.6105    1.9254    0.4974 H   0  0  0  0  0  0  0  0  0  0  0  0
    0.2220    1.8263    1.6126 H   0  0  0  0  0  0  0  0  0  0  0  0
   -3.2066    5.3478   -4.7966 H   0  0  0  0  0  0  0  0  0  0  0  0
   -1.4613    7.0688   -4.4357 H   0  0  0  0  0  0  0  0  0  0  0  0
    0.4306    6.6224   -2.9131 H   0  0  0  0  0  0  0  0  0  0  0  0
    0.6091    4.4479   -1.7357 H   0  0  0  0  0  0  0  0  0  0  0  0
   -1.1050   -2.1402   -0.6335 H   0  0  0  0  0  0  0  0  0  0  0  0
   -2.5723   -2.1442   -1.5720 H   0  0  0  0  0  0  0  0  0  0  0  0
   -2.4411   -1.0415    1.2928 H   0  0  0  0  0  0  0  0  0  0  0  0
   -3.8767   -1.1931    0.3242 H   0  0  0  0  0  0  0  0  0  0  0  0
   -4.8226   -3.4526   -0.2228 H   0  0  0  0  0  0  0  0  0  0  0  0
   -5.0727   -5.7871    0.5436 H   0  0  0  0  0  0  0  0  0  0  0  0
   -3.4768   -6.7429    2.1843 H   0  0  0  0  0  0  0  0  0  0  0  0
   -1.6351   -5.3445    3.0751 H   0  0  0  0  0  0  0  0  0  0  0  0
   -1.3676   -3.0097    2.3233 H   0  0  0  0  0  0  0  0  0  0  0  0
    3.1219   -0.2288    0.9700 H   0  0  0  0  0  0  0  0  0  0  0  0
    4.2048    0.3752    3.6734 H   0  0  0  0  0  0  0  0  0  0  0  0
    3.6458   -1.2567    3.2495 H   0  0  0  0  0  0  0  0  0  0  0  0
    6.6508    1.1809    2.2831 H   0  0  0  0  0  0  0  0  0  0  0  0
    8.3740   -0.3855    0.8384 H   0  0  0  0  0  0  0  0  0  0  0  0
    7.0050   -2.7586    0.4922 H   0  0  0  0  0  0  0  0  0  0  0  0
  1  2  2  0
  2  3  1  0
  3  4  1  0
  4  5  1  0
  5  6  2  0
  6  7  1  0
  7  8  2  0
  8  9  1  0
  9 10  1  0
 10 11  2  0
 11 12  1  0
 12 13  2  0
 13 14  1  0
 14 15  2  0
  8 16  1  0
 16 17  2  0
 16 18  1  0
 18 19  1  0
 19 20  1  0
 20 21  1  0
 21 22  2  0
 22 23  1  0
 23 24  2  0
 24 25  1  0
 25 26  2  0
  2 27  1  0
 27 28  1  0
 28 29  1  0
 29 30  2  0
 30 31  1  0
 31 32  2  0
 32 33  1  0
 18  5  1  0
 26 21  1  0
 33 29  1  0
 15  7  1  0
 15 10  1  0
  3 34  1  0
  3 35  1  0
 11 36  1  0
 12 37  1  0
 13 38  1  0
 14 39  1  0
 19 40  1  0
 19 41  1  0
 20 42  1  0
 20 43  1  0
 22 44  1  0
 23 45  1  0
 24 46  1  0
 25 47  1  0
 26 48  1  0
 27 49  1  0
 28 50  1  0
 28 51  1  0
 30 52  1  0
 31 53  1  0
 32 54  1  0
M  END
$$$$
