
     RDKit          3D

 46 49  0  0  0  0  0  0  0  0999 V2000
    3.8327    1.6700   -2.8332 O   0  0  0  0  0  0  0  0  0  0  0  0
    2.9348    1.6037   -1.9946 C   0  0  0  0  0  0  0  0  0  0  0  0
    1.4750    1.7133   -2.4132 C   0  0  0  0  0  0  0  0  0  0  0  0
    0.6443    0.0937   -2.3991 S   0  0  0  0  0  0  0  0  0  0  0  0
    0.0216    0.0668   -0.7865 C   0  0  0  0  0  0  0  0  0  0  0  0
    0.6164    0.5953    0.2563 N   0  0  0  0  0  0  0  0  0  0  0  0
   -0.1999    0.4259    1.3360 N   0  0  0  0  0  0  0  0  0  0  0  0
   -1.2998   -0.1929    0.9380 C   0  0  0  0  0  0  0  0  0  0  0  0
   -2.4805   -0.5046    1.8105 C   0  0  0  0  0  0  0  0  0  0  0  0
   -3.7195    0.2716    1.4461 C   0  0  0  0  0  0  0  0  0  0  0  0
   -4.9681   -0.2181    1.0890 C   0  0  0  0  0  0  0  0  0  0  0  0
   -5.8954    0.8247    0.7822 C   0  0  0  0  0  0  0  0  0  0  0  0
   -5.3365    2.0789    0.9405 C   0  0  0  0  0  0  0  0  0  0  0  0
   -3.7149    2.0000    1.4809 S   0  0  0  0  0  0  0  0  0  0  0  0
   -1.1809   -0.4769   -0.4118 N   0  0  0  0  0  0  0  0  0  0  0  0
   -2.1737   -1.0962   -1.2725 C   0  0  0  0  0  0  0  0  0  0  0  0
   -2.4213   -2.5203   -0.9273 C   0  0  0  0  0  0  0  0  0  0  0  0
   -3.5749   -3.2721   -0.7930 C   0  0  0  0  0  0  0  0  0  0  0  0
   -3.1596   -4.5854   -0.4572 C   0  0  0  0  0  0  0  0  0  0  0  0
   -1.7852   -4.5598   -0.4317 C   0  0  0  0  0  0  0  0  0  0  0  0
   -1.3267   -3.3110   -0.7182 O   0  0  0  0  0  0  0  0  0  0  0  0
    3.1159    1.4666   -0.6297 N   0  0  0  0  0  0  0  0  0  0  0  0
    4.3329    1.4788    0.0879 C   0  0  0  0  0  0  0  0  0  0  0  0
    4.2796    1.1515    1.4458 C   0  0  0  0  0  0  0  0  0  0  0  0
    5.4386    1.1747    2.2310 C   0  0  0  0  0  0  0  0  0  0  0  0
    5.3491    0.7782    3.9035 Cl  0  0  0  0  0  0  0  0  0  0  0  0
    6.6670    1.5295    1.6708 C   0  0  0  0  0  0  0  0  0  0  0  0
    6.7170    1.8691    0.3181 C   0  0  0  0  0  0  0  0  0  0  0  0
    8.2144    2.3669   -0.3709 Cl  0  0  0  0  0  0  0  0  0  0  0  0
    5.5614    1.8366   -0.4743 C   0  0  0  0  0  0  0  0  0  0  0  0
    0.9569    2.4506   -1.7831 H   0  0  0  0  0  0  0  0  0  0  0  0
    1.4478    2.0961   -3.4372 H   0  0  0  0  0  0  0  0  0  0  0  0
   -2.2256   -0.2739    2.8539 H   0  0  0  0  0  0  0  0  0  0  0  0
   -2.6785   -1.5825    1.7847 H   0  0  0  0  0  0  0  0  0  0  0  0
   -5.2124   -1.2777    1.0487 H   0  0  0  0  0  0  0  0  0  0  0  0
   -6.9274    0.6605    0.4911 H   0  0  0  0  0  0  0  0  0  0  0  0
   -5.8040    3.0444    0.7871 H   0  0  0  0  0  0  0  0  0  0  0  0
   -3.0878   -0.5011   -1.1966 H   0  0  0  0  0  0  0  0  0  0  0  0
   -1.8507   -1.0364   -2.3139 H   0  0  0  0  0  0  0  0  0  0  0  0
   -4.5905   -2.9196   -0.9235 H   0  0  0  0  0  0  0  0  0  0  0  0
   -3.7817   -5.4501   -0.2684 H   0  0  0  0  0  0  0  0  0  0  0  0
   -1.0212   -5.3049   -0.2366 H   0  0  0  0  0  0  0  0  0  0  0  0
    2.2740    1.2707   -0.0850 H   0  0  0  0  0  0  0  0  0  0  0  0
    3.3288    0.8791    1.9096 H   0  0  0  0  0  0  0  0  0  0  0  0
    7.5676    1.5617    2.2829 H   0  0  0  0  0  0  0  0  0  0  0  0
    5.6408    2.1246   -1.5183 H   0  0  0  0  0  0  0  0  0  0  0  0
  1  2  2  0
  2  3  1  0
  3  4  1  0
  4  5  1  0
  5  6  2  0
  6  7  1  0
  7  8  2  0
  8  9  1  0
  9 10  1  0
 10 11  2  0
 11 12  1  0
 12 13  2  0
 13 14  1  0
  8 15  1  0
 15 16  1  0
 16 17  1  0
 17 18  2  0
 18 19  1  0
 19 20  2  0
 20 21  1  0
  2 22  1  0
 22 23  1  0
 23 24  2  0
 24 25  1  0
 25 26  1  0
 25 27  2  0
 27 28  1  0
 28 29  1  0
 28 30  2  0
 15  5  1  0
 21 17  1  0
 30 23  1  0
 14 10  1  0
  3 31  1  0
  3 32  1  0
  9 33  1  0
  9 34  1  0
 11 35  1  0
 12 36  1  0
 13 37  1  0
 16 38  1  0
 16 39  1  0
 18 40  1  0
 19 41  1  0
 20 42  1  0
 22 43  1  0
 24 44  1  0
 27 45  1  0
 30 46  1  0
M  END
$$$$
