
     RDKit          3D

 56 58  0  0  0  0  0  0  0  0999 V2000
    7.8059   -2.1797   -0.8669 C   0  0  0  0  0  0  0  0  0  0  0  0
    6.7116   -1.5606   -0.2050 O   0  0  0  0  0  0  0  0  0  0  0  0
    5.4602   -1.8104   -0.6994 C   0  0  0  0  0  0  0  0  0  0  0  0
    5.1660   -2.5984   -1.8109 C   0  0  0  0  0  0  0  0  0  0  0  0
    3.8396   -2.7752   -2.2191 C   0  0  0  0  0  0  0  0  0  0  0  0
    2.7989   -2.1643   -1.5161 C   0  0  0  0  0  0  0  0  0  0  0  0
    1.4656   -2.2735   -1.8326 O   0  0  0  0  0  0  0  0  0  0  0  0
    1.1188   -3.1680   -2.8823 C   0  0  0  0  0  0  0  0  0  0  0  0
    3.0912   -1.3604   -0.3957 C   0  0  0  0  0  0  0  0  0  0  0  0
    1.9948   -0.7486    0.2512 N   0  0  0  0  0  0  0  0  0  0  0  0
    1.9815    0.0217    1.3925 C   0  0  0  0  0  0  0  0  0  0  0  0
    2.9617    0.2797    2.0906 O   0  0  0  0  0  0  0  0  0  0  0  0
    0.6346    0.6458    1.7382 C   0  0  0  0  0  0  0  0  0  0  0  0
   -0.7904   -0.2296    1.0281 S   0  0  0  0  0  0  0  0  0  0  0  0
   -2.1090    0.8109    1.5335 C   0  0  0  0  0  0  0  0  0  0  0  0
   -1.8193    1.8058    2.3060 N   0  0  0  0  0  0  0  0  0  0  0  0
   -2.8433    2.6477    2.7420 C   0  0  0  0  0  0  0  0  0  0  0  0
   -2.5277    3.7222    3.5763 C   0  0  0  0  0  0  0  0  0  0  0  0
   -3.5266    4.5866    4.0322 C   0  0  0  0  0  0  0  0  0  0  0  0
   -4.8536    4.3809    3.6560 C   0  0  0  0  0  0  0  0  0  0  0  0
   -5.1797    3.3104    2.8247 C   0  0  0  0  0  0  0  0  0  0  0  0
   -4.1689    2.4523    2.3743 C   0  0  0  0  0  0  0  0  0  0  0  0
   -4.4666    1.3195    1.4850 C   0  0  0  0  0  0  0  0  0  0  0  0
   -5.6268    1.1345    1.1204 O   0  0  0  0  0  0  0  0  0  0  0  0
   -3.3908    0.5226    1.0880 N   0  0  0  0  0  0  0  0  0  0  0  0
   -3.7332   -0.5663    0.1521 C   0  0  0  0  0  0  0  0  0  0  0  0
   -3.9784   -0.0508   -1.2770 C   0  0  0  0  0  0  0  0  0  0  0  0
   -2.7958    0.5299   -1.8870 N   0  0  0  0  0  0  0  0  0  0  0  0
   -1.8450   -0.2551   -2.4973 C   0  0  0  0  0  0  0  0  0  0  0  0
   -0.6745    0.5251   -3.0274 C   0  0  0  0  0  0  0  0  0  0  0  0
   -1.9362   -1.4728   -2.5991 O   0  0  0  0  0  0  0  0  0  0  0  0
    4.4193   -1.1932    0.0030 C   0  0  0  0  0  0  0  0  0  0  0  0
    8.7211   -1.8911   -0.3411 H   0  0  0  0  0  0  0  0  0  0  0  0
    7.8907   -1.8297   -1.8999 H   0  0  0  0  0  0  0  0  0  0  0  0
    7.7271   -3.2711   -0.8242 H   0  0  0  0  0  0  0  0  0  0  0  0
    5.9451   -3.0884   -2.3859 H   0  0  0  0  0  0  0  0  0  0  0  0
    3.6567   -3.3923   -3.0917 H   0  0  0  0  0  0  0  0  0  0  0  0
    1.4849   -4.1801   -2.6836 H   0  0  0  0  0  0  0  0  0  0  0  0
    1.4858   -2.7951   -3.8432 H   0  0  0  0  0  0  0  0  0  0  0  0
    0.0283   -3.2202   -2.9373 H   0  0  0  0  0  0  0  0  0  0  0  0
    1.0922   -0.9686   -0.1673 H   0  0  0  0  0  0  0  0  0  0  0  0
    0.5398    0.6385    2.8288 H   0  0  0  0  0  0  0  0  0  0  0  0
    0.6567    1.6795    1.3793 H   0  0  0  0  0  0  0  0  0  0  0  0
   -1.4952    3.8852    3.8734 H   0  0  0  0  0  0  0  0  0  0  0  0
   -3.2669    5.4187    4.6823 H   0  0  0  0  0  0  0  0  0  0  0  0
   -5.6325    5.0525    4.0109 H   0  0  0  0  0  0  0  0  0  0  0  0
   -6.2144    3.1459    2.5312 H   0  0  0  0  0  0  0  0  0  0  0  0
   -4.6534   -1.0435    0.5109 H   0  0  0  0  0  0  0  0  0  0  0  0
   -2.9719   -1.3488    0.1475 H   0  0  0  0  0  0  0  0  0  0  0  0
   -4.7524    0.7222   -1.2964 H   0  0  0  0  0  0  0  0  0  0  0  0
   -4.3231   -0.8815   -1.9034 H   0  0  0  0  0  0  0  0  0  0  0  0
   -2.6294    1.5228   -1.7815 H   0  0  0  0  0  0  0  0  0  0  0  0
    0.0561   -0.1601   -3.4646 H   0  0  0  0  0  0  0  0  0  0  0  0
   -0.1957    1.0760   -2.2144 H   0  0  0  0  0  0  0  0  0  0  0  0
   -1.0127    1.2219   -3.7985 H   0  0  0  0  0  0  0  0  0  0  0  0
    4.6792   -0.5814    0.8605 H   0  0  0  0  0  0  0  0  0  0  0  0
  1  2  1  0
  2  3  1  0
  3  4  2  0
  4  5  1  0
  5  6  2  0
  6  7  1  0
  7  8  1  0
  6  9  1  0
  9 10  1  0
 10 11  1  0
 11 12  2  0
 11 13  1  0
 13 14  1  0
 14 15  1  0
 15 16  2  0
 16 17  1  0
 17 18  2  0
 18 19  1  0
 19 20  2  0
 20 21  1  0
 21 22  2  0
 22 23  1  0
 23 24  2  0
 23 25  1  0
 25 26  1  0
 26 27  1  0
 27 28  1  0
 28 29  1  0
 29 30  1  0
 29 31  2  0
  9 32  2  0
 32  3  1  0
 25 15  1  0
 22 17  1  0
  1 33  1  0
  1 34  1  0
  1 35  1  0
  4 36  1  0
  5 37  1  0
  8 38  1  0
  8 39  1  0
  8 40  1  0
 10 41  1  0
 13 42  1  0
 13 43  1  0
 18 44  1  0
 19 45  1  0
 20 46  1  0
 21 47  1  0
 26 48  1  0
 26 49  1  0
 27 50  1  0
 27 51  1  0
 28 52  1  0
 30 53  1  0
 30 54  1  0
 30 55  1  0
 32 56  1  0
M  END
$$$$
