
     RDKit          3D

 37 39  0  0  0  0  0  0  0  0999 V2000
   -4.8135   -2.2074    1.2025 C   0  0  0  0  0  0  0  0  0  0  0  0
   -4.3313   -0.8312    1.6256 C   0  0  0  0  0  0  0  0  0  0  0  0
   -4.1012    0.0456    0.4885 N   0  0  0  0  0  0  0  0  0  0  0  0
   -5.1393    0.7925    0.0440 N   0  0  0  0  0  0  0  0  0  0  0  0
   -4.6257    1.4749   -0.9785 C   0  0  0  0  0  0  0  0  0  0  0  0
   -3.2700    1.1849   -1.1661 C   0  0  0  0  0  0  0  0  0  0  0  0
   -2.2531    1.9218   -2.5549 Br  0  0  0  0  0  0  0  0  0  0  0  0
   -2.9204    0.2696   -0.1925 C   0  0  0  0  0  0  0  0  0  0  0  0
   -1.6674   -0.3981    0.1044 C   0  0  0  0  0  0  0  0  0  0  0  0
   -1.6566   -1.5153    0.6078 O   0  0  0  0  0  0  0  0  0  0  0  0
   -0.5512    0.3646   -0.1785 N   0  0  0  0  0  0  0  0  0  0  0  0
    0.7845    0.0042   -0.0513 C   0  0  0  0  0  0  0  0  0  0  0  0
    1.2373   -1.6104    0.3020 S   0  0  0  0  0  0  0  0  0  0  0  0
    2.8503   -1.2128    0.2077 C   0  0  0  0  0  0  0  0  0  0  0  0
    3.0886    0.1039   -0.0737 C   0  0  0  0  0  0  0  0  0  0  0  0
    1.8837    0.8578   -0.2156 C   0  0  0  0  0  0  0  0  0  0  0  0
    1.7205    2.2827   -0.4968 C   0  0  0  0  0  0  0  0  0  0  0  0
    2.8381    3.0617   -0.4213 N   0  0  0  0  0  0  0  0  0  0  0  0
    0.6340    2.7952   -0.7534 O   0  0  0  0  0  0  0  0  0  0  0  0
    4.5532    0.3529   -0.1618 C   0  0  0  0  0  0  0  0  0  0  0  0
    5.1425   -1.0894   -0.2387 C   0  0  0  0  0  0  0  0  0  0  0  0
    4.0676   -2.0421    0.3600 C   0  0  0  0  0  0  0  0  0  0  0  0
   -4.9748   -2.8395    2.0811 H   0  0  0  0  0  0  0  0  0  0  0  0
   -5.7586   -2.1407    0.6530 H   0  0  0  0  0  0  0  0  0  0  0  0
   -4.0874   -2.7049    0.5519 H   0  0  0  0  0  0  0  0  0  0  0  0
   -5.0828   -0.3489    2.2620 H   0  0  0  0  0  0  0  0  0  0  0  0
   -3.4120   -0.8906    2.2151 H   0  0  0  0  0  0  0  0  0  0  0  0
   -5.2662    2.1437   -1.5388 H   0  0  0  0  0  0  0  0  0  0  0  0
   -0.7002    1.3269   -0.4808 H   0  0  0  0  0  0  0  0  0  0  0  0
    2.6864    4.0593   -0.4860 H   0  0  0  0  0  0  0  0  0  0  0  0
    3.6726    2.7452    0.0455 H   0  0  0  0  0  0  0  0  0  0  0  0
    4.9099    0.8599    0.7410 H   0  0  0  0  0  0  0  0  0  0  0  0
    4.8337    0.9350   -1.0439 H   0  0  0  0  0  0  0  0  0  0  0  0
    6.1062   -1.1733    0.2731 H   0  0  0  0  0  0  0  0  0  0  0  0
    5.3052   -1.3517   -1.2926 H   0  0  0  0  0  0  0  0  0  0  0  0
    4.0233   -2.9861   -0.1897 H   0  0  0  0  0  0  0  0  0  0  0  0
    4.2740   -2.2398    1.4169 H   0  0  0  0  0  0  0  0  0  0  0  0
  1  2  1  0
  2  3  1  0
  3  4  1  0
  4  5  2  0
  5  6  1  0
  6  7  1  0
  6  8  2  0
  8  9  1  0
  9 10  2  0
  9 11  1  0
 11 12  1  0
 12 13  1  0
 13 14  1  0
 14 15  2  0
 15 16  1  0
 16 17  1  0
 17 18  1  0
 17 19  2  0
 15 20  1  0
 20 21  1  0
 21 22  1  0
  8  3  1  0
 16 12  2  0
 22 14  1  0
  1 23  1  0
  1 24  1  0
  1 25  1  0
  2 26  1  0
  2 27  1  0
  5 28  1  0
 11 29  1  0
 18 30  1  0
 18 31  1  0
 20 32  1  0
 20 33  1  0
 21 34  1  0
 21 35  1  0
 22 36  1  0
 22 37  1  0
M  END
$$$$
