
     RDKit          3D

 58 62  0  0  0  0  0  0  0  0999 V2000
    8.6692    2.3918    0.7822 C   0  0  0  0  0  0  0  0  0  0  0  0
    8.0149    1.1299    0.8548 O   0  0  0  0  0  0  0  0  0  0  0  0
    6.6782    1.1144    0.5674 C   0  0  0  0  0  0  0  0  0  0  0  0
    5.8622    2.2332    0.4000 C   0  0  0  0  0  0  0  0  0  0  0  0
    4.5036    2.0750    0.1019 C   0  0  0  0  0  0  0  0  0  0  0  0
    3.9470    0.7971   -0.0332 C   0  0  0  0  0  0  0  0  0  0  0  0
    2.4825    0.6258   -0.3547 C   0  0  0  0  0  0  0  0  0  0  0  0
    1.6065    0.6287    0.9037 C   0  0  0  0  0  0  0  0  0  0  0  0
    0.2076    0.3050    0.5543 N   0  0  0  0  0  0  0  0  0  0  0  0
   -0.6338    1.3419    0.1246 C   0  0  0  0  0  0  0  0  0  0  0  0
   -0.1808    2.5651    0.0783 N   0  0  0  0  0  0  0  0  0  0  0  0
   -2.0579    1.0304   -0.2930 C   0  0  0  0  0  0  0  0  0  0  0  0
   -3.0085    2.0983   -0.7345 C   0  0  0  0  0  0  0  0  0  0  0  0
   -2.6100    3.2393   -0.9601 O   0  0  0  0  0  0  0  0  0  0  0  0
   -4.3357    1.7577   -0.8191 N   0  0  0  0  0  0  0  0  0  0  0  0
   -5.3292    2.7587   -1.1376 C   0  0  0  0  0  0  0  0  0  0  0  0
   -6.5883    2.0605   -1.4839 C   0  0  0  0  0  0  0  0  0  0  0  0
   -7.1612    1.6711   -2.6769 C   0  0  0  0  0  0  0  0  0  0  0  0
   -8.3746    1.0235   -2.3427 C   0  0  0  0  0  0  0  0  0  0  0  0
   -8.4620    1.0542   -0.9713 C   0  0  0  0  0  0  0  0  0  0  0  0
   -7.3778    1.6742   -0.4397 O   0  0  0  0  0  0  0  0  0  0  0  0
   -2.3800   -0.2759   -0.2955 C   0  0  0  0  0  0  0  0  0  0  0  0
   -1.4642   -1.3255    0.1295 C   0  0  0  0  0  0  0  0  0  0  0  0
   -1.9235   -2.7436    0.1186 C   0  0  0  0  0  0  0  0  0  0  0  0
   -3.0733   -3.0095   -0.2413 O   0  0  0  0  0  0  0  0  0  0  0  0
   -0.9998   -3.6866    0.5301 N   0  0  0  0  0  0  0  0  0  0  0  0
   -1.3537   -5.0313    0.5499 C   0  0  0  0  0  0  0  0  0  0  0  0
   -0.4934   -5.9806    0.9379 C   0  0  0  0  0  0  0  0  0  0  0  0
    0.8367   -5.6171    1.3466 C   0  0  0  0  0  0  0  0  0  0  0  0
    1.2193   -4.3351    1.3425 C   0  0  0  0  0  0  0  0  0  0  0  0
    0.2631   -3.2758    0.9125 C   0  0  0  0  0  0  0  0  0  0  0  0
    0.6599   -2.0447    0.9201 N   0  0  0  0  0  0  0  0  0  0  0  0
   -0.2062   -1.0463    0.5364 C   0  0  0  0  0  0  0  0  0  0  0  0
    4.7654   -0.3222    0.1543 C   0  0  0  0  0  0  0  0  0  0  0  0
    6.1203   -0.1609    0.4515 C   0  0  0  0  0  0  0  0  0  0  0  0
    8.5309    2.8589   -0.1997 H   0  0  0  0  0  0  0  0  0  0  0  0
    9.7401    2.2188    0.9165 H   0  0  0  0  0  0  0  0  0  0  0  0
    8.3346    3.0555    1.5883 H   0  0  0  0  0  0  0  0  0  0  0  0
    6.2484    3.2424    0.4966 H   0  0  0  0  0  0  0  0  0  0  0  0
    3.8800    2.9585   -0.0266 H   0  0  0  0  0  0  0  0  0  0  0  0
    2.3460   -0.3096   -0.9149 H   0  0  0  0  0  0  0  0  0  0  0  0
    2.1667    1.4209   -1.0432 H   0  0  0  0  0  0  0  0  0  0  0  0
    1.6672    1.6005    1.4118 H   0  0  0  0  0  0  0  0  0  0  0  0
    1.9941   -0.0866    1.6416 H   0  0  0  0  0  0  0  0  0  0  0  0
   -0.9129    3.2056   -0.2803 H   0  0  0  0  0  0  0  0  0  0  0  0
   -4.6766    0.9297   -0.3581 H   0  0  0  0  0  0  0  0  0  0  0  0
   -4.9760    3.3741   -1.9712 H   0  0  0  0  0  0  0  0  0  0  0  0
   -5.4614    3.4022   -0.2633 H   0  0  0  0  0  0  0  0  0  0  0  0
   -6.7500    1.8376   -3.6647 H   0  0  0  0  0  0  0  0  0  0  0  0
   -9.0994    0.5867   -3.0150 H   0  0  0  0  0  0  0  0  0  0  0  0
   -9.1927    0.7009   -0.2584 H   0  0  0  0  0  0  0  0  0  0  0  0
   -3.3520   -0.6204   -0.6375 H   0  0  0  0  0  0  0  0  0  0  0  0
   -2.3633   -5.2825    0.2353 H   0  0  0  0  0  0  0  0  0  0  0  0
   -0.7782   -7.0277    0.9513 H   0  0  0  0  0  0  0  0  0  0  0  0
    1.5173   -6.4031    1.6586 H   0  0  0  0  0  0  0  0  0  0  0  0
    2.2100   -4.0198    1.6447 H   0  0  0  0  0  0  0  0  0  0  0  0
    4.3551   -1.3260    0.0668 H   0  0  0  0  0  0  0  0  0  0  0  0
    6.7495   -1.0371    0.5871 H   0  0  0  0  0  0  0  0  0  0  0  0
  1  2  1  0
  2  3  1  0
  3  4  2  0
  4  5  1  0
  5  6  2  0
  6  7  1  0
  7  8  1  0
  8  9  1  0
  9 10  1  0
 10 11  2  3
 10 12  1  0
 12 13  1  0
 13 14  2  0
 13 15  1  0
 15 16  1  0
 16 17  1  0
 17 18  2  0
 18 19  1  0
 19 20  2  0
 20 21  1  0
 12 22  2  0
 22 23  1  0
 23 24  1  0
 24 25  2  0
 24 26  1  0
 26 27  1  0
 27 28  2  0
 28 29  1  0
 29 30  2  0
 30 31  1  0
 31 32  2  0
 32 33  1  0
  6 34  1  0
 34 35  2  0
 35  3  1  0
 33  9  1  0
 21 17  1  0
 33 23  2  0
 31 26  1  0
  1 36  1  0
  1 37  1  0
  1 38  1  0
  4 39  1  0
  5 40  1  0
  7 41  1  0
  7 42  1  0
  8 43  1  0
  8 44  1  0
 11 45  1  0
 15 46  1  0
 16 47  1  0
 16 48  1  0
 18 49  1  0
 19 50  1  0
 20 51  1  0
 22 52  1  0
 27 53  1  0
 28 54  1  0
 29 55  1  0
 30 56  1  0
 34 57  1  0
 35 58  1  0
M  END
$$$$
