
     RDKit          3D

 54 57  0  0  0  0  0  0  0  0999 V2000
    5.0434    1.8824    4.0943 C   0  0  0  0  0  0  0  0  0  0  0  0
    4.3353    1.4820    2.8097 C   0  0  0  0  0  0  0  0  0  0  0  0
    4.0953   -0.0184    2.7243 C   0  0  0  0  0  0  0  0  0  0  0  0
    4.5356   -0.7911    3.5741 O   0  0  0  0  0  0  0  0  0  0  0  0
    3.3604   -0.4657    1.6376 N   0  0  0  0  0  0  0  0  0  0  0  0
    3.0491   -1.8958    1.5211 C   0  0  0  0  0  0  0  0  0  0  0  0
    1.6284   -2.1415    0.9841 C   0  0  0  0  0  0  0  0  0  0  0  0
    1.3452   -1.4098   -0.2810 N   0  0  0  0  0  0  0  0  0  0  0  0
    1.0597   -2.2610   -1.3832 C   0  0  0  0  0  0  0  0  0  0  0  0
    1.9644   -3.2324   -1.8350 C   0  0  0  0  0  0  0  0  0  0  0  0
    1.6499   -4.0296   -2.9360 C   0  0  0  0  0  0  0  0  0  0  0  0
    0.4314   -3.8594   -3.5917 C   0  0  0  0  0  0  0  0  0  0  0  0
    0.0585   -4.8512   -4.9487 Cl  0  0  0  0  0  0  0  0  0  0  0  0
   -0.4838   -2.9003   -3.1615 C   0  0  0  0  0  0  0  0  0  0  0  0
   -0.1754   -2.1006   -2.0610 C   0  0  0  0  0  0  0  0  0  0  0  0
   -1.0369   -1.1179   -1.5286 N   0  0  0  0  0  0  0  0  0  0  0  0
   -2.2620   -0.7072   -2.0033 C   0  0  0  0  0  0  0  0  0  0  0  0
   -2.7932   -1.0694   -3.0465 O   0  0  0  0  0  0  0  0  0  0  0  0
   -2.9637    0.3030   -1.1588 C   0  0  0  0  0  0  0  0  0  0  0  0
   -2.8153    0.3386    0.2368 C   0  0  0  0  0  0  0  0  0  0  0  0
   -3.4942    1.3019    0.9888 C   0  0  0  0  0  0  0  0  0  0  0  0
   -4.3258    2.2219    0.3531 C   0  0  0  0  0  0  0  0  0  0  0  0
   -4.5115    2.1595   -1.0315 C   0  0  0  0  0  0  0  0  0  0  0  0
   -3.8237    1.2124   -1.7884 C   0  0  0  0  0  0  0  0  0  0  0  0
   -5.3474    3.0060   -1.7141 O   0  0  0  0  0  0  0  0  0  0  0  0
   -6.2501    3.6743   -0.8252 C   0  0  0  0  0  0  0  0  0  0  0  0
   -5.5030    4.2185    0.3804 C   0  0  0  0  0  0  0  0  0  0  0  0
   -4.9391    3.1516    1.1532 O   0  0  0  0  0  0  0  0  0  0  0  0
    2.3475   -0.3791   -0.6513 C   0  0  0  0  0  0  0  0  0  0  0  0
    2.8102    0.4046    0.5896 C   0  0  0  0  0  0  0  0  0  0  0  0
    5.1784    2.9675    4.1323 H   0  0  0  0  0  0  0  0  0  0  0  0
    6.0301    1.4128    4.1643 H   0  0  0  0  0  0  0  0  0  0  0  0
    4.4627    1.5783    4.9708 H   0  0  0  0  0  0  0  0  0  0  0  0
    4.9511    1.7873    1.9575 H   0  0  0  0  0  0  0  0  0  0  0  0
    3.3736    2.0023    2.7605 H   0  0  0  0  0  0  0  0  0  0  0  0
    3.7921   -2.3222    0.8374 H   0  0  0  0  0  0  0  0  0  0  0  0
    3.1658   -2.3965    2.4878 H   0  0  0  0  0  0  0  0  0  0  0  0
    1.4455   -3.2201    0.8948 H   0  0  0  0  0  0  0  0  0  0  0  0
    0.9097   -1.7687    1.7251 H   0  0  0  0  0  0  0  0  0  0  0  0
    2.9219   -3.3706   -1.3408 H   0  0  0  0  0  0  0  0  0  0  0  0
    2.3574   -4.7790   -3.2793 H   0  0  0  0  0  0  0  0  0  0  0  0
   -1.4258   -2.7972   -3.6891 H   0  0  0  0  0  0  0  0  0  0  0  0
   -0.6316   -0.6630   -0.7153 H   0  0  0  0  0  0  0  0  0  0  0  0
   -2.1986   -0.3886    0.7568 H   0  0  0  0  0  0  0  0  0  0  0  0
   -3.3788    1.3332    2.0689 H   0  0  0  0  0  0  0  0  0  0  0  0
   -3.9662    1.1764   -2.8664 H   0  0  0  0  0  0  0  0  0  0  0  0
   -7.0357    2.9686   -0.5280 H   0  0  0  0  0  0  0  0  0  0  0  0
   -6.7183    4.4923   -1.3824 H   0  0  0  0  0  0  0  0  0  0  0  0
   -6.1853    4.7744    1.0310 H   0  0  0  0  0  0  0  0  0  0  0  0
   -4.6933    4.8938    0.0769 H   0  0  0  0  0  0  0  0  0  0  0  0
    1.9051    0.3189   -1.3722 H   0  0  0  0  0  0  0  0  0  0  0  0
    3.2268   -0.8363   -1.1236 H   0  0  0  0  0  0  0  0  0  0  0  0
    1.9621    0.9402    1.0325 H   0  0  0  0  0  0  0  0  0  0  0  0
    3.5621    1.1440    0.2991 H   0  0  0  0  0  0  0  0  0  0  0  0
  1  2  1  0
  2  3  1  0
  3  4  2  0
  3  5  1  0
  5  6  1  0
  6  7  1  0
  7  8  1  0
  8  9  1  0
  9 10  2  0
 10 11  1  0
 11 12  2  0
 12 13  1  0
 12 14  1  0
 14 15  2  0
 15 16  1  0
 16 17  1  0
 17 18  2  0
 17 19  1  0
 19 20  2  0
 20 21  1  0
 21 22  2  0
 22 23  1  0
 23 24  2  0
 23 25  1  0
 25 26  1  0
 26 27  1  0
 27 28  1  0
  8 29  1  0
 29 30  1  0
 30  5  1  0
 15  9  1  0
 24 19  1  0
 28 22  1  0
  1 31  1  0
  1 32  1  0
  1 33  1  0
  2 34  1  0
  2 35  1  0
  6 36  1  0
  6 37  1  0
  7 38  1  0
  7 39  1  0
 10 40  1  0
 11 41  1  0
 14 42  1  0
 16 43  1  0
 20 44  1  0
 21 45  1  0
 24 46  1  0
 26 47  1  0
 26 48  1  0
 27 49  1  0
 27 50  1  0
 29 51  1  0
 29 52  1  0
 30 53  1  0
 30 54  1  0
M  END
$$$$
