
     RDKit          3D

 60 63  0  0  0  0  0  0  0  0999 V2000
    9.9278   -0.2622    0.4943 C   0  0  0  0  0  0  0  0  0  0  0  0
    9.2974   -1.1578    1.4017 O   0  0  0  0  0  0  0  0  0  0  0  0
    7.9469   -1.0129    1.5699 C   0  0  0  0  0  0  0  0  0  0  0  0
    7.1501   -0.0325    0.9826 C   0  0  0  0  0  0  0  0  0  0  0  0
    5.7731   -0.0054    1.2325 C   0  0  0  0  0  0  0  0  0  0  0  0
    5.1734   -0.9609    2.0688 C   0  0  0  0  0  0  0  0  0  0  0  0
    3.6810   -0.9438    2.2825 C   0  0  0  0  0  0  0  0  0  0  0  0
    3.0156   -1.3034    1.0492 N   0  0  0  0  0  0  0  0  0  0  0  0
    1.9260   -0.6042    0.5658 C   0  0  0  0  0  0  0  0  0  0  0  0
    1.4283    0.3371    1.1801 O   0  0  0  0  0  0  0  0  0  0  0  0
    1.4385   -1.0888   -0.8188 C   0  0  0  0  0  0  0  0  0  0  0  0
    2.4848   -0.7916   -1.8916 C   0  0  0  0  0  0  0  0  0  0  0  0
    0.1324   -0.4905   -1.1094 N   0  0  0  0  0  0  0  0  0  0  0  0
    0.1311    0.7877   -1.6883 N   0  0  0  0  0  0  0  0  0  0  0  0
   -0.9696    1.4771   -1.8036 C   0  0  0  0  0  0  0  0  0  0  0  0
   -0.8806    2.8611   -2.3816 C   0  0  0  0  0  0  0  0  0  0  0  0
   -2.2180    0.8944   -1.3803 C   0  0  0  0  0  0  0  0  0  0  0  0
   -3.5440    1.2908   -1.4497 C   0  0  0  0  0  0  0  0  0  0  0  0
   -4.1545    2.4678   -2.1207 C   0  0  0  0  0  0  0  0  0  0  0  0
   -4.2671    0.2856   -0.7941 N   0  0  0  0  0  0  0  0  0  0  0  0
   -5.6417    0.2301   -0.4042 C   0  0  0  0  0  0  0  0  0  0  0  0
   -6.4179    1.3814   -0.2298 C   0  0  0  0  0  0  0  0  0  0  0  0
   -7.7525    1.2760    0.1820 C   0  0  0  0  0  0  0  0  0  0  0  0
   -8.3303    0.0256    0.4314 C   0  0  0  0  0  0  0  0  0  0  0  0
   -9.7437   -0.0874    0.9190 C   0  0  0  0  0  0  0  0  0  0  0  0
   -7.5448   -1.1225    0.2886 C   0  0  0  0  0  0  0  0  0  0  0  0
   -6.2170   -1.0245   -0.1295 C   0  0  0  0  0  0  0  0  0  0  0  0
   -3.4724   -0.7825   -0.5133 N   0  0  0  0  0  0  0  0  0  0  0  0
   -2.2335   -0.3771   -0.7982 C   0  0  0  0  0  0  0  0  0  0  0  0
   -1.0074   -1.1319   -0.5815 C   0  0  0  0  0  0  0  0  0  0  0  0
   -0.9639   -2.2156   -0.0038 O   0  0  0  0  0  0  0  0  0  0  0  0
    5.9801   -1.9370    2.6617 C   0  0  0  0  0  0  0  0  0  0  0  0
    7.3559   -1.9585    2.4128 C   0  0  0  0  0  0  0  0  0  0  0  0
    9.4699   -0.3189   -0.5004 H   0  0  0  0  0  0  0  0  0  0  0  0
    9.9070    0.7618    0.8821 H   0  0  0  0  0  0  0  0  0  0  0  0
   10.9761   -0.5687    0.3911 H   0  0  0  0  0  0  0  0  0  0  0  0
    7.5638    0.7284    0.3284 H   0  0  0  0  0  0  0  0  0  0  0  0
    5.1611    0.7631    0.7628 H   0  0  0  0  0  0  0  0  0  0  0  0
    3.3810   -1.6751    3.0426 H   0  0  0  0  0  0  0  0  0  0  0  0
    3.3680    0.0457    2.6322 H   0  0  0  0  0  0  0  0  0  0  0  0
    3.3114   -2.1556    0.5912 H   0  0  0  0  0  0  0  0  0  0  0  0
    1.3127   -2.1774   -0.7536 H   0  0  0  0  0  0  0  0  0  0  0  0
    3.4155   -1.3373   -1.6997 H   0  0  0  0  0  0  0  0  0  0  0  0
    2.7374    0.2756   -1.9294 H   0  0  0  0  0  0  0  0  0  0  0  0
    2.1243   -1.0834   -2.8839 H   0  0  0  0  0  0  0  0  0  0  0  0
   -1.1479    2.8366   -3.4435 H   0  0  0  0  0  0  0  0  0  0  0  0
    0.1452    3.2394   -2.2867 H   0  0  0  0  0  0  0  0  0  0  0  0
   -1.5432    3.5454   -1.8440 H   0  0  0  0  0  0  0  0  0  0  0  0
   -3.5546    2.7846   -2.9789 H   0  0  0  0  0  0  0  0  0  0  0  0
   -4.2250    3.3140   -1.4299 H   0  0  0  0  0  0  0  0  0  0  0  0
   -5.1471    2.2412   -2.5231 H   0  0  0  0  0  0  0  0  0  0  0  0
   -6.0111    2.3804   -0.3433 H   0  0  0  0  0  0  0  0  0  0  0  0
   -8.3339    2.1855    0.3317 H   0  0  0  0  0  0  0  0  0  0  0  0
  -10.3116    0.8241    0.7016 H   0  0  0  0  0  0  0  0  0  0  0  0
  -10.2573   -0.9179    0.4240 H   0  0  0  0  0  0  0  0  0  0  0  0
   -9.7515   -0.2519    2.0004 H   0  0  0  0  0  0  0  0  0  0  0  0
   -7.9582   -2.1049    0.5075 H   0  0  0  0  0  0  0  0  0  0  0  0
   -5.6375   -1.9410   -0.2312 H   0  0  0  0  0  0  0  0  0  0  0  0
    5.5484   -2.6931    3.3134 H   0  0  0  0  0  0  0  0  0  0  0  0
    7.9737   -2.7244    2.8769 H   0  0  0  0  0  0  0  0  0  0  0  0
  1  2  1  0
  2  3  1  0
  3  4  2  0
  4  5  1  0
  5  6  2  0
  6  7  1  0
  7  8  1  0
  8  9  1  0
  9 10  2  0
  9 11  1  0
 11 12  1  0
 11 13  1  0
 13 14  1  0
 14 15  2  0
 15 16  1  0
 15 17  1  0
 17 18  2  0
 18 19  1  0
 18 20  1  0
 20 21  1  0
 21 22  2  0
 22 23  1  0
 23 24  2  0
 24 25  1  0
 24 26  1  0
 26 27  2  0
 20 28  1  0
 28 29  2  0
 29 30  1  0
 30 31  2  0
  6 32  1  0
 32 33  2  0
 33  3  1  0
 30 13  1  0
 29 17  1  0
 27 21  1  0
  1 34  1  0
  1 35  1  0
  1 36  1  0
  4 37  1  0
  5 38  1  0
  7 39  1  0
  7 40  1  0
  8 41  1  0
 11 42  1  0
 12 43  1  0
 12 44  1  0
 12 45  1  0
 16 46  1  0
 16 47  1  0
 16 48  1  0
 19 49  1  0
 19 50  1  0
 19 51  1  0
 22 52  1  0
 23 53  1  0
 25 54  1  0
 25 55  1  0
 25 56  1  0
 26 57  1  0
 27 58  1  0
 32 59  1  0
 33 60  1  0
M  END
$$$$
