
     RDKit          3D

 46 49  0  0  0  0  0  0  0  0999 V2000
   -3.6848   -3.5830   -1.7721 C   0  0  0  0  0  0  0  0  0  0  0  0
   -3.1811   -2.8023   -0.6950 O   0  0  0  0  0  0  0  0  0  0  0  0
   -2.6483   -1.5832   -1.0101 C   0  0  0  0  0  0  0  0  0  0  0  0
   -2.5120   -1.0528   -2.2928 C   0  0  0  0  0  0  0  0  0  0  0  0
   -1.9390    0.2092   -2.4737 C   0  0  0  0  0  0  0  0  0  0  0  0
   -1.4976    0.9460   -1.3750 C   0  0  0  0  0  0  0  0  0  0  0  0
   -1.6329    0.4246   -0.0852 C   0  0  0  0  0  0  0  0  0  0  0  0
   -1.1318    1.1685    1.0632 C   0  0  0  0  0  0  0  0  0  0  0  0
    0.1665    1.3273    1.5425 C   0  0  0  0  0  0  0  0  0  0  0  0
    1.4433    0.7918    1.0579 C   0  0  0  0  0  0  0  0  0  0  0  0
    2.5154    1.2672    1.4289 O   0  0  0  0  0  0  0  0  0  0  0  0
    1.3537   -0.2810    0.1637 N   0  0  0  0  0  0  0  0  0  0  0  0
    2.4558   -1.0459   -0.1361 N   0  0  0  0  0  0  0  0  0  0  0  0
    3.4689   -0.5105   -0.7608 C   0  0  0  0  0  0  0  0  0  0  0  0
    3.4738    0.8896   -1.3487 C   0  0  0  0  0  0  0  0  0  0  0  0
    4.6857   -1.3026   -0.9427 C   0  0  0  0  0  0  0  0  0  0  0  0
    5.9338   -0.8934   -1.3896 C   0  0  0  0  0  0  0  0  0  0  0  0
    6.8816   -1.9608   -1.4367 C   0  0  0  0  0  0  0  0  0  0  0  0
    6.3173   -3.1372   -1.0227 C   0  0  0  0  0  0  0  0  0  0  0  0
    7.0937   -4.6654   -0.9234 Cl  0  0  0  0  0  0  0  0  0  0  0  0
    4.6945   -2.9878   -0.5822 S   0  0  0  0  0  0  0  0  0  0  0  0
    0.1364    2.1587    2.6324 N   0  0  0  0  0  0  0  0  0  0  0  0
   -1.1133    2.5138    2.8618 N   0  0  0  0  0  0  0  0  0  0  0  0
   -1.9168    1.9598    1.9130 N   0  0  0  0  0  0  0  0  0  0  0  0
   -3.3119    2.2163    1.8900 C   0  0  0  0  0  0  0  0  0  0  0  0
   -4.1048    1.6636    0.9716 N   0  0  0  0  0  0  0  0  0  0  0  0
   -5.3759    2.1386    1.2881 O   0  0  0  0  0  0  0  0  0  0  0  0
   -5.3393    2.9787    2.3956 N   0  0  0  0  0  0  0  0  0  0  0  0
   -4.0591    3.0325    2.7607 C   0  0  0  0  0  0  0  0  0  0  0  0
   -3.5943    3.7591    3.7937 N   0  0  0  0  0  0  0  0  0  0  0  0
   -2.2063   -0.8414    0.0893 C   0  0  0  0  0  0  0  0  0  0  0  0
   -2.8851   -3.8548   -2.4690 H   0  0  0  0  0  0  0  0  0  0  0  0
   -4.5006   -3.0655   -2.2876 H   0  0  0  0  0  0  0  0  0  0  0  0
   -4.0900   -4.5090   -1.3528 H   0  0  0  0  0  0  0  0  0  0  0  0
   -2.8414   -1.5942   -3.1738 H   0  0  0  0  0  0  0  0  0  0  0  0
   -1.8378    0.6178   -3.4766 H   0  0  0  0  0  0  0  0  0  0  0  0
   -1.0525    1.9253   -1.5378 H   0  0  0  0  0  0  0  0  0  0  0  0
    0.5122   -0.8439    0.2445 H   0  0  0  0  0  0  0  0  0  0  0  0
    3.9164    0.8724   -2.3497 H   0  0  0  0  0  0  0  0  0  0  0  0
    2.4660    1.2965   -1.4541 H   0  0  0  0  0  0  0  0  0  0  0  0
    4.0692    1.5517   -0.7137 H   0  0  0  0  0  0  0  0  0  0  0  0
    6.1712    0.1275   -1.6644 H   0  0  0  0  0  0  0  0  0  0  0  0
    7.9125   -1.8612   -1.7523 H   0  0  0  0  0  0  0  0  0  0  0  0
   -4.2478    4.1583    4.4591 H   0  0  0  0  0  0  0  0  0  0  0  0
   -2.6434    3.6467    4.1426 H   0  0  0  0  0  0  0  0  0  0  0  0
   -2.3204   -1.2655    1.0852 H   0  0  0  0  0  0  0  0  0  0  0  0
  1  2  1  0
  2  3  1  0
  3  4  2  0
  4  5  1  0
  5  6  2  0
  6  7  1  0
  7  8  1  0
  8  9  2  0
  9 10  1  0
 10 11  2  0
 10 12  1  0
 12 13  1  0
 13 14  2  3
 14 15  1  0
 14 16  1  0
 16 17  2  0
 17 18  1  0
 18 19  2  0
 19 20  1  0
 19 21  1  0
  9 22  1  0
 22 23  2  0
 23 24  1  0
 24 25  1  0
 25 26  2  0
 26 27  1  0
 27 28  1  0
 28 29  2  0
 29 30  1  0
  7 31  2  0
 31  3  1  0
 24  8  1  0
 29 25  1  0
 21 16  1  0
  1 32  1  0
  1 33  1  0
  1 34  1  0
  4 35  1  0
  5 36  1  0
  6 37  1  0
 12 38  1  0
 15 39  1  0
 15 40  1  0
 15 41  1  0
 17 42  1  0
 18 43  1  0
 30 44  1  0
 30 45  1  0
 31 46  1  0
M  END
$$$$
