
     RDKit          3D

 46 49  0  0  0  0  0  0  0  0999 V2000
    2.5017   -0.4338    2.9627 O   0  0  0  0  0  0  0  0  0  0  0  0
    2.7899   -0.7704    1.8166 C   0  0  0  0  0  0  0  0  0  0  0  0
    3.1788   -2.2094    1.4983 C   0  0  0  0  0  0  0  0  0  0  0  0
    1.7028   -3.1971    1.0990 S   0  0  0  0  0  0  0  0  0  0  0  0
    1.2371   -2.4596   -0.3914 C   0  0  0  0  0  0  0  0  0  0  0  0
    2.0600   -1.8839   -1.2361 N   0  0  0  0  0  0  0  0  0  0  0  0
    1.3062   -1.3102   -2.2237 N   0  0  0  0  0  0  0  0  0  0  0  0
    0.0323   -1.5597   -1.9744 C   0  0  0  0  0  0  0  0  0  0  0  0
   -1.1190   -1.1139   -2.8193 C   0  0  0  0  0  0  0  0  0  0  0  0
   -1.9305   -0.0122   -2.1984 C   0  0  0  0  0  0  0  0  0  0  0  0
   -3.2484   -0.0469   -1.7829 C   0  0  0  0  0  0  0  0  0  0  0  0
   -3.6788    1.1962   -1.2332 C   0  0  0  0  0  0  0  0  0  0  0  0
   -2.6828    2.1450   -1.2634 C   0  0  0  0  0  0  0  0  0  0  0  0
   -1.2437    1.5418   -1.9573 S   0  0  0  0  0  0  0  0  0  0  0  0
   -0.0541   -2.2983   -0.8117 N   0  0  0  0  0  0  0  0  0  0  0  0
   -1.2552   -2.8033   -0.1752 C   0  0  0  0  0  0  0  0  0  0  0  0
   -1.7939   -1.8757    0.8517 C   0  0  0  0  0  0  0  0  0  0  0  0
   -1.3309   -0.7431    1.4939 C   0  0  0  0  0  0  0  0  0  0  0  0
   -2.3581   -0.3325    2.3775 C   0  0  0  0  0  0  0  0  0  0  0  0
   -3.3795   -1.2382    2.2258 C   0  0  0  0  0  0  0  0  0  0  0  0
   -3.0505   -2.1738    1.2990 O   0  0  0  0  0  0  0  0  0  0  0  0
    2.7784    0.0547    0.7030 N   0  0  0  0  0  0  0  0  0  0  0  0
    2.4612    1.4270    0.6456 C   0  0  0  0  0  0  0  0  0  0  0  0
    2.2304    2.2235    1.7691 C   0  0  0  0  0  0  0  0  0  0  0  0
    1.9210    3.5778    1.6143 C   0  0  0  0  0  0  0  0  0  0  0  0
    1.6346    4.5504    3.0065 Cl  0  0  0  0  0  0  0  0  0  0  0  0
    1.8415    4.1538    0.3501 C   0  0  0  0  0  0  0  0  0  0  0  0
    2.0755    3.3607   -0.7673 C   0  0  0  0  0  0  0  0  0  0  0  0
    1.9789    4.0566   -2.3386 Cl  0  0  0  0  0  0  0  0  0  0  0  0
    2.3837    2.0068   -0.6274 C   0  0  0  0  0  0  0  0  0  0  0  0
    3.6623   -2.6366    2.3829 H   0  0  0  0  0  0  0  0  0  0  0  0
    3.9095   -2.2466    0.6834 H   0  0  0  0  0  0  0  0  0  0  0  0
   -0.7371   -0.7710   -3.7903 H   0  0  0  0  0  0  0  0  0  0  0  0
   -1.7623   -1.9741   -3.0413 H   0  0  0  0  0  0  0  0  0  0  0  0
   -3.8802   -0.9242   -1.8527 H   0  0  0  0  0  0  0  0  0  0  0  0
   -4.6688    1.3835   -0.8350 H   0  0  0  0  0  0  0  0  0  0  0  0
   -2.7304    3.1680   -0.9163 H   0  0  0  0  0  0  0  0  0  0  0  0
   -1.0272   -3.7782    0.2687 H   0  0  0  0  0  0  0  0  0  0  0  0
   -2.0013   -2.9837   -0.9558 H   0  0  0  0  0  0  0  0  0  0  0  0
   -0.3740   -0.2597    1.3477 H   0  0  0  0  0  0  0  0  0  0  0  0
   -2.3494    0.5186    3.0438 H   0  0  0  0  0  0  0  0  0  0  0  0
   -4.3549   -1.3485    2.6784 H   0  0  0  0  0  0  0  0  0  0  0  0
    2.8805   -0.4103   -0.2020 H   0  0  0  0  0  0  0  0  0  0  0  0
    2.2915    1.8187    2.7744 H   0  0  0  0  0  0  0  0  0  0  0  0
    1.6022    5.2071    0.2382 H   0  0  0  0  0  0  0  0  0  0  0  0
    2.5509    1.4047   -1.5185 H   0  0  0  0  0  0  0  0  0  0  0  0
  1  2  2  0
  2  3  1  0
  3  4  1  0
  4  5  1  0
  5  6  2  0
  6  7  1  0
  7  8  2  0
  8  9  1  0
  9 10  1  0
 10 11  2  0
 11 12  1  0
 12 13  2  0
 13 14  1  0
  8 15  1  0
 15 16  1  0
 16 17  1  0
 17 18  2  0
 18 19  1  0
 19 20  2  0
 20 21  1  0
  2 22  1  0
 22 23  1  0
 23 24  2  0
 24 25  1  0
 25 26  1  0
 25 27  2  0
 27 28  1  0
 28 29  1  0
 28 30  2  0
 15  5  1  0
 21 17  1  0
 30 23  1  0
 14 10  1  0
  3 31  1  0
  3 32  1  0
  9 33  1  0
  9 34  1  0
 11 35  1  0
 12 36  1  0
 13 37  1  0
 16 38  1  0
 16 39  1  0
 18 40  1  0
 19 41  1  0
 20 42  1  0
 22 43  1  0
 24 44  1  0
 27 45  1  0
 30 46  1  0
M  END
$$$$
