
     RDKit          3D

 42 44  0  0  0  0  0  0  0  0999 V2000
   -5.9047   -2.9122   -1.0898 C   0  0  0  0  0  0  0  0  0  0  0  0
   -4.9766   -1.8735   -0.8068 O   0  0  0  0  0  0  0  0  0  0  0  0
   -5.4436   -0.7662   -0.1416 C   0  0  0  0  0  0  0  0  0  0  0  0
   -6.7691   -0.6000    0.2787 C   0  0  0  0  0  0  0  0  0  0  0  0
   -7.1603    0.5613    0.9496 C   0  0  0  0  0  0  0  0  0  0  0  0
   -6.2345    1.5681    1.2018 C   0  0  0  0  0  0  0  0  0  0  0  0
   -4.9112    1.4144    0.7887 C   0  0  0  0  0  0  0  0  0  0  0  0
   -4.4968    0.2462    0.1274 C   0  0  0  0  0  0  0  0  0  0  0  0
   -3.1012    0.1070   -0.3320 C   0  0  0  0  0  0  0  0  0  0  0  0
   -2.0379    0.4539    0.4087 C   0  0  0  0  0  0  0  0  0  0  0  0
   -0.6563    0.2898   -0.0509 C   0  0  0  0  0  0  0  0  0  0  0  0
    0.4084    0.5958    0.6133 N   0  0  0  0  0  0  0  0  0  0  0  0
    1.4114    0.2513   -0.2549 C   0  0  0  0  0  0  0  0  0  0  0  0
    2.7317    0.3628   -0.0619 C   0  0  0  0  0  0  0  0  0  0  0  0
    3.3320    0.8905    1.1474 C   0  0  0  0  0  0  0  0  0  0  0  0
    4.6459    1.0101    1.3973 C   0  0  0  0  0  0  0  0  0  0  0  0
    5.7318    0.6106    0.4994 C   0  0  0  0  0  0  0  0  0  0  0  0
    6.0495   -0.7403    0.3192 C   0  0  0  0  0  0  0  0  0  0  0  0
    7.0868   -1.1097   -0.5391 C   0  0  0  0  0  0  0  0  0  0  0  0
    7.8122   -0.1315   -1.2181 C   0  0  0  0  0  0  0  0  0  0  0  0
    7.5023    1.2163   -1.0396 C   0  0  0  0  0  0  0  0  0  0  0  0
    6.4650    1.5876   -0.1817 C   0  0  0  0  0  0  0  0  0  0  0  0
    0.8414   -0.2947   -1.5141 C   0  0  0  0  0  0  0  0  0  0  0  0
    1.4062   -0.7034   -2.5081 O   0  0  0  0  0  0  0  0  0  0  0  0
   -0.4989   -0.2293   -1.2905 O   0  0  0  0  0  0  0  0  0  0  0  0
   -6.3074   -3.3439   -0.1677 H   0  0  0  0  0  0  0  0  0  0  0  0
   -6.7062   -2.5578   -1.7462 H   0  0  0  0  0  0  0  0  0  0  0  0
   -5.3674   -3.7045   -1.6200 H   0  0  0  0  0  0  0  0  0  0  0  0
   -7.5260   -1.3560    0.0988 H   0  0  0  0  0  0  0  0  0  0  0  0
   -8.1924    0.6805    1.2702 H   0  0  0  0  0  0  0  0  0  0  0  0
   -6.5422    2.4760    1.7144 H   0  0  0  0  0  0  0  0  0  0  0  0
   -4.2099    2.2237    0.9784 H   0  0  0  0  0  0  0  0  0  0  0  0
   -2.9844   -0.3372   -1.3184 H   0  0  0  0  0  0  0  0  0  0  0  0
   -2.1401    0.8647    1.4072 H   0  0  0  0  0  0  0  0  0  0  0  0
    3.4021    0.0456   -0.8588 H   0  0  0  0  0  0  0  0  0  0  0  0
    2.6386    1.2301    1.9172 H   0  0  0  0  0  0  0  0  0  0  0  0
    4.9708    1.4449    2.3401 H   0  0  0  0  0  0  0  0  0  0  0  0
    5.4900   -1.5108    0.8443 H   0  0  0  0  0  0  0  0  0  0  0  0
    7.3273   -2.1603   -0.6784 H   0  0  0  0  0  0  0  0  0  0  0  0
    8.6184   -0.4197   -1.8877 H   0  0  0  0  0  0  0  0  0  0  0  0
    8.0665    1.9788   -1.5701 H   0  0  0  0  0  0  0  0  0  0  0  0
    6.2289    2.6412   -0.0539 H   0  0  0  0  0  0  0  0  0  0  0  0
  1  2  1  0
  2  3  1  0
  3  4  2  0
  4  5  1  0
  5  6  2  0
  6  7  1  0
  7  8  2  0
  8  9  1  0
  9 10  2  3
 10 11  1  0
 11 12  2  0
 12 13  1  0
 13 14  2  3
 14 15  1  0
 15 16  2  3
 16 17  1  0
 17 18  2  0
 18 19  1  0
 19 20  2  0
 20 21  1  0
 21 22  2  0
 13 23  1  0
 23 24  2  0
 23 25  1  0
  8  3  1  0
 25 11  1  0
 22 17  1  0
  1 26  1  0
  1 27  1  0
  1 28  1  0
  4 29  1  0
  5 30  1  0
  6 31  1  0
  7 32  1  0
  9 33  1  0
 10 34  1  0
 14 35  1  0
 15 36  1  0
 16 37  1  0
 18 38  1  0
 19 39  1  0
 20 40  1  0
 21 41  1  0
 22 42  1  0
M  END
$$$$
