
     RDKit          3D

 55 60  0  0  0  0  0  0  0  0999 V2000
   -5.0391   -1.0819   -0.3797 O   0  0  0  0  0  0  0  0  0  0  0  0
   -4.2228   -0.2137   -0.0757 C   0  0  0  0  0  0  0  0  0  0  0  0
   -4.5673    1.1907   -0.2279 C   0  0  0  0  0  0  0  0  0  0  0  0
   -5.8454    1.7955   -0.0450 C   0  0  0  0  0  0  0  0  0  0  0  0
   -5.6987    3.1279   -0.3491 C   0  0  0  0  0  0  0  0  0  0  0  0
   -4.4242    3.3854   -0.7382 O   0  0  0  0  0  0  0  0  0  0  0  0
   -3.7522    2.2069   -0.6867 C   0  0  0  0  0  0  0  0  0  0  0  0
   -2.9443   -0.5409    0.3836 N   0  0  0  0  0  0  0  0  0  0  0  0
   -2.1607    0.2785    1.2947 C   0  0  0  0  0  0  0  0  0  0  0  0
   -0.6833    0.3058    0.8913 C   0  0  0  0  0  0  0  0  0  0  0  0
   -0.1931   -1.0043    0.1963 C   0  0  0  0  0  0  0  0  0  0  0  0
   -1.0922   -2.1682    0.6960 C   0  0  0  0  0  0  0  0  0  0  0  0
   -2.5614   -1.9446    0.3286 C   0  0  0  0  0  0  0  0  0  0  0  0
   -0.4189   -0.7819   -1.2213 O   0  0  0  0  0  0  0  0  0  0  0  0
    0.1257   -1.7034   -2.0693 C   0  0  0  0  0  0  0  0  0  0  0  0
   -0.4082   -1.7442   -3.3579 C   0  0  0  0  0  0  0  0  0  0  0  0
    0.0799   -2.6674   -4.2837 C   0  0  0  0  0  0  0  0  0  0  0  0
    1.1013   -3.5379   -3.9153 C   0  0  0  0  0  0  0  0  0  0  0  0
    1.5654   -4.4215   -4.8073 F   0  0  0  0  0  0  0  0  0  0  0  0
    1.6513   -3.4992   -2.6405 C   0  0  0  0  0  0  0  0  0  0  0  0
    1.1627   -2.5683   -1.7206 C   0  0  0  0  0  0  0  0  0  0  0  0
    1.7480   -2.4715   -0.3704 C   0  0  0  0  0  0  0  0  0  0  0  0
    2.5616   -3.3127   -0.0028 O   0  0  0  0  0  0  0  0  0  0  0  0
    1.3176   -1.2610    0.4529 C   0  0  0  0  0  0  0  0  0  0  0  0
    2.2506   -0.1085    0.0991 C   0  0  0  0  0  0  0  0  0  0  0  0
    2.6449    0.3226    1.4679 C   0  0  0  0  0  0  0  0  0  0  0  0
    3.4334    1.5551    1.7036 C   0  0  0  0  0  0  0  0  0  0  0  0
    3.7046    1.9449    3.0212 C   0  0  0  0  0  0  0  0  0  0  0  0
    4.4397    3.1043    3.2750 C   0  0  0  0  0  0  0  0  0  0  0  0
    4.9083    3.8782    2.2150 C   0  0  0  0  0  0  0  0  0  0  0  0
    4.6451    3.4935    0.9010 C   0  0  0  0  0  0  0  0  0  0  0  0
    3.9096    2.3336    0.6423 C   0  0  0  0  0  0  0  0  0  0  0  0
    2.2422   -0.4529    2.4222 N   0  0  0  0  0  0  0  0  0  0  0  0
    1.5450   -1.5342    1.8395 O   0  0  0  0  0  0  0  0  0  0  0  0
   -6.7563    1.3054    0.2710 H   0  0  0  0  0  0  0  0  0  0  0  0
   -6.3706    3.9750   -0.3535 H   0  0  0  0  0  0  0  0  0  0  0  0
   -2.7213    2.2482   -1.0097 H   0  0  0  0  0  0  0  0  0  0  0  0
   -2.5475    1.2941    1.3985 H   0  0  0  0  0  0  0  0  0  0  0  0
   -2.2661   -0.1717    2.2909 H   0  0  0  0  0  0  0  0  0  0  0  0
   -0.1187    0.5232    1.8025 H   0  0  0  0  0  0  0  0  0  0  0  0
   -0.5284    1.1547    0.2128 H   0  0  0  0  0  0  0  0  0  0  0  0
   -0.7882   -3.1376    0.2866 H   0  0  0  0  0  0  0  0  0  0  0  0
   -1.0007   -2.2558    1.7866 H   0  0  0  0  0  0  0  0  0  0  0  0
   -2.7613   -2.3117   -0.6855 H   0  0  0  0  0  0  0  0  0  0  0  0
   -3.2069   -2.5111    1.0105 H   0  0  0  0  0  0  0  0  0  0  0  0
   -1.2136   -1.0689   -3.6379 H   0  0  0  0  0  0  0  0  0  0  0  0
   -0.3321   -2.7170   -5.2874 H   0  0  0  0  0  0  0  0  0  0  0  0
    2.4536   -4.1840   -2.3798 H   0  0  0  0  0  0  0  0  0  0  0  0
    1.7598    0.6942   -0.4564 H   0  0  0  0  0  0  0  0  0  0  0  0
    3.1468   -0.4261   -0.4452 H   0  0  0  0  0  0  0  0  0  0  0  0
    3.3485    1.3482    3.8590 H   0  0  0  0  0  0  0  0  0  0  0  0
    4.6481    3.4003    4.3003 H   0  0  0  0  0  0  0  0  0  0  0  0
    5.4828    4.7798    2.4138 H   0  0  0  0  0  0  0  0  0  0  0  0
    5.0171    4.0973    0.0765 H   0  0  0  0  0  0  0  0  0  0  0  0
    3.7298    2.0590   -0.3925 H   0  0  0  0  0  0  0  0  0  0  0  0
  1  2  2  0
  2  3  1  0
  3  4  1  0
  4  5  2  0
  5  6  1  0
  6  7  1  0
  2  8  1  0
  8  9  1  0
  9 10  1  0
 10 11  1  0
 11 12  1  0
 12 13  1  0
 11 14  1  0
 14 15  1  0
 15 16  2  0
 16 17  1  0
 17 18  2  0
 18 19  1  0
 18 20  1  0
 20 21  2  0
 21 22  1  0
 22 23  2  0
 22 24  1  0
 24 25  1  0
 25 26  1  0
 26 27  1  0
 27 28  2  0
 28 29  1  0
 29 30  2  0
 30 31  1  0
 31 32  2  0
 26 33  2  0
 33 34  1  0
  7  3  2  0
 13  8  1  0
 21 15  1  0
 34 24  1  0
 24 11  1  0
 32 27  1  0
  4 35  1  0
  5 36  1  0
  7 37  1  0
  9 38  1  0
  9 39  1  0
 10 40  1  0
 10 41  1  0
 12 42  1  0
 12 43  1  0
 13 44  1  0
 13 45  1  0
 16 46  1  0
 17 47  1  0
 20 48  1  0
 25 49  1  0
 25 50  1  0
 28 51  1  0
 29 52  1  0
 30 53  1  0
 31 54  1  0
 32 55  1  0
M  END
$$$$
