
     RDKit          3D

 31 32  0  0  0  0  0  0  0  0999 V2000
    4.2244    0.0730    1.8466 C   0  0  0  0  0  0  0  0  0  0  0  0
    4.4277   -1.5054    0.9752 S   0  0  0  0  0  0  0  0  0  0  0  0
    2.8045   -1.6637    0.2520 C   0  0  0  0  0  0  0  0  0  0  0  0
    2.6881   -1.7959   -1.1357 C   0  0  0  0  0  0  0  0  0  0  0  0
    1.4301   -1.9053   -1.7316 C   0  0  0  0  0  0  0  0  0  0  0  0
    0.2822   -1.8928   -0.9409 C   0  0  0  0  0  0  0  0  0  0  0  0
    0.3955   -1.7926    0.4438 C   0  0  0  0  0  0  0  0  0  0  0  0
   -0.7886   -1.7414    1.2401 N   0  0  0  0  0  0  0  0  0  0  0  0
   -1.3818   -0.1842    1.5836 S   0  0  0  0  0  6  0  0  0  0  0  0
   -2.5137   -0.3533    2.4718 O   0  0  0  0  0  0  0  0  0  0  0  0
   -0.2714    0.6709    1.9561 O   0  0  0  0  0  0  0  0  0  0  0  0
   -2.0582    0.5512    0.1544 C   0  0  0  0  0  0  0  0  0  0  0  0
   -2.1931    1.9089   -0.0681 C   0  0  0  0  0  0  0  0  0  0  0  0
   -2.7821    2.0081   -1.2948 N   0  0  0  0  0  0  0  0  0  0  0  0
   -3.1391    3.2298   -1.9704 C   0  0  0  0  0  0  0  0  0  0  0  0
   -2.9852    0.7446   -1.7710 C   0  0  0  0  0  0  0  0  0  0  0  0
   -2.5603   -0.1652   -0.9229 N   0  0  0  0  0  0  0  0  0  0  0  0
    1.6512   -1.6753    1.0426 C   0  0  0  0  0  0  0  0  0  0  0  0
    3.8839    0.8511    1.1575 H   0  0  0  0  0  0  0  0  0  0  0  0
    5.1890    0.3762    2.2626 H   0  0  0  0  0  0  0  0  0  0  0  0
    3.5110   -0.0229    2.6695 H   0  0  0  0  0  0  0  0  0  0  0  0
    3.5762   -1.8051   -1.7642 H   0  0  0  0  0  0  0  0  0  0  0  0
    1.3445   -1.9975   -2.8112 H   0  0  0  0  0  0  0  0  0  0  0  0
   -0.6966   -1.9749   -1.4078 H   0  0  0  0  0  0  0  0  0  0  0  0
   -0.7209   -2.2513    2.1198 H   0  0  0  0  0  0  0  0  0  0  0  0
   -1.9250    2.7652    0.5359 H   0  0  0  0  0  0  0  0  0  0  0  0
   -2.2968    3.5303   -2.5985 H   0  0  0  0  0  0  0  0  0  0  0  0
   -3.3532    4.0017   -1.2267 H   0  0  0  0  0  0  0  0  0  0  0  0
   -4.0275    3.0545   -2.5827 H   0  0  0  0  0  0  0  0  0  0  0  0
   -3.4432    0.5442   -2.7316 H   0  0  0  0  0  0  0  0  0  0  0  0
    1.7285   -1.5830    2.1218 H   0  0  0  0  0  0  0  0  0  0  0  0
  1  2  1  0
  2  3  1  0
  3  4  2  0
  4  5  1  0
  5  6  2  0
  6  7  1  0
  7  8  1  0
  8  9  1  0
  9 10  2  0
  9 11  2  0
  9 12  1  0
 12 13  2  0
 13 14  1  0
 14 15  1  0
 14 16  1  0
 16 17  2  0
  7 18  2  0
 18  3  1  0
 17 12  1  0
  1 19  1  0
  1 20  1  0
  1 21  1  0
  4 22  1  0
  5 23  1  0
  6 24  1  0
  8 25  1  0
 13 26  1  0
 15 27  1  0
 15 28  1  0
 15 29  1  0
 16 30  1  0
 18 31  1  0
M  END
$$$$
