
     RDKit          3D

 44 46  0  0  0  0  0  0  0  0999 V2000
   -4.7161    0.5949    1.7752 C   0  0  0  0  0  0  0  0  0  0  0  0
   -3.3394    0.0092    1.9399 C   0  0  0  0  0  0  0  0  0  0  0  0
   -2.4953    0.5134    2.9445 C   0  0  0  0  0  0  0  0  0  0  0  0
   -1.1963    0.0144    3.1480 C   0  0  0  0  0  0  0  0  0  0  0  0
   -0.3800    0.6031    4.2632 C   0  0  0  0  0  0  0  0  0  0  0  0
   -0.7395   -1.0020    2.2945 C   0  0  0  0  0  0  0  0  0  0  0  0
    0.9100   -1.6864    2.3905 S   0  0  0  0  0  6  0  0  0  0  0  0
    0.7629   -3.0712    2.7888 O   0  0  0  0  0  0  0  0  0  0  0  0
    1.7837   -0.7910    3.1176 O   0  0  0  0  0  0  0  0  0  0  0  0
    1.4307   -1.7213    0.7925 N   0  0  0  0  0  0  0  0  0  0  0  0
    1.4408   -0.5867   -0.0691 C   0  0  0  0  0  0  0  0  0  0  0  0
    1.6184    0.7208    0.3792 C   0  0  0  0  0  0  0  0  0  0  0  0
    1.6488    1.7773   -0.5335 C   0  0  0  0  0  0  0  0  0  0  0  0
    1.5327    1.5284   -1.8986 C   0  0  0  0  0  0  0  0  0  0  0  0
    1.5810    2.6271   -2.7116 O   0  0  0  0  0  0  0  0  0  0  0  0
    1.3808    0.2215   -2.3751 C   0  0  0  0  0  0  0  0  0  0  0  0
    1.1503   -0.1931   -4.0979 S   0  0  0  0  0  0  0  0  0  0  0  0
    2.6632    0.3125   -4.7894 C   0  0  0  0  0  0  0  0  0  0  0  0
    3.0391    1.6305   -4.8291 N   0  0  0  0  0  0  0  0  0  0  0  0
    4.2125    1.5792   -5.4170 C   0  0  0  0  0  0  0  0  0  0  0  0
    4.5172    0.2880   -5.7143 N   0  0  0  0  0  0  0  0  0  0  0  0
    3.5368   -0.5424   -5.3256 N   0  0  0  0  0  0  0  0  0  0  0  0
    1.3436   -0.8299   -1.4453 C   0  0  0  0  0  0  0  0  0  0  0  0
   -1.5856   -1.5292    1.3025 C   0  0  0  0  0  0  0  0  0  0  0  0
   -2.8809   -1.0291    1.1119 C   0  0  0  0  0  0  0  0  0  0  0  0
   -3.7407   -1.6009    0.0182 C   0  0  0  0  0  0  0  0  0  0  0  0
   -4.8168    1.0545    0.7865 H   0  0  0  0  0  0  0  0  0  0  0  0
   -5.4777   -0.1815    1.8984 H   0  0  0  0  0  0  0  0  0  0  0  0
   -4.9156    1.3705    2.5228 H   0  0  0  0  0  0  0  0  0  0  0  0
   -2.8620    1.3154    3.5845 H   0  0  0  0  0  0  0  0  0  0  0  0
   -0.9939    1.2317    4.9179 H   0  0  0  0  0  0  0  0  0  0  0  0
    0.0361   -0.1856    4.8969 H   0  0  0  0  0  0  0  0  0  0  0  0
    0.4183    1.2346    3.8626 H   0  0  0  0  0  0  0  0  0  0  0  0
    1.4081   -2.6556    0.3889 H   0  0  0  0  0  0  0  0  0  0  0  0
    1.7471    0.9557    1.4309 H   0  0  0  0  0  0  0  0  0  0  0  0
    1.7756    2.7977   -0.1793 H   0  0  0  0  0  0  0  0  0  0  0  0
    1.8851    2.3415   -3.5985 H   0  0  0  0  0  0  0  0  0  0  0  0
    4.8632    2.4119   -5.6453 H   0  0  0  0  0  0  0  0  0  0  0  0
    5.3376   -0.0886   -6.1779 H   0  0  0  0  0  0  0  0  0  0  0  0
    1.2238   -1.8500   -1.8025 H   0  0  0  0  0  0  0  0  0  0  0  0
   -1.2305   -2.3393    0.6689 H   0  0  0  0  0  0  0  0  0  0  0  0
   -3.9698   -0.8285   -0.7231 H   0  0  0  0  0  0  0  0  0  0  0  0
   -4.6714   -2.0000    0.4325 H   0  0  0  0  0  0  0  0  0  0  0  0
   -3.2360   -2.4215   -0.5037 H   0  0  0  0  0  0  0  0  0  0  0  0
  1  2  1  0
  2  3  2  0
  3  4  1  0
  4  5  1  0
  4  6  2  0
  6  7  1  0
  7  8  2  0
  7  9  2  0
  7 10  1  0
 10 11  1  0
 11 12  2  0
 12 13  1  0
 13 14  2  0
 14 15  1  0
 14 16  1  0
 16 17  1  0
 17 18  1  0
 18 19  1  0
 19 20  2  0
 20 21  1  0
 21 22  1  0
 16 23  2  0
  6 24  1  0
 24 25  2  0
 25 26  1  0
 25  2  1  0
 23 11  1  0
 22 18  2  0
  1 27  1  0
  1 28  1  0
  1 29  1  0
  3 30  1  0
  5 31  1  0
  5 32  1  0
  5 33  1  0
 10 34  1  0
 12 35  1  0
 13 36  1  0
 15 37  1  0
 20 38  1  0
 21 39  1  0
 23 40  1  0
 24 41  1  0
 26 42  1  0
 26 43  1  0
 26 44  1  0
M  END
$$$$
