
     RDKit          3D

 62 67  0  0  0  0  0  0  0  0999 V2000
   -3.0055   -1.2069    4.7770 C   0  0  0  0  0  0  0  0  0  0  0  0
   -2.9489   -0.8782    3.3949 O   0  0  0  0  0  0  0  0  0  0  0  0
   -2.6758   -1.8997    2.5194 C   0  0  0  0  0  0  0  0  0  0  0  0
   -2.1298   -3.1316    2.8998 C   0  0  0  0  0  0  0  0  0  0  0  0
   -1.8485   -4.1091    1.9411 C   0  0  0  0  0  0  0  0  0  0  0  0
   -2.1037   -3.8642    0.5948 C   0  0  0  0  0  0  0  0  0  0  0  0
   -2.6431   -2.6399    0.2032 C   0  0  0  0  0  0  0  0  0  0  0  0
   -2.9358   -1.6503    1.1558 C   0  0  0  0  0  0  0  0  0  0  0  0
   -3.4962   -0.3720    0.6955 C   0  0  0  0  0  0  0  0  0  0  0  0
   -5.1767   -0.1145    0.8710 S   0  0  0  0  0  0  0  0  0  0  0  0
   -5.1048    1.4490    0.1586 C   0  0  0  0  0  0  0  0  0  0  0  0
   -6.1920    2.3289   -0.0374 C   0  0  0  0  0  0  0  0  0  0  0  0
   -5.9070    3.5417   -0.6296 C   0  0  0  0  0  0  0  0  0  0  0  0
   -4.6400    3.8881   -1.0111 C   0  0  0  0  0  0  0  0  0  0  0  0
   -3.5626    3.0437   -0.8293 C   0  0  0  0  0  0  0  0  0  0  0  0
   -3.7944    1.7755   -0.2267 C   0  0  0  0  0  0  0  0  0  0  0  0
   -2.8729    0.7029    0.0837 C   0  0  0  0  0  0  0  0  0  0  0  0
   -1.4409    0.7000   -0.1975 C   0  0  0  0  0  0  0  0  0  0  0  0
   -0.5108    0.7522    0.8459 C   0  0  0  0  0  0  0  0  0  0  0  0
    0.8615    0.7583    0.5716 C   0  0  0  0  0  0  0  0  0  0  0  0
    1.3123    0.7160   -0.7483 C   0  0  0  0  0  0  0  0  0  0  0  0
    2.6170    0.7222   -1.1555 O   0  0  0  0  0  0  0  0  0  0  0  0
    3.6188    0.6814   -0.1385 C   0  0  0  0  0  0  0  0  0  0  0  0
    5.0135    0.6333   -0.7949 C   0  0  0  0  0  0  0  0  0  0  0  0
    5.2860   -0.5688   -1.6065 N   0  0  0  0  0  0  0  0  0  0  0  0
    6.5939   -0.4907   -2.2912 C   0  0  0  0  0  0  0  0  0  0  0  0
    7.6981   -1.2947   -1.5873 C   0  0  0  0  0  0  0  0  0  0  0  0
    7.3940   -2.6919   -1.4659 O   0  0  0  0  0  0  0  0  0  0  0  0
    5.9844   -2.9613   -1.4546 C   0  0  0  0  0  0  0  0  0  0  0  0
    5.1735   -1.8181   -0.8264 C   0  0  0  0  0  0  0  0  0  0  0  0
    0.3809    0.6699   -1.7888 C   0  0  0  0  0  0  0  0  0  0  0  0
   -0.9893    0.6618   -1.5195 C   0  0  0  0  0  0  0  0  0  0  0  0
   -4.5839    5.1274   -1.5700 O   0  0  0  0  0  0  0  0  0  0  0  0
   -5.9694    5.5193   -1.4998 C   0  0  0  0  0  0  0  0  0  0  0  0
   -6.8165    4.5181   -0.8998 O   0  0  0  0  0  0  0  0  0  0  0  0
   -2.0047   -1.4159    5.1692 H   0  0  0  0  0  0  0  0  0  0  0  0
   -3.3961   -0.3348    5.3106 H   0  0  0  0  0  0  0  0  0  0  0  0
   -3.6878   -2.0438    4.9641 H   0  0  0  0  0  0  0  0  0  0  0  0
   -1.8976   -3.3572    3.9353 H   0  0  0  0  0  0  0  0  0  0  0  0
   -1.4220   -5.0611    2.2477 H   0  0  0  0  0  0  0  0  0  0  0  0
   -1.8792   -4.6221   -0.1514 H   0  0  0  0  0  0  0  0  0  0  0  0
   -2.8348   -2.4551   -0.8516 H   0  0  0  0  0  0  0  0  0  0  0  0
   -7.1988    2.0655    0.2641 H   0  0  0  0  0  0  0  0  0  0  0  0
   -2.5667    3.3465   -1.1361 H   0  0  0  0  0  0  0  0  0  0  0  0
   -0.8497    0.7878    1.8794 H   0  0  0  0  0  0  0  0  0  0  0  0
    1.5464    0.8007    1.4111 H   0  0  0  0  0  0  0  0  0  0  0  0
    3.5598    1.5973    0.4636 H   0  0  0  0  0  0  0  0  0  0  0  0
    3.4748   -0.1860    0.5160 H   0  0  0  0  0  0  0  0  0  0  0  0
    5.0903    1.5095   -1.4519 H   0  0  0  0  0  0  0  0  0  0  0  0
    5.7760    0.7397   -0.0128 H   0  0  0  0  0  0  0  0  0  0  0  0
    6.4523   -0.9084   -3.2961 H   0  0  0  0  0  0  0  0  0  0  0  0
    6.9160    0.5469   -2.4358 H   0  0  0  0  0  0  0  0  0  0  0  0
    7.8825   -0.8991   -0.5812 H   0  0  0  0  0  0  0  0  0  0  0  0
    8.6364   -1.2125   -2.1453 H   0  0  0  0  0  0  0  0  0  0  0  0
    5.6601   -3.1553   -2.4841 H   0  0  0  0  0  0  0  0  0  0  0  0
    5.8333   -3.8856   -0.8871 H   0  0  0  0  0  0  0  0  0  0  0  0
    5.5454   -1.6630    0.1953 H   0  0  0  0  0  0  0  0  0  0  0  0
    4.1196   -2.1137   -0.7648 H   0  0  0  0  0  0  0  0  0  0  0  0
    0.7276    0.6384   -2.8190 H   0  0  0  0  0  0  0  0  0  0  0  0
   -1.6952    0.6224   -2.3454 H   0  0  0  0  0  0  0  0  0  0  0  0
   -6.3289    5.7199   -2.5153 H   0  0  0  0  0  0  0  0  0  0  0  0
   -6.0444    6.4411   -0.9121 H   0  0  0  0  0  0  0  0  0  0  0  0
  1  2  1  0
  2  3  1  0
  3  4  2  0
  4  5  1  0
  5  6  2  0
  6  7  1  0
  7  8  2  0
  8  9  1  0
  9 10  1  0
 10 11  1  0
 11 12  2  0
 12 13  1  0
 13 14  2  0
 14 15  1  0
 15 16  2  0
 16 17  1  0
 17 18  1  0
 18 19  2  0
 19 20  1  0
 20 21  2  0
 21 22  1  0
 22 23  1  0
 23 24  1  0
 24 25  1  0
 25 26  1  0
 26 27  1  0
 27 28  1  0
 28 29  1  0
 29 30  1  0
 21 31  1  0
 31 32  2  0
 14 33  1  0
 33 34  1  0
 34 35  1  0
  8  3  1  0
 17  9  2  0
 32 18  1  0
 16 11  1  0
 30 25  1  0
 35 13  1  0
  1 36  1  0
  1 37  1  0
  1 38  1  0
  4 39  1  0
  5 40  1  0
  6 41  1  0
  7 42  1  0
 12 43  1  0
 15 44  1  0
 19 45  1  0
 20 46  1  0
 23 47  1  0
 23 48  1  0
 24 49  1  0
 24 50  1  0
 26 51  1  0
 26 52  1  0
 27 53  1  0
 27 54  1  0
 29 55  1  0
 29 56  1  0
 30 57  1  0
 30 58  1  0
 31 59  1  0
 32 60  1  0
 34 61  1  0
 34 62  1  0
M  END
$$$$
