
     RDKit          3D

 74 79  0  0  0  0  0  0  0  0999 V2000
    8.5446   -4.3672   -2.2856 C   0  0  0  0  0  0  0  0  0  0  0  0
    8.5583   -2.9489   -2.3870 O   0  0  0  0  0  0  0  0  0  0  0  0
    7.4052   -2.2935   -2.0581 C   0  0  0  0  0  0  0  0  0  0  0  0
    6.2116   -2.8823   -1.6489 C   0  0  0  0  0  0  0  0  0  0  0  0
    5.0983   -2.0859   -1.3346 C   0  0  0  0  0  0  0  0  0  0  0  0
    5.1452   -0.6826   -1.4238 C   0  0  0  0  0  0  0  0  0  0  0  0
    3.9876    0.1773   -1.0879 C   0  0  0  0  0  0  0  0  0  0  0  0
    2.6713   -0.2388   -1.1859 C   0  0  0  0  0  0  0  0  0  0  0  0
    1.6655    0.6554   -0.8182 C   0  0  0  0  0  0  0  0  0  0  0  0
    0.2791    0.1480   -0.8668 C   0  0  0  0  0  0  0  0  0  0  0  0
   -0.2238   -0.0838   -1.9579 O   0  0  0  0  0  0  0  0  0  0  0  0
   -0.2919   -0.0020    0.3740 N   0  0  0  0  0  0  0  0  0  0  0  0
   -1.5635   -0.5218    0.6948 C   0  0  0  0  0  0  0  0  0  0  0  0
   -2.3937   -1.1327   -0.2458 C   0  0  0  0  0  0  0  0  0  0  0  0
   -3.6260   -1.6476    0.1587 C   0  0  0  0  0  0  0  0  0  0  0  0
   -4.6841   -2.4400   -1.0356 S   0  0  0  0  0  6  0  0  0  0  0  0
   -3.8364   -3.0577   -2.0317 O   0  0  0  0  0  0  0  0  0  0  0  0
   -5.6563   -3.2194   -0.2953 O   0  0  0  0  0  0  0  0  0  0  0  0
   -5.5073   -1.1477   -1.7556 N   0  0  0  0  0  0  0  0  0  0  0  0
   -4.7537   -0.2434   -2.6709 C   0  0  0  0  0  0  0  0  0  0  0  0
   -4.6835    1.1744   -2.0926 C   0  0  0  0  0  0  0  0  0  0  0  0
   -5.9706    1.7696   -1.8608 O   0  0  0  0  0  0  0  0  0  0  0  0
   -7.0187    0.8110   -1.6542 C   0  0  0  0  0  0  0  0  0  0  0  0
   -6.5334   -0.4502   -0.9329 C   0  0  0  0  0  0  0  0  0  0  0  0
   -4.0067   -1.6056    1.5014 C   0  0  0  0  0  0  0  0  0  0  0  0
   -3.1676   -1.0055    2.4439 C   0  0  0  0  0  0  0  0  0  0  0  0
   -1.9449   -0.4392    2.0639 C   0  0  0  0  0  0  0  0  0  0  0  0
   -1.0861    0.2145    2.9656 N   0  0  0  0  0  0  0  0  0  0  0  0
   -1.2060    1.6940    2.9611 C   0  0  0  0  0  0  0  0  0  0  0  0
   -2.1724    2.1872    4.0450 C   0  0  0  0  0  0  0  0  0  0  0  0
   -1.7687    1.7219    5.3402 O   0  0  0  0  0  0  0  0  0  0  0  0
   -1.8030    0.2887    5.3840 C   0  0  0  0  0  0  0  0  0  0  0  0
   -0.8932   -0.3504    4.3202 C   0  0  0  0  0  0  0  0  0  0  0  0
    1.9594    1.9687   -0.4002 C   0  0  0  0  0  0  0  0  0  0  0  0
    0.9938    2.9535   -0.0676 C   0  0  0  0  0  0  0  0  0  0  0  0
    1.3809    4.2277    0.3431 C   0  0  0  0  0  0  0  0  0  0  0  0
    2.7314    4.5360    0.4213 C   0  0  0  0  0  0  0  0  0  0  0  0
    3.6831    3.5716    0.0796 C   0  0  0  0  0  0  0  0  0  0  0  0
    3.3228    2.2965   -0.3363 C   0  0  0  0  0  0  0  0  0  0  0  0
    4.2961    1.4291   -0.6608 N   0  0  0  0  0  0  0  0  0  0  0  0
    6.3640   -0.1136   -1.8364 C   0  0  0  0  0  0  0  0  0  0  0  0
    7.4746   -0.9055   -2.1498 C   0  0  0  0  0  0  0  0  0  0  0  0
    8.3519   -4.6882   -1.2569 H   0  0  0  0  0  0  0  0  0  0  0  0
    7.8197   -4.8055   -2.9792 H   0  0  0  0  0  0  0  0  0  0  0  0
    9.5373   -4.7307   -2.5664 H   0  0  0  0  0  0  0  0  0  0  0  0
    6.1082   -3.9584   -1.5570 H   0  0  0  0  0  0  0  0  0  0  0  0
    4.1956   -2.5909   -0.9983 H   0  0  0  0  0  0  0  0  0  0  0  0
    2.4092   -1.2290   -1.5433 H   0  0  0  0  0  0  0  0  0  0  0  0
    0.2378    0.2722    1.2001 H   0  0  0  0  0  0  0  0  0  0  0  0
   -2.0876   -1.2399   -1.2815 H   0  0  0  0  0  0  0  0  0  0  0  0
   -3.7479   -0.6169   -2.8781 H   0  0  0  0  0  0  0  0  0  0  0  0
   -5.2922   -0.2306   -3.6256 H   0  0  0  0  0  0  0  0  0  0  0  0
   -4.1472    1.1760   -1.1378 H   0  0  0  0  0  0  0  0  0  0  0  0
   -4.1359    1.8339   -2.7734 H   0  0  0  0  0  0  0  0  0  0  0  0
   -7.4502    0.5619   -2.6304 H   0  0  0  0  0  0  0  0  0  0  0  0
   -7.7994    1.3047   -1.0675 H   0  0  0  0  0  0  0  0  0  0  0  0
   -6.1053   -0.1633    0.0333 H   0  0  0  0  0  0  0  0  0  0  0  0
   -7.3798   -1.1256   -0.7672 H   0  0  0  0  0  0  0  0  0  0  0  0
   -4.9517   -2.0387    1.8250 H   0  0  0  0  0  0  0  0  0  0  0  0
   -3.5037   -0.9813    3.4734 H   0  0  0  0  0  0  0  0  0  0  0  0
   -0.2070    2.0976    3.1674 H   0  0  0  0  0  0  0  0  0  0  0  0
   -1.5154    2.0801    1.9829 H   0  0  0  0  0  0  0  0  0  0  0  0
   -2.1702    3.2809    4.0718 H   0  0  0  0  0  0  0  0  0  0  0  0
   -3.1997    1.8616    3.8477 H   0  0  0  0  0  0  0  0  0  0  0  0
   -1.4675   -0.0183    6.3797 H   0  0  0  0  0  0  0  0  0  0  0  0
   -2.8431   -0.0359    5.2867 H   0  0  0  0  0  0  0  0  0  0  0  0
   -0.9992   -1.4415    4.3213 H   0  0  0  0  0  0  0  0  0  0  0  0
    0.1475   -0.1390    4.5963 H   0  0  0  0  0  0  0  0  0  0  0  0
   -0.0697    2.7379   -0.1484 H   0  0  0  0  0  0  0  0  0  0  0  0
    0.6329    4.9774    0.5899 H   0  0  0  0  0  0  0  0  0  0  0  0
    3.0526    5.5266    0.7355 H   0  0  0  0  0  0  0  0  0  0  0  0
    4.7403    3.8243    0.1342 H   0  0  0  0  0  0  0  0  0  0  0  0
    6.4578    0.9688   -1.9186 H   0  0  0  0  0  0  0  0  0  0  0  0
    8.4006   -0.4304   -2.4640 H   0  0  0  0  0  0  0  0  0  0  0  0
  1  2  1  0
  2  3  1  0
  3  4  2  0
  4  5  1  0
  5  6  2  0
  6  7  1  0
  7  8  2  0
  8  9  1  0
  9 10  1  0
 10 11  2  0
 10 12  1  0
 12 13  1  0
 13 14  2  0
 14 15  1  0
 15 16  1  0
 16 17  2  0
 16 18  2  0
 16 19  1  0
 19 20  1  0
 20 21  1  0
 21 22  1  0
 22 23  1  0
 23 24  1  0
 15 25  2  0
 25 26  1  0
 26 27  2  0
 27 28  1  0
 28 29  1  0
 29 30  1  0
 30 31  1  0
 31 32  1  0
 32 33  1  0
  9 34  2  0
 34 35  1  0
 35 36  2  0
 36 37  1  0
 37 38  2  0
 38 39  1  0
 39 40  2  0
  6 41  1  0
 41 42  2  0
 42  3  1  0
 40  7  1  0
 27 13  1  0
 33 28  1  0
 39 34  1  0
 24 19  1  0
  1 43  1  0
  1 44  1  0
  1 45  1  0
  4 46  1  0
  5 47  1  0
  8 48  1  0
 12 49  1  0
 14 50  1  0
 20 51  1  0
 20 52  1  0
 21 53  1  0
 21 54  1  0
 23 55  1  0
 23 56  1  0
 24 57  1  0
 24 58  1  0
 25 59  1  0
 26 60  1  0
 29 61  1  0
 29 62  1  0
 30 63  1  0
 30 64  1  0
 32 65  1  0
 32 66  1  0
 33 67  1  0
 33 68  1  0
 35 69  1  0
 36 70  1  0
 37 71  1  0
 38 72  1  0
 41 73  1  0
 42 74  1  0
M  END
$$$$
