
     RDKit          3D

 49 53  0  0  0  0  0  0  0  0999 V2000
    6.6192    0.4667    1.1881 C   0  0  0  0  0  0  0  0  0  0  0  0
    5.3184   -0.2174    1.4654 C   0  0  0  0  0  0  0  0  0  0  0  0
    5.3178   -1.8862    1.8176 S   0  0  0  0  0  0  0  0  0  0  0  0
    3.6322   -1.9192    2.0053 C   0  0  0  0  0  0  0  0  0  0  0  0
    3.0237   -3.0741    2.3227 N   0  0  0  0  0  0  0  0  0  0  0  0
    1.7035   -2.9453    2.4406 C   0  0  0  0  0  0  0  0  0  0  0  0
    0.9831   -1.8314    2.2802 N   0  0  0  0  0  0  0  0  0  0  0  0
    1.6301   -0.7036    1.9268 C   0  0  0  0  0  0  0  0  0  0  0  0
    0.6271    0.7275    1.6671 S   0  0  0  0  0  0  0  0  0  0  0  0
    0.3681    0.5882   -0.1411 C   0  0  0  0  0  0  0  0  0  0  0  0
   -0.0228    1.9653   -0.6732 C   0  0  0  0  0  0  0  0  0  0  0  0
   -0.6124   -0.5501   -0.4872 C   0  0  0  0  0  0  0  0  0  0  0  0
   -0.2250   -1.7135   -0.6232 O   0  0  0  0  0  0  0  0  0  0  0  0
   -1.9398   -0.1594   -0.6763 N   0  0  0  0  0  0  0  0  0  0  0  0
   -2.4219    0.0625   -2.0166 C   0  0  0  0  0  0  0  0  0  0  0  0
   -1.6108   -0.2883   -3.1185 C   0  0  0  0  0  0  0  0  0  0  0  0
   -2.0264   -0.0778   -4.4366 C   0  0  0  0  0  0  0  0  0  0  0  0
   -3.2627    0.4969   -4.6880 C   0  0  0  0  0  0  0  0  0  0  0  0
   -4.0780    0.8593   -3.6196 C   0  0  0  0  0  0  0  0  0  0  0  0
   -3.6685    0.6458   -2.2910 C   0  0  0  0  0  0  0  0  0  0  0  0
   -4.7651    1.2194   -1.0239 S   0  0  0  0  0  0  0  0  0  0  0  0
   -4.1747    0.2706    0.3509 C   0  0  0  0  0  0  0  0  0  0  0  0
   -5.0537    0.1343    1.4411 C   0  0  0  0  0  0  0  0  0  0  0  0
   -4.6742   -0.5626    2.5842 C   0  0  0  0  0  0  0  0  0  0  0  0
   -3.4113   -1.1303    2.6451 C   0  0  0  0  0  0  0  0  0  0  0  0
   -2.5329   -0.9945    1.5659 C   0  0  0  0  0  0  0  0  0  0  0  0
   -2.8877   -0.2882    0.3989 C   0  0  0  0  0  0  0  0  0  0  0  0
    3.0314   -0.6845    1.7952 C   0  0  0  0  0  0  0  0  0  0  0  0
    4.0400    0.3286    1.4926 C   0  0  0  0  0  0  0  0  0  0  0  0
    3.7590    1.7802    1.2492 C   0  0  0  0  0  0  0  0  0  0  0  0
    7.4625   -0.2311    1.1565 H   0  0  0  0  0  0  0  0  0  0  0  0
    6.5785    0.9797    0.2214 H   0  0  0  0  0  0  0  0  0  0  0  0
    6.8274    1.2091    1.9656 H   0  0  0  0  0  0  0  0  0  0  0  0
    1.1507   -3.8438    2.6961 H   0  0  0  0  0  0  0  0  0  0  0  0
    1.3229    0.3269   -0.6141 H   0  0  0  0  0  0  0  0  0  0  0  0
   -0.1410    1.9404   -1.7614 H   0  0  0  0  0  0  0  0  0  0  0  0
    0.7525    2.7090   -0.4560 H   0  0  0  0  0  0  0  0  0  0  0  0
   -0.9656    2.3263   -0.2469 H   0  0  0  0  0  0  0  0  0  0  0  0
   -0.6434   -0.7669   -2.9811 H   0  0  0  0  0  0  0  0  0  0  0  0
   -1.3832   -0.3733   -5.2623 H   0  0  0  0  0  0  0  0  0  0  0  0
   -3.5941    0.6631   -5.7098 H   0  0  0  0  0  0  0  0  0  0  0  0
   -5.0426    1.3179   -3.8300 H   0  0  0  0  0  0  0  0  0  0  0  0
   -6.0472    0.5776    1.4051 H   0  0  0  0  0  0  0  0  0  0  0  0
   -5.3622   -0.6628    3.4193 H   0  0  0  0  0  0  0  0  0  0  0  0
   -3.1005   -1.6860    3.5266 H   0  0  0  0  0  0  0  0  0  0  0  0
   -1.5693   -1.4901    1.6562 H   0  0  0  0  0  0  0  0  0  0  0  0
    3.1808    1.9090    0.3298 H   0  0  0  0  0  0  0  0  0  0  0  0
    4.6786    2.3630    1.1378 H   0  0  0  0  0  0  0  0  0  0  0  0
    3.2093    2.2130    2.0904 H   0  0  0  0  0  0  0  0  0  0  0  0
  1  2  1  0
  2  3  1  0
  3  4  1  0
  4  5  2  0
  5  6  1  0
  6  7  2  0
  7  8  1  0
  8  9  1  0
  9 10  1  0
 10 11  1  0
 10 12  1  0
 12 13  2  0
 12 14  1  0
 14 15  1  0
 15 16  2  0
 16 17  1  0
 17 18  2  0
 18 19  1  0
 19 20  2  0
 20 21  1  0
 21 22  1  0
 22 23  2  0
 23 24  1  0
 24 25  2  0
 25 26  1  0
 26 27  2  0
  8 28  2  0
 28 29  1  0
 29 30  1  0
 29  2  2  0
 28  4  1  0
 27 14  1  0
 20 15  1  0
 27 22  1  0
  1 31  1  0
  1 32  1  0
  1 33  1  0
  6 34  1  0
 10 35  1  0
 11 36  1  0
 11 37  1  0
 11 38  1  0
 16 39  1  0
 17 40  1  0
 18 41  1  0
 19 42  1  0
 23 43  1  0
 24 44  1  0
 25 45  1  0
 26 46  1  0
 30 47  1  0
 30 48  1  0
 30 49  1  0
M  END
$$$$
