
     RDKit          3D

 74 79  0  0  0  0  0  0  0  0999 V2000
    8.3152   -4.0819   -3.2895 C   0  0  0  0  0  0  0  0  0  0  0  0
    8.4489   -2.7014   -2.9757 O   0  0  0  0  0  0  0  0  0  0  0  0
    7.3533   -2.0792   -2.4463 C   0  0  0  0  0  0  0  0  0  0  0  0
    6.1293   -2.6756   -2.1562 C   0  0  0  0  0  0  0  0  0  0  0  0
    5.0820   -1.9150   -1.6135 C   0  0  0  0  0  0  0  0  0  0  0  0
    5.2261   -0.5408   -1.3492 C   0  0  0  0  0  0  0  0  0  0  0  0
    4.1310    0.2758   -0.7819 C   0  0  0  0  0  0  0  0  0  0  0  0
    2.7919   -0.0037   -0.9895 C   0  0  0  0  0  0  0  0  0  0  0  0
    1.8401    0.8195   -0.3878 C   0  0  0  0  0  0  0  0  0  0  0  0
    0.4266    0.4295   -0.5772 C   0  0  0  0  0  0  0  0  0  0  0  0
   -0.0310    0.4229   -1.7112 O   0  0  0  0  0  0  0  0  0  0  0  0
   -0.2083    0.0779    0.5900 N   0  0  0  0  0  0  0  0  0  0  0  0
   -1.5222   -0.4046    0.7648 C   0  0  0  0  0  0  0  0  0  0  0  0
   -2.3791   -0.6998   -0.2960 C   0  0  0  0  0  0  0  0  0  0  0  0
   -3.6536   -1.1985   -0.0232 C   0  0  0  0  0  0  0  0  0  0  0  0
   -4.7486   -1.6112   -1.3584 S   0  0  0  0  0  6  0  0  0  0  0  0
   -5.6155   -2.6747   -0.8946 O   0  0  0  0  0  0  0  0  0  0  0  0
   -3.9773   -1.7628   -2.5726 O   0  0  0  0  0  0  0  0  0  0  0  0
   -5.6983   -0.2007   -1.5179 N   0  0  0  0  0  0  0  0  0  0  0  0
   -4.9370    1.0490   -1.8579 C   0  0  0  0  0  0  0  0  0  0  0  0
   -5.8833    2.1172   -2.4155 C   0  0  0  0  0  0  0  0  0  0  0  0
   -6.5172    1.7267   -3.6408 O   0  0  0  0  0  0  0  0  0  0  0  0
   -6.6845    0.3064   -3.7625 C   0  0  0  0  0  0  0  0  0  0  0  0
   -6.8938   -0.3840   -2.4125 C   0  0  0  0  0  0  0  0  0  0  0  0
   -4.0648   -1.4311    1.2905 C   0  0  0  0  0  0  0  0  0  0  0  0
   -3.2010   -1.1434    2.3501 C   0  0  0  0  0  0  0  0  0  0  0  0
   -1.9244   -0.6204    2.1132 C   0  0  0  0  0  0  0  0  0  0  0  0
   -1.0262   -0.2807    3.1417 N   0  0  0  0  0  0  0  0  0  0  0  0
   -1.1045    1.1337    3.5777 C   0  0  0  0  0  0  0  0  0  0  0  0
   -2.0329    1.3051    4.7858 C   0  0  0  0  0  0  0  0  0  0  0  0
   -1.6186    0.4652    5.8726 O   0  0  0  0  0  0  0  0  0  0  0  0
   -1.6941   -0.9155    5.4919 C   0  0  0  0  0  0  0  0  0  0  0  0
   -0.8315   -1.2317    4.2585 C   0  0  0  0  0  0  0  0  0  0  0  0
    2.2153    1.9435    0.3755 C   0  0  0  0  0  0  0  0  0  0  0  0
    1.3134    2.8669    0.9647 C   0  0  0  0  0  0  0  0  0  0  0  0
    1.7784    3.9468    1.7118 C   0  0  0  0  0  0  0  0  0  0  0  0
    3.1446    4.1237    1.8745 C   0  0  0  0  0  0  0  0  0  0  0  0
    4.0348    3.2260    1.2799 C   0  0  0  0  0  0  0  0  0  0  0  0
    3.5974    2.1440    0.5274 C   0  0  0  0  0  0  0  0  0  0  0  0
    4.5174    1.3347   -0.0251 N   0  0  0  0  0  0  0  0  0  0  0  0
    6.4748    0.0351   -1.6406 C   0  0  0  0  0  0  0  0  0  0  0  0
    7.5205   -0.7213   -2.1822 C   0  0  0  0  0  0  0  0  0  0  0  0
    8.1254   -4.6743   -2.3884 H   0  0  0  0  0  0  0  0  0  0  0  0
    7.5348   -4.2430   -4.0407 H   0  0  0  0  0  0  0  0  0  0  0  0
    9.2635   -4.4213   -3.7171 H   0  0  0  0  0  0  0  0  0  0  0  0
    5.9521   -3.7310   -2.3333 H   0  0  0  0  0  0  0  0  0  0  0  0
    4.1507   -2.4288   -1.3857 H   0  0  0  0  0  0  0  0  0  0  0  0
    2.4719   -0.8370   -1.6063 H   0  0  0  0  0  0  0  0  0  0  0  0
    0.3053    0.1270    1.4683 H   0  0  0  0  0  0  0  0  0  0  0  0
   -2.0686   -0.5658   -1.3276 H   0  0  0  0  0  0  0  0  0  0  0  0
   -4.4634    1.4319   -0.9487 H   0  0  0  0  0  0  0  0  0  0  0  0
   -4.1639    0.8310   -2.6025 H   0  0  0  0  0  0  0  0  0  0  0  0
   -6.6712    2.3511   -1.6901 H   0  0  0  0  0  0  0  0  0  0  0  0
   -5.3338    3.0433   -2.6120 H   0  0  0  0  0  0  0  0  0  0  0  0
   -5.8040   -0.0958   -4.2764 H   0  0  0  0  0  0  0  0  0  0  0  0
   -7.5490    0.1358   -4.4116 H   0  0  0  0  0  0  0  0  0  0  0  0
   -7.7535    0.0539   -1.8913 H   0  0  0  0  0  0  0  0  0  0  0  0
   -7.1192   -1.4433   -2.5693 H   0  0  0  0  0  0  0  0  0  0  0  0
   -5.0536   -1.8372    1.4961 H   0  0  0  0  0  0  0  0  0  0  0  0
   -3.5582   -1.3235    3.3568 H   0  0  0  0  0  0  0  0  0  0  0  0
   -1.4172    1.7968    2.7623 H   0  0  0  0  0  0  0  0  0  0  0  0
   -0.0908    1.4366    3.8673 H   0  0  0  0  0  0  0  0  0  0  0  0
   -3.0750    1.0805    4.5311 H   0  0  0  0  0  0  0  0  0  0  0  0
   -1.9930    2.3410    5.1369 H   0  0  0  0  0  0  0  0  0  0  0  0
   -2.7448   -1.1773    5.3368 H   0  0  0  0  0  0  0  0  0  0  0  0
   -1.3427   -1.5100    6.3417 H   0  0  0  0  0  0  0  0  0  0  0  0
    0.2218   -1.1474    4.5545 H   0  0  0  0  0  0  0  0  0  0  0  0
   -0.9813   -2.2689    3.9356 H   0  0  0  0  0  0  0  0  0  0  0  0
    0.2393    2.7600    0.8266 H   0  0  0  0  0  0  0  0  0  0  0  0
    1.0787    4.6510    2.1545 H   0  0  0  0  0  0  0  0  0  0  0  0
    3.5261    4.9625    2.4514 H   0  0  0  0  0  0  0  0  0  0  0  0
    5.1052    3.3791    1.4023 H   0  0  0  0  0  0  0  0  0  0  0  0
    6.6429    1.0938   -1.4485 H   0  0  0  0  0  0  0  0  0  0  0  0
    8.4721   -0.2420   -2.3984 H   0  0  0  0  0  0  0  0  0  0  0  0
  1  2  1  0
  2  3  1  0
  3  4  2  0
  4  5  1  0
  5  6  2  0
  6  7  1  0
  7  8  2  0
  8  9  1  0
  9 10  1  0
 10 11  2  0
 10 12  1  0
 12 13  1  0
 13 14  2  0
 14 15  1  0
 15 16  1  0
 16 17  2  0
 16 18  2  0
 16 19  1  0
 19 20  1  0
 20 21  1  0
 21 22  1  0
 22 23  1  0
 23 24  1  0
 15 25  2  0
 25 26  1  0
 26 27  2  0
 27 28  1  0
 28 29  1  0
 29 30  1  0
 30 31  1  0
 31 32  1  0
 32 33  1  0
  9 34  2  0
 34 35  1  0
 35 36  2  0
 36 37  1  0
 37 38  2  0
 38 39  1  0
 39 40  2  0
  6 41  1  0
 41 42  2  0
 42  3  1  0
 40  7  1  0
 27 13  1  0
 33 28  1  0
 39 34  1  0
 24 19  1  0
  1 43  1  0
  1 44  1  0
  1 45  1  0
  4 46  1  0
  5 47  1  0
  8 48  1  0
 12 49  1  0
 14 50  1  0
 20 51  1  0
 20 52  1  0
 21 53  1  0
 21 54  1  0
 23 55  1  0
 23 56  1  0
 24 57  1  0
 24 58  1  0
 25 59  1  0
 26 60  1  0
 29 61  1  0
 29 62  1  0
 30 63  1  0
 30 64  1  0
 32 65  1  0
 32 66  1  0
 33 67  1  0
 33 68  1  0
 35 69  1  0
 36 70  1  0
 37 71  1  0
 38 72  1  0
 41 73  1  0
 42 74  1  0
M  END
$$$$
