
     RDKit          3D

 52 51  0  0  0  0  0  0  0  0999 V2000
   -4.9535    1.2655   -2.9885 C   0  0  0  0  0  0  0  0  0  0  0  0
   -4.8389    0.3778   -2.1871 C   0  0  0  0  0  0  0  0  0  0  0  0
   -4.6922   -0.7157   -1.2236 C   0  0  0  0  0  0  0  0  0  0  0  0
   -4.9404   -0.2512    0.2224 N   0  0  0  0  0  4  0  0  0  0  0  0
   -6.4023    0.1902    0.3666 C   0  0  0  0  0  0  0  0  0  0  0  0
   -4.7270   -1.4439    1.1515 C   0  0  0  0  0  0  0  0  0  0  0  0
   -4.0458    0.9325    0.6417 C   0  0  0  0  0  0  0  0  0  0  0  0
   -2.5469    0.6552    0.5047 C   0  0  0  0  0  0  0  0  0  0  0  0
   -1.7345    1.8734    0.9586 C   0  0  0  0  0  0  0  0  0  0  0  0
   -0.2263    1.7152    0.7387 C   0  0  0  0  0  0  0  0  0  0  0  0
    0.3963    0.6039    1.5879 C   0  0  0  0  0  0  0  0  0  0  0  0
    1.9277    0.5930    1.5413 C   0  0  0  0  0  0  0  0  0  0  0  0
    2.4904    0.2600    0.1577 C   0  0  0  0  0  0  0  0  0  0  0  0
    4.0179    0.1585    0.1904 C   0  0  0  0  0  0  0  0  0  0  0  0
    4.5812   -0.1649   -1.1965 C   0  0  0  0  0  0  0  0  0  0  0  0
    6.1101   -0.2694   -1.2141 C   0  0  0  0  0  0  0  0  0  0  0  0
    6.6550   -1.6959   -1.0976 C   0  0  0  0  0  0  0  0  0  0  0  0
    6.3395   -2.3847    0.2185 C   0  0  0  0  0  0  0  0  0  0  0  0
   -5.0518    2.0457   -3.7112 H   0  0  0  0  0  0  0  0  0  0  0  0
   -3.6884   -1.1506   -1.2656 H   0  0  0  0  0  0  0  0  0  0  0  0
   -5.4125   -1.5157   -1.4314 H   0  0  0  0  0  0  0  0  0  0  0  0
   -7.0484   -0.6285    0.0356 H   0  0  0  0  0  0  0  0  0  0  0  0
   -6.5886    0.4174    1.4209 H   0  0  0  0  0  0  0  0  0  0  0  0
   -6.5698    1.0834   -0.2415 H   0  0  0  0  0  0  0  0  0  0  0  0
   -4.8458   -1.1059    2.1851 H   0  0  0  0  0  0  0  0  0  0  0  0
   -5.4750   -2.2065    0.9128 H   0  0  0  0  0  0  0  0  0  0  0  0
   -3.7251   -1.8489    0.9897 H   0  0  0  0  0  0  0  0  0  0  0  0
   -4.2963    1.1583    1.6857 H   0  0  0  0  0  0  0  0  0  0  0  0
   -4.3372    1.7977    0.0354 H   0  0  0  0  0  0  0  0  0  0  0  0
   -2.2662   -0.2099    1.1118 H   0  0  0  0  0  0  0  0  0  0  0  0
   -2.2878    0.4297   -0.5346 H   0  0  0  0  0  0  0  0  0  0  0  0
   -2.0694    2.7561    0.3994 H   0  0  0  0  0  0  0  0  0  0  0  0
   -1.9325    2.0769    2.0180 H   0  0  0  0  0  0  0  0  0  0  0  0
   -0.0378    1.5289   -0.3246 H   0  0  0  0  0  0  0  0  0  0  0  0
    0.2564    2.6689    0.9853 H   0  0  0  0  0  0  0  0  0  0  0  0
    0.0871    0.7341    2.6323 H   0  0  0  0  0  0  0  0  0  0  0  0
    0.0218   -0.3740    1.2647 H   0  0  0  0  0  0  0  0  0  0  0  0
    2.2859   -0.1519    2.2628 H   0  0  0  0  0  0  0  0  0  0  0  0
    2.3127    1.5646    1.8742 H   0  0  0  0  0  0  0  0  0  0  0  0
    2.1981    1.0323   -0.5624 H   0  0  0  0  0  0  0  0  0  0  0  0
    2.0674   -0.6894   -0.1923 H   0  0  0  0  0  0  0  0  0  0  0  0
    4.4381    1.1090    0.5414 H   0  0  0  0  0  0  0  0  0  0  0  0
    4.3142   -0.6074    0.9135 H   0  0  0  0  0  0  0  0  0  0  0  0
    4.1283   -1.0818   -1.5916 H   0  0  0  0  0  0  0  0  0  0  0  0
    4.2876    0.6458   -1.8761 H   0  0  0  0  0  0  0  0  0  0  0  0
    6.4620    0.1281   -2.1750 H   0  0  0  0  0  0  0  0  0  0  0  0
    6.5525    0.3676   -0.4391 H   0  0  0  0  0  0  0  0  0  0  0  0
    6.2739   -2.3060   -1.9252 H   0  0  0  0  0  0  0  0  0  0  0  0
    7.7448   -1.6562   -1.2156 H   0  0  0  0  0  0  0  0  0  0  0  0
    6.6445   -1.7692    1.0703 H   0  0  0  0  0  0  0  0  0  0  0  0
    5.2717   -2.6047    0.3062 H   0  0  0  0  0  0  0  0  0  0  0  0
    6.8754   -3.3375    0.2809 H   0  0  0  0  0  0  0  0  0  0  0  0
  1  2  3  0
  2  3  1  0
  3  4  1  0
  4  5  1  0
  4  6  1  0
  4  7  1  0
  7  8  1  0
  8  9  1  0
  9 10  1  0
 10 11  1  0
 11 12  1  0
 12 13  1  0
 13 14  1  0
 14 15  1  0
 15 16  1  0
 16 17  1  0
 17 18  1  0
  1 19  1  0
  3 20  1  0
  3 21  1  0
  5 22  1  0
  5 23  1  0
  5 24  1  0
  6 25  1  0
  6 26  1  0
  6 27  1  0
  7 28  1  0
  7 29  1  0
  8 30  1  0
  8 31  1  0
  9 32  1  0
  9 33  1  0
 10 34  1  0
 10 35  1  0
 11 36  1  0
 11 37  1  0
 12 38  1  0
 12 39  1  0
 13 40  1  0
 13 41  1  0
 14 42  1  0
 14 43  1  0
 15 44  1  0
 15 45  1  0
 16 46  1  0
 16 47  1  0
 17 48  1  0
 17 49  1  0
 18 50  1  0
 18 51  1  0
 18 52  1  0
M  CHG  1   4   1
M  END
$$$$
