
     RDKit          3D

 88 93  0  0  0  0  0  0  0  0999 V2000
    2.0010    0.4173   -2.2233 C   0  0  0  0  0  0  0  0  0  0  0  0
    2.1051   -0.5838   -1.1142 C   0  0  0  0  0  0  0  0  0  0  0  0
    2.5458   -1.7135   -1.2538 O   0  0  0  0  0  0  0  0  0  0  0  0
    1.5924   -0.0634    0.0327 O   0  0  0  0  0  0  0  0  0  0  0  0
    1.6391   -0.9055    1.1988 C   0  0  1  0  0  0  0  0  0  0  0  0
    1.9031   -0.0583    2.4638 C   0  0  1  0  0  0  0  0  0  0  0  0
    2.6482    1.2542    2.2224 C   0  0  0  0  0  0  0  0  0  0  0  0
    3.8730    1.0261    1.5069 O   0  0  0  0  0  0  0  0  0  0  0  0
    4.9538    0.7108    2.2620 C   0  0  0  0  0  0  0  0  0  0  0  0
    4.9670    0.5877    3.4748 O   0  0  0  0  0  0  0  0  0  0  0  0
    6.1561    0.5438    1.4033 C   0  0  0  0  0  0  0  0  0  0  0  0
    7.4074    0.4495    2.0263 C   0  0  0  0  0  0  0  0  0  0  0  0
    8.5652    0.2972    1.2603 C   0  0  0  0  0  0  0  0  0  0  0  0
    8.4783    0.2355   -0.1300 C   0  0  0  0  0  0  0  0  0  0  0  0
    7.2360    0.3222   -0.7567 C   0  0  0  0  0  0  0  0  0  0  0  0
    6.0755    0.4758    0.0058 C   0  0  0  0  0  0  0  0  0  0  0  0
    0.5281    0.1645    3.1405 C   0  0  0  0  0  0  0  0  0  0  0  0
   -0.5446   -0.3688    2.1538 C   0  0  2  0  0  0  0  0  0  0  0  0
   -0.8146    0.6541    1.1814 O   0  0  0  0  0  0  0  0  0  0  0  0
   -1.4555    1.7778    1.5801 C   0  0  0  0  0  0  0  0  0  0  0  0
   -1.8570    2.0197    2.7070 O   0  0  0  0  0  0  0  0  0  0  0  0
   -1.6285    2.7294    0.4640 C   0  0  0  0  0  0  0  0  0  0  0  0
   -1.1170    2.5410   -0.7619 C   0  0  0  0  0  0  0  0  0  0  0  0
   -1.2890    3.4705   -1.8846 C   0  0  0  0  0  0  0  0  0  0  0  0
   -1.3556    2.9490   -3.1847 C   0  0  0  0  0  0  0  0  0  0  0  0
   -1.4819    3.7972   -4.2876 C   0  0  0  0  0  0  0  0  0  0  0  0
   -1.5359    5.1766   -4.1027 C   0  0  0  0  0  0  0  0  0  0  0  0
   -1.4596    5.7074   -2.8172 C   0  0  0  0  0  0  0  0  0  0  0  0
   -1.3297    4.8598   -1.7134 C   0  0  0  0  0  0  0  0  0  0  0  0
   -1.7617   -1.0060    2.8840 C   0  0  0  0  0  0  0  0  0  0  0  0
   -1.5730   -1.7124    3.8843 O   0  0  0  0  0  0  0  0  0  0  0  0
   -3.2003   -0.7627    2.4686 C   0  0  0  0  0  0  0  0  0  0  0  0
   -4.0615   -0.5753    3.7047 C   0  0  0  0  0  0  0  0  0  0  0  0
   -3.7994   -0.7081    1.2579 C   0  0  0  0  0  0  0  0  0  0  0  0
   -3.3486   -0.8536   -0.1402 C   0  0  0  0  0  0  0  0  0  0  0  0
   -3.3952   -2.1778   -0.8931 C   0  0  2  0  0  0  0  0  0  0  0  0
   -2.3535   -2.5747   -1.9221 C   0  0  0  0  0  0  0  0  0  0  0  0
   -1.4130   -3.7223   -1.5007 C   0  0  0  0  0  0  0  0  0  0  0  0
   -0.5606   -3.4741   -0.2699 C   0  0  2  0  0  0  0  0  0  0  0  0
    0.4458   -4.5232    0.0747 C   0  0  0  0  0  0  0  0  0  0  0  0
   -1.3787   -3.0688    0.8140 O   0  0  0  0  0  0  0  0  0  0  0  0
   -0.4510   -2.0768    0.3253 C   0  0  1  0  0  0  0  0  0  0  0  0
    0.2752   -1.5285    1.4978 C   0  0  1  0  0  0  0  0  0  0  0  0
   -4.4049   -1.0950   -1.2287 C   0  0  0  0  0  0  0  0  0  0  0  0
   -4.2677   -0.2772   -2.4925 C   0  0  0  0  0  0  0  0  0  0  0  0
   -5.8460   -1.4244   -0.9068 C   0  0  0  0  0  0  0  0  0  0  0  0
    2.7674    0.2056   -2.9718 H   0  0  0  0  0  0  0  0  0  0  0  0
    2.1762    1.4302   -1.8472 H   0  0  0  0  0  0  0  0  0  0  0  0
    1.0104    0.3498   -2.6794 H   0  0  0  0  0  0  0  0  0  0  0  0
    2.4170   -1.6734    1.0972 H   0  0  0  0  0  0  0  0  0  0  0  0
    2.5046   -0.6747    3.1465 H   0  0  0  0  0  0  0  0  0  0  0  0
    2.8420    1.7757    3.1678 H   0  0  0  0  0  0  0  0  0  0  0  0
    2.0469    1.9364    1.6134 H   0  0  0  0  0  0  0  0  0  0  0  0
    7.4841    0.4945    3.1110 H   0  0  0  0  0  0  0  0  0  0  0  0
    9.5334    0.2275    1.7485 H   0  0  0  0  0  0  0  0  0  0  0  0
    9.3802    0.1157   -0.7253 H   0  0  0  0  0  0  0  0  0  0  0  0
    7.1695    0.2657   -1.8409 H   0  0  0  0  0  0  0  0  0  0  0  0
    5.1177    0.5326   -0.5016 H   0  0  0  0  0  0  0  0  0  0  0  0
    0.3867    1.2160    3.4046 H   0  0  0  0  0  0  0  0  0  0  0  0
    0.5131   -0.3933    4.0843 H   0  0  0  0  0  0  0  0  0  0  0  0
   -2.2168    3.6034    0.7191 H   0  0  0  0  0  0  0  0  0  0  0  0
   -0.5498    1.6440   -0.9903 H   0  0  0  0  0  0  0  0  0  0  0  0
   -1.3171    1.8749   -3.3533 H   0  0  0  0  0  0  0  0  0  0  0  0
   -1.5395    3.3801   -5.2901 H   0  0  0  0  0  0  0  0  0  0  0  0
   -1.6351    5.8371   -4.9605 H   0  0  0  0  0  0  0  0  0  0  0  0
   -1.4956    6.7840   -2.6729 H   0  0  0  0  0  0  0  0  0  0  0  0
   -1.2498    5.3054   -0.7249 H   0  0  0  0  0  0  0  0  0  0  0  0
   -3.6175    0.1708    4.3731 H   0  0  0  0  0  0  0  0  0  0  0  0
   -5.0723   -0.2269    3.4643 H   0  0  0  0  0  0  0  0  0  0  0  0
   -4.1602   -1.5193    4.2511 H   0  0  0  0  0  0  0  0  0  0  0  0
   -4.8643   -0.4811    1.3153 H   0  0  0  0  0  0  0  0  0  0  0  0
   -2.5848   -0.1375   -0.4145 H   0  0  0  0  0  0  0  0  0  0  0  0
   -3.7682   -3.0499   -0.3627 H   0  0  0  0  0  0  0  0  0  0  0  0
   -2.8878   -2.9075   -2.8201 H   0  0  0  0  0  0  0  0  0  0  0  0
   -1.7559   -1.7086   -2.2245 H   0  0  0  0  0  0  0  0  0  0  0  0
   -2.0120   -4.6266   -1.3300 H   0  0  0  0  0  0  0  0  0  0  0  0
   -0.7463   -3.9403   -2.3447 H   0  0  0  0  0  0  0  0  0  0  0  0
    0.9681   -4.3063    1.0126 H   0  0  0  0  0  0  0  0  0  0  0  0
   -0.0402   -5.4987    0.1824 H   0  0  0  0  0  0  0  0  0  0  0  0
    1.1990   -4.5993   -0.7159 H   0  0  0  0  0  0  0  0  0  0  0  0
   -0.7528   -1.2848   -0.3412 H   0  0  0  0  0  0  0  0  0  0  0  0
    0.4303   -2.3228    2.2429 H   0  0  0  0  0  0  0  0  0  0  0  0
   -4.8960    0.6168   -2.4332 H   0  0  0  0  0  0  0  0  0  0  0  0
   -4.5855   -0.8634   -3.3612 H   0  0  0  0  0  0  0  0  0  0  0  0
   -3.2417    0.0581   -2.6688 H   0  0  0  0  0  0  0  0  0  0  0  0
   -5.9437   -2.0991   -0.0499 H   0  0  0  0  0  0  0  0  0  0  0  0
   -6.4054   -0.5091   -0.6876 H   0  0  0  0  0  0  0  0  0  0  0  0
   -6.3204   -1.9143   -1.7634 H   0  0  0  0  0  0  0  0  0  0  0  0
  1  2  1  0
  2  3  2  0
  2  4  1  0
  4  5  1  0
  5  6  1  0
  6  7  1  0
  7  8  1  0
  8  9  1  0
  9 10  2  0
  9 11  1  0
 11 12  2  0
 12 13  1  0
 13 14  2  0
 14 15  1  0
 15 16  2  0
  6 17  1  0
 17 18  1  0
 18 19  1  6
 19 20  1  0
 20 21  2  0
 20 22  1  0
 22 23  2  0
 23 24  1  0
 24 25  2  0
 25 26  1  0
 26 27  2  0
 27 28  1  0
 28 29  2  0
 18 30  1  0
 30 31  2  0
 30 32  1  0
 32 33  1  0
 32 34  2  3
 34 35  1  0
 35 36  1  0
 36 37  1  0
 37 38  1  0
 38 39  1  0
 39 40  1  1
 39 41  1  0
 41 42  1  0
 42 43  1  0
 36 44  1  0
 44 45  1  0
 44 46  1  0
 43  5  1  0
 16 11  1  0
 43 18  1  0
 29 24  1  0
 44 35  1  0
 42 39  1  0
  1 47  1  0
  1 48  1  0
  1 49  1  0
  5 50  1  6
  6 51  1  1
  7 52  1  0
  7 53  1  0
 12 54  1  0
 13 55  1  0
 14 56  1  0
 15 57  1  0
 16 58  1  0
 17 59  1  0
 17 60  1  0
 22 61  1  0
 23 62  1  0
 25 63  1  0
 26 64  1  0
 27 65  1  0
 28 66  1  0
 29 67  1  0
 33 68  1  0
 33 69  1  0
 33 70  1  0
 34 71  1  0
 35 72  1  0
 36 73  1  1
 37 74  1  0
 37 75  1  0
 38 76  1  0
 38 77  1  0
 40 78  1  0
 40 79  1  0
 40 80  1  0
 42 81  1  6
 43 82  1  1
 45 83  1  0
 45 84  1  0
 45 85  1  0
 46 86  1  0
 46 87  1  0
 46 88  1  0
M  END
$$$$
