
     RDKit          3D

 58 62  0  0  0  0  0  0  0  0999 V2000
    8.2631    1.9282    0.7266 C   0  0  0  0  0  0  0  0  0  0  0  0
    7.2570    2.5865   -0.0321 O   0  0  0  0  0  0  0  0  0  0  0  0
    5.9801    2.1119    0.0897 C   0  0  0  0  0  0  0  0  0  0  0  0
    5.0304    2.7845   -0.6831 C   0  0  0  0  0  0  0  0  0  0  0  0
    3.6883    2.4001   -0.6583 C   0  0  0  0  0  0  0  0  0  0  0  0
    3.2761    1.3323    0.1467 C   0  0  0  0  0  0  0  0  0  0  0  0
    1.8310    0.8968    0.1530 C   0  0  0  0  0  0  0  0  0  0  0  0
    1.5093   -0.0221   -1.0290 C   0  0  0  0  0  0  0  0  0  0  0  0
    0.1021   -0.4646   -0.9750 N   0  0  0  0  0  0  0  0  0  0  0  0
   -0.8801    0.3594   -1.5444 C   0  0  0  0  0  0  0  0  0  0  0  0
   -0.5374    1.4850   -2.1061 N   0  0  0  0  0  0  0  0  0  0  0  0
   -2.3305   -0.0665   -1.4971 C   0  0  0  0  0  0  0  0  0  0  0  0
   -3.4251    0.7621   -2.0843 C   0  0  0  0  0  0  0  0  0  0  0  0
   -3.1783    1.5804   -2.9635 O   0  0  0  0  0  0  0  0  0  0  0  0
   -4.6737    0.5895   -1.5350 N   0  0  0  0  0  0  0  0  0  0  0  0
   -5.7766    1.4604   -1.8818 C   0  0  0  0  0  0  0  0  0  0  0  0
   -5.9767    2.4307   -0.7765 C   0  0  0  0  0  0  0  0  0  0  0  0
   -6.6020    2.3570    0.4525 C   0  0  0  0  0  0  0  0  0  0  0  0
   -6.4435    3.6279    1.0566 C   0  0  0  0  0  0  0  0  0  0  0  0
   -5.7407    4.3945    0.1589 C   0  0  0  0  0  0  0  0  0  0  0  0
   -5.4532    3.6772   -0.9559 O   0  0  0  0  0  0  0  0  0  0  0  0
   -2.5633   -1.2678   -0.9394 C   0  0  0  0  0  0  0  0  0  0  0  0
   -1.5176   -2.0743   -0.3261 C   0  0  0  0  0  0  0  0  0  0  0  0
   -1.8829   -3.3561    0.3415 C   0  0  0  0  0  0  0  0  0  0  0  0
   -3.0625   -3.7173    0.3638 O   0  0  0  0  0  0  0  0  0  0  0  0
   -0.8417   -4.0628    0.9140 N   0  0  0  0  0  0  0  0  0  0  0  0
   -1.1012   -5.2723    1.5506 C   0  0  0  0  0  0  0  0  0  0  0  0
   -0.1290   -5.9854    2.1314 C   0  0  0  0  0  0  0  0  0  0  0  0
    1.2260   -5.5023    2.1058 C   0  0  0  0  0  0  0  0  0  0  0  0
    1.5214   -4.3472    1.4991 C   0  0  0  0  0  0  0  0  0  0  0  0
    0.4407   -3.5498    0.8517 C   0  0  0  0  0  0  0  0  0  0  0  0
    0.7551   -2.4348    0.2756 N   0  0  0  0  0  0  0  0  0  0  0  0
   -0.2242   -1.6809   -0.3318 C   0  0  0  0  0  0  0  0  0  0  0  0
    4.2293    0.6573    0.9188 C   0  0  0  0  0  0  0  0  0  0  0  0
    5.5733    1.0470    0.8934 C   0  0  0  0  0  0  0  0  0  0  0  0
    8.3500    0.8743    0.4398 H   0  0  0  0  0  0  0  0  0  0  0  0
    9.2196    2.4128    0.5061 H   0  0  0  0  0  0  0  0  0  0  0  0
    8.0769    2.0315    1.8002 H   0  0  0  0  0  0  0  0  0  0  0  0
    5.3383    3.6143   -1.3152 H   0  0  0  0  0  0  0  0  0  0  0  0
    2.9676    2.9356   -1.2749 H   0  0  0  0  0  0  0  0  0  0  0  0
    1.6053    0.3896    1.0996 H   0  0  0  0  0  0  0  0  0  0  0  0
    1.1881    1.7860    0.1391 H   0  0  0  0  0  0  0  0  0  0  0  0
    1.7172    0.4833   -1.9817 H   0  0  0  0  0  0  0  0  0  0  0  0
    2.1875   -0.8858   -1.0300 H   0  0  0  0  0  0  0  0  0  0  0  0
   -1.3672    1.9517   -2.5135 H   0  0  0  0  0  0  0  0  0  0  0  0
   -4.7714    0.0628   -0.6792 H   0  0  0  0  0  0  0  0  0  0  0  0
   -5.5949    1.9686   -2.8337 H   0  0  0  0  0  0  0  0  0  0  0  0
   -6.6650    0.8297   -1.9908 H   0  0  0  0  0  0  0  0  0  0  0  0
   -7.1086    1.4932    0.8615 H   0  0  0  0  0  0  0  0  0  0  0  0
   -6.8003    3.9482    2.0258 H   0  0  0  0  0  0  0  0  0  0  0  0
   -5.3821    5.4144    0.1623 H   0  0  0  0  0  0  0  0  0  0  0  0
   -3.5620   -1.6952   -0.9217 H   0  0  0  0  0  0  0  0  0  0  0  0
   -2.1324   -5.6177    1.5570 H   0  0  0  0  0  0  0  0  0  0  0  0
   -0.3400   -6.9298    2.6239 H   0  0  0  0  0  0  0  0  0  0  0  0
    1.9972   -6.0968    2.5852 H   0  0  0  0  0  0  0  0  0  0  0  0
    2.5278   -3.9502    1.4547 H   0  0  0  0  0  0  0  0  0  0  0  0
    3.9308   -0.1806    1.5445 H   0  0  0  0  0  0  0  0  0  0  0  0
    6.2747    0.4952    1.5101 H   0  0  0  0  0  0  0  0  0  0  0  0
  1  2  1  0
  2  3  1  0
  3  4  2  0
  4  5  1  0
  5  6  2  0
  6  7  1  0
  7  8  1  0
  8  9  1  0
  9 10  1  0
 10 11  2  3
 10 12  1  0
 12 13  1  0
 13 14  2  0
 13 15  1  0
 15 16  1  0
 16 17  1  0
 17 18  2  0
 18 19  1  0
 19 20  2  0
 20 21  1  0
 12 22  2  0
 22 23  1  0
 23 24  1  0
 24 25  2  0
 24 26  1  0
 26 27  1  0
 27 28  2  0
 28 29  1  0
 29 30  2  0
 30 31  1  0
 31 32  2  0
 32 33  1  0
  6 34  1  0
 34 35  2  0
 35  3  1  0
 33  9  1  0
 21 17  1  0
 33 23  2  0
 31 26  1  0
  1 36  1  0
  1 37  1  0
  1 38  1  0
  4 39  1  0
  5 40  1  0
  7 41  1  0
  7 42  1  0
  8 43  1  0
  8 44  1  0
 11 45  1  0
 15 46  1  0
 16 47  1  0
 16 48  1  0
 18 49  1  0
 19 50  1  0
 20 51  1  0
 22 52  1  0
 27 53  1  0
 28 54  1  0
 29 55  1  0
 30 56  1  0
 34 57  1  0
 35 58  1  0
M  END
$$$$
