
     RDKit          3D

 48 49  0  0  0  0  0  0  0  0999 V2000
   -6.9064    0.7823   -1.9684 C   0  0  0  0  0  0  0  0  0  0  0  0
   -6.6212    0.3208   -0.5465 C   0  0  0  0  0  0  0  0  0  0  0  0
   -5.2133   -0.0216   -0.3429 N   0  0  0  0  0  0  0  0  0  0  0  0
   -4.7885   -1.3770   -0.7132 C   0  0  0  0  0  0  0  0  0  0  0  0
   -5.1637   -2.4117    0.3366 C   0  0  0  0  0  0  0  0  0  0  0  0
   -4.3381    1.0269   -0.0445 C   0  0  0  0  0  0  0  0  0  0  0  0
   -4.6824    2.2050    0.0222 O   0  0  0  0  0  0  0  0  0  0  0  0
   -2.9122    0.7292    0.1983 C   0  0  0  0  0  0  0  0  0  0  0  0
   -2.5218   -0.0399    1.2955 C   0  0  0  0  0  0  0  0  0  0  0  0
   -1.1644   -0.2962    1.5183 C   0  0  0  0  0  0  0  0  0  0  0  0
   -0.1945    0.2279    0.6594 C   0  0  0  0  0  0  0  0  0  0  0  0
    1.1870    0.0185    0.8165 N   0  0  0  0  0  0  0  0  0  0  0  0
    1.8368   -0.7335    1.7784 C   0  0  0  0  0  0  0  0  0  0  0  0
    1.3137   -1.3802    2.6816 O   0  0  0  0  0  0  0  0  0  0  0  0
    3.3622   -0.7015    1.6324 C   0  0  0  0  0  0  0  0  0  0  0  0
    3.7471    0.0562    0.4886 O   0  0  0  0  0  0  0  0  0  0  0  0
    5.0822    0.1874    0.2170 C   0  0  0  0  0  0  0  0  0  0  0  0
    6.1088   -0.3740    0.9836 C   0  0  0  0  0  0  0  0  0  0  0  0
    7.4476   -0.1819    0.6218 C   0  0  0  0  0  0  0  0  0  0  0  0
    7.7618    0.5762   -0.5137 C   0  0  0  0  0  0  0  0  0  0  0  0
    9.1667    0.7750   -0.8908 N   0  0  0  0  0  4  0  0  0  0  0  0
    9.4003    1.4493   -1.9030 O   0  0  0  0  0  0  0  0  0  0  0  0
   10.0328    0.2555   -0.1737 O   0  0  0  0  0  1  0  0  0  0  0  0
    6.7486    1.1444   -1.2911 C   0  0  0  0  0  0  0  0  0  0  0  0
    5.4167    0.9461   -0.9207 C   0  0  0  0  0  0  0  0  0  0  0  0
    4.1851    1.6623   -1.9041 Cl  0  0  0  0  0  0  0  0  0  0  0  0
   -0.5984    1.0229   -0.4231 C   0  0  0  0  0  0  0  0  0  0  0  0
   -1.9528    1.2801   -0.6519 C   0  0  0  0  0  0  0  0  0  0  0  0
   -6.6752   -0.0032   -2.6946 H   0  0  0  0  0  0  0  0  0  0  0  0
   -6.3089    1.6619   -2.2282 H   0  0  0  0  0  0  0  0  0  0  0  0
   -7.9635    1.0441   -2.0763 H   0  0  0  0  0  0  0  0  0  0  0  0
   -6.8972    1.1207    0.1504 H   0  0  0  0  0  0  0  0  0  0  0  0
   -7.2410   -0.5465   -0.2983 H   0  0  0  0  0  0  0  0  0  0  0  0
   -3.7095   -1.4103   -0.8854 H   0  0  0  0  0  0  0  0  0  0  0  0
   -5.2579   -1.6319   -1.6699 H   0  0  0  0  0  0  0  0  0  0  0  0
   -4.7967   -3.3995    0.0408 H   0  0  0  0  0  0  0  0  0  0  0  0
   -6.2488   -2.4809    0.4603 H   0  0  0  0  0  0  0  0  0  0  0  0
   -4.7352   -2.1659    1.3122 H   0  0  0  0  0  0  0  0  0  0  0  0
   -3.2636   -0.4277    1.9879 H   0  0  0  0  0  0  0  0  0  0  0  0
   -0.8972   -0.8989    2.3809 H   0  0  0  0  0  0  0  0  0  0  0  0
    1.8002    0.4664    0.1395 H   0  0  0  0  0  0  0  0  0  0  0  0
    3.7636   -0.2430    2.5432 H   0  0  0  0  0  0  0  0  0  0  0  0
    3.6985   -1.7392    1.5274 H   0  0  0  0  0  0  0  0  0  0  0  0
    5.9065   -0.9680    1.8706 H   0  0  0  0  0  0  0  0  0  0  0  0
    8.2293   -0.6291    1.2347 H   0  0  0  0  0  0  0  0  0  0  0  0
    6.9807    1.7350   -2.1748 H   0  0  0  0  0  0  0  0  0  0  0  0
    0.1342    1.4579   -1.0990 H   0  0  0  0  0  0  0  0  0  0  0  0
   -2.2580    1.9098   -1.4842 H   0  0  0  0  0  0  0  0  0  0  0  0
  1  2  1  0
  2  3  1  0
  3  4  1  0
  4  5  1  0
  3  6  1  0
  6  7  2  0
  6  8  1  0
  8  9  2  0
  9 10  1  0
 10 11  2  0
 11 12  1  0
 12 13  1  0
 13 14  2  0
 13 15  1  0
 15 16  1  0
 16 17  1  0
 17 18  2  0
 18 19  1  0
 19 20  2  0
 20 21  1  0
 21 22  2  0
 21 23  1  0
 20 24  1  0
 24 25  2  0
 25 26  1  0
 11 27  1  0
 27 28  2  0
 28  8  1  0
 25 17  1  0
  1 29  1  0
  1 30  1  0
  1 31  1  0
  2 32  1  0
  2 33  1  0
  4 34  1  0
  4 35  1  0
  5 36  1  0
  5 37  1  0
  5 38  1  0
  9 39  1  0
 10 40  1  0
 12 41  1  0
 15 42  1  0
 15 43  1  0
 18 44  1  0
 19 45  1  0
 24 46  1  0
 27 47  1  0
 28 48  1  0
M  CHG  2  21   1  23  -1
M  END
$$$$
