
     RDKit          3D

 47 50  0  0  0  0  0  0  0  0999 V2000
   -6.5925    2.0183   -1.5270 C   0  0  0  0  0  0  0  0  0  0  0  0
   -6.5982    0.6255   -0.9139 C   0  0  0  0  0  0  0  0  0  0  0  0
   -5.3191    0.3276   -0.1341 C   0  0  0  0  0  0  0  0  0  0  0  0
   -4.2154    0.3222   -1.0475 O   0  0  0  0  0  0  0  0  0  0  0  0
   -3.0215    0.2586   -0.3730 C   0  0  0  0  0  0  0  0  0  0  0  0
   -2.2627    1.4288   -0.3296 C   0  0  0  0  0  0  0  0  0  0  0  0
   -1.0228    1.4294    0.3064 C   0  0  0  0  0  0  0  0  0  0  0  0
   -0.5300    0.2523    0.8789 C   0  0  0  0  0  0  0  0  0  0  0  0
    0.7681    0.2293    1.5615 C   0  0  0  0  0  0  0  0  0  0  0  0
    1.9644    0.4028    0.9813 C   0  0  0  0  0  0  0  0  0  0  0  0
    2.2892    0.6889   -0.7182 S   0  0  0  0  0  0  0  0  0  0  0  0
    3.9698    0.7368   -0.3812 C   0  0  0  0  0  0  0  0  0  0  0  0
    5.0499    0.9262   -1.0814 N   0  0  0  0  0  0  0  0  0  0  0  0
    6.0320    0.8209   -0.1043 C   0  0  0  0  0  0  0  0  0  0  0  0
    7.5517    0.9737   -0.4390 C   0  0  0  0  0  0  0  0  0  0  0  0
    8.0723    1.2222   -1.6951 C   0  0  0  0  0  0  0  0  0  0  0  0
    9.4795    1.2878   -1.5477 C   0  0  0  0  0  0  0  0  0  0  0  0
    9.7319    1.0735   -0.2140 C   0  0  0  0  0  0  0  0  0  0  0  0
    8.5726    0.8817    0.4659 O   0  0  0  0  0  0  0  0  0  0  0  0
    5.5778    0.5814    1.1429 N   0  0  0  0  0  0  0  0  0  0  0  0
    4.2547    0.5392    0.9207 N   0  0  0  0  0  0  0  0  0  0  0  0
    3.2137    0.3361    1.8009 C   0  0  0  0  0  0  0  0  0  0  0  0
    3.3489    0.1424    2.9955 O   0  0  0  0  0  0  0  0  0  0  0  0
   -1.2928   -0.9254    0.8186 C   0  0  0  0  0  0  0  0  0  0  0  0
   -2.5379   -0.9370    0.1800 C   0  0  0  0  0  0  0  0  0  0  0  0
   -3.3388   -2.0390    0.0438 O   0  0  0  0  0  0  0  0  0  0  0  0
   -2.8283   -3.2931    0.4880 C   0  0  0  0  0  0  0  0  0  0  0  0
   -3.8641   -4.3562    0.1691 C   0  0  0  0  0  0  0  0  0  0  0  0
   -5.7784    2.1327   -2.2498 H   0  0  0  0  0  0  0  0  0  0  0  0
   -6.4782    2.7857   -0.7546 H   0  0  0  0  0  0  0  0  0  0  0  0
   -7.5370    2.2010   -2.0492 H   0  0  0  0  0  0  0  0  0  0  0  0
   -6.7165   -0.1090   -1.7192 H   0  0  0  0  0  0  0  0  0  0  0  0
   -7.4613    0.5307   -0.2462 H   0  0  0  0  0  0  0  0  0  0  0  0
   -5.4224   -0.6531    0.3430 H   0  0  0  0  0  0  0  0  0  0  0  0
   -5.1743    1.0877    0.6446 H   0  0  0  0  0  0  0  0  0  0  0  0
   -2.6421    2.3370   -0.7893 H   0  0  0  0  0  0  0  0  0  0  0  0
   -0.4506    2.3533    0.3464 H   0  0  0  0  0  0  0  0  0  0  0  0
    0.7097    0.0305    2.6315 H   0  0  0  0  0  0  0  0  0  0  0  0
    7.4966    1.3431   -2.6026 H   0  0  0  0  0  0  0  0  0  0  0  0
   10.2176    1.4672   -2.3167 H   0  0  0  0  0  0  0  0  0  0  0  0
   10.6339    1.0290    0.3814 H   0  0  0  0  0  0  0  0  0  0  0  0
   -0.8905   -1.8260    1.2709 H   0  0  0  0  0  0  0  0  0  0  0  0
   -2.6601   -3.2722    1.5710 H   0  0  0  0  0  0  0  0  0  0  0  0
   -1.8952   -3.5335   -0.0348 H   0  0  0  0  0  0  0  0  0  0  0  0
   -3.5251   -5.3435    0.4966 H   0  0  0  0  0  0  0  0  0  0  0  0
   -4.0632   -4.3894   -0.9077 H   0  0  0  0  0  0  0  0  0  0  0  0
   -4.8153   -4.1264    0.6617 H   0  0  0  0  0  0  0  0  0  0  0  0
  1  2  1  0
  2  3  1  0
  3  4  1  0
  4  5  1  0
  5  6  2  0
  6  7  1  0
  7  8  2  0
  8  9  1  0
  9 10  2  3
 10 11  1  0
 11 12  1  0
 12 13  2  0
 13 14  1  0
 14 15  1  0
 15 16  2  0
 16 17  1  0
 17 18  2  0
 18 19  1  0
 14 20  2  0
 20 21  1  0
 21 22  1  0
 22 23  2  0
  8 24  1  0
 24 25  2  0
 25 26  1  0
 26 27  1  0
 27 28  1  0
 25  5  1  0
 22 10  1  0
 21 12  1  0
 19 15  1  0
  1 29  1  0
  1 30  1  0
  1 31  1  0
  2 32  1  0
  2 33  1  0
  3 34  1  0
  3 35  1  0
  6 36  1  0
  7 37  1  0
  9 38  1  0
 16 39  1  0
 17 40  1  0
 18 41  1  0
 24 42  1  0
 27 43  1  0
 27 44  1  0
 28 45  1  0
 28 46  1  0
 28 47  1  0
M  END
$$$$
