
     RDKit          3D

 62 66  0  0  0  0  0  0  0  0999 V2000
   -3.9241    6.2276   -1.8515 C   0  0  0  0  0  0  0  0  0  0  0  0
   -3.1387    5.1354   -1.3912 O   0  0  0  0  0  0  0  0  0  0  0  0
   -3.7763    3.9350   -1.2340 C   0  0  0  0  0  0  0  0  0  0  0  0
   -5.1214    3.6876   -1.4715 C   0  0  0  0  0  0  0  0  0  0  0  0
   -5.6571    2.4096   -1.2744 C   0  0  0  0  0  0  0  0  0  0  0  0
   -4.8169    1.3711   -0.8288 C   0  0  0  0  0  0  0  0  0  0  0  0
   -5.2658   -0.2589   -0.5251 S   0  0  0  0  0  0  0  0  0  0  0  0
   -3.6797   -0.7006   -0.0649 C   0  0  0  0  0  0  0  0  0  0  0  0
   -3.4376   -2.0865    0.3587 C   0  0  0  0  0  0  0  0  0  0  0  0
   -3.4045   -2.3718    1.7336 C   0  0  0  0  0  0  0  0  0  0  0  0
   -3.1716   -3.6701    2.1830 C   0  0  0  0  0  0  0  0  0  0  0  0
   -2.9666   -4.6933    1.2625 C   0  0  0  0  0  0  0  0  0  0  0  0
   -2.9908   -4.4229   -0.1089 C   0  0  0  0  0  0  0  0  0  0  0  0
   -3.2253   -3.1232   -0.5738 C   0  0  0  0  0  0  0  0  0  0  0  0
   -3.2415   -2.7674   -1.8995 O   0  0  0  0  0  0  0  0  0  0  0  0
   -3.1905   -3.8129   -2.8598 C   0  0  0  0  0  0  0  0  0  0  0  0
   -2.8087    0.3748   -0.1299 C   0  0  0  0  0  0  0  0  0  0  0  0
   -1.4024    0.2434    0.2344 C   0  0  0  0  0  0  0  0  0  0  0  0
   -0.9189    0.8576    1.3925 C   0  0  0  0  0  0  0  0  0  0  0  0
    0.4293    0.7334    1.7365 C   0  0  0  0  0  0  0  0  0  0  0  0
    1.3072    0.0025    0.9316 C   0  0  0  0  0  0  0  0  0  0  0  0
    2.5951   -0.0405    1.3883 O   0  0  0  0  0  0  0  0  0  0  0  0
    3.5576   -0.7054    0.5669 C   0  0  0  0  0  0  0  0  0  0  0  0
    4.9459   -0.6266    1.2337 C   0  0  0  0  0  0  0  0  0  0  0  0
    5.5179    0.7361    1.2753 N   0  0  0  0  0  0  0  0  0  0  0  0
    6.0170    1.1890   -0.0310 C   0  0  0  0  0  0  0  0  0  0  0  0
    7.4396    0.6581   -0.1490 C   0  0  0  0  0  0  0  0  0  0  0  0
    7.8741    0.3587    1.2786 C   0  0  0  0  0  0  0  0  0  0  0  0
    6.7031    0.7961    2.1440 C   0  0  0  0  0  0  0  0  0  0  0  0
    0.8245   -0.6083   -0.2263 C   0  0  0  0  0  0  0  0  0  0  0  0
   -0.5252   -0.4859   -0.5751 C   0  0  0  0  0  0  0  0  0  0  0  0
   -3.4613    1.5857   -0.5766 C   0  0  0  0  0  0  0  0  0  0  0  0
   -2.9519    2.8936   -0.7911 C   0  0  0  0  0  0  0  0  0  0  0  0
   -4.7196    6.4695   -1.1390 H   0  0  0  0  0  0  0  0  0  0  0  0
   -3.2695    7.1010   -1.9284 H   0  0  0  0  0  0  0  0  0  0  0  0
   -4.3319    6.0286   -2.8480 H   0  0  0  0  0  0  0  0  0  0  0  0
   -5.7938    4.4669   -1.8149 H   0  0  0  0  0  0  0  0  0  0  0  0
   -6.7104    2.2222   -1.4643 H   0  0  0  0  0  0  0  0  0  0  0  0
   -3.5595   -1.5760    2.4590 H   0  0  0  0  0  0  0  0  0  0  0  0
   -3.1472   -3.8799    3.2490 H   0  0  0  0  0  0  0  0  0  0  0  0
   -2.7813   -5.7062    1.6117 H   0  0  0  0  0  0  0  0  0  0  0  0
   -2.8139   -5.2497   -0.7884 H   0  0  0  0  0  0  0  0  0  0  0  0
   -2.2235   -4.3254   -2.8306 H   0  0  0  0  0  0  0  0  0  0  0  0
   -4.0177   -4.5178   -2.7255 H   0  0  0  0  0  0  0  0  0  0  0  0
   -3.2964   -3.3614   -3.8509 H   0  0  0  0  0  0  0  0  0  0  0  0
   -1.5832    1.4318    2.0332 H   0  0  0  0  0  0  0  0  0  0  0  0
    0.8017    1.2128    2.6385 H   0  0  0  0  0  0  0  0  0  0  0  0
    3.2867   -1.7654    0.4839 H   0  0  0  0  0  0  0  0  0  0  0  0
    3.5813   -0.2628   -0.4346 H   0  0  0  0  0  0  0  0  0  0  0  0
    4.8220   -0.9800    2.2656 H   0  0  0  0  0  0  0  0  0  0  0  0
    5.6247   -1.3246    0.7289 H   0  0  0  0  0  0  0  0  0  0  0  0
    5.3960    0.8934   -0.8815 H   0  0  0  0  0  0  0  0  0  0  0  0
    6.0385    2.2862   -0.0298 H   0  0  0  0  0  0  0  0  0  0  0  0
    7.4673   -0.2593   -0.7478 H   0  0  0  0  0  0  0  0  0  0  0  0
    8.0990    1.3907   -0.6256 H   0  0  0  0  0  0  0  0  0  0  0  0
    8.7935    0.8901    1.5439 H   0  0  0  0  0  0  0  0  0  0  0  0
    8.0615   -0.7153    1.3929 H   0  0  0  0  0  0  0  0  0  0  0  0
    6.8499    1.8366    2.4604 H   0  0  0  0  0  0  0  0  0  0  0  0
    6.6110    0.2004    3.0587 H   0  0  0  0  0  0  0  0  0  0  0  0
    1.4666   -1.1877   -0.8800 H   0  0  0  0  0  0  0  0  0  0  0  0
   -0.8887   -0.9650   -1.4819 H   0  0  0  0  0  0  0  0  0  0  0  0
   -1.8975    3.0934   -0.6118 H   0  0  0  0  0  0  0  0  0  0  0  0
  1  2  1  0
  2  3  1  0
  3  4  2  0
  4  5  1  0
  5  6  2  0
  6  7  1  0
  7  8  1  0
  8  9  1  0
  9 10  2  0
 10 11  1  0
 11 12  2  0
 12 13  1  0
 13 14  2  0
 14 15  1  0
 15 16  1  0
  8 17  2  0
 17 18  1  0
 18 19  2  0
 19 20  1  0
 20 21  2  0
 21 22  1  0
 22 23  1  0
 23 24  1  0
 24 25  1  0
 25 26  1  0
 26 27  1  0
 27 28  1  0
 28 29  1  0
 21 30  1  0
 30 31  2  0
 17 32  1  0
 32 33  2  0
 33  3  1  0
 32  6  1  0
 14  9  1  0
 31 18  1  0
 29 25  1  0
  1 34  1  0
  1 35  1  0
  1 36  1  0
  4 37  1  0
  5 38  1  0
 10 39  1  0
 11 40  1  0
 12 41  1  0
 13 42  1  0
 16 43  1  0
 16 44  1  0
 16 45  1  0
 19 46  1  0
 20 47  1  0
 23 48  1  0
 23 49  1  0
 24 50  1  0
 24 51  1  0
 26 52  1  0
 26 53  1  0
 27 54  1  0
 27 55  1  0
 28 56  1  0
 28 57  1  0
 29 58  1  0
 29 59  1  0
 30 60  1  0
 31 61  1  0
 33 62  1  0
M  END
$$$$
