
     RDKit          3D

 46 48  0  0  0  0  0  0  0  0999 V2000
   -3.2286   -1.8053   -0.1876 C   0  0  0  0  0  0  0  0  0  0  0  0
   -3.3330   -0.3793   -0.7029 C   0  0  0  0  0  0  0  0  0  0  0  0
   -3.2672    0.6145    0.3790 N   0  0  0  0  0  4  0  0  0  0  0  0
   -2.1715    1.3076    0.6635 C   0  0  0  0  0  0  0  0  0  0  0  0
   -0.9017    1.2199    0.0432 C   0  0  0  0  0  0  0  0  0  0  0  0
   -0.1086    0.1551    0.2365 C   0  0  0  0  0  0  0  0  0  0  0  0
    1.1949    0.0265   -0.3822 C   0  0  0  0  0  0  0  0  0  0  0  0
    1.9486   -1.0760   -0.2392 C   0  0  0  0  0  0  0  0  0  0  0  0
    3.1989   -1.3239   -0.8201 N   0  0  0  0  0  0  0  0  0  0  0  0
    3.6745   -2.6535   -0.7593 C   0  0  0  0  0  0  0  0  0  0  0  0
    5.1367   -2.9074   -1.0585 C   0  0  0  0  0  0  0  0  0  0  0  0
    2.9550   -3.6058   -0.4352 O   0  0  0  0  0  0  0  0  0  0  0  0
    3.9594   -0.2992   -1.4693 C   0  0  0  0  0  0  0  0  0  0  0  0
    4.2467    0.9003   -0.8016 C   0  0  0  0  0  0  0  0  0  0  0  0
    4.9859    1.9027   -1.4331 C   0  0  0  0  0  0  0  0  0  0  0  0
    5.4368    1.7186   -2.7386 C   0  0  0  0  0  0  0  0  0  0  0  0
    5.1497    0.5342   -3.4145 C   0  0  0  0  0  0  0  0  0  0  0  0
    4.4135   -0.4713   -2.7838 C   0  0  0  0  0  0  0  0  0  0  0  0
   -2.4652    2.4423    1.9149 S   0  0  0  0  0  0  0  0  0  0  0  0
   -4.1026    1.9442    2.0777 C   0  0  0  0  0  0  0  0  0  0  0  0
   -5.0802    2.4232    2.9634 C   0  0  0  0  0  0  0  0  0  0  0  0
   -6.3589    1.8649    2.8975 C   0  0  0  0  0  0  0  0  0  0  0  0
   -6.6550    0.8641    1.9780 C   0  0  0  0  0  0  0  0  0  0  0  0
   -5.6756    0.3900    1.0966 C   0  0  0  0  0  0  0  0  0  0  0  0
   -4.3776    0.9390    1.1535 C   0  0  0  0  0  0  0  0  0  0  0  0
   -2.2908   -1.9668    0.3499 H   0  0  0  0  0  0  0  0  0  0  0  0
   -3.2714   -2.5133   -1.0208 H   0  0  0  0  0  0  0  0  0  0  0  0
   -4.0451   -2.0420    0.5007 H   0  0  0  0  0  0  0  0  0  0  0  0
   -4.2748   -0.2443   -1.2479 H   0  0  0  0  0  0  0  0  0  0  0  0
   -2.5437   -0.1924   -1.4392 H   0  0  0  0  0  0  0  0  0  0  0  0
   -0.5694    2.0615   -0.5620 H   0  0  0  0  0  0  0  0  0  0  0  0
   -0.4148   -0.6645    0.8860 H   0  0  0  0  0  0  0  0  0  0  0  0
    1.5347    0.8514   -1.0040 H   0  0  0  0  0  0  0  0  0  0  0  0
    1.5595   -1.9113    0.3440 H   0  0  0  0  0  0  0  0  0  0  0  0
    5.7704   -2.0779   -0.7365 H   0  0  0  0  0  0  0  0  0  0  0  0
    5.2730   -3.1106   -2.1229 H   0  0  0  0  0  0  0  0  0  0  0  0
    5.4589   -3.7897   -0.4954 H   0  0  0  0  0  0  0  0  0  0  0  0
    3.9283    1.0502    0.2271 H   0  0  0  0  0  0  0  0  0  0  0  0
    5.2209    2.8229   -0.9034 H   0  0  0  0  0  0  0  0  0  0  0  0
    6.0167    2.4973   -3.2293 H   0  0  0  0  0  0  0  0  0  0  0  0
    5.4985    0.3943   -4.4353 H   0  0  0  0  0  0  0  0  0  0  0  0
    4.1768   -1.3736   -3.3422 H   0  0  0  0  0  0  0  0  0  0  0  0
   -4.8572    3.2085    3.6826 H   0  0  0  0  0  0  0  0  0  0  0  0
   -7.1347    2.2211    3.5758 H   0  0  0  0  0  0  0  0  0  0  0  0
   -7.6616    0.4467    1.9470 H   0  0  0  0  0  0  0  0  0  0  0  0
   -5.9490   -0.3934    0.3954 H   0  0  0  0  0  0  0  0  0  0  0  0
  1  2  1  0
  2  3  1  0
  3  4  2  0
  4  5  1  0
  5  6  2  3
  6  7  1  0
  7  8  2  3
  8  9  1  0
  9 10  1  0
 10 11  1  0
 10 12  2  0
  9 13  1  0
 13 14  2  0
 14 15  1  0
 15 16  2  0
 16 17  1  0
 17 18  2  0
  4 19  1  0
 19 20  1  0
 20 21  2  0
 21 22  1  0
 22 23  2  0
 23 24  1  0
 24 25  2  0
 25  3  1  0
 18 13  1  0
 25 20  1  0
  1 26  1  0
  1 27  1  0
  1 28  1  0
  2 29  1  0
  2 30  1  0
  5 31  1  0
  6 32  1  0
  7 33  1  0
  8 34  1  0
 11 35  1  0
 11 36  1  0
 11 37  1  0
 14 38  1  0
 15 39  1  0
 16 40  1  0
 17 41  1  0
 18 42  1  0
 21 43  1  0
 22 44  1  0
 23 45  1  0
 24 46  1  0
M  CHG  1   3   1
M  END
$$$$
