
     RDKit          3D

 43 45  0  0  0  0  0  0  0  0999 V2000
    7.4755    0.3928   -2.1260 O   0  0  0  0  0  0  0  0  0  0  0  0
    8.0335   -0.0234   -1.1251 C   0  0  0  0  0  0  0  0  0  0  0  0
    9.3678   -0.2378   -1.1413 O   0  0  0  0  0  0  0  0  0  0  0  0
    7.4360   -0.3224    0.2281 C   0  0  0  0  0  0  0  0  0  0  0  0
    5.9264   -0.3400    0.2441 C   0  0  0  0  0  0  0  0  0  0  0  0
    5.2270   -1.5521    0.2136 C   0  0  0  0  0  0  0  0  0  0  0  0
    3.8271   -1.5709    0.2231 C   0  0  0  0  0  0  0  0  0  0  0  0
    3.1022   -0.3803    0.2589 C   0  0  0  0  0  0  0  0  0  0  0  0
    1.6930   -0.3137    0.2605 N   0  0  0  0  0  0  0  0  0  0  0  0
    0.8032   -1.3704    0.3285 C   0  0  0  0  0  0  0  0  0  0  0  0
    1.0759   -2.5552    0.4795 O   0  0  0  0  0  0  0  0  0  0  0  0
   -0.6352   -0.9847    0.2530 C   0  0  0  0  0  0  0  0  0  0  0  0
   -1.5665   -1.7281    0.9841 C   0  0  0  0  0  0  0  0  0  0  0  0
   -2.9238   -1.3948    0.9384 C   0  0  0  0  0  0  0  0  0  0  0  0
   -3.3708   -0.3222    0.1566 C   0  0  0  0  0  0  0  0  0  0  0  0
   -4.7509   -0.0532    0.1690 N   0  0  0  0  0  0  0  0  0  0  0  0
   -5.4399    0.9484   -0.4927 C   0  0  0  0  0  0  0  0  0  0  0  0
   -4.9358    1.8005   -1.2168 O   0  0  0  0  0  0  0  0  0  0  0  0
   -6.8695    0.9009   -0.2384 C   0  0  0  0  0  0  0  0  0  0  0  0
   -7.9025    1.6980   -0.6946 C   0  0  0  0  0  0  0  0  0  0  0  0
   -9.0935    1.1906   -0.1228 C   0  0  0  0  0  0  0  0  0  0  0  0
   -8.7202    0.1157    0.6482 C   0  0  0  0  0  0  0  0  0  0  0  0
   -7.3763   -0.0715    0.5883 O   0  0  0  0  0  0  0  0  0  0  0  0
   -2.4392    0.4046   -0.5883 C   0  0  0  0  0  0  0  0  0  0  0  0
   -1.0782    0.0742   -0.5467 C   0  0  0  0  0  0  0  0  0  0  0  0
    3.8004    0.8329    0.2779 C   0  0  0  0  0  0  0  0  0  0  0  0
    5.1988    0.8547    0.2718 C   0  0  0  0  0  0  0  0  0  0  0  0
    9.6280   -0.0047   -2.0578 H   0  0  0  0  0  0  0  0  0  0  0  0
    7.7956    0.4314    0.9384 H   0  0  0  0  0  0  0  0  0  0  0  0
    7.8132   -1.2960    0.5636 H   0  0  0  0  0  0  0  0  0  0  0  0
    5.7605   -2.4998    0.1799 H   0  0  0  0  0  0  0  0  0  0  0  0
    3.3333   -2.5372    0.1923 H   0  0  0  0  0  0  0  0  0  0  0  0
    1.3025    0.6189    0.2774 H   0  0  0  0  0  0  0  0  0  0  0  0
   -1.2371   -2.5683    1.5927 H   0  0  0  0  0  0  0  0  0  0  0  0
   -3.6228   -1.9895    1.5218 H   0  0  0  0  0  0  0  0  0  0  0  0
   -5.3360   -0.6606    0.7337 H   0  0  0  0  0  0  0  0  0  0  0  0
   -7.7937    2.5426   -1.3620 H   0  0  0  0  0  0  0  0  0  0  0  0
  -10.1000    1.5623   -0.2563 H   0  0  0  0  0  0  0  0  0  0  0  0
   -9.2637   -0.5836    1.2690 H   0  0  0  0  0  0  0  0  0  0  0  0
   -2.7389    1.2303   -1.2268 H   0  0  0  0  0  0  0  0  0  0  0  0
   -0.3884    0.6363   -1.1709 H   0  0  0  0  0  0  0  0  0  0  0  0
    3.2695    1.7809    0.2955 H   0  0  0  0  0  0  0  0  0  0  0  0
    5.7138    1.8130    0.2787 H   0  0  0  0  0  0  0  0  0  0  0  0
  1  2  2  0
  2  3  1  0
  2  4  1  0
  4  5  1  0
  5  6  2  0
  6  7  1  0
  7  8  2  0
  8  9  1  0
  9 10  1  0
 10 11  2  0
 10 12  1  0
 12 13  2  0
 13 14  1  0
 14 15  2  0
 15 16  1  0
 16 17  1  0
 17 18  2  0
 17 19  1  0
 19 20  2  0
 20 21  1  0
 21 22  2  0
 22 23  1  0
 15 24  1  0
 24 25  2  0
  8 26  1  0
 26 27  2  0
 27  5  1  0
 25 12  1  0
 23 19  1  0
  3 28  1  0
  4 29  1  0
  4 30  1  0
  6 31  1  0
  7 32  1  0
  9 33  1  0
 13 34  1  0
 14 35  1  0
 16 36  1  0
 20 37  1  0
 21 38  1  0
 22 39  1  0
 24 40  1  0
 25 41  1  0
 26 42  1  0
 27 43  1  0
M  END
$$$$
