
     RDKit          3D

 60 62  0  0  0  0  0  0  0  0999 V2000
   -5.6469   -1.2603    1.0619 C   0  0  0  0  0  0  0  0  0  0  0  0
   -4.4329   -0.3865    1.1816 C   0  0  0  0  0  0  0  0  0  0  0  0
   -3.2000   -0.9349    1.5363 C   0  0  0  0  0  0  0  0  0  0  0  0
   -2.0846   -0.1130    1.6901 C   0  0  0  0  0  0  0  0  0  0  0  0
   -2.1870    1.2720    1.4820 C   0  0  0  0  0  0  0  0  0  0  0  0
   -0.6965    2.2372    1.7030 S   0  0  0  0  0  6  0  0  0  0  0  0
   -1.0567    3.5786    2.1088 O   0  0  0  0  0  0  0  0  0  0  0  0
    0.2357    1.4642    2.4990 O   0  0  0  0  0  0  0  0  0  0  0  0
   -0.0854    2.3749    0.1314 N   0  0  0  0  0  0  0  0  0  0  0  0
    0.1008    1.1946   -0.6564 C   0  0  0  0  0  0  0  0  0  0  0  0
    1.0663    0.2743   -0.2308 C   0  0  0  0  0  0  0  0  0  0  0  0
    1.2652   -0.9265   -0.9128 C   0  0  0  0  0  0  0  0  0  0  0  0
    2.2451   -1.9887   -0.4248 C   0  0  0  0  0  0  0  0  0  0  0  0
    3.4135   -1.4838    0.3899 C   0  0  0  0  0  0  0  0  0  0  0  0
    3.7243   -1.9344    1.4852 O   0  0  0  0  0  0  0  0  0  0  0  0
    4.0971   -0.5102   -0.2738 O   0  0  0  0  0  0  0  0  0  0  0  0
    5.2386    0.0498    0.4042 C   0  0  0  0  0  0  0  0  0  0  0  0
    6.1150    0.6983   -0.6592 C   0  0  0  0  0  0  0  0  0  0  0  0
    4.7811    1.0863    1.4238 C   0  0  0  0  0  0  0  0  0  0  0  0
    1.5269   -3.0964    0.3311 C   0  0  0  0  0  0  0  0  0  0  0  0
    0.4250   -2.9308    0.8679 O   0  0  0  0  0  0  0  0  0  0  0  0
    2.2441   -4.4326    0.3292 C   0  0  0  0  0  0  0  0  0  0  0  0
    2.1768   -5.0803    1.5238 F   0  0  0  0  0  0  0  0  0  0  0  0
    1.7113   -5.2799   -0.5982 F   0  0  0  0  0  0  0  0  0  0  0  0
    3.5663   -4.3313    0.0148 F   0  0  0  0  0  0  0  0  0  0  0  0
    0.4571   -1.1899   -2.0292 C   0  0  0  0  0  0  0  0  0  0  0  0
    0.6247   -2.4271   -2.6077 O   0  0  0  0  0  0  0  0  0  0  0  0
   -0.5012   -0.2665   -2.5172 C   0  0  0  0  0  0  0  0  0  0  0  0
   -1.2702   -0.4991   -3.6836 C   0  0  0  0  0  0  0  0  0  0  0  0
   -2.2306    0.4119   -4.1252 C   0  0  0  0  0  0  0  0  0  0  0  0
   -2.4422    1.5833   -3.4173 C   0  0  0  0  0  0  0  0  0  0  0  0
   -1.6811    1.8489   -2.2788 C   0  0  0  0  0  0  0  0  0  0  0  0
   -0.6943    0.9466   -1.8070 C   0  0  0  0  0  0  0  0  0  0  0  0
   -3.4245    1.8495    1.1396 C   0  0  0  0  0  0  0  0  0  0  0  0
   -3.6374    3.3234    0.9484 C   0  0  0  0  0  0  0  0  0  0  0  0
   -4.5393    1.0004    1.0049 C   0  0  0  0  0  0  0  0  0  0  0  0
   -5.3677   -2.2884    0.8037 H   0  0  0  0  0  0  0  0  0  0  0  0
   -6.3117   -0.8947    0.2714 H   0  0  0  0  0  0  0  0  0  0  0  0
   -6.1932   -1.2723    2.0107 H   0  0  0  0  0  0  0  0  0  0  0  0
   -3.0960   -2.0048    1.7010 H   0  0  0  0  0  0  0  0  0  0  0  0
   -1.1361   -0.5703    1.9688 H   0  0  0  0  0  0  0  0  0  0  0  0
   -0.3726    3.2347   -0.3274 H   0  0  0  0  0  0  0  0  0  0  0  0
    1.6525    0.5029    0.6573 H   0  0  0  0  0  0  0  0  0  0  0  0
    2.7008   -2.4495   -1.3131 H   0  0  0  0  0  0  0  0  0  0  0  0
    5.8138   -0.7448    0.8928 H   0  0  0  0  0  0  0  0  0  0  0  0
    5.5676    1.4818   -1.1924 H   0  0  0  0  0  0  0  0  0  0  0  0
    7.0156    1.1380   -0.2201 H   0  0  0  0  0  0  0  0  0  0  0  0
    6.4151   -0.0409   -1.4087 H   0  0  0  0  0  0  0  0  0  0  0  0
    4.1651    0.6271    2.2034 H   0  0  0  0  0  0  0  0  0  0  0  0
    5.6358    1.5721    1.9036 H   0  0  0  0  0  0  0  0  0  0  0  0
    4.1603    1.8535    0.9498 H   0  0  0  0  0  0  0  0  0  0  0  0
   -0.2277   -2.6973   -2.9949 H   0  0  0  0  0  0  0  0  0  0  0  0
   -1.1200   -1.3913   -4.2867 H   0  0  0  0  0  0  0  0  0  0  0  0
   -2.8084    0.2040   -5.0221 H   0  0  0  0  0  0  0  0  0  0  0  0
   -3.1935    2.2952   -3.7507 H   0  0  0  0  0  0  0  0  0  0  0  0
   -1.8796    2.7821   -1.7597 H   0  0  0  0  0  0  0  0  0  0  0  0
   -2.8792    3.7514    0.2882 H   0  0  0  0  0  0  0  0  0  0  0  0
   -4.6046    3.5294    0.4771 H   0  0  0  0  0  0  0  0  0  0  0  0
   -3.6281    3.8348    1.9157 H   0  0  0  0  0  0  0  0  0  0  0  0
   -5.5126    1.4251    0.7606 H   0  0  0  0  0  0  0  0  0  0  0  0
  1  2  1  0
  2  3  2  0
  3  4  1  0
  4  5  2  0
  5  6  1  0
  6  7  2  0
  6  8  2  0
  6  9  1  0
  9 10  1  0
 10 11  2  0
 11 12  1  0
 12 13  1  0
 13 14  1  0
 14 15  2  0
 14 16  1  0
 16 17  1  0
 17 18  1  0
 17 19  1  0
 13 20  1  0
 20 21  2  0
 20 22  1  0
 22 23  1  0
 22 24  1  0
 22 25  1  0
 12 26  2  0
 26 27  1  0
 26 28  1  0
 28 29  2  0
 29 30  1  0
 30 31  2  0
 31 32  1  0
 32 33  2  0
  5 34  1  0
 34 35  1  0
 34 36  2  0
 36  2  1  0
 33 10  1  0
 33 28  1  0
  1 37  1  0
  1 38  1  0
  1 39  1  0
  3 40  1  0
  4 41  1  0
  9 42  1  0
 11 43  1  0
 13 44  1  0
 17 45  1  0
 18 46  1  0
 18 47  1  0
 18 48  1  0
 19 49  1  0
 19 50  1  0
 19 51  1  0
 27 52  1  0
 29 53  1  0
 30 54  1  0
 31 55  1  0
 32 56  1  0
 35 57  1  0
 35 58  1  0
 35 59  1  0
 36 60  1  0
M  END
$$$$
