
     RDKit          3D

 52 54  0  0  0  0  0  0  0  0999 V2000
    9.1468   -0.7015    0.3700 C   0  0  0  0  0  0  0  0  0  0  0  0
    7.8317   -0.8691   -0.3320 C   0  0  0  0  0  0  0  0  0  0  0  0
    7.1388   -2.0826   -0.2620 C   0  0  0  0  0  0  0  0  0  0  0  0
    5.9002   -2.2281   -0.8908 C   0  0  0  0  0  0  0  0  0  0  0  0
    5.3307   -1.1610   -1.5988 C   0  0  0  0  0  0  0  0  0  0  0  0
    3.9857   -1.3172   -2.2527 C   0  0  0  0  0  0  0  0  0  0  0  0
    2.9265   -1.0954   -1.3057 N   0  0  0  0  0  0  0  0  0  0  0  0
    1.6321   -1.4671   -1.5728 C   0  0  0  0  0  0  0  0  0  0  0  0
    1.2479   -2.1095   -2.5399 O   0  0  0  0  0  0  0  0  0  0  0  0
    0.6160   -0.9807   -0.5151 C   0  0  0  0  0  0  0  0  0  0  0  0
    0.9504   -0.1703    0.3367 O   0  0  0  0  0  0  0  0  0  0  0  0
   -0.6406   -1.5188   -0.6675 N   0  0  0  0  0  0  0  0  0  0  0  0
   -1.7765   -1.0208    0.0920 C   0  0  0  0  0  0  0  0  0  0  0  0
   -2.2403    0.3899   -0.3611 C   0  0  0  0  0  0  0  0  0  0  0  0
   -2.4585    0.3708   -1.7918 O   0  0  0  0  0  0  0  0  0  0  0  0
   -3.8335    0.0255   -1.9732 C   0  0  0  0  0  0  0  0  0  0  0  0
   -4.5499    0.7223   -0.8382 C   0  0  0  0  0  0  0  0  0  0  0  0
   -3.5211    0.8599    0.2047 N   0  0  0  0  0  0  0  0  0  0  0  0
   -3.8992    0.4458    1.7814 S   0  0  0  0  0  6  0  0  0  0  0  0
   -4.4553   -0.8904    1.7472 O   0  0  0  0  0  0  0  0  0  0  0  0
   -2.7711    0.7703    2.6237 O   0  0  0  0  0  0  0  0  0  0  0  0
   -5.2003    1.5887    2.1755 C   0  0  0  0  0  0  0  0  0  0  0  0
   -6.4885    1.1214    2.4527 C   0  0  0  0  0  0  0  0  0  0  0  0
   -7.4997    2.0373    2.7505 C   0  0  0  0  0  0  0  0  0  0  0  0
   -7.2138    3.4041    2.7712 C   0  0  0  0  0  0  0  0  0  0  0  0
   -8.5879    4.6399    3.1693 Br  0  0  0  0  0  0  0  0  0  0  0  0
   -5.9248    3.8678    2.5026 C   0  0  0  0  0  0  0  0  0  0  0  0
   -4.9104    2.9568    2.2047 C   0  0  0  0  0  0  0  0  0  0  0  0
    6.0135    0.0615   -1.6457 C   0  0  0  0  0  0  0  0  0  0  0  0
    7.2526    0.2060   -1.0165 C   0  0  0  0  0  0  0  0  0  0  0  0
    8.9869   -0.2985    1.3742 H   0  0  0  0  0  0  0  0  0  0  0  0
    9.6727   -1.6587    0.4531 H   0  0  0  0  0  0  0  0  0  0  0  0
    9.7999   -0.0200   -0.1863 H   0  0  0  0  0  0  0  0  0  0  0  0
    7.5581   -2.9241    0.2856 H   0  0  0  0  0  0  0  0  0  0  0  0
    5.3763   -3.1798   -0.8205 H   0  0  0  0  0  0  0  0  0  0  0  0
    3.8633   -0.5967   -3.0703 H   0  0  0  0  0  0  0  0  0  0  0  0
    3.8833   -2.3158   -2.6942 H   0  0  0  0  0  0  0  0  0  0  0  0
    3.0719   -0.4656   -0.5207 H   0  0  0  0  0  0  0  0  0  0  0  0
   -0.8014   -2.0103   -1.5439 H   0  0  0  0  0  0  0  0  0  0  0  0
   -1.4926   -1.0145    1.1488 H   0  0  0  0  0  0  0  0  0  0  0  0
   -2.5723   -1.7600   -0.0452 H   0  0  0  0  0  0  0  0  0  0  0  0
   -1.4591    1.1313   -0.1650 H   0  0  0  0  0  0  0  0  0  0  0  0
   -4.1786    0.3549   -2.9572 H   0  0  0  0  0  0  0  0  0  0  0  0
   -3.9383   -1.0634   -1.9111 H   0  0  0  0  0  0  0  0  0  0  0  0
   -4.8636    1.7272   -1.1396 H   0  0  0  0  0  0  0  0  0  0  0  0
   -5.4360    0.1637   -0.5273 H   0  0  0  0  0  0  0  0  0  0  0  0
   -6.7125    0.0569    2.4427 H   0  0  0  0  0  0  0  0  0  0  0  0
   -8.5026    1.6778    2.9679 H   0  0  0  0  0  0  0  0  0  0  0  0
   -5.7010    4.9314    2.5251 H   0  0  0  0  0  0  0  0  0  0  0  0
   -3.9032    3.3129    1.9973 H   0  0  0  0  0  0  0  0  0  0  0  0
    5.5835    0.9126   -2.1698 H   0  0  0  0  0  0  0  0  0  0  0  0
    7.7639    1.1655   -1.0622 H   0  0  0  0  0  0  0  0  0  0  0  0
  1  2  1  0
  2  3  2  0
  3  4  1  0
  4  5  2  0
  5  6  1  0
  6  7  1  0
  7  8  1  0
  8  9  2  0
  8 10  1  0
 10 11  2  0
 10 12  1  0
 12 13  1  0
 13 14  1  0
 14 15  1  0
 15 16  1  0
 16 17  1  0
 17 18  1  0
 18 19  1  0
 19 20  2  0
 19 21  2  0
 19 22  1  0
 22 23  2  0
 23 24  1  0
 24 25  2  0
 25 26  1  0
 25 27  1  0
 27 28  2  0
  5 29  1  0
 29 30  2  0
 30  2  1  0
 18 14  1  0
 28 22  1  0
  1 31  1  0
  1 32  1  0
  1 33  1  0
  3 34  1  0
  4 35  1  0
  6 36  1  0
  6 37  1  0
  7 38  1  0
 12 39  1  0
 13 40  1  0
 13 41  1  0
 14 42  1  0
 16 43  1  0
 16 44  1  0
 17 45  1  0
 17 46  1  0
 23 47  1  0
 24 48  1  0
 27 49  1  0
 28 50  1  0
 29 51  1  0
 30 52  1  0
M  END
$$$$
