
     RDKit          3D

 39 41  0  0  0  0  0  0  0  0999 V2000
    5.4683   -0.3843    0.2452 C   0  0  0  0  0  0  0  0  0  0  0  0
    4.5222   -0.0926   -0.9056 C   0  0  0  0  0  0  0  0  0  0  0  0
    3.7739    1.1377   -0.7027 N   0  0  0  0  0  0  0  0  0  0  0  0
    4.3312    2.3001   -1.1161 N   0  0  0  0  0  0  0  0  0  0  0  0
    3.4281    3.2228   -0.7868 C   0  0  0  0  0  0  0  0  0  0  0  0
    2.2903    2.6495   -0.2091 C   0  0  0  0  0  0  0  0  0  0  0  0
    0.8370    3.6517    0.4127 Br  0  0  0  0  0  0  0  0  0  0  0  0
    2.5050    1.2862   -0.1788 C   0  0  0  0  0  0  0  0  0  0  0  0
    1.6878    0.1910    0.3035 C   0  0  0  0  0  0  0  0  0  0  0  0
    2.2017   -0.7981    0.8100 O   0  0  0  0  0  0  0  0  0  0  0  0
    0.3379    0.3765    0.0691 N   0  0  0  0  0  0  0  0  0  0  0  0
   -0.7135   -0.4692    0.3967 C   0  0  0  0  0  0  0  0  0  0  0  0
   -0.4444   -1.8675    1.3619 S   0  0  0  0  0  0  0  0  0  0  0  0
   -2.0594   -2.2625    1.3083 C   0  0  0  0  0  0  0  0  0  0  0  0
   -2.8188   -1.3828    0.5929 C   0  0  0  0  0  0  0  0  0  0  0  0
   -2.0578   -0.3125    0.0383 C   0  0  0  0  0  0  0  0  0  0  0  0
   -2.6238    0.7579   -0.7817 C   0  0  0  0  0  0  0  0  0  0  0  0
   -3.8189    0.8388   -1.0438 O   0  0  0  0  0  0  0  0  0  0  0  0
   -1.6883    1.6528   -1.2283 O   0  0  0  0  0  0  0  0  0  0  0  0
   -2.2286    2.6942   -2.0463 C   0  0  0  0  0  0  0  0  0  0  0  0
   -4.2462   -1.7972    0.5843 C   0  0  0  0  0  0  0  0  0  0  0  0
   -4.2834   -2.8891    1.7004 C   0  0  0  0  0  0  0  0  0  0  0  0
   -2.8194   -3.3926    1.8885 C   0  0  0  0  0  0  0  0  0  0  0  0
    6.0078   -1.3186    0.0623 H   0  0  0  0  0  0  0  0  0  0  0  0
    4.9302   -0.4785    1.1945 H   0  0  0  0  0  0  0  0  0  0  0  0
    6.2074    0.4161    0.3592 H   0  0  0  0  0  0  0  0  0  0  0  0
    5.0854    0.0194   -1.8396 H   0  0  0  0  0  0  0  0  0  0  0  0
    3.8135   -0.9112   -1.0605 H   0  0  0  0  0  0  0  0  0  0  0  0
    3.6455    4.2641   -0.9839 H   0  0  0  0  0  0  0  0  0  0  0  0
    0.0702    1.2035   -0.4559 H   0  0  0  0  0  0  0  0  0  0  0  0
   -2.5500    2.2855   -3.0087 H   0  0  0  0  0  0  0  0  0  0  0  0
   -3.0585    3.1982   -1.5424 H   0  0  0  0  0  0  0  0  0  0  0  0
   -1.4397    3.4285   -2.2261 H   0  0  0  0  0  0  0  0  0  0  0  0
   -4.9287   -0.9759    0.8182 H   0  0  0  0  0  0  0  0  0  0  0  0
   -4.5137   -2.2288   -0.3854 H   0  0  0  0  0  0  0  0  0  0  0  0
   -4.6258   -2.4286    2.6373 H   0  0  0  0  0  0  0  0  0  0  0  0
   -4.9763   -3.7025    1.4626 H   0  0  0  0  0  0  0  0  0  0  0  0
   -2.5945   -3.5731    2.9426 H   0  0  0  0  0  0  0  0  0  0  0  0
   -2.6535   -4.3089    1.3134 H   0  0  0  0  0  0  0  0  0  0  0  0
  1  2  1  0
  2  3  1  0
  3  4  1  0
  4  5  2  0
  5  6  1  0
  6  7  1  0
  6  8  2  0
  8  9  1  0
  9 10  2  0
  9 11  1  0
 11 12  1  0
 12 13  1  0
 13 14  1  0
 14 15  2  0
 15 16  1  0
 16 17  1  0
 17 18  2  0
 17 19  1  0
 19 20  1  0
 15 21  1  0
 21 22  1  0
 22 23  1  0
  8  3  1  0
 16 12  2  0
 23 14  1  0
  1 24  1  0
  1 25  1  0
  1 26  1  0
  2 27  1  0
  2 28  1  0
  5 29  1  0
 11 30  1  0
 20 31  1  0
 20 32  1  0
 20 33  1  0
 21 34  1  0
 21 35  1  0
 22 36  1  0
 22 37  1  0
 23 38  1  0
 23 39  1  0
M  END
$$$$
