
     RDKit          3D

 58 62  0  0  0  0  0  0  0  0999 V2000
    8.0375    0.2483    2.4781 C   0  0  0  0  0  0  0  0  0  0  0  0
    7.3414    1.4203    2.0796 O   0  0  0  0  0  0  0  0  0  0  0  0
    6.0908    1.2641    1.5356 C   0  0  0  0  0  0  0  0  0  0  0  0
    5.4779    0.0298    1.3061 C   0  0  0  0  0  0  0  0  0  0  0  0
    4.1989   -0.0290    0.7446 C   0  0  0  0  0  0  0  0  0  0  0  0
    3.5078    1.1399    0.4028 C   0  0  0  0  0  0  0  0  0  0  0  0
    2.1726    1.0399   -0.1806 C   0  0  0  0  0  0  0  0  0  0  0  0
    1.4921   -0.0367   -0.5265 N   0  0  0  0  0  0  0  0  0  0  0  0
    0.2861    0.4500   -0.9908 C   0  0  0  0  0  0  0  0  0  0  0  0
   -0.7712   -0.4774   -1.4679 C   0  0  0  0  0  0  0  0  0  0  0  0
   -1.6760   -0.8346   -0.3875 N   0  0  0  0  0  0  0  0  0  0  0  0
   -2.9652   -0.4065   -0.1916 C   0  0  0  0  0  0  0  0  0  0  0  0
   -3.7566    0.7516   -1.2082 S   0  0  0  0  0  0  0  0  0  0  0  0
   -5.4894    0.2207   -1.0585 C   0  0  0  0  0  0  0  0  0  0  0  0
   -5.7985   -0.9719   -1.9309 C   0  0  0  0  0  0  0  0  0  0  0  0
   -6.0888   -0.8059   -3.2957 C   0  0  0  0  0  0  0  0  0  0  0  0
   -6.3576   -1.9115   -4.1071 C   0  0  0  0  0  0  0  0  0  0  0  0
   -6.3359   -3.1943   -3.5635 C   0  0  0  0  0  0  0  0  0  0  0  0
   -6.0442   -3.3616   -2.2153 C   0  0  0  0  0  0  0  0  0  0  0  0
   -6.0197   -4.5959   -1.6955 F   0  0  0  0  0  0  0  0  0  0  0  0
   -5.7758   -2.2686   -1.3981 C   0  0  0  0  0  0  0  0  0  0  0  0
   -3.5187   -0.9695    0.8572 N   0  0  0  0  0  0  0  0  0  0  0  0
   -2.5626   -1.8130    1.3626 C   0  0  0  0  0  0  0  0  0  0  0  0
   -2.6260   -2.6630    2.4659 C   0  0  0  0  0  0  0  0  0  0  0  0
   -1.4831   -3.4025    2.7205 C   0  0  0  0  0  0  0  0  0  0  0  0
   -0.3460   -3.3472    1.9886 N   0  0  0  0  0  0  0  0  0  0  0  0
   -0.2829   -2.5156    0.9215 C   0  0  0  0  0  0  0  0  0  0  0  0
   -1.3987   -1.7530    0.6059 C   0  0  0  0  0  0  0  0  0  0  0  0
    0.3000    1.8283   -0.9300 C   0  0  0  0  0  0  0  0  0  0  0  0
   -0.6481    2.9014   -1.2751 C   0  0  0  0  0  0  0  0  0  0  0  0
    1.5036    2.2133   -0.4098 O   0  0  0  0  0  0  0  0  0  0  0  0
    4.1267    2.3783    0.6348 C   0  0  0  0  0  0  0  0  0  0  0  0
    5.4092    2.4499    1.1959 C   0  0  0  0  0  0  0  0  0  0  0  0
    6.0796    3.6218    1.4492 O   0  0  0  0  0  0  0  0  0  0  0  0
    5.4164    4.8421    1.1529 C   0  0  0  0  0  0  0  0  0  0  0  0
    8.2510   -0.3953    1.6185 H   0  0  0  0  0  0  0  0  0  0  0  0
    7.4874   -0.2948    3.2535 H   0  0  0  0  0  0  0  0  0  0  0  0
    8.9957    0.5580    2.9065 H   0  0  0  0  0  0  0  0  0  0  0  0
    5.9652   -0.9077    1.5519 H   0  0  0  0  0  0  0  0  0  0  0  0
    3.7391   -1.0023    0.5776 H   0  0  0  0  0  0  0  0  0  0  0  0
   -0.3274   -1.4081   -1.8408 H   0  0  0  0  0  0  0  0  0  0  0  0
   -1.3336   -0.0456   -2.2996 H   0  0  0  0  0  0  0  0  0  0  0  0
   -5.7543    0.0232   -0.0138 H   0  0  0  0  0  0  0  0  0  0  0  0
   -6.1232    1.0593   -1.3695 H   0  0  0  0  0  0  0  0  0  0  0  0
   -6.1055    0.1899   -3.7351 H   0  0  0  0  0  0  0  0  0  0  0  0
   -6.5834   -1.7714   -5.1612 H   0  0  0  0  0  0  0  0  0  0  0  0
   -6.5428   -4.0633   -4.1796 H   0  0  0  0  0  0  0  0  0  0  0  0
   -5.5445   -2.4392   -0.3496 H   0  0  0  0  0  0  0  0  0  0  0  0
   -3.5126   -2.7389    3.0795 H   0  0  0  0  0  0  0  0  0  0  0  0
   -1.4499   -4.0913    3.5608 H   0  0  0  0  0  0  0  0  0  0  0  0
    0.6486   -2.4902    0.3691 H   0  0  0  0  0  0  0  0  0  0  0  0
   -0.1280    3.8519   -1.4293 H   0  0  0  0  0  0  0  0  0  0  0  0
   -1.1866    2.6627   -2.1970 H   0  0  0  0  0  0  0  0  0  0  0  0
   -1.3764    3.0390   -0.4707 H   0  0  0  0  0  0  0  0  0  0  0  0
    3.5894    3.2825    0.3676 H   0  0  0  0  0  0  0  0  0  0  0  0
    4.5004    4.9482    1.7434 H   0  0  0  0  0  0  0  0  0  0  0  0
    6.0859    5.6622    1.4293 H   0  0  0  0  0  0  0  0  0  0  0  0
    5.2103    4.9292    0.0811 H   0  0  0  0  0  0  0  0  0  0  0  0
  1  2  1  0
  2  3  1  0
  3  4  2  0
  4  5  1  0
  5  6  2  0
  6  7  1  0
  7  8  2  0
  8  9  1  0
  9 10  1  0
 10 11  1  0
 11 12  1  0
 12 13  1  0
 13 14  1  0
 14 15  1  0
 15 16  2  0
 16 17  1  0
 17 18  2  0
 18 19  1  0
 19 20  1  0
 19 21  2  0
 12 22  2  0
 22 23  1  0
 23 24  2  0
 24 25  1  0
 25 26  2  0
 26 27  1  0
 27 28  2  0
  9 29  2  0
 29 30  1  0
 29 31  1  0
  6 32  1  0
 32 33  2  0
 33 34  1  0
 34 35  1  0
 33  3  1  0
 31  7  1  0
 28 11  1  0
 21 15  1  0
 28 23  1  0
  1 36  1  0
  1 37  1  0
  1 38  1  0
  4 39  1  0
  5 40  1  0
 10 41  1  0
 10 42  1  0
 14 43  1  0
 14 44  1  0
 16 45  1  0
 17 46  1  0
 18 47  1  0
 21 48  1  0
 24 49  1  0
 25 50  1  0
 27 51  1  0
 30 52  1  0
 30 53  1  0
 30 54  1  0
 32 55  1  0
 35 56  1  0
 35 57  1  0
 35 58  1  0
M  END
$$$$
