
     RDKit          3D

 85 87  0  0  0  0  0  0  0  0999 V2000
   -2.8445    3.2285   -2.4205 C   0  0  0  0  0  0  0  0  0  0  0  0
   -2.1225    2.0223   -1.9030 C   0  0  0  0  0  0  0  0  0  0  0  0
   -1.2354    1.4335   -2.5026 O   0  0  0  0  0  0  0  0  0  0  0  0
   -2.6161    1.6869   -0.6826 O   0  0  0  0  0  0  0  0  0  0  0  0
   -2.0039    0.5570   -0.0071 C   0  0  1  0  0  0  0  0  0  0  0  0
   -0.9366    1.0676    1.0068 C   0  0  2  0  0  0  0  0  0  0  0  0
   -0.0314    1.9847    0.3518 O   0  0  0  0  0  0  0  0  0  0  0  0
   -0.2129    3.3075    0.5989 C   0  0  0  0  0  0  0  0  0  0  0  0
    0.8538    4.1094   -0.0718 C   0  0  0  0  0  0  0  0  0  0  0  0
   -1.1060    3.8012    1.2829 O   0  0  0  0  0  0  0  0  0  0  0  0
   -0.0642   -0.0491    1.5850 C   0  0  0  0  0  0  0  0  0  0  0  0
   -0.2037   -0.2461    3.0764 C   0  0  0  0  0  0  0  0  0  0  0  0
    0.8583   -0.7740    0.9084 C   0  0  0  0  0  0  0  0  0  0  0  0
    1.2563   -0.6525   -0.5488 C   0  0  1  0  0  0  0  0  0  0  0  0
    2.5390    0.1921   -0.7703 C   0  0  1  0  0  0  0  0  0  0  0  0
    3.5151   -0.0942    0.2489 O   0  0  0  0  0  0  0  0  0  0  0  0
    3.9420    0.9327    1.0177 C   0  0  0  0  0  0  0  0  0  0  0  0
    3.6257    2.1078    0.9090 O   0  0  0  0  0  0  0  0  0  0  0  0
    4.8814    0.4198    2.0503 C   0  0  0  0  0  0  0  0  0  0  0  0
    5.2495   -0.9339    2.1227 C   0  0  0  0  0  0  0  0  0  0  0  0
    6.1443   -1.3685    3.1054 C   0  0  0  0  0  0  0  0  0  0  0  0
    6.6658   -0.4545    4.0244 C   0  0  0  0  0  0  0  0  0  0  0  0
    6.3048    0.8939    3.9565 C   0  0  0  0  0  0  0  0  0  0  0  0
    5.4185    1.3321    2.9699 C   0  0  0  0  0  0  0  0  0  0  0  0
    3.1253   -0.3025   -2.1079 C   0  0  2  0  0  0  0  0  0  0  0  0
    3.2172    0.8137   -3.1445 C   0  0  0  0  0  0  0  0  0  0  0  0
    2.2003   -1.4460   -2.5722 C   0  0  0  0  0  0  0  0  0  0  0  0
    1.5575   -1.9809   -1.2893 C   0  0  1  0  0  0  0  0  0  0  0  0
    2.5659   -2.7414   -0.5947 O   0  0  0  0  0  0  0  0  0  0  0  0
    0.3206   -2.9046   -1.4338 C   0  0  0  0  0  0  0  0  0  0  0  0
    0.2103   -3.8897   -0.6957 O   0  0  0  0  0  0  0  0  0  0  0  0
   -0.7670   -2.6263   -2.4181 C   0  0  0  0  0  0  0  0  0  0  0  0
   -0.4564   -2.8221   -3.8765 C   0  0  0  0  0  0  0  0  0  0  0  0
   -2.0464   -2.4522   -2.0159 C   0  0  0  0  0  0  0  0  0  0  0  0
   -2.6187   -2.4877   -0.6146 C   0  0  0  0  0  0  0  0  0  0  0  0
   -3.7218   -1.4311   -0.2190 C   0  0  0  0  0  0  0  0  0  0  0  0
   -4.7768   -2.1772    0.6479 C   0  0  0  0  0  0  0  0  0  0  0  0
   -4.4759   -0.8653   -1.4398 C   0  0  0  0  0  0  0  0  0  0  0  0
   -3.1154   -0.2856    0.6806 C   0  0  2  0  0  0  0  0  0  0  0  0
   -4.1932    0.6158    1.0615 O   0  0  0  0  0  0  0  0  0  0  0  0
   -4.2373    1.0349    2.3515 C   0  0  0  0  0  0  0  0  0  0  0  0
   -5.2920    2.0844    2.5203 C   0  0  0  0  0  0  0  0  0  0  0  0
   -3.4966    0.6460    3.2437 O   0  0  0  0  0  0  0  0  0  0  0  0
   -3.8887    2.9730   -2.6220 H   0  0  0  0  0  0  0  0  0  0  0  0
   -2.3743    3.5716   -3.3456 H   0  0  0  0  0  0  0  0  0  0  0  0
   -2.7836    4.0373   -1.6897 H   0  0  0  0  0  0  0  0  0  0  0  0
   -1.5083   -0.0715   -0.7442 H   0  0  0  0  0  0  0  0  0  0  0  0
   -1.4389    1.5859    1.8245 H   0  0  0  0  0  0  0  0  0  0  0  0
    0.9842    3.7776   -1.1064 H   0  0  0  0  0  0  0  0  0  0  0  0
    1.7881    4.0155    0.4846 H   0  0  0  0  0  0  0  0  0  0  0  0
    0.5531    5.1629   -0.0858 H   0  0  0  0  0  0  0  0  0  0  0  0
   -0.0375    0.7004    3.5999 H   0  0  0  0  0  0  0  0  0  0  0  0
   -1.2017   -0.6088    3.3255 H   0  0  0  0  0  0  0  0  0  0  0  0
    0.5206   -0.9675    3.4675 H   0  0  0  0  0  0  0  0  0  0  0  0
    1.4596   -1.4941    1.4710 H   0  0  0  0  0  0  0  0  0  0  0  0
    0.4607   -0.1593   -1.1163 H   0  0  0  0  0  0  0  0  0  0  0  0
    2.2877    1.2577   -0.7989 H   0  0  0  0  0  0  0  0  0  0  0  0
    4.8528   -1.6620    1.4132 H   0  0  0  0  0  0  0  0  0  0  0  0
    6.4388   -2.4124    3.1434 H   0  0  0  0  0  0  0  0  0  0  0  0
    7.3584   -0.7978    4.7929 H   0  0  0  0  0  0  0  0  0  0  0  0
    6.7137    1.6033    4.6731 H   0  0  0  0  0  0  0  0  0  0  0  0
    5.1407    2.3846    2.9276 H   0  0  0  0  0  0  0  0  0  0  0  0
    4.1389   -0.6993   -1.9538 H   0  0  0  0  0  0  0  0  0  0  0  0
    2.2311    1.2367   -3.3700 H   0  0  0  0  0  0  0  0  0  0  0  0
    3.8586    1.6238   -2.7834 H   0  0  0  0  0  0  0  0  0  0  0  0
    3.6471    0.4351   -4.0781 H   0  0  0  0  0  0  0  0  0  0  0  0
    2.7763   -2.2095   -3.1033 H   0  0  0  0  0  0  0  0  0  0  0  0
    1.4481   -1.0440   -3.2578 H   0  0  0  0  0  0  0  0  0  0  0  0
    2.0848   -3.4368   -0.0933 H   0  0  0  0  0  0  0  0  0  0  0  0
   -0.7899   -1.9607   -4.4689 H   0  0  0  0  0  0  0  0  0  0  0  0
   -0.9673   -3.7232   -4.2481 H   0  0  0  0  0  0  0  0  0  0  0  0
    0.6101   -2.9843   -4.0605 H   0  0  0  0  0  0  0  0  0  0  0  0
   -2.7958   -2.3998   -2.8041 H   0  0  0  0  0  0  0  0  0  0  0  0
   -1.8185   -2.4709    0.1374 H   0  0  0  0  0  0  0  0  0  0  0  0
   -3.0576   -3.4948   -0.5247 H   0  0  0  0  0  0  0  0  0  0  0  0
   -5.2311   -3.0036    0.0908 H   0  0  0  0  0  0  0  0  0  0  0  0
   -4.3256   -2.5987    1.5530 H   0  0  0  0  0  0  0  0  0  0  0  0
   -5.5957   -1.5128    0.9542 H   0  0  0  0  0  0  0  0  0  0  0  0
   -5.2846   -0.1916   -1.1352 H   0  0  0  0  0  0  0  0  0  0  0  0
   -4.9363   -1.6715   -2.0274 H   0  0  0  0  0  0  0  0  0  0  0  0
   -3.8127   -0.3032   -2.1047 H   0  0  0  0  0  0  0  0  0  0  0  0
   -2.7110   -0.7888    1.5660 H   0  0  0  0  0  0  0  0  0  0  0  0
   -4.8541    3.0710    2.3687 H   0  0  0  0  0  0  0  0  0  0  0  0
   -6.1062    1.9291    1.8083 H   0  0  0  0  0  0  0  0  0  0  0  0
   -5.7110    2.0147    3.5287 H   0  0  0  0  0  0  0  0  0  0  0  0
  1  2  1  0
  2  3  2  0
  2  4  1  0
  4  5  1  0
  5  6  1  0
  6  7  1  0
  7  8  1  0
  8  9  1  0
  8 10  2  0
  6 11  1  0
 11 12  1  0
 11 13  2  0
 13 14  1  0
 14 15  1  0
 15 16  1  0
 16 17  1  0
 17 18  2  0
 17 19  1  0
 19 20  2  0
 20 21  1  0
 21 22  2  0
 22 23  1  0
 23 24  2  0
 15 25  1  0
 25 26  1  0
 25 27  1  0
 27 28  1  0
 28 29  1  1
 28 30  1  0
 30 31  2  0
 30 32  1  0
 32 33  1  0
 32 34  2  3
 34 35  1  0
 35 36  1  0
 36 37  1  0
 36 38  1  0
 36 39  1  0
 39 40  1  0
 40 41  1  0
 41 42  1  0
 41 43  2  0
 39  5  1  0
 28 14  1  0
 24 19  1  0
  1 44  1  0
  1 45  1  0
  1 46  1  0
  5 47  1  6
  6 48  1  1
  9 49  1  0
  9 50  1  0
  9 51  1  0
 12 52  1  0
 12 53  1  0
 12 54  1  0
 13 55  1  0
 14 56  1  6
 15 57  1  6
 20 58  1  0
 21 59  1  0
 22 60  1  0
 23 61  1  0
 24 62  1  0
 25 63  1  1
 26 64  1  0
 26 65  1  0
 26 66  1  0
 27 67  1  0
 27 68  1  0
 29 69  1  0
 33 70  1  0
 33 71  1  0
 33 72  1  0
 34 73  1  0
 35 74  1  0
 35 75  1  0
 37 76  1  0
 37 77  1  0
 37 78  1  0
 38 79  1  0
 38 80  1  0
 38 81  1  0
 39 82  1  1
 42 83  1  0
 42 84  1  0
 42 85  1  0
M  END
$$$$
