
     RDKit          3D

 56 58  0  0  0  0  0  0  0  0999 V2000
    5.8530   -3.9708   -1.3214 C   0  0  0  0  0  0  0  0  0  0  0  0
    4.7842   -3.2438   -1.9116 O   0  0  0  0  0  0  0  0  0  0  0  0
    4.4223   -2.0729   -1.3004 C   0  0  0  0  0  0  0  0  0  0  0  0
    5.1579   -1.4107   -0.3166 C   0  0  0  0  0  0  0  0  0  0  0  0
    4.6937   -0.2075    0.2239 C   0  0  0  0  0  0  0  0  0  0  0  0
    3.4862    0.3384   -0.2132 C   0  0  0  0  0  0  0  0  0  0  0  0
    2.9347    1.5099    0.2548 O   0  0  0  0  0  0  0  0  0  0  0  0
    3.6306    2.1808    1.3015 C   0  0  0  0  0  0  0  0  0  0  0  0
    2.7399   -0.3263   -1.2110 C   0  0  0  0  0  0  0  0  0  0  0  0
    1.5332    0.2895   -1.6091 N   0  0  0  0  0  0  0  0  0  0  0  0
    0.5398   -0.2065   -2.4353 C   0  0  0  0  0  0  0  0  0  0  0  0
    0.5270   -1.3147   -2.9671 O   0  0  0  0  0  0  0  0  0  0  0  0
   -0.5762    0.8031   -2.6787 C   0  0  0  0  0  0  0  0  0  0  0  0
   -2.1597    0.2737   -1.9745 S   0  0  0  0  0  0  0  0  0  0  0  0
   -1.8702    0.6113   -0.2834 C   0  0  0  0  0  0  0  0  0  0  0  0
   -0.8228    0.0649    0.2387 N   0  0  0  0  0  0  0  0  0  0  0  0
   -0.5474    0.2731    1.5887 C   0  0  0  0  0  0  0  0  0  0  0  0
    0.5667   -0.3520    2.1553 C   0  0  0  0  0  0  0  0  0  0  0  0
    0.8784   -0.1628    3.5026 C   0  0  0  0  0  0  0  0  0  0  0  0
    0.0739    0.6558    4.2952 C   0  0  0  0  0  0  0  0  0  0  0  0
   -1.0443    1.2790    3.7405 C   0  0  0  0  0  0  0  0  0  0  0  0
   -1.3496    1.0766    2.3889 C   0  0  0  0  0  0  0  0  0  0  0  0
   -2.5363    1.6873    1.7658 C   0  0  0  0  0  0  0  0  0  0  0  0
   -3.2799    2.3839    2.4539 O   0  0  0  0  0  0  0  0  0  0  0  0
   -2.7541    1.4191    0.4120 N   0  0  0  0  0  0  0  0  0  0  0  0
   -3.9719    2.0232   -0.1632 C   0  0  0  0  0  0  0  0  0  0  0  0
   -5.2443    1.2418    0.2091 C   0  0  0  0  0  0  0  0  0  0  0  0
   -5.3514   -0.0435   -0.4602 N   0  0  0  0  0  0  0  0  0  0  0  0
   -5.7786   -0.1265   -1.7665 C   0  0  0  0  0  0  0  0  0  0  0  0
   -5.7734   -1.5211   -2.3341 C   0  0  0  0  0  0  0  0  0  0  0  0
   -6.1193    0.8521   -2.4240 O   0  0  0  0  0  0  0  0  0  0  0  0
    3.2180   -1.5227   -1.7532 C   0  0  0  0  0  0  0  0  0  0  0  0
    5.6582   -4.1768   -0.2624 H   0  0  0  0  0  0  0  0  0  0  0  0
    6.8017   -3.4427   -1.4483 H   0  0  0  0  0  0  0  0  0  0  0  0
    5.9328   -4.9323   -1.8390 H   0  0  0  0  0  0  0  0  0  0  0  0
    6.1074   -1.7955    0.0388 H   0  0  0  0  0  0  0  0  0  0  0  0
    5.3048    0.2790    0.9785 H   0  0  0  0  0  0  0  0  0  0  0  0
    3.0427    3.0584    1.5867 H   0  0  0  0  0  0  0  0  0  0  0  0
    4.6091    2.5326    0.9596 H   0  0  0  0  0  0  0  0  0  0  0  0
    3.7237    1.5412    2.1873 H   0  0  0  0  0  0  0  0  0  0  0  0
    1.3243    1.1269   -1.0721 H   0  0  0  0  0  0  0  0  0  0  0  0
   -0.3125    1.7949   -2.2961 H   0  0  0  0  0  0  0  0  0  0  0  0
   -0.6920    0.9053   -3.7627 H   0  0  0  0  0  0  0  0  0  0  0  0
    1.1917   -0.9942    1.5383 H   0  0  0  0  0  0  0  0  0  0  0  0
    1.7460   -0.6624    3.9322 H   0  0  0  0  0  0  0  0  0  0  0  0
    0.3139    0.8010    5.3470 H   0  0  0  0  0  0  0  0  0  0  0  0
   -1.6774    1.9104    4.3599 H   0  0  0  0  0  0  0  0  0  0  0  0
   -4.0637    3.0403    0.2408 H   0  0  0  0  0  0  0  0  0  0  0  0
   -3.8856    2.1378   -1.2463 H   0  0  0  0  0  0  0  0  0  0  0  0
   -5.2917    1.0448    1.2861 H   0  0  0  0  0  0  0  0  0  0  0  0
   -6.1207    1.8406   -0.0611 H   0  0  0  0  0  0  0  0  0  0  0  0
   -4.9142   -0.8512   -0.0331 H   0  0  0  0  0  0  0  0  0  0  0  0
   -4.8954   -1.6478   -2.9722 H   0  0  0  0  0  0  0  0  0  0  0  0
   -6.6817   -1.6675   -2.9244 H   0  0  0  0  0  0  0  0  0  0  0  0
   -5.7549   -2.2751   -1.5430 H   0  0  0  0  0  0  0  0  0  0  0  0
    2.6734   -2.0490   -2.5316 H   0  0  0  0  0  0  0  0  0  0  0  0
  1  2  1  0
  2  3  1  0
  3  4  2  0
  4  5  1  0
  5  6  2  0
  6  7  1  0
  7  8  1  0
  6  9  1  0
  9 10  1  0
 10 11  1  0
 11 12  2  0
 11 13  1  0
 13 14  1  0
 14 15  1  0
 15 16  2  0
 16 17  1  0
 17 18  2  0
 18 19  1  0
 19 20  2  0
 20 21  1  0
 21 22  2  0
 22 23  1  0
 23 24  2  0
 23 25  1  0
 25 26  1  0
 26 27  1  0
 27 28  1  0
 28 29  1  0
 29 30  1  0
 29 31  2  0
  9 32  2  0
 32  3  1  0
 25 15  1  0
 22 17  1  0
  1 33  1  0
  1 34  1  0
  1 35  1  0
  4 36  1  0
  5 37  1  0
  8 38  1  0
  8 39  1  0
  8 40  1  0
 10 41  1  0
 13 42  1  0
 13 43  1  0
 18 44  1  0
 19 45  1  0
 20 46  1  0
 21 47  1  0
 26 48  1  0
 26 49  1  0
 27 50  1  0
 27 51  1  0
 28 52  1  0
 30 53  1  0
 30 54  1  0
 30 55  1  0
 32 56  1  0
M  END
$$$$
