
     RDKit          3D

 47 49  0  0  0  0  0  0  0  0999 V2000
    7.8383   -0.7681   -0.4737 C   0  0  0  0  0  0  0  0  0  0  0  0
    7.5261   -0.1635    0.8865 C   0  0  0  0  0  0  0  0  0  0  0  0
    6.0440    0.0273    1.0871 C   0  0  0  0  0  0  0  0  0  0  0  0
    5.2660   -0.9928    1.6494 C   0  0  0  0  0  0  0  0  0  0  0  0
    3.8911   -0.8182    1.8238 C   0  0  0  0  0  0  0  0  0  0  0  0
    3.2728    0.3682    1.4246 C   0  0  0  0  0  0  0  0  0  0  0  0
    1.8920    0.5352    1.5853 N   0  0  0  0  0  0  0  0  0  0  0  0
    1.1074    0.1812    0.6270 C   0  0  0  0  0  0  0  0  0  0  0  0
    1.4536   -0.3595   -0.5708 N   0  0  0  0  0  0  0  0  0  0  0  0
    0.4481   -0.6645   -1.4406 C   0  0  0  0  0  0  0  0  0  0  0  0
    0.6090   -1.1519   -2.5480 O   0  0  0  0  0  0  0  0  0  0  0  0
   -0.8664   -0.3149   -0.8356 C   0  0  0  0  0  0  0  0  0  0  0  0
   -2.0168   -0.5031   -1.4959 C   0  0  0  0  0  0  0  0  0  0  0  0
   -3.3653   -0.1801   -1.0107 C   0  0  0  0  0  0  0  0  0  0  0  0
   -3.8905   -0.7893    0.1384 C   0  0  0  0  0  0  0  0  0  0  0  0
   -5.1799   -0.4788    0.5669 C   0  0  0  0  0  0  0  0  0  0  0  0
   -5.8073   -0.9933    1.6742 O   0  0  0  0  0  0  0  0  0  0  0  0
   -5.0287   -1.8369    2.5155 C   0  0  0  0  0  0  0  0  0  0  0  0
   -5.9445    0.4315   -0.1774 C   0  0  0  0  0  0  0  0  0  0  0  0
   -7.2180    0.7257    0.2500 O   0  0  0  0  0  0  0  0  0  0  0  0
   -5.4455    1.0409   -1.3343 C   0  0  0  0  0  0  0  0  0  0  0  0
   -6.2875    1.9088   -1.9767 O   0  0  0  0  0  0  0  0  0  0  0  0
   -5.7961    2.5660   -3.1354 C   0  0  0  0  0  0  0  0  0  0  0  0
   -4.1489    0.7238   -1.7462 C   0  0  0  0  0  0  0  0  0  0  0  0
   -0.6260    0.3528    0.7367 S   0  0  0  0  0  0  0  0  0  0  0  0
    4.0477    1.3922    0.8770 C   0  0  0  0  0  0  0  0  0  0  0  0
    5.4228    1.2219    0.7008 C   0  0  0  0  0  0  0  0  0  0  0  0
    7.3662   -1.7496   -0.5901 H   0  0  0  0  0  0  0  0  0  0  0  0
    7.4812   -0.1255   -1.2856 H   0  0  0  0  0  0  0  0  0  0  0  0
    8.9190   -0.8954   -0.5923 H   0  0  0  0  0  0  0  0  0  0  0  0
    8.0398    0.8000    0.9909 H   0  0  0  0  0  0  0  0  0  0  0  0
    7.9260   -0.8075    1.6792 H   0  0  0  0  0  0  0  0  0  0  0  0
    5.7273   -1.9267    1.9631 H   0  0  0  0  0  0  0  0  0  0  0  0
    3.2998   -1.6093    2.2770 H   0  0  0  0  0  0  0  0  0  0  0  0
    2.4126   -0.5347   -0.8252 H   0  0  0  0  0  0  0  0  0  0  0  0
   -1.9887   -0.9121   -2.5058 H   0  0  0  0  0  0  0  0  0  0  0  0
   -3.2786   -1.5047    0.6777 H   0  0  0  0  0  0  0  0  0  0  0  0
   -4.7464   -2.7576    1.9946 H   0  0  0  0  0  0  0  0  0  0  0  0
   -5.6484   -2.1165    3.3729 H   0  0  0  0  0  0  0  0  0  0  0  0
   -4.1477   -1.3111    2.8984 H   0  0  0  0  0  0  0  0  0  0  0  0
   -7.3451    0.1959    1.0591 H   0  0  0  0  0  0  0  0  0  0  0  0
   -6.5859    3.2264   -3.5062 H   0  0  0  0  0  0  0  0  0  0  0  0
   -4.9266    3.1881   -2.8987 H   0  0  0  0  0  0  0  0  0  0  0  0
   -5.5646    1.8472   -3.9282 H   0  0  0  0  0  0  0  0  0  0  0  0
   -3.7230    1.1721   -2.6384 H   0  0  0  0  0  0  0  0  0  0  0  0
    3.5787    2.3296    0.5897 H   0  0  0  0  0  0  0  0  0  0  0  0
    6.0074    2.0308    0.2680 H   0  0  0  0  0  0  0  0  0  0  0  0
  1  2  1  0
  2  3  1  0
  3  4  2  0
  4  5  1  0
  5  6  2  0
  6  7  1  0
  7  8  2  3
  8  9  1  0
  9 10  1  0
 10 11  2  0
 10 12  1  0
 12 13  2  3
 13 14  1  0
 14 15  2  0
 15 16  1  0
 16 17  1  0
 17 18  1  0
 16 19  2  0
 19 20  1  0
 19 21  1  0
 21 22  1  0
 22 23  1  0
 21 24  2  0
 12 25  1  0
  6 26  1  0
 26 27  2  0
 27  3  1  0
 25  8  1  0
 24 14  1  0
  1 28  1  0
  1 29  1  0
  1 30  1  0
  2 31  1  0
  2 32  1  0
  4 33  1  0
  5 34  1  0
  9 35  1  0
 13 36  1  0
 15 37  1  0
 18 38  1  0
 18 39  1  0
 18 40  1  0
 20 41  1  0
 23 42  1  0
 23 43  1  0
 23 44  1  0
 24 45  1  0
 26 46  1  0
 27 47  1  0
M  END
$$$$
