
     RDKit          3D

 60 65  0  0  0  0  0  0  0  0999 V2000
    1.7235   -1.9070    3.3285 O   0  0  0  0  0  0  0  0  0  0  0  0
    2.0983   -1.6633    2.1882 C   0  0  0  0  0  0  0  0  0  0  0  0
    1.2915   -1.0232    1.2548 N   0  0  0  0  0  0  0  0  0  0  0  0
    1.6800   -0.7185   -0.0440 C   0  0  0  0  0  0  0  0  0  0  0  0
    0.6532   -0.0090   -0.9244 C   0  0  0  0  0  0  0  0  0  0  0  0
   -0.4588   -0.9678   -1.3605 C   0  0  0  0  0  0  0  0  0  0  0  0
   -1.4481   -1.3228   -0.2478 C   0  0  0  0  0  0  0  0  0  0  0  0
   -1.5008   -0.2532    0.7849 N   0  0  0  0  0  0  0  0  0  0  0  0
   -2.6988   -0.4464    1.9970 S   0  0  0  0  0  6  0  0  0  0  0  0
   -2.6790   -1.8376    2.3927 O   0  0  0  0  0  0  0  0  0  0  0  0
   -2.5151    0.6145    2.9622 O   0  0  0  0  0  0  0  0  0  0  0  0
   -4.2253   -0.1433    1.1376 C   0  0  0  0  0  0  0  0  0  0  0  0
   -4.9776   -1.2202    0.6540 C   0  0  0  0  0  0  0  0  0  0  0  0
   -6.1835   -0.9772   -0.0058 C   0  0  0  0  0  0  0  0  0  0  0  0
   -6.6365    0.3318   -0.1664 C   0  0  0  0  0  0  0  0  0  0  0  0
   -5.9044    1.3999    0.3655 C   0  0  0  0  0  0  0  0  0  0  0  0
   -4.6949    1.1678    1.0151 C   0  0  0  0  0  0  0  0  0  0  0  0
   -6.3136    2.7056    0.2790 O   0  0  0  0  0  0  0  0  0  0  0  0
   -7.7034    2.7924   -0.0597 C   0  0  0  0  0  0  0  0  0  0  0  0
   -8.0293    1.8611   -1.2158 C   0  0  0  0  0  0  0  0  0  0  0  0
   -7.8175    0.4942   -0.8434 O   0  0  0  0  0  0  0  0  0  0  0  0
   -1.3367    1.1079    0.2288 C   0  0  0  0  0  0  0  0  0  0  0  0
    0.1025    1.2628   -0.2598 C   0  0  0  0  0  0  0  0  0  0  0  0
    2.8475   -1.0173   -0.5473 N   0  0  0  0  0  0  0  0  0  0  0  0
    3.6580   -1.6407    0.3433 C   0  0  0  0  0  0  0  0  0  0  0  0
    3.3904   -1.9868    1.6459 C   0  0  0  0  0  0  0  0  0  0  0  0
    4.4628   -2.6100    2.2065 N   0  0  0  0  0  0  0  0  0  0  0  0
    5.4192   -2.6646    1.2792 N   0  0  0  0  0  0  0  0  0  0  0  0
    4.9436   -2.0626    0.1610 N   0  0  0  0  0  0  0  0  0  0  0  0
    5.7525   -1.9753   -1.0359 C   0  0  0  0  0  0  0  0  0  0  0  0
    6.4624   -0.6462   -1.1273 C   0  0  0  0  0  0  0  0  0  0  0  0
    5.9232    0.3976   -1.8975 C   0  0  0  0  0  0  0  0  0  0  0  0
    6.5744    1.6298   -1.9696 C   0  0  0  0  0  0  0  0  0  0  0  0
    7.7591    1.8221   -1.2691 C   0  0  0  0  0  0  0  0  0  0  0  0
    8.3808    3.0064   -1.3385 F   0  0  0  0  0  0  0  0  0  0  0  0
    8.3045    0.8064   -0.4938 C   0  0  0  0  0  0  0  0  0  0  0  0
    7.6564   -0.4273   -0.4198 C   0  0  0  0  0  0  0  0  0  0  0  0
    0.3669   -0.7687    1.5881 H   0  0  0  0  0  0  0  0  0  0  0  0
    1.1980    0.3023   -1.8270 H   0  0  0  0  0  0  0  0  0  0  0  0
   -0.0384   -1.8903   -1.7795 H   0  0  0  0  0  0  0  0  0  0  0  0
   -1.0166   -0.4917   -2.1783 H   0  0  0  0  0  0  0  0  0  0  0  0
   -1.1240   -2.2526    0.2331 H   0  0  0  0  0  0  0  0  0  0  0  0
   -2.4326   -1.4975   -0.6906 H   0  0  0  0  0  0  0  0  0  0  0  0
   -4.6367   -2.2449    0.7877 H   0  0  0  0  0  0  0  0  0  0  0  0
   -6.7704   -1.8055   -0.3946 H   0  0  0  0  0  0  0  0  0  0  0  0
   -4.1413    2.0037    1.4353 H   0  0  0  0  0  0  0  0  0  0  0  0
   -7.9125    3.8299   -0.3382 H   0  0  0  0  0  0  0  0  0  0  0  0
   -8.2961    2.5510    0.8316 H   0  0  0  0  0  0  0  0  0  0  0  0
   -9.0800    1.9674   -1.5033 H   0  0  0  0  0  0  0  0  0  0  0  0
   -7.4100    2.0811   -2.0940 H   0  0  0  0  0  0  0  0  0  0  0  0
   -1.5337    1.8801    0.9784 H   0  0  0  0  0  0  0  0  0  0  0  0
   -2.0397    1.2596   -0.5988 H   0  0  0  0  0  0  0  0  0  0  0  0
    0.7434    1.5695    0.5767 H   0  0  0  0  0  0  0  0  0  0  0  0
    0.1314    2.0935   -0.9763 H   0  0  0  0  0  0  0  0  0  0  0  0
    6.4751   -2.8000   -1.0256 H   0  0  0  0  0  0  0  0  0  0  0  0
    5.0976   -2.1358   -1.9002 H   0  0  0  0  0  0  0  0  0  0  0  0
    4.9883    0.2590   -2.4376 H   0  0  0  0  0  0  0  0  0  0  0  0
    6.1638    2.4415   -2.5615 H   0  0  0  0  0  0  0  0  0  0  0  0
    9.2255    0.9825    0.0527 H   0  0  0  0  0  0  0  0  0  0  0  0
    8.0815   -1.2143    0.2017 H   0  0  0  0  0  0  0  0  0  0  0  0
  1  2  2  0
  2  3  1  0
  3  4  1  0
  4  5  1  0
  5  6  1  0
  6  7  1  0
  7  8  1  0
  8  9  1  0
  9 10  2  0
  9 11  2  0
  9 12  1  0
 12 13  2  0
 13 14  1  0
 14 15  2  0
 15 16  1  0
 16 17  2  0
 16 18  1  0
 18 19  1  0
 19 20  1  0
 20 21  1  0
  8 22  1  0
 22 23  1  0
  4 24  2  0
 24 25  1  0
 25 26  2  0
 26 27  1  0
 27 28  2  0
 28 29  1  0
 29 30  1  0
 30 31  1  0
 31 32  2  0
 32 33  1  0
 33 34  2  0
 34 35  1  0
 34 36  1  0
 36 37  2  0
 26  2  1  0
 37 31  1  0
 23  5  1  0
 29 25  1  0
 17 12  1  0
 21 15  1  0
  3 38  1  0
  5 39  1  0
  6 40  1  0
  6 41  1  0
  7 42  1  0
  7 43  1  0
 13 44  1  0
 14 45  1  0
 17 46  1  0
 19 47  1  0
 19 48  1  0
 20 49  1  0
 20 50  1  0
 22 51  1  0
 22 52  1  0
 23 53  1  0
 23 54  1  0
 30 55  1  0
 30 56  1  0
 32 57  1  0
 33 58  1  0
 36 59  1  0
 37 60  1  0
M  END
$$$$
