
     RDKit          3D

 73 75  0  0  0  0  0  0  0  0999 V2000
   -2.8751    0.0658    0.8994 C   0  0  0  0  0  0  0  0  0  0  0  0
   -2.6351    0.5429   -0.5293 C   0  0  0  0  0  0  0  0  0  0  0  0
   -1.8062   -0.4080   -1.4123 C   0  0  0  0  0  0  0  0  0  0  0  0
   -0.1356   -0.7772   -0.7635 S   0  0  0  0  0  0  0  0  0  0  0  0
    0.5626    0.8275   -0.7684 C   0  0  0  0  0  0  0  0  0  0  0  0
    0.3544    1.5579   -1.8142 N   0  0  0  0  0  0  0  0  0  0  0  0
    0.9108    2.8393   -1.8577 C   0  0  0  0  0  0  0  0  0  0  0  0
    0.6626    3.6429   -2.9728 C   0  0  0  0  0  0  0  0  0  0  0  0
    1.2004    4.9331   -3.0596 C   0  0  0  0  0  0  0  0  0  0  0  0
    1.0015    5.7850   -4.1178 O   0  0  0  0  0  0  0  0  0  0  0  0
    0.2794    5.2911   -5.2377 C   0  0  0  0  0  0  0  0  0  0  0  0
    1.9993    5.4297   -2.0081 C   0  0  0  0  0  0  0  0  0  0  0  0
    2.4849    6.7034   -2.1685 O   0  0  0  0  0  0  0  0  0  0  0  0
    3.2732    7.2480   -1.1182 C   0  0  0  0  0  0  0  0  0  0  0  0
    2.2507    4.6240   -0.8956 C   0  0  0  0  0  0  0  0  0  0  0  0
    1.7036    3.3374   -0.8322 C   0  0  0  0  0  0  0  0  0  0  0  0
    1.9458    2.4658    0.3296 C   0  0  0  0  0  0  0  0  0  0  0  0
    2.6884    2.8589    1.2269 O   0  0  0  0  0  0  0  0  0  0  0  0
    1.3074    1.2271    0.3293 N   0  0  0  0  0  0  0  0  0  0  0  0
    1.5362    0.3850    1.5116 C   0  0  0  0  0  0  0  0  0  0  0  0
    2.7811   -0.4962    1.3560 C   0  0  0  0  0  0  0  0  0  0  0  0
    2.9236   -1.4500    2.5156 C   0  0  0  0  0  0  0  0  0  0  0  0
    3.6821   -1.0978    3.6350 C   0  0  0  0  0  0  0  0  0  0  0  0
    3.7885   -1.9719    4.7198 C   0  0  0  0  0  0  0  0  0  0  0  0
    3.1327   -3.2081    4.7030 C   0  0  0  0  0  0  0  0  0  0  0  0
    3.1770   -4.1237    5.7258 O   0  0  0  0  0  0  0  0  0  0  0  0
    3.9880   -3.8145    6.8499 C   0  0  0  0  0  0  0  0  0  0  0  0
    2.3571   -3.5674    3.5824 C   0  0  0  0  0  0  0  0  0  0  0  0
    1.7396   -4.7935    3.6425 O   0  0  0  0  0  0  0  0  0  0  0  0
    0.8746   -5.1470    2.5720 C   0  0  0  0  0  0  0  0  0  0  0  0
    2.2608   -2.6871    2.4978 C   0  0  0  0  0  0  0  0  0  0  0  0
   -2.5817   -1.7130   -1.6525 C   0  0  0  0  0  0  0  0  0  0  0  0
   -2.3981   -2.7528   -1.0259 O   0  0  0  0  0  0  0  0  0  0  0  0
   -3.5725   -1.5988   -2.6146 N   0  0  0  0  0  0  0  0  0  0  0  0
   -4.3721   -2.7426   -3.0186 C   0  0  0  0  0  0  0  0  0  0  0  0
   -5.3711   -3.1986   -1.9489 C   0  0  0  0  0  0  0  0  0  0  0  0
   -6.3207   -4.1188   -2.4929 O   0  0  0  0  0  0  0  0  0  0  0  0
   -7.4580   -3.4742   -3.0511 C   0  0  0  0  0  0  0  0  0  0  0  0
   -3.5095    0.7860    1.4265 H   0  0  0  0  0  0  0  0  0  0  0  0
   -1.9424   -0.0210    1.4636 H   0  0  0  0  0  0  0  0  0  0  0  0
   -3.3869   -0.9010    0.9184 H   0  0  0  0  0  0  0  0  0  0  0  0
   -3.6143    0.7055   -0.9991 H   0  0  0  0  0  0  0  0  0  0  0  0
   -2.1576    1.5304   -0.4899 H   0  0  0  0  0  0  0  0  0  0  0  0
   -1.6695    0.0578   -2.3960 H   0  0  0  0  0  0  0  0  0  0  0  0
    0.0422    3.2310   -3.7611 H   0  0  0  0  0  0  0  0  0  0  0  0
    0.2518    6.0811   -5.9941 H   0  0  0  0  0  0  0  0  0  0  0  0
    0.7799    4.4246   -5.6815 H   0  0  0  0  0  0  0  0  0  0  0  0
   -0.7551    5.0561   -4.9660 H   0  0  0  0  0  0  0  0  0  0  0  0
    4.1916    6.6697   -0.9745 H   0  0  0  0  0  0  0  0  0  0  0  0
    2.6982    7.3176   -0.1889 H   0  0  0  0  0  0  0  0  0  0  0  0
    3.5622    8.2627   -1.4082 H   0  0  0  0  0  0  0  0  0  0  0  0
    2.8638    4.9680   -0.0689 H   0  0  0  0  0  0  0  0  0  0  0  0
    1.6533    1.0289    2.3931 H   0  0  0  0  0  0  0  0  0  0  0  0
    0.6481   -0.2210    1.7171 H   0  0  0  0  0  0  0  0  0  0  0  0
    2.7437   -1.0681    0.4202 H   0  0  0  0  0  0  0  0  0  0  0  0
    3.6800    0.1289    1.2779 H   0  0  0  0  0  0  0  0  0  0  0  0
    4.1958   -0.1385    3.6734 H   0  0  0  0  0  0  0  0  0  0  0  0
    4.3875   -1.6550    5.5673 H   0  0  0  0  0  0  0  0  0  0  0  0
    5.0370   -3.6941    6.5607 H   0  0  0  0  0  0  0  0  0  0  0  0
    3.6169   -2.9258    7.3712 H   0  0  0  0  0  0  0  0  0  0  0  0
    3.9298   -4.6554    7.5478 H   0  0  0  0  0  0  0  0  0  0  0  0
    1.4304   -5.2497    1.6341 H   0  0  0  0  0  0  0  0  0  0  0  0
    0.0543   -4.4287    2.4715 H   0  0  0  0  0  0  0  0  0  0  0  0
    0.4342   -6.1213    2.8044 H   0  0  0  0  0  0  0  0  0  0  0  0
    1.6722   -2.9435    1.6218 H   0  0  0  0  0  0  0  0  0  0  0  0
   -3.5665   -0.7929   -3.2254 H   0  0  0  0  0  0  0  0  0  0  0  0
   -3.7022   -3.5697   -3.2811 H   0  0  0  0  0  0  0  0  0  0  0  0
   -4.8931   -2.4542   -3.9371 H   0  0  0  0  0  0  0  0  0  0  0  0
   -4.8389   -3.7216   -1.1475 H   0  0  0  0  0  0  0  0  0  0  0  0
   -5.8831   -2.3453   -1.4869 H   0  0  0  0  0  0  0  0  0  0  0  0
   -7.1697   -2.7996   -3.8625 H   0  0  0  0  0  0  0  0  0  0  0  0
   -8.1217   -4.2423   -3.4587 H   0  0  0  0  0  0  0  0  0  0  0  0
   -8.0021   -2.9232   -2.2777 H   0  0  0  0  0  0  0  0  0  0  0  0
  1  2  1  0
  2  3  1  0
  3  4  1  0
  4  5  1  0
  5  6  2  0
  6  7  1  0
  7  8  2  0
  8  9  1  0
  9 10  1  0
 10 11  1  0
  9 12  2  0
 12 13  1  0
 13 14  1  0
 12 15  1  0
 15 16  2  0
 16 17  1  0
 17 18  2  0
 17 19  1  0
 19 20  1  0
 20 21  1  0
 21 22  1  0
 22 23  2  0
 23 24  1  0
 24 25  2  0
 25 26  1  0
 26 27  1  0
 25 28  1  0
 28 29  1  0
 29 30  1  0
 28 31  2  0
  3 32  1  0
 32 33  2  0
 32 34  1  0
 34 35  1  0
 35 36  1  0
 36 37  1  0
 37 38  1  0
 19  5  1  0
 31 22  1  0
 16  7  1  0
  1 39  1  0
  1 40  1  0
  1 41  1  0
  2 42  1  0
  2 43  1  0
  3 44  1  0
  8 45  1  0
 11 46  1  0
 11 47  1  0
 11 48  1  0
 14 49  1  0
 14 50  1  0
 14 51  1  0
 15 52  1  0
 20 53  1  0
 20 54  1  0
 21 55  1  0
 21 56  1  0
 23 57  1  0
 24 58  1  0
 27 59  1  0
 27 60  1  0
 27 61  1  0
 30 62  1  0
 30 63  1  0
 30 64  1  0
 31 65  1  0
 34 66  1  0
 35 67  1  0
 35 68  1  0
 36 69  1  0
 36 70  1  0
 38 71  1  0
 38 72  1  0
 38 73  1  0
M  END
$$$$
