
     RDKit          3D

 51 54  0  0  0  0  0  0  0  0999 V2000
   -3.8196   -4.3432    2.2310 C   0  0  0  0  0  0  0  0  0  0  0  0
   -2.4072   -4.3351    2.0556 O   0  0  0  0  0  0  0  0  0  0  0  0
   -1.8126   -3.1264    1.8151 C   0  0  0  0  0  0  0  0  0  0  0  0
   -2.4830   -1.9198    1.6383 C   0  0  0  0  0  0  0  0  0  0  0  0
   -1.7617   -0.7338    1.3982 C   0  0  0  0  0  0  0  0  0  0  0  0
   -2.5019    0.5235    1.2045 C   0  0  0  0  0  0  0  0  0  0  0  0
   -3.7190    0.5291    1.3792 O   0  0  0  0  0  0  0  0  0  0  0  0
   -1.7569    1.6383    0.8558 N   0  0  0  0  0  0  0  0  0  0  0  0
   -2.4817    2.8600    0.5361 C   0  0  0  0  0  0  0  0  0  0  0  0
   -2.6315    2.9735   -0.9433 C   0  0  0  0  0  0  0  0  0  0  0  0
   -1.8427    3.5217   -1.9358 C   0  0  0  0  0  0  0  0  0  0  0  0
   -2.5284    3.3070   -3.1561 C   0  0  0  0  0  0  0  0  0  0  0  0
   -3.6895    2.6440   -2.8319 C   0  0  0  0  0  0  0  0  0  0  0  0
   -3.7622    2.4394   -1.4915 O   0  0  0  0  0  0  0  0  0  0  0  0
   -0.3728    1.6842    0.8176 C   0  0  0  0  0  0  0  0  0  0  0  0
    0.2393    2.7232    0.5513 O   0  0  0  0  0  0  0  0  0  0  0  0
    0.3093    0.5073    1.1108 N   0  0  0  0  0  0  0  0  0  0  0  0
    1.7723    0.5682    1.0490 C   0  0  0  0  0  0  0  0  0  0  0  0
    2.2772    0.2424   -0.3562 C   0  0  0  0  0  0  0  0  0  0  0  0
    1.7477   -0.6090   -1.0704 O   0  0  0  0  0  0  0  0  0  0  0  0
    3.4844    0.9487   -0.8732 C   0  0  0  0  0  0  0  0  0  0  0  0
    4.4263    1.5453   -0.0254 C   0  0  0  0  0  0  0  0  0  0  0  0
    5.5493    2.1811   -0.5643 C   0  0  0  0  0  0  0  0  0  0  0  0
    5.7407    2.2159   -1.9456 C   0  0  0  0  0  0  0  0  0  0  0  0
    4.8086    1.6133   -2.7874 C   0  0  0  0  0  0  0  0  0  0  0  0
    5.0751    1.6539   -4.6601 Br  0  0  0  0  0  0  0  0  0  0  0  0
    3.6849    0.9797   -2.2611 C   0  0  0  0  0  0  0  0  0  0  0  0
   -0.3683   -0.7213    1.3421 C   0  0  0  0  0  0  0  0  0  0  0  0
    0.3014   -1.9380    1.5178 C   0  0  0  0  0  0  0  0  0  0  0  0
   -0.4158   -3.1220    1.7300 C   0  0  0  0  0  0  0  0  0  0  0  0
    0.3056   -4.2759    1.9182 O   0  0  0  0  0  0  0  0  0  0  0  0
    0.4404   -4.9703    0.6757 C   0  0  0  0  0  0  0  0  0  0  0  0
   -4.1222   -5.3691    2.4624 H   0  0  0  0  0  0  0  0  0  0  0  0
   -4.1182   -3.7104    3.0743 H   0  0  0  0  0  0  0  0  0  0  0  0
   -4.3324   -4.0454    1.3095 H   0  0  0  0  0  0  0  0  0  0  0  0
   -3.5675   -1.8667    1.6747 H   0  0  0  0  0  0  0  0  0  0  0  0
   -3.4677    2.8664    1.0146 H   0  0  0  0  0  0  0  0  0  0  0  0
   -1.9361    3.7299    0.9217 H   0  0  0  0  0  0  0  0  0  0  0  0
   -0.8857    4.0067   -1.7901 H   0  0  0  0  0  0  0  0  0  0  0  0
   -2.2149    3.5948   -4.1499 H   0  0  0  0  0  0  0  0  0  0  0  0
   -4.5236    2.2650   -3.4078 H   0  0  0  0  0  0  0  0  0  0  0  0
    2.0864    1.5779    1.3316 H   0  0  0  0  0  0  0  0  0  0  0  0
    2.2291   -0.1082    1.7767 H   0  0  0  0  0  0  0  0  0  0  0  0
    4.3227    1.5194    1.0557 H   0  0  0  0  0  0  0  0  0  0  0  0
    6.2815    2.6443    0.0940 H   0  0  0  0  0  0  0  0  0  0  0  0
    6.6200    2.7091   -2.3552 H   0  0  0  0  0  0  0  0  0  0  0  0
    2.9630    0.5086   -2.9254 H   0  0  0  0  0  0  0  0  0  0  0  0
    1.3816   -2.0194    1.4696 H   0  0  0  0  0  0  0  0  0  0  0  0
    0.8669   -5.9550    0.8888 H   0  0  0  0  0  0  0  0  0  0  0  0
   -0.5238   -5.1180    0.1720 H   0  0  0  0  0  0  0  0  0  0  0  0
    1.1333   -4.4348    0.0117 H   0  0  0  0  0  0  0  0  0  0  0  0
  1  2  1  0
  2  3  1  0
  3  4  2  0
  4  5  1  0
  5  6  1  0
  6  7  2  0
  6  8  1  0
  8  9  1  0
  9 10  1  0
 10 11  2  0
 11 12  1  0
 12 13  2  0
 13 14  1  0
  8 15  1  0
 15 16  2  0
 15 17  1  0
 17 18  1  0
 18 19  1  0
 19 20  2  0
 19 21  1  0
 21 22  2  0
 22 23  1  0
 23 24  2  0
 24 25  1  0
 25 26  1  0
 25 27  2  0
 17 28  1  0
 28 29  1  0
 29 30  2  0
 30 31  1  0
 31 32  1  0
 30  3  1  0
 28  5  2  0
 14 10  1  0
 27 21  1  0
  1 33  1  0
  1 34  1  0
  1 35  1  0
  4 36  1  0
  9 37  1  0
  9 38  1  0
 11 39  1  0
 12 40  1  0
 13 41  1  0
 18 42  1  0
 18 43  1  0
 22 44  1  0
 23 45  1  0
 24 46  1  0
 27 47  1  0
 29 48  1  0
 32 49  1  0
 32 50  1  0
 32 51  1  0
M  END
$$$$
