
     RDKit          3D

 49 52  0  0  0  0  0  0  0  0999 V2000
    0.8445    1.8624    1.6288 O   0  0  0  0  0  0  0  0  0  0  0  0
    0.2200    2.3328    0.6955 C   0  0  0  0  0  0  0  0  0  0  0  0
    0.7823    3.0289   -0.3070 O   0  0  0  0  0  0  0  0  0  0  0  0
   -1.2353    2.2809    0.5314 C   0  0  0  0  0  0  0  0  0  0  0  0
   -1.9689    3.2429    1.2473 C   0  0  0  0  0  0  0  0  0  0  0  0
   -3.3489    3.3303    1.0854 C   0  0  0  0  0  0  0  0  0  0  0  0
   -3.9869    2.4744    0.1940 C   0  0  0  0  0  0  0  0  0  0  0  0
   -3.2467    1.5127   -0.5148 C   0  0  0  0  0  0  0  0  0  0  0  0
   -3.9497    0.6624   -1.4983 C   0  0  0  0  0  0  0  0  0  0  0  0
   -5.1755    0.6922   -1.5913 O   0  0  0  0  0  0  0  0  0  0  0  0
   -3.1382   -0.1841   -2.3964 C   0  0  0  0  0  0  0  0  0  0  0  0
   -3.7545   -0.8312   -3.4764 C   0  0  0  0  0  0  0  0  0  0  0  0
   -2.9893   -1.5965   -4.3535 C   0  0  0  0  0  0  0  0  0  0  0  0
   -1.6143   -1.6995   -4.1566 C   0  0  0  0  0  0  0  0  0  0  0  0
   -1.0075   -1.0573   -3.0711 C   0  0  0  0  0  0  0  0  0  0  0  0
   -1.7617   -0.3121   -2.1528 C   0  0  0  0  0  0  0  0  0  0  0  0
   -1.1511    0.3259   -1.0296 N   0  0  0  0  0  0  0  0  0  0  0  0
   -0.5881   -0.7004   -0.0765 C   0  0  0  0  0  0  0  0  0  0  0  0
    0.9498   -0.8235   -0.1542 C   0  0  0  0  0  0  0  0  0  0  0  0
    1.3432   -1.7927   -1.1390 O   0  0  0  0  0  0  0  0  0  0  0  0
    1.5332   -1.3098    1.1953 C   0  0  0  0  0  0  0  0  0  0  0  0
    2.9986   -1.5325    1.0707 N   0  0  0  0  0  0  0  0  0  0  0  0
    3.5130   -2.3416    2.1914 C   0  0  0  0  0  0  0  0  0  0  0  0
    3.7020   -1.3726    3.3443 C   0  0  0  0  0  0  0  0  0  0  0  0
    3.9894   -0.0346    2.6768 C   0  0  0  0  0  0  0  0  0  0  0  0
    3.7487   -0.2652    1.1889 C   0  0  0  0  0  0  0  0  0  0  0  0
   -1.8578    1.3584   -0.3323 C   0  0  0  0  0  0  0  0  0  0  0  0
    1.7466    3.0266   -0.1369 H   0  0  0  0  0  0  0  0  0  0  0  0
   -1.4562    3.9374    1.9128 H   0  0  0  0  0  0  0  0  0  0  0  0
   -3.9204    4.0785    1.6285 H   0  0  0  0  0  0  0  0  0  0  0  0
   -5.0584    2.5655    0.0340 H   0  0  0  0  0  0  0  0  0  0  0  0
   -4.8251   -0.7288   -3.6386 H   0  0  0  0  0  0  0  0  0  0  0  0
   -3.4623   -2.0977   -5.1951 H   0  0  0  0  0  0  0  0  0  0  0  0
   -1.0049   -2.2757   -4.8512 H   0  0  0  0  0  0  0  0  0  0  0  0
    0.0696   -1.1292   -2.9682 H   0  0  0  0  0  0  0  0  0  0  0  0
   -1.0469   -1.6834   -0.2543 H   0  0  0  0  0  0  0  0  0  0  0  0
   -0.8680   -0.4355    0.9523 H   0  0  0  0  0  0  0  0  0  0  0  0
    1.3958    0.1269   -0.4533 H   0  0  0  0  0  0  0  0  0  0  0  0
    2.2688   -2.0191   -0.8958 H   0  0  0  0  0  0  0  0  0  0  0  0
    1.2818   -0.6284    2.0132 H   0  0  0  0  0  0  0  0  0  0  0  0
    1.0605   -2.2757    1.4197 H   0  0  0  0  0  0  0  0  0  0  0  0
    4.4870   -2.7608    1.8979 H   0  0  0  0  0  0  0  0  0  0  0  0
    2.8694   -3.1924    2.4537 H   0  0  0  0  0  0  0  0  0  0  0  0
    4.5140   -1.6830    4.0132 H   0  0  0  0  0  0  0  0  0  0  0  0
    2.7842   -1.3019    3.9420 H   0  0  0  0  0  0  0  0  0  0  0  0
    5.0207    0.2888    2.8607 H   0  0  0  0  0  0  0  0  0  0  0  0
    3.3183    0.7351    3.0720 H   0  0  0  0  0  0  0  0  0  0  0  0
    3.2602    0.5927    0.7127 H   0  0  0  0  0  0  0  0  0  0  0  0
    4.7150   -0.3904    0.6807 H   0  0  0  0  0  0  0  0  0  0  0  0
  1  2  2  0
  2  3  1  0
  2  4  1  0
  4  5  2  0
  5  6  1  0
  6  7  2  0
  7  8  1  0
  8  9  1  0
  9 10  2  0
  9 11  1  0
 11 12  2  0
 12 13  1  0
 13 14  2  0
 14 15  1  0
 15 16  2  0
 16 17  1  0
 17 18  1  0
 18 19  1  0
 19 20  1  0
 19 21  1  0
 21 22  1  0
 22 23  1  0
 23 24  1  0
 24 25  1  0
 25 26  1  0
 17 27  1  0
 27  4  1  0
 27  8  2  0
 16 11  1  0
 26 22  1  0
  3 28  1  0
  5 29  1  0
  6 30  1  0
  7 31  1  0
 12 32  1  0
 13 33  1  0
 14 34  1  0
 15 35  1  0
 18 36  1  0
 18 37  1  0
 19 38  1  0
 20 39  1  0
 21 40  1  0
 21 41  1  0
 23 42  1  0
 23 43  1  0
 24 44  1  0
 24 45  1  0
 25 46  1  0
 25 47  1  0
 26 48  1  0
 26 49  1  0
M  END
$$$$
