
     RDKit          3D

 58 60  0  0  0  0  0  0  0  0999 V2000
    0.3161   -2.2114    0.5188 C   0  0  0  0  0  0  0  0  0  0  0  0
   -0.9799   -1.5912    0.0638 C   0  0  0  0  0  0  0  0  0  0  0  0
   -2.0443   -2.4505   -0.2663 C   0  0  0  0  0  0  0  0  0  0  0  0
   -3.2671   -1.9401   -0.6933 C   0  0  0  0  0  0  0  0  0  0  0  0
   -3.4294   -0.5606   -0.7983 C   0  0  0  0  0  0  0  0  0  0  0  0
   -4.9695    0.0891   -1.3967 S   0  0  0  0  0  6  0  0  0  0  0  0
   -5.5963   -0.9438   -2.1964 O   0  0  0  0  0  0  0  0  0  0  0  0
   -4.7410    1.4079   -1.9468 O   0  0  0  0  0  0  0  0  0  0  0  0
   -5.8908    0.2695    0.0297 N   0  0  0  0  0  0  0  0  0  0  0  0
   -5.3130    1.2056    1.0535 C   0  0  0  0  0  0  0  0  0  0  0  0
   -6.3958    1.6591    2.0385 C   0  0  0  0  0  0  0  0  0  0  0  0
   -7.4516    2.4015    1.4130 O   0  0  0  0  0  0  0  0  0  0  0  0
   -7.6711    2.0271    0.0451 C   0  0  0  0  0  0  0  0  0  0  0  0
   -7.3435    0.5573   -0.2294 C   0  0  0  0  0  0  0  0  0  0  0  0
   -2.3779    0.3107   -0.4939 C   0  0  0  0  0  0  0  0  0  0  0  0
   -1.1522   -0.1915   -0.0434 C   0  0  0  0  0  0  0  0  0  0  0  0
   -0.0716    0.6543    0.2948 N   0  0  0  0  0  0  0  0  0  0  0  0
   -0.0703    2.0338    0.4135 C   0  0  0  0  0  0  0  0  0  0  0  0
   -1.0457    2.7716    0.3040 O   0  0  0  0  0  0  0  0  0  0  0  0
    1.3108    2.6074    0.7595 C   0  0  0  0  0  0  0  0  0  0  0  0
    2.2523    2.5640   -0.3132 O   0  0  0  0  0  0  0  0  0  0  0  0
    2.8858    1.3728   -0.4908 C   0  0  0  0  0  0  0  0  0  0  0  0
    2.6223    0.3506    0.1359 O   0  0  0  0  0  0  0  0  0  0  0  0
    3.8936    1.4728   -1.6292 C   0  0  0  0  0  0  0  0  0  0  0  0
    4.8177    0.3496   -1.6074 N   0  0  0  0  0  0  0  0  0  0  0  0
    5.9195    0.3911   -0.7764 C   0  0  0  0  0  0  0  0  0  0  0  0
    6.2174    1.3793   -0.1154 O   0  0  0  0  0  0  0  0  0  0  0  0
    6.7168   -0.8620   -0.6725 C   0  0  0  0  0  0  0  0  0  0  0  0
    7.4414   -1.0959    0.5026 C   0  0  0  0  0  0  0  0  0  0  0  0
    8.2001   -2.2599    0.6391 C   0  0  0  0  0  0  0  0  0  0  0  0
    8.2451   -3.1884   -0.4005 C   0  0  0  0  0  0  0  0  0  0  0  0
    7.5383   -2.9531   -1.5800 C   0  0  0  0  0  0  0  0  0  0  0  0
    6.7765   -1.7904   -1.7203 C   0  0  0  0  0  0  0  0  0  0  0  0
    0.6059   -1.8188    1.4987 H   0  0  0  0  0  0  0  0  0  0  0  0
    1.1069   -2.0106   -0.2107 H   0  0  0  0  0  0  0  0  0  0  0  0
    0.2295   -3.2988    0.6205 H   0  0  0  0  0  0  0  0  0  0  0  0
   -1.9248   -3.5301   -0.1927 H   0  0  0  0  0  0  0  0  0  0  0  0
   -4.0793   -2.6175   -0.9484 H   0  0  0  0  0  0  0  0  0  0  0  0
   -4.5252    0.6826    1.6046 H   0  0  0  0  0  0  0  0  0  0  0  0
   -4.8862    2.0866    0.5625 H   0  0  0  0  0  0  0  0  0  0  0  0
   -6.8451    0.7958    2.5430 H   0  0  0  0  0  0  0  0  0  0  0  0
   -5.9594    2.2988    2.8121 H   0  0  0  0  0  0  0  0  0  0  0  0
   -7.0675    2.6879   -0.5874 H   0  0  0  0  0  0  0  0  0  0  0  0
   -8.7229    2.2280   -0.1818 H   0  0  0  0  0  0  0  0  0  0  0  0
   -7.9232   -0.0925    0.4373 H   0  0  0  0  0  0  0  0  0  0  0  0
   -7.6278    0.2991   -1.2541 H   0  0  0  0  0  0  0  0  0  0  0  0
   -2.5362    1.3763   -0.6303 H   0  0  0  0  0  0  0  0  0  0  0  0
    0.8178    0.1984    0.4979 H   0  0  0  0  0  0  0  0  0  0  0  0
    1.7051    2.1137    1.6566 H   0  0  0  0  0  0  0  0  0  0  0  0
    1.1763    3.6620    1.0248 H   0  0  0  0  0  0  0  0  0  0  0  0
    3.3548    1.4421   -2.5803 H   0  0  0  0  0  0  0  0  0  0  0  0
    4.4540    2.4091   -1.5425 H   0  0  0  0  0  0  0  0  0  0  0  0
    4.4393   -0.5614   -1.8333 H   0  0  0  0  0  0  0  0  0  0  0  0
    7.4141   -0.3724    1.3151 H   0  0  0  0  0  0  0  0  0  0  0  0
    8.7587   -2.4386    1.5545 H   0  0  0  0  0  0  0  0  0  0  0  0
    8.8407   -4.0921   -0.2946 H   0  0  0  0  0  0  0  0  0  0  0  0
    7.5902   -3.6719   -2.3945 H   0  0  0  0  0  0  0  0  0  0  0  0
    6.2614   -1.6119   -2.6596 H   0  0  0  0  0  0  0  0  0  0  0  0
  1  2  1  0
  2  3  2  0
  3  4  1  0
  4  5  2  0
  5  6  1  0
  6  7  2  0
  6  8  2  0
  6  9  1  0
  9 10  1  0
 10 11  1  0
 11 12  1  0
 12 13  1  0
 13 14  1  0
  5 15  1  0
 15 16  2  0
 16 17  1  0
 17 18  1  0
 18 19  2  0
 18 20  1  0
 20 21  1  0
 21 22  1  0
 22 23  2  0
 22 24  1  0
 24 25  1  0
 25 26  1  0
 26 27  2  0
 26 28  1  0
 28 29  2  0
 29 30  1  0
 30 31  2  0
 31 32  1  0
 32 33  2  0
 16  2  1  0
 33 28  1  0
 14  9  1  0
  1 34  1  0
  1 35  1  0
  1 36  1  0
  3 37  1  0
  4 38  1  0
 10 39  1  0
 10 40  1  0
 11 41  1  0
 11 42  1  0
 13 43  1  0
 13 44  1  0
 14 45  1  0
 14 46  1  0
 15 47  1  0
 17 48  1  0
 20 49  1  0
 20 50  1  0
 24 51  1  0
 24 52  1  0
 25 53  1  0
 29 54  1  0
 30 55  1  0
 31 56  1  0
 32 57  1  0
 33 58  1  0
M  END
$$$$
