
     RDKit          3D

 46 49  0  0  0  0  0  0  0  0999 V2000
    2.4162   -0.7146    3.9878 O   0  0  0  0  0  0  0  0  0  0  0  0
    1.7354    0.0768    3.3413 C   0  0  0  0  0  0  0  0  0  0  0  0
    0.3595   -0.3131    2.8277 C   0  0  0  0  0  0  0  0  0  0  0  0
    0.4871   -0.7795    1.0759 S   0  0  0  0  0  0  0  0  0  0  0  0
   -1.1749   -1.0905    0.7248 C   0  0  0  0  0  0  0  0  0  0  0  0
   -2.1930   -0.7470    1.4748 N   0  0  0  0  0  0  0  0  0  0  0  0
   -3.3353   -1.1668    0.8435 N   0  0  0  0  0  0  0  0  0  0  0  0
   -2.9951   -1.7550   -0.2887 C   0  0  0  0  0  0  0  0  0  0  0  0
   -3.9489   -2.3753   -1.2589 C   0  0  0  0  0  0  0  0  0  0  0  0
   -4.0431   -1.6496   -2.5717 C   0  0  0  0  0  0  0  0  0  0  0  0
   -3.6733   -2.0980   -3.8259 C   0  0  0  0  0  0  0  0  0  0  0  0
   -3.9111   -1.1282   -4.8421 C   0  0  0  0  0  0  0  0  0  0  0  0
   -4.4717    0.0219   -4.3358 C   0  0  0  0  0  0  0  0  0  0  0  0
   -4.7144   -0.0718   -2.6472 S   0  0  0  0  0  0  0  0  0  0  0  0
   -1.6203   -1.7258   -0.4031 N   0  0  0  0  0  0  0  0  0  0  0  0
   -0.8156   -2.3032   -1.4619 C   0  0  0  0  0  0  0  0  0  0  0  0
   -0.4565   -1.3151   -2.5109 C   0  0  0  0  0  0  0  0  0  0  0  0
   -0.6616    0.0387   -2.6959 C   0  0  0  0  0  0  0  0  0  0  0  0
   -0.0617    0.3723   -3.9335 C   0  0  0  0  0  0  0  0  0  0  0  0
    0.4737   -0.7931   -4.4261 C   0  0  0  0  0  0  0  0  0  0  0  0
    0.2388   -1.8215   -3.5726 O   0  0  0  0  0  0  0  0  0  0  0  0
    2.0890    1.3735    2.9934 N   0  0  0  0  0  0  0  0  0  0  0  0
    3.2776    2.0593    3.3195 C   0  0  0  0  0  0  0  0  0  0  0  0
    4.2941    1.5264    4.1160 C   0  0  0  0  0  0  0  0  0  0  0  0
    5.4447    2.2717    4.3964 C   0  0  0  0  0  0  0  0  0  0  0  0
    5.5884    3.5584    3.8836 C   0  0  0  0  0  0  0  0  0  0  0  0
    4.5779    4.0942    3.0916 C   0  0  0  0  0  0  0  0  0  0  0  0
    4.7467    5.6839    2.4532 Cl  0  0  0  0  0  0  0  0  0  0  0  0
    3.4280    3.3545    2.8084 C   0  0  0  0  0  0  0  0  0  0  0  0
   -0.3283    0.5293    2.9593 H   0  0  0  0  0  0  0  0  0  0  0  0
   -0.0125   -1.1553    3.4201 H   0  0  0  0  0  0  0  0  0  0  0  0
   -4.9467   -2.4154   -0.8029 H   0  0  0  0  0  0  0  0  0  0  0  0
   -3.6602   -3.4197   -1.4303 H   0  0  0  0  0  0  0  0  0  0  0  0
   -3.2398   -3.0735   -4.0123 H   0  0  0  0  0  0  0  0  0  0  0  0
   -3.6830   -1.2680   -5.8916 H   0  0  0  0  0  0  0  0  0  0  0  0
   -4.7568    0.9138   -4.8763 H   0  0  0  0  0  0  0  0  0  0  0  0
    0.0853   -2.7358   -1.0149 H   0  0  0  0  0  0  0  0  0  0  0  0
   -1.3732   -3.1366   -1.9005 H   0  0  0  0  0  0  0  0  0  0  0  0
   -1.1888    0.7069   -2.0276 H   0  0  0  0  0  0  0  0  0  0  0  0
   -0.0262    1.3426   -4.4089 H   0  0  0  0  0  0  0  0  0  0  0  0
    1.0226   -1.0445   -5.3228 H   0  0  0  0  0  0  0  0  0  0  0  0
    1.4366    1.8710    2.3980 H   0  0  0  0  0  0  0  0  0  0  0  0
    4.2252    0.5289    4.5390 H   0  0  0  0  0  0  0  0  0  0  0  0
    6.2263    1.8416    5.0183 H   0  0  0  0  0  0  0  0  0  0  0  0
    6.4836    4.1326    4.1046 H   0  0  0  0  0  0  0  0  0  0  0  0
    2.6555    3.7984    2.1865 H   0  0  0  0  0  0  0  0  0  0  0  0
  1  2  2  0
  2  3  1  0
  3  4  1  0
  4  5  1  0
  5  6  2  0
  6  7  1  0
  7  8  2  0
  8  9  1  0
  9 10  1  0
 10 11  2  0
 11 12  1  0
 12 13  2  0
 13 14  1  0
  8 15  1  0
 15 16  1  0
 16 17  1  0
 17 18  2  0
 18 19  1  0
 19 20  2  0
 20 21  1  0
  2 22  1  0
 22 23  1  0
 23 24  2  0
 24 25  1  0
 25 26  2  0
 26 27  1  0
 27 28  1  0
 27 29  2  0
 15  5  1  0
 21 17  1  0
 29 23  1  0
 14 10  1  0
  3 30  1  0
  3 31  1  0
  9 32  1  0
  9 33  1  0
 11 34  1  0
 12 35  1  0
 13 36  1  0
 16 37  1  0
 16 38  1  0
 18 39  1  0
 19 40  1  0
 20 41  1  0
 22 42  1  0
 24 43  1  0
 25 44  1  0
 26 45  1  0
 29 46  1  0
M  END
$$$$
