
     RDKit          3D

 54 57  0  0  0  0  0  0  0  0999 V2000
    1.3701    0.6986    2.2576 O   0  0  0  0  0  0  0  0  0  0  0  0
    0.4822    1.1397    1.5322 C   0  0  0  0  0  0  0  0  0  0  0  0
   -0.6100    2.0583    2.0971 C   0  0  0  0  0  0  0  0  0  0  0  0
   -1.9184    1.4841    2.1117 O   0  0  0  0  0  0  0  0  0  0  0  0
   -2.5882    1.5254    0.9356 C   0  0  0  0  0  0  0  0  0  0  0  0
   -2.1376    1.9690   -0.1109 O   0  0  0  0  0  0  0  0  0  0  0  0
   -3.9473    0.9386    1.0724 C   0  0  0  0  0  0  0  0  0  0  0  0
   -4.4090    0.3866    2.2767 C   0  0  0  0  0  0  0  0  0  0  0  0
   -5.6963   -0.1526    2.3541 C   0  0  0  0  0  0  0  0  0  0  0  0
   -6.5240   -0.1404    1.2338 C   0  0  0  0  0  0  0  0  0  0  0  0
   -6.0575    0.3836    0.0243 C   0  0  0  0  0  0  0  0  0  0  0  0
   -4.7799    0.9353   -0.0547 C   0  0  0  0  0  0  0  0  0  0  0  0
   -6.8048    0.3962   -1.1258 O   0  0  0  0  0  0  0  0  0  0  0  0
   -7.9286   -0.4872   -1.0279 C   0  0  0  0  0  0  0  0  0  0  0  0
   -8.6394   -0.3046    0.3030 C   0  0  0  0  0  0  0  0  0  0  0  0
   -7.7796   -0.6676    1.3900 O   0  0  0  0  0  0  0  0  0  0  0  0
    0.3639    0.9288    0.1695 N   0  0  0  0  0  0  0  0  0  0  0  0
    1.1711    0.1213   -0.6530 C   0  0  0  0  0  0  0  0  0  0  0  0
    0.9194    0.1643   -2.0315 C   0  0  0  0  0  0  0  0  0  0  0  0
    1.6779   -0.5983   -2.9235 C   0  0  0  0  0  0  0  0  0  0  0  0
    2.7014   -1.4114   -2.4454 C   0  0  0  0  0  0  0  0  0  0  0  0
    2.9591   -1.4521   -1.0725 C   0  0  0  0  0  0  0  0  0  0  0  0
    4.2413   -2.5193   -0.4481 S   0  0  0  0  0  6  0  0  0  0  0  0
    3.8234   -2.9961    0.8522 O   0  0  0  0  0  0  0  0  0  0  0  0
    4.5835   -3.4461   -1.5077 O   0  0  0  0  0  0  0  0  0  0  0  0
    5.5552   -1.4775   -0.2370 N   0  0  0  0  0  0  0  0  0  0  0  0
    5.5284   -0.5522    0.9287 C   0  0  0  0  0  0  0  0  0  0  0  0
    6.7618    0.3569    0.8915 C   0  0  0  0  0  0  0  0  0  0  0  0
    6.8089    1.1969   -0.2728 O   0  0  0  0  0  0  0  0  0  0  0  0
    6.1567    0.6270   -1.4159 C   0  0  0  0  0  0  0  0  0  0  0  0
    6.2056   -0.9040   -1.4469 C   0  0  0  0  0  0  0  0  0  0  0  0
    2.1821   -0.7108   -0.1740 C   0  0  0  0  0  0  0  0  0  0  0  0
   -0.6011    3.0162    1.5617 H   0  0  0  0  0  0  0  0  0  0  0  0
   -0.3498    2.2847    3.1374 H   0  0  0  0  0  0  0  0  0  0  0  0
   -3.7808    0.3680    3.1644 H   0  0  0  0  0  0  0  0  0  0  0  0
   -6.0557   -0.5744    3.2894 H   0  0  0  0  0  0  0  0  0  0  0  0
   -4.4360    1.3501   -0.9994 H   0  0  0  0  0  0  0  0  0  0  0  0
   -7.5742   -1.5175   -1.1562 H   0  0  0  0  0  0  0  0  0  0  0  0
   -8.6066   -0.2540   -1.8547 H   0  0  0  0  0  0  0  0  0  0  0  0
   -9.5241   -0.9472    0.3510 H   0  0  0  0  0  0  0  0  0  0  0  0
   -8.9625    0.7340    0.4464 H   0  0  0  0  0  0  0  0  0  0  0  0
   -0.3970    1.4281   -0.2956 H   0  0  0  0  0  0  0  0  0  0  0  0
    0.1257    0.7939   -2.4291 H   0  0  0  0  0  0  0  0  0  0  0  0
    1.4635   -0.5605   -3.9890 H   0  0  0  0  0  0  0  0  0  0  0  0
    3.2801   -2.0150   -3.1412 H   0  0  0  0  0  0  0  0  0  0  0  0
    5.5347   -1.1344    1.8553 H   0  0  0  0  0  0  0  0  0  0  0  0
    4.6296    0.0691    0.8964 H   0  0  0  0  0  0  0  0  0  0  0  0
    7.6818   -0.2390    0.9105 H   0  0  0  0  0  0  0  0  0  0  0  0
    6.7766    1.0119    1.7683 H   0  0  0  0  0  0  0  0  0  0  0  0
    6.6417    1.0375   -2.3072 H   0  0  0  0  0  0  0  0  0  0  0  0
    5.1189    0.9799   -1.4187 H   0  0  0  0  0  0  0  0  0  0  0  0
    5.7410   -1.2669   -2.3678 H   0  0  0  0  0  0  0  0  0  0  0  0
    7.2471   -1.2461   -1.4486 H   0  0  0  0  0  0  0  0  0  0  0  0
    2.3757   -0.8089    0.8899 H   0  0  0  0  0  0  0  0  0  0  0  0
  1  2  2  0
  2  3  1  0
  3  4  1  0
  4  5  1  0
  5  6  2  0
  5  7  1  0
  7  8  2  0
  8  9  1  0
  9 10  2  0
 10 11  1  0
 11 12  2  0
 11 13  1  0
 13 14  1  0
 14 15  1  0
 15 16  1  0
  2 17  1  0
 17 18  1  0
 18 19  2  0
 19 20  1  0
 20 21  2  0
 21 22  1  0
 22 23  1  0
 23 24  2  0
 23 25  2  0
 23 26  1  0
 26 27  1  0
 27 28  1  0
 28 29  1  0
 29 30  1  0
 30 31  1  0
 22 32  2  0
 12  7  1  0
 32 18  1  0
 16 10  1  0
 31 26  1  0
  3 33  1  0
  3 34  1  0
  8 35  1  0
  9 36  1  0
 12 37  1  0
 14 38  1  0
 14 39  1  0
 15 40  1  0
 15 41  1  0
 17 42  1  0
 19 43  1  0
 20 44  1  0
 21 45  1  0
 27 46  1  0
 27 47  1  0
 28 48  1  0
 28 49  1  0
 30 50  1  0
 30 51  1  0
 31 52  1  0
 31 53  1  0
 32 54  1  0
M  END
$$$$
