
     RDKit          3D

 36 36  0  0  0  0  0  0  0  0999 V2000
    3.2981   -3.5867    2.0266 C   0  0  0  0  0  0  0  0  0  0  0  0
    1.7947   -3.7255    2.1643 C   0  0  0  0  0  0  0  0  0  0  0  0
    1.1990   -2.4692    1.8444 O   0  0  0  0  0  0  0  0  0  0  0  0
   -0.2234   -2.4814    1.9530 C   0  0  0  0  0  0  0  0  0  0  0  0
   -0.8944   -3.0748    0.7157 C   0  0  0  0  0  0  0  0  0  0  0  0
   -0.3845   -2.4819   -0.5975 C   0  0  0  0  0  0  0  0  0  0  0  0
   -0.5545   -1.0438   -0.6764 N   0  0  0  0  0  0  0  0  0  0  0  0
   -1.7703   -0.4732   -0.9779 C   0  0  0  0  0  0  0  0  0  0  0  0
   -2.7779   -1.1184   -1.2412 O   0  0  0  0  0  0  0  0  0  0  0  0
   -1.8050    1.0144   -0.9149 C   0  0  0  0  0  0  0  0  0  0  0  0
   -2.8912    1.5912   -0.2062 C   0  0  0  0  0  0  0  0  0  0  0  0
   -3.7514    2.1007    0.3845 N   0  0  0  0  0  0  0  0  0  0  0  0
   -0.8411    1.6910   -1.5652 C   0  0  0  0  0  0  0  0  0  0  0  0
   -0.6946    3.1069   -1.6434 C   0  0  0  0  0  0  0  0  0  0  0  0
   -1.5777    4.1703   -1.4513 C   0  0  0  0  0  0  0  0  0  0  0  0
   -0.8786    5.3857   -1.6753 C   0  0  0  0  0  0  0  0  0  0  0  0
    0.3933    5.0050   -2.0058 C   0  0  0  0  0  0  0  0  0  0  0  0
    1.5575    5.7589   -2.3462 N   0  0  0  0  0  4  0  0  0  0  0  0
    1.4304    6.9908   -2.3502 O   0  0  0  0  0  0  0  0  0  0  0  0
    2.5937    5.1352   -2.6086 O   0  0  0  0  0  1  0  0  0  0  0  0
    0.5243    3.6562   -2.0009 O   0  0  0  0  0  0  0  0  0  0  0  0
    3.8004   -4.5283    2.2653 H   0  0  0  0  0  0  0  0  0  0  0  0
    3.6761   -2.8051    2.6939 H   0  0  0  0  0  0  0  0  0  0  0  0
    3.5657   -3.2917    1.0065 H   0  0  0  0  0  0  0  0  0  0  0  0
    1.4333   -4.5005    1.4813 H   0  0  0  0  0  0  0  0  0  0  0  0
    1.5405   -4.0041    3.1928 H   0  0  0  0  0  0  0  0  0  0  0  0
   -0.5398   -1.4394    2.0728 H   0  0  0  0  0  0  0  0  0  0  0  0
   -0.5373   -3.0113    2.8601 H   0  0  0  0  0  0  0  0  0  0  0  0
   -0.7188   -4.1562    0.6877 H   0  0  0  0  0  0  0  0  0  0  0  0
   -1.9781   -2.9330    0.8011 H   0  0  0  0  0  0  0  0  0  0  0  0
    0.6818   -2.6901   -0.7341 H   0  0  0  0  0  0  0  0  0  0  0  0
   -0.9212   -2.9415   -1.4351 H   0  0  0  0  0  0  0  0  0  0  0  0
    0.2003   -0.4788   -0.3039 H   0  0  0  0  0  0  0  0  0  0  0  0
   -0.0652    1.1334   -2.0883 H   0  0  0  0  0  0  0  0  0  0  0  0
   -2.6253    4.0990   -1.1884 H   0  0  0  0  0  0  0  0  0  0  0  0
   -1.2589    6.3963   -1.6106 H   0  0  0  0  0  0  0  0  0  0  0  0
  1  2  1  0
  2  3  1  0
  3  4  1  0
  4  5  1  0
  5  6  1  0
  6  7  1  0
  7  8  1  0
  8  9  2  0
  8 10  1  0
 10 11  1  0
 11 12  3  0
 10 13  2  3
 13 14  1  0
 14 15  2  0
 15 16  1  0
 16 17  2  0
 17 18  1  0
 18 19  2  0
 18 20  1  0
 17 21  1  0
 21 14  1  0
  1 22  1  0
  1 23  1  0
  1 24  1  0
  2 25  1  0
  2 26  1  0
  4 27  1  0
  4 28  1  0
  5 29  1  0
  5 30  1  0
  6 31  1  0
  6 32  1  0
  7 33  1  0
 13 34  1  0
 15 35  1  0
 16 36  1  0
M  CHG  2  18   1  20  -1
M  END
$$$$
