
     RDKit          3D

 32 32  0  0  0  0  0  0  0  0999 V2000
   -3.1955    2.8773   -1.4121 C   0  0  0  0  0  0  0  0  0  0  0  0
   -3.4990    1.8454   -0.8769 C   0  0  0  0  0  0  0  0  0  0  0  0
   -3.8763    0.5827   -0.2186 C   0  0  0  0  0  0  0  0  0  0  0  0
   -2.6906   -0.2217    0.1282 N   0  0  0  0  0  0  0  0  0  0  0  0
   -3.0736   -1.2589    1.0922 C   0  0  0  0  0  0  0  0  0  0  0  0
   -2.0823   -0.8163   -1.0775 C   0  0  0  0  0  0  0  0  0  0  0  0
   -0.6910   -1.4125   -0.8406 C   0  0  0  0  0  0  0  0  0  0  0  0
    0.2958   -0.3974   -0.2690 C   0  0  0  0  0  0  0  0  0  0  0  0
    1.5763   -1.0291   -0.1994 O   0  0  0  0  0  0  0  0  0  0  0  0
    2.6265   -0.2949    0.2852 C   0  0  0  0  0  0  0  0  0  0  0  0
    2.5298    1.0266    0.7350 C   0  0  0  0  0  0  0  0  0  0  0  0
    3.6614    1.6955    1.2145 C   0  0  0  0  0  0  0  0  0  0  0  0
    4.8936    1.0471    1.2468 C   0  0  0  0  0  0  0  0  0  0  0  0
    6.2794    1.8773    1.8378 Cl  0  0  0  0  0  0  0  0  0  0  0  0
    5.0101   -0.2661    0.8048 C   0  0  0  0  0  0  0  0  0  0  0  0
    3.8792   -0.9327    0.3264 C   0  0  0  0  0  0  0  0  0  0  0  0
    4.0748   -2.5657   -0.2127 Cl  0  0  0  0  0  0  0  0  0  0  0  0
   -2.9231    3.7927   -1.8844 H   0  0  0  0  0  0  0  0  0  0  0  0
   -4.4228    0.8508    0.6950 H   0  0  0  0  0  0  0  0  0  0  0  0
   -4.5715    0.0128   -0.8478 H   0  0  0  0  0  0  0  0  0  0  0  0
   -2.2012   -1.8193    1.4420 H   0  0  0  0  0  0  0  0  0  0  0  0
   -3.7970   -1.9666    0.6715 H   0  0  0  0  0  0  0  0  0  0  0  0
   -3.5163   -0.8076    1.9877 H   0  0  0  0  0  0  0  0  0  0  0  0
   -2.7391   -1.5870   -1.5020 H   0  0  0  0  0  0  0  0  0  0  0  0
   -1.9649   -0.0522   -1.8559 H   0  0  0  0  0  0  0  0  0  0  0  0
   -0.7392   -2.2908   -0.1862 H   0  0  0  0  0  0  0  0  0  0  0  0
   -0.3011   -1.7909   -1.7946 H   0  0  0  0  0  0  0  0  0  0  0  0
    0.3468    0.4761   -0.9300 H   0  0  0  0  0  0  0  0  0  0  0  0
   -0.0208   -0.0944    0.7355 H   0  0  0  0  0  0  0  0  0  0  0  0
    1.5881    1.5670    0.7283 H   0  0  0  0  0  0  0  0  0  0  0  0
    3.5713    2.7222    1.5614 H   0  0  0  0  0  0  0  0  0  0  0  0
    5.9721   -0.7698    0.8312 H   0  0  0  0  0  0  0  0  0  0  0  0
  1  2  3  0
  2  3  1  0
  3  4  1  0
  4  5  1  0
  4  6  1  0
  6  7  1  0
  7  8  1  0
  8  9  1  0
  9 10  1  0
 10 11  2  0
 11 12  1  0
 12 13  2  0
 13 14  1  0
 13 15  1  0
 15 16  2  0
 16 17  1  0
 16 10  1  0
  1 18  1  0
  3 19  1  0
  3 20  1  0
  5 21  1  0
  5 22  1  0
  5 23  1  0
  6 24  1  0
  6 25  1  0
  7 26  1  0
  7 27  1  0
  8 28  1  0
  8 29  1  0
 11 30  1  0
 12 31  1  0
 15 32  1  0
M  END
$$$$
