
     RDKit          3D

 33 34  0  0  0  0  0  0  0  0999 V2000
   -1.7494    4.2053    0.3953 C   0  0  0  0  0  0  0  0  0  0  0  0
   -0.9811    3.0265    0.1539 O   0  0  0  0  0  0  0  0  0  0  0  0
   -0.5089    2.4511    1.2853 C   0  0  0  0  0  0  0  0  0  0  0  0
   -0.5661    2.8792    2.4241 O   0  0  0  0  0  0  0  0  0  0  0  0
    0.2503    1.2544    0.9049 C   0  0  0  0  0  0  0  0  0  0  0  0
    1.6130    1.2703    1.1954 C   0  0  0  0  0  0  0  0  0  0  0  0
    2.3608    0.1903    0.7889 C   0  0  0  0  0  0  0  0  0  0  0  0
    3.7080    0.2319    1.0750 O   0  0  0  0  0  0  0  0  0  0  0  0
    4.4137   -0.9277    0.6436 C   0  0  0  0  0  0  0  0  0  0  0  0
    1.8417   -0.8633    0.1271 N   0  0  0  0  0  0  0  0  0  0  0  0
    0.5085   -0.8723   -0.1321 C   0  0  0  0  0  0  0  0  0  0  0  0
   -0.3260    0.1577    0.2586 C   0  0  0  0  0  0  0  0  0  0  0  0
   -1.7670    0.0153    0.0198 C   0  0  0  0  0  0  0  0  0  0  0  0
   -2.5599    0.7546    0.5942 O   0  0  0  0  0  0  0  0  0  0  0  0
   -2.1590   -1.0126   -0.8242 N   0  0  0  0  0  0  0  0  0  0  0  0
   -3.5732   -1.1210   -1.1365 C   0  0  0  0  0  0  0  0  0  0  0  0
   -1.3446   -2.0765   -1.1879 C   0  0  0  0  0  0  0  0  0  0  0  0
   -1.7905   -3.0558   -1.7887 O   0  0  0  0  0  0  0  0  0  0  0  0
   -0.0156   -1.9836   -0.8230 N   0  0  0  0  0  0  0  0  0  0  0  0
    0.9097   -3.0502   -1.1784 C   0  0  0  0  0  0  0  0  0  0  0  0
   -2.1455    4.5536   -0.5625 H   0  0  0  0  0  0  0  0  0  0  0  0
   -2.5921    3.9888    1.0597 H   0  0  0  0  0  0  0  0  0  0  0  0
   -1.1161    4.9924    0.8162 H   0  0  0  0  0  0  0  0  0  0  0  0
    2.0758    2.1050    1.7120 H   0  0  0  0  0  0  0  0  0  0  0  0
    5.4638   -0.8029    0.9251 H   0  0  0  0  0  0  0  0  0  0  0  0
    4.3709   -1.0348   -0.4458 H   0  0  0  0  0  0  0  0  0  0  0  0
    4.0392   -1.8284    1.1424 H   0  0  0  0  0  0  0  0  0  0  0  0
   -3.7162   -1.5719   -2.1232 H   0  0  0  0  0  0  0  0  0  0  0  0
   -4.0552   -0.1389   -1.1266 H   0  0  0  0  0  0  0  0  0  0  0  0
   -4.0462   -1.7590   -0.3830 H   0  0  0  0  0  0  0  0  0  0  0  0
    1.3742   -3.4481   -0.2701 H   0  0  0  0  0  0  0  0  0  0  0  0
    1.6782   -2.6547   -1.8507 H   0  0  0  0  0  0  0  0  0  0  0  0
    0.4048   -3.8750   -1.6889 H   0  0  0  0  0  0  0  0  0  0  0  0
  1  2  1  0
  2  3  1  0
  3  4  2  0
  3  5  1  0
  5  6  2  0
  6  7  1  0
  7  8  1  0
  8  9  1  0
  7 10  2  0
 10 11  1  0
 11 12  2  0
 12 13  1  0
 13 14  2  0
 13 15  1  0
 15 16  1  0
 15 17  1  0
 17 18  2  0
 17 19  1  0
 19 20  1  0
 12  5  1  0
 19 11  1  0
  1 21  1  0
  1 22  1  0
  1 23  1  0
  6 24  1  0
  9 25  1  0
  9 26  1  0
  9 27  1  0
 16 28  1  0
 16 29  1  0
 16 30  1  0
 20 31  1  0
 20 32  1  0
 20 33  1  0
M  END
$$$$
