
     RDKit          3D

 64 69  0  0  0  0  0  0  0  0999 V2000
    7.0292    1.6055   -3.0357 F   0  0  0  0  0  0  0  0  0  0  0  0
    6.0622    1.0717   -2.2359 C   0  0  0  0  0  0  0  0  0  0  0  0
    5.3617    0.2145   -3.0301 F   0  0  0  0  0  0  0  0  0  0  0  0
    5.2136    2.1003   -1.9558 F   0  0  0  0  0  0  0  0  0  0  0  0
    6.6045    0.4001   -0.9920 C   0  0  0  0  0  0  0  0  0  0  0  0
    7.9981    0.2477   -0.8527 C   0  0  0  0  0  0  0  0  0  0  0  0
    8.5470   -0.3712    0.2701 C   0  0  0  0  0  0  0  0  0  0  0  0
    7.7134   -0.8513    1.2731 C   0  0  0  0  0  0  0  0  0  0  0  0
    6.3313   -0.7148    1.1542 C   0  0  0  0  0  0  0  0  0  0  0  0
    5.7587   -0.0958    0.0276 C   0  0  0  0  0  0  0  0  0  0  0  0
    4.2475    0.0319   -0.0282 C   0  0  0  0  0  0  0  0  0  0  0  0
    3.7463    1.2474    0.7774 C   0  0  0  0  0  0  0  0  0  0  0  0
    2.3064    1.5235    0.7260 N   0  0  0  0  0  0  0  0  0  0  0  0
    1.4771    0.4986    1.3783 C   0  0  0  0  0  0  0  0  0  0  0  0
   -0.0302    0.6792    1.0923 C   0  0  0  0  0  0  0  0  0  0  0  0
   -0.3242    0.6047   -0.3474 N   0  0  0  0  0  0  0  0  0  0  0  0
   -1.4029   -0.1286   -0.8326 C   0  0  0  0  0  0  0  0  0  0  0  0
   -1.2304   -0.8207   -1.9329 N   0  0  0  0  0  0  0  0  0  0  0  0
   -2.2658   -1.6173   -2.4564 C   0  0  0  0  0  0  0  0  0  0  0  0
   -2.0180   -2.3437   -3.6229 C   0  0  0  0  0  0  0  0  0  0  0  0
   -3.0062   -3.1605   -4.1787 C   0  0  0  0  0  0  0  0  0  0  0  0
   -4.2571   -3.2589   -3.5688 C   0  0  0  0  0  0  0  0  0  0  0  0
   -4.5267   -2.5413   -2.4028 C   0  0  0  0  0  0  0  0  0  0  0  0
   -3.5276   -1.7283   -1.8583 C   0  0  0  0  0  0  0  0  0  0  0  0
   -3.7177   -0.9597   -0.6984 N   0  0  0  0  0  0  0  0  0  0  0  0
   -4.8380   -0.8362    0.0891 C   0  0  0  0  0  0  0  0  0  0  0  0
   -4.5832    0.0990    1.0744 C   0  0  0  0  0  0  0  0  0  0  0  0
   -5.5491    0.5075    2.0851 C   0  0  0  0  0  0  0  0  0  0  0  0
   -5.1141    0.8585    3.3706 C   0  0  0  0  0  0  0  0  0  0  0  0
   -6.0299    1.2572    4.3483 C   0  0  0  0  0  0  0  0  0  0  0  0
   -7.3896    1.3123    4.0501 C   0  0  0  0  0  0  0  0  0  0  0  0
   -7.8349    0.9700    2.7752 C   0  0  0  0  0  0  0  0  0  0  0  0
   -6.9197    0.5702    1.7973 C   0  0  0  0  0  0  0  0  0  0  0  0
   -3.2421    0.5297    0.8792 C   0  0  0  0  0  0  0  0  0  0  0  0
   -2.7124   -0.1638   -0.1952 C   0  0  0  0  0  0  0  0  0  0  0  0
    0.8239    0.8632   -1.2358 C   0  0  0  0  0  0  0  0  0  0  0  0
    1.8029    1.8815   -0.6140 C   0  0  0  0  0  0  0  0  0  0  0  0
    8.6702    0.6154   -1.6278 H   0  0  0  0  0  0  0  0  0  0  0  0
    9.6253   -0.4785    0.3605 H   0  0  0  0  0  0  0  0  0  0  0  0
    8.1386   -1.3339    2.1497 H   0  0  0  0  0  0  0  0  0  0  0  0
    5.6964   -1.0982    1.9515 H   0  0  0  0  0  0  0  0  0  0  0  0
    3.9130    0.0856   -1.0685 H   0  0  0  0  0  0  0  0  0  0  0  0
    3.8133   -0.8952    0.3657 H   0  0  0  0  0  0  0  0  0  0  0  0
    4.2774    2.1489    0.4440 H   0  0  0  0  0  0  0  0  0  0  0  0
    4.0373    1.1286    1.8298 H   0  0  0  0  0  0  0  0  0  0  0  0
    1.7607   -0.5082    1.0499 H   0  0  0  0  0  0  0  0  0  0  0  0
    1.6390    0.5445    2.4615 H   0  0  0  0  0  0  0  0  0  0  0  0
   -0.5667   -0.1036    1.6407 H   0  0  0  0  0  0  0  0  0  0  0  0
   -0.3647    1.6501    1.4757 H   0  0  0  0  0  0  0  0  0  0  0  0
   -1.0437   -2.2701   -4.0987 H   0  0  0  0  0  0  0  0  0  0  0  0
   -2.7972   -3.7191   -5.0875 H   0  0  0  0  0  0  0  0  0  0  0  0
   -5.0235   -3.8952   -4.0050 H   0  0  0  0  0  0  0  0  0  0  0  0
   -5.5080   -2.6318   -1.9494 H   0  0  0  0  0  0  0  0  0  0  0  0
   -5.7301   -1.4109   -0.1121 H   0  0  0  0  0  0  0  0  0  0  0  0
   -4.0592    0.8141    3.6287 H   0  0  0  0  0  0  0  0  0  0  0  0
   -5.6801    1.5232    5.3424 H   0  0  0  0  0  0  0  0  0  0  0  0
   -8.1016    1.6235    4.8100 H   0  0  0  0  0  0  0  0  0  0  0  0
   -8.8945    1.0176    2.5380 H   0  0  0  0  0  0  0  0  0  0  0  0
   -7.2897    0.3237    0.8054 H   0  0  0  0  0  0  0  0  0  0  0  0
   -2.7262    1.2814    1.4599 H   0  0  0  0  0  0  0  0  0  0  0  0
    1.3509   -0.0762   -1.4444 H   0  0  0  0  0  0  0  0  0  0  0  0
    0.4661    1.2672   -2.1905 H   0  0  0  0  0  0  0  0  0  0  0  0
    1.2726    2.8367   -0.5056 H   0  0  0  0  0  0  0  0  0  0  0  0
    2.6205    2.0780   -1.3175 H   0  0  0  0  0  0  0  0  0  0  0  0
  1  2  1  0
  2  3  1  0
  2  4  1  0
  2  5  1  0
  5  6  2  0
  6  7  1  0
  7  8  2  0
  8  9  1  0
  9 10  2  0
 10 11  1  0
 11 12  1  0
 12 13  1  0
 13 14  1  0
 14 15  1  0
 15 16  1  0
 16 17  1  0
 17 18  2  0
 18 19  1  0
 19 20  2  0
 20 21  1  0
 21 22  2  0
 22 23  1  0
 23 24  2  0
 24 25  1  0
 25 26  1  0
 26 27  2  0
 27 28  1  0
 28 29  2  0
 29 30  1  0
 30 31  2  0
 31 32  1  0
 32 33  2  0
 27 34  1  0
 34 35  2  0
 16 36  1  0
 36 37  1  0
 10  5  1  0
 37 13  1  0
 35 17  1  0
 24 19  1  0
 35 25  1  0
 33 28  1  0
  6 38  1  0
  7 39  1  0
  8 40  1  0
  9 41  1  0
 11 42  1  0
 11 43  1  0
 12 44  1  0
 12 45  1  0
 14 46  1  0
 14 47  1  0
 15 48  1  0
 15 49  1  0
 20 50  1  0
 21 51  1  0
 22 52  1  0
 23 53  1  0
 26 54  1  0
 29 55  1  0
 30 56  1  0
 31 57  1  0
 32 58  1  0
 33 59  1  0
 34 60  1  0
 36 61  1  0
 36 62  1  0
 37 63  1  0
 37 64  1  0
M  END
$$$$
