
     RDKit          3D

 51 54  0  0  0  0  0  0  0  0999 V2000
   -7.0178   -0.7712    0.7629 C   0  0  0  0  0  0  0  0  0  0  0  0
   -6.5865    0.5348    1.4165 C   0  0  0  0  0  0  0  0  0  0  0  0
   -5.6388    1.2784    0.5746 N   0  0  0  0  0  0  0  0  0  0  0  0
   -6.1453    2.5053   -0.0612 C   0  0  0  0  0  0  0  0  0  0  0  0
   -6.8688    2.2058   -1.3660 C   0  0  0  0  0  0  0  0  0  0  0  0
   -4.3305    0.8480    0.3754 C   0  0  0  0  0  0  0  0  0  0  0  0
   -3.7110   -0.0840    1.2327 C   0  0  0  0  0  0  0  0  0  0  0  0
   -2.3891   -0.5256    1.0464 C   0  0  0  0  0  0  0  0  0  0  0  0
   -1.6419   -0.0528   -0.0261 C   0  0  0  0  0  0  0  0  0  0  0  0
   -0.2747   -0.4731   -0.2766 C   0  0  0  0  0  0  0  0  0  0  0  0
    0.3732   -0.0563   -1.3758 C   0  0  0  0  0  0  0  0  0  0  0  0
    1.7159   -0.4917   -1.5718 C   0  0  0  0  0  0  0  0  0  0  0  0
    2.6926   -0.3986   -0.6868 N   0  0  0  0  0  0  0  0  0  0  0  0
    3.8677   -0.9465   -1.1765 C   0  0  0  0  0  0  0  0  0  0  0  0
    5.1088   -0.8716   -0.4117 C   0  0  0  0  0  0  0  0  0  0  0  0
    6.1078   -1.8491   -0.5177 C   0  0  0  0  0  0  0  0  0  0  0  0
    7.3033   -1.7324    0.2086 C   0  0  0  0  0  0  0  0  0  0  0  0
    7.5122   -0.6409    1.0515 C   0  0  0  0  0  0  0  0  0  0  0  0
    8.6265   -0.4104    1.8140 O   0  0  0  0  0  0  0  0  0  0  0  0
    9.6475   -1.4003    1.7760 C   0  0  0  0  0  0  0  0  0  0  0  0
    6.5167    0.3316    1.1671 C   0  0  0  0  0  0  0  0  0  0  0  0
    5.3222    0.2154    0.4505 C   0  0  0  0  0  0  0  0  0  0  0  0
    3.7596   -1.5115   -2.4282 C   0  0  0  0  0  0  0  0  0  0  0  0
    2.1639   -1.3318   -3.0222 S   0  0  0  0  0  0  0  0  0  0  0  0
   -0.2613    0.8831   -2.3371 C   0  0  0  0  0  0  0  0  0  0  0  0
    0.2927    1.2704   -3.3615 O   0  0  0  0  0  0  0  0  0  0  0  0
   -1.5444    1.3278   -2.0207 O   0  0  0  0  0  0  0  0  0  0  0  0
   -2.2356    0.8544   -0.8882 C   0  0  0  0  0  0  0  0  0  0  0  0
   -3.5428    1.3125   -0.6927 C   0  0  0  0  0  0  0  0  0  0  0  0
   -6.1829   -1.4675    0.6522 H   0  0  0  0  0  0  0  0  0  0  0  0
   -7.7848   -1.2652    1.3746 H   0  0  0  0  0  0  0  0  0  0  0  0
   -7.4373   -0.5988   -0.2348 H   0  0  0  0  0  0  0  0  0  0  0  0
   -6.1730    0.3572    2.4166 H   0  0  0  0  0  0  0  0  0  0  0  0
   -7.4894    1.1341    1.5870 H   0  0  0  0  0  0  0  0  0  0  0  0
   -5.3433    3.2360   -0.2251 H   0  0  0  0  0  0  0  0  0  0  0  0
   -6.8435    3.0096    0.6185 H   0  0  0  0  0  0  0  0  0  0  0  0
   -7.1755    3.1386   -1.8492 H   0  0  0  0  0  0  0  0  0  0  0  0
   -7.7709    1.6104   -1.1851 H   0  0  0  0  0  0  0  0  0  0  0  0
   -6.2378    1.6492   -2.0649 H   0  0  0  0  0  0  0  0  0  0  0  0
   -4.2431   -0.4872    2.0888 H   0  0  0  0  0  0  0  0  0  0  0  0
   -1.9717   -1.2466    1.7468 H   0  0  0  0  0  0  0  0  0  0  0  0
    0.2002   -1.1297    0.4482 H   0  0  0  0  0  0  0  0  0  0  0  0
    5.9714   -2.7207   -1.1549 H   0  0  0  0  0  0  0  0  0  0  0  0
    8.0460   -2.5144    0.0931 H   0  0  0  0  0  0  0  0  0  0  0  0
   10.0751   -1.4856    0.7716 H   0  0  0  0  0  0  0  0  0  0  0  0
    9.2747   -2.3694    2.1304 H   0  0  0  0  0  0  0  0  0  0  0  0
   10.4458   -1.0831    2.4536 H   0  0  0  0  0  0  0  0  0  0  0  0
    6.6684    1.1871    1.8206 H   0  0  0  0  0  0  0  0  0  0  0  0
    4.5620    0.9879    0.5593 H   0  0  0  0  0  0  0  0  0  0  0  0
    4.5207   -1.9860   -3.0324 H   0  0  0  0  0  0  0  0  0  0  0  0
   -3.9330    2.0247   -1.4154 H   0  0  0  0  0  0  0  0  0  0  0  0
  1  2  1  0
  2  3  1  0
  3  4  1  0
  4  5  1  0
  3  6  1  0
  6  7  2  0
  7  8  1  0
  8  9  2  0
  9 10  1  0
 10 11  2  0
 11 12  1  0
 12 13  2  0
 13 14  1  0
 14 15  1  0
 15 16  2  0
 16 17  1  0
 17 18  2  0
 18 19  1  0
 19 20  1  0
 18 21  1  0
 21 22  2  0
 14 23  2  0
 23 24  1  0
 11 25  1  0
 25 26  2  0
 25 27  1  0
 27 28  1  0
 28 29  2  0
 29  6  1  0
 28  9  1  0
 24 12  1  0
 22 15  1  0
  1 30  1  0
  1 31  1  0
  1 32  1  0
  2 33  1  0
  2 34  1  0
  4 35  1  0
  4 36  1  0
  5 37  1  0
  5 38  1  0
  5 39  1  0
  7 40  1  0
  8 41  1  0
 10 42  1  0
 16 43  1  0
 17 44  1  0
 20 45  1  0
 20 46  1  0
 20 47  1  0
 21 48  1  0
 22 49  1  0
 23 50  1  0
 29 51  1  0
M  END
$$$$
