
     RDKit          3D

 32 33  0  0  0  0  0  0  0  0999 V2000
   -5.1666   -1.0633    0.7606 C   0  0  0  0  0  0  0  0  0  0  0  0
   -3.8984   -0.4956    0.1937 C   0  0  0  0  0  0  0  0  0  0  0  0
   -3.4953   -0.8108   -1.1098 C   0  0  0  0  0  0  0  0  0  0  0  0
   -2.3305   -0.2536   -1.6475 C   0  0  0  0  0  0  0  0  0  0  0  0
   -1.9076   -0.6648   -3.2714 Cl  0  0  0  0  0  0  0  0  0  0  0  0
   -1.5473    0.6190   -0.8828 C   0  0  0  0  0  0  0  0  0  0  0  0
   -0.4188    1.1922   -1.4150 O   0  0  0  0  0  0  0  0  0  0  0  0
    0.7292    0.3627   -1.1826 C   0  0  0  0  0  0  0  0  0  0  0  0
    1.9679    1.2143   -1.4463 C   0  0  0  0  0  0  0  0  0  0  0  0
    3.2682    0.4231   -1.3507 C   0  0  0  0  0  0  0  0  0  0  0  0
    3.5287   -0.1107   -0.0308 N   0  0  0  0  0  0  0  0  0  0  0  0
    3.8930    0.6064    1.0736 C   0  0  0  0  0  0  0  0  0  0  0  0
    4.0275   -0.3283    2.0736 C   0  0  0  0  0  0  0  0  0  0  0  0
    3.7627   -1.5878    1.5998 N   0  0  0  0  0  0  0  0  0  0  0  0
    3.4749   -1.4268    0.3278 C   0  0  0  0  0  0  0  0  0  0  0  0
   -1.9705    0.9688    0.4051 C   0  0  0  0  0  0  0  0  0  0  0  0
   -1.0052    2.2123    1.4673 Br  0  0  0  0  0  0  0  0  0  0  0  0
   -3.1354    0.4105    0.9415 C   0  0  0  0  0  0  0  0  0  0  0  0
   -5.9826   -0.3426    0.6470 H   0  0  0  0  0  0  0  0  0  0  0  0
   -5.4466   -1.9924    0.2522 H   0  0  0  0  0  0  0  0  0  0  0  0
   -5.0422   -1.2993    1.8231 H   0  0  0  0  0  0  0  0  0  0  0  0
   -4.0964   -1.4867   -1.7151 H   0  0  0  0  0  0  0  0  0  0  0  0
    0.7114   -0.4892   -1.8715 H   0  0  0  0  0  0  0  0  0  0  0  0
    0.7395   -0.0151   -0.1532 H   0  0  0  0  0  0  0  0  0  0  0  0
    1.9782    2.0616   -0.7490 H   0  0  0  0  0  0  0  0  0  0  0  0
    1.8913    1.6566   -2.4478 H   0  0  0  0  0  0  0  0  0  0  0  0
    4.1182    1.0674   -1.6035 H   0  0  0  0  0  0  0  0  0  0  0  0
    3.2672   -0.4104   -2.0625 H   0  0  0  0  0  0  0  0  0  0  0  0
    4.0191    1.6801    1.0643 H   0  0  0  0  0  0  0  0  0  0  0  0
    4.3020   -0.1620    3.1074 H   0  0  0  0  0  0  0  0  0  0  0  0
    3.2222   -2.2203   -0.3638 H   0  0  0  0  0  0  0  0  0  0  0  0
   -3.4578    0.6846    1.9446 H   0  0  0  0  0  0  0  0  0  0  0  0
  1  2  1  0
  2  3  2  0
  3  4  1  0
  4  5  1  0
  4  6  2  0
  6  7  1  0
  7  8  1  0
  8  9  1  0
  9 10  1  0
 10 11  1  0
 11 12  1  0
 12 13  2  0
 13 14  1  0
 14 15  2  0
  6 16  1  0
 16 17  1  0
 16 18  2  0
 18  2  1  0
 15 11  1  0
  1 19  1  0
  1 20  1  0
  1 21  1  0
  3 22  1  0
  8 23  1  0
  8 24  1  0
  9 25  1  0
  9 26  1  0
 10 27  1  0
 10 28  1  0
 12 29  1  0
 13 30  1  0
 15 31  1  0
 18 32  1  0
M  END
$$$$
