
     RDKit          3D

 55 58  0  0  0  0  0  0  0  0999 V2000
    8.3050    1.4524    1.5439 C   0  0  0  0  0  0  0  0  0  0  0  0
    7.8883    0.5621    0.5184 O   0  0  0  0  0  0  0  0  0  0  0  0
    6.5397    0.3784    0.3412 C   0  0  0  0  0  0  0  0  0  0  0  0
    5.5501    1.0197    1.0924 C   0  0  0  0  0  0  0  0  0  0  0  0
    4.1997    0.7720    0.8357 C   0  0  0  0  0  0  0  0  0  0  0  0
    3.8256   -0.1108   -0.1813 C   0  0  0  0  0  0  0  0  0  0  0  0
    2.3726   -0.3408   -0.4212 C   0  0  0  0  0  0  0  0  0  0  0  0
    1.9455   -0.5262   -1.8451 C   0  0  0  0  0  0  0  0  0  0  0  0
    0.6316   -0.7395   -2.0555 C   0  0  0  0  0  0  0  0  0  0  0  0
    0.0339   -0.9331   -3.3968 C   0  0  0  0  0  0  0  0  0  0  0  0
    0.9864   -0.8623   -4.3718 F   0  0  0  0  0  0  0  0  0  0  0  0
   -0.8816    0.0168   -3.7098 F   0  0  0  0  0  0  0  0  0  0  0  0
   -0.5518   -2.1461   -3.5451 F   0  0  0  0  0  0  0  0  0  0  0  0
   -0.2410   -0.7718   -0.9746 N   0  0  0  0  0  0  0  0  0  0  0  0
   -1.5793   -0.9681   -0.9777 N   0  0  0  0  0  0  0  0  0  0  0  0
   -1.9582   -0.9086    0.3097 C   0  0  0  0  0  0  0  0  0  0  0  0
   -3.3579   -1.1190    0.7154 C   0  0  0  0  0  0  0  0  0  0  0  0
   -3.9402   -2.1642    0.4265 O   0  0  0  0  0  0  0  0  0  0  0  0
   -3.9714   -0.1128    1.4715 N   0  0  0  0  0  0  0  0  0  0  0  0
   -3.4280    1.2256    1.6654 C   0  0  0  0  0  0  0  0  0  0  0  0
   -5.2925   -0.3797    2.0336 C   0  0  0  0  0  0  0  0  0  0  0  0
   -6.4082    0.2892    1.2640 C   0  0  0  0  0  0  0  0  0  0  0  0
   -6.7196   -0.1223   -0.0403 C   0  0  0  0  0  0  0  0  0  0  0  0
   -7.7475    0.4959   -0.7536 C   0  0  0  0  0  0  0  0  0  0  0  0
   -8.4771    1.5302   -0.1712 C   0  0  0  0  0  0  0  0  0  0  0  0
   -8.1806    1.9464    1.1253 C   0  0  0  0  0  0  0  0  0  0  0  0
   -7.1523    1.3294    1.8405 C   0  0  0  0  0  0  0  0  0  0  0  0
   -0.8508   -0.6677    1.1554 C   0  0  0  0  0  0  0  0  0  0  0  0
    0.2374   -0.5715    0.3237 C   0  0  0  0  0  0  0  0  0  0  0  0
    1.5555   -0.3450    0.5938 N   0  0  0  0  0  0  0  0  0  0  0  0
    4.8105   -0.7737   -0.9247 C   0  0  0  0  0  0  0  0  0  0  0  0
    6.1665   -0.5306   -0.6716 C   0  0  0  0  0  0  0  0  0  0  0  0
    7.2000   -1.1257   -1.3529 O   0  0  0  0  0  0  0  0  0  0  0  0
    6.8799   -2.1032   -2.3318 C   0  0  0  0  0  0  0  0  0  0  0  0
    7.9547    2.4714    1.3486 H   0  0  0  0  0  0  0  0  0  0  0  0
    7.9778    1.1021    2.5284 H   0  0  0  0  0  0  0  0  0  0  0  0
    9.3991    1.4724    1.5454 H   0  0  0  0  0  0  0  0  0  0  0  0
    5.7946    1.7168    1.8871 H   0  0  0  0  0  0  0  0  0  0  0  0
    3.4421    1.2760    1.4330 H   0  0  0  0  0  0  0  0  0  0  0  0
    2.6645   -0.4581   -2.6519 H   0  0  0  0  0  0  0  0  0  0  0  0
   -3.0986    1.3163    2.7044 H   0  0  0  0  0  0  0  0  0  0  0  0
   -2.5921    1.4388    0.9975 H   0  0  0  0  0  0  0  0  0  0  0  0
   -4.2023    1.9720    1.4679 H   0  0  0  0  0  0  0  0  0  0  0  0
   -5.2803   -0.0360    3.0754 H   0  0  0  0  0  0  0  0  0  0  0  0
   -5.4911   -1.4572    2.0738 H   0  0  0  0  0  0  0  0  0  0  0  0
   -6.1600   -0.9315   -0.5078 H   0  0  0  0  0  0  0  0  0  0  0  0
   -7.9772    0.1674   -1.7640 H   0  0  0  0  0  0  0  0  0  0  0  0
   -9.2777    2.0099   -0.7280 H   0  0  0  0  0  0  0  0  0  0  0  0
   -8.7518    2.7517    1.5797 H   0  0  0  0  0  0  0  0  0  0  0  0
   -6.9362    1.6677    2.8512 H   0  0  0  0  0  0  0  0  0  0  0  0
   -0.8424   -0.5866    2.2324 H   0  0  0  0  0  0  0  0  0  0  0  0
    4.5132   -1.4930   -1.6782 H   0  0  0  0  0  0  0  0  0  0  0  0
    7.8191   -2.4818   -2.7465 H   0  0  0  0  0  0  0  0  0  0  0  0
    6.3476   -2.9500   -1.8861 H   0  0  0  0  0  0  0  0  0  0  0  0
    6.3066   -1.6634   -3.1546 H   0  0  0  0  0  0  0  0  0  0  0  0
  1  2  1  0
  2  3  1  0
  3  4  2  0
  4  5  1  0
  5  6  2  0
  6  7  1  0
  7  8  1  0
  8  9  2  0
  9 10  1  0
 10 11  1  0
 10 12  1  0
 10 13  1  0
  9 14  1  0
 14 15  1  0
 15 16  2  0
 16 17  1  0
 17 18  2  0
 17 19  1  0
 19 20  1  0
 19 21  1  0
 21 22  1  0
 22 23  2  0
 23 24  1  0
 24 25  2  0
 25 26  1  0
 26 27  2  0
 16 28  1  0
 28 29  2  0
 29 30  1  0
  6 31  1  0
 31 32  2  0
 32 33  1  0
 33 34  1  0
 32  3  1  0
 30  7  2  0
 29 14  1  0
 27 22  1  0
  1 35  1  0
  1 36  1  0
  1 37  1  0
  4 38  1  0
  5 39  1  0
  8 40  1  0
 20 41  1  0
 20 42  1  0
 20 43  1  0
 21 44  1  0
 21 45  1  0
 23 46  1  0
 24 47  1  0
 25 48  1  0
 26 49  1  0
 27 50  1  0
 28 51  1  0
 31 52  1  0
 34 53  1  0
 34 54  1  0
 34 55  1  0
M  END
$$$$
