
     RDKit          3D

 37 39  0  0  0  0  0  0  0  0999 V2000
    4.0060   -0.2874   -1.1244 N   0  0  0  0  0  0  0  0  0  0  0  0
    2.8464   -0.7472   -0.3624 C   0  0  0  0  0  0  0  0  0  0  0  0
    2.2179    0.3978    0.4281 C   0  0  0  0  0  0  0  0  0  0  0  0
    1.0330   -0.0313    1.3106 C   0  0  0  0  0  0  0  0  0  0  0  0
   -0.1800   -0.3761    0.5276 N   0  0  0  0  0  0  0  0  0  0  0  0
   -0.4679   -1.7608    0.3145 C   0  0  0  0  0  0  0  0  0  0  0  0
    0.3710   -2.8022    0.7786 C   0  0  0  0  0  0  0  0  0  0  0  0
    0.0928   -4.1610    0.5715 C   0  0  0  0  0  0  0  0  0  0  0  0
   -1.0454   -4.5382   -0.1146 C   0  0  0  0  0  0  0  0  0  0  0  0
   -1.8957   -3.5511   -0.5916 C   0  0  0  0  0  0  0  0  0  0  0  0
   -1.6182   -2.1819   -0.3861 C   0  0  0  0  0  0  0  0  0  0  0  0
   -2.8218   -1.0793   -1.0790 S   0  0  0  0  0  0  0  0  0  0  0  0
   -2.1828    0.5142   -0.6426 C   0  0  0  0  0  0  0  0  0  0  0  0
   -2.9716    1.6008   -1.0753 C   0  0  0  0  0  0  0  0  0  0  0  0
   -2.6037    2.9140   -0.8090 C   0  0  0  0  0  0  0  0  0  0  0  0
   -1.4307    3.1641   -0.1064 C   0  0  0  0  0  0  0  0  0  0  0  0
   -1.0052    4.5749    0.2179 C   0  0  0  0  0  0  0  0  0  0  0  0
    0.3437    4.7503    0.1338 F   0  0  0  0  0  0  0  0  0  0  0  0
   -1.5532    5.5096   -0.6069 F   0  0  0  0  0  0  0  0  0  0  0  0
   -1.3499    4.9406    1.4828 F   0  0  0  0  0  0  0  0  0  0  0  0
   -0.6528    2.0708    0.3312 C   0  0  0  0  0  0  0  0  0  0  0  0
   -0.9909    0.7173    0.0800 C   0  0  0  0  0  0  0  0  0  0  0  0
    3.7093    0.4103   -1.8068 H   0  0  0  0  0  0  0  0  0  0  0  0
    4.6685    0.1818   -0.5089 H   0  0  0  0  0  0  0  0  0  0  0  0
    3.1756   -1.5403    0.3162 H   0  0  0  0  0  0  0  0  0  0  0  0
    2.1250   -1.1805   -1.0615 H   0  0  0  0  0  0  0  0  0  0  0  0
    2.9805    0.8345    1.0864 H   0  0  0  0  0  0  0  0  0  0  0  0
    1.9195    1.1899   -0.2677 H   0  0  0  0  0  0  0  0  0  0  0  0
    0.8012    0.7705    2.0232 H   0  0  0  0  0  0  0  0  0  0  0  0
    1.3496   -0.8199    1.9982 H   0  0  0  0  0  0  0  0  0  0  0  0
    1.2920   -2.6125    1.3157 H   0  0  0  0  0  0  0  0  0  0  0  0
    0.7769   -4.9173    0.9490 H   0  0  0  0  0  0  0  0  0  0  0  0
   -1.2704   -5.5874   -0.2820 H   0  0  0  0  0  0  0  0  0  0  0  0
   -2.7894   -3.8539   -1.1347 H   0  0  0  0  0  0  0  0  0  0  0  0
   -3.8919    1.4216   -1.6301 H   0  0  0  0  0  0  0  0  0  0  0  0
   -3.2348    3.7309   -1.1540 H   0  0  0  0  0  0  0  0  0  0  0  0
    0.2476    2.3347    0.8789 H   0  0  0  0  0  0  0  0  0  0  0  0
  1  2  1  0
  2  3  1  0
  3  4  1  0
  4  5  1  0
  5  6  1  0
  6  7  2  0
  7  8  1  0
  8  9  2  0
  9 10  1  0
 10 11  2  0
 11 12  1  0
 12 13  1  0
 13 14  2  0
 14 15  1  0
 15 16  2  0
 16 17  1  0
 17 18  1  0
 17 19  1  0
 17 20  1  0
 16 21  1  0
 21 22  2  0
 22  5  1  0
 11  6  1  0
 22 13  1  0
  1 23  1  0
  1 24  1  0
  2 25  1  0
  2 26  1  0
  3 27  1  0
  3 28  1  0
  4 29  1  0
  4 30  1  0
  7 31  1  0
  8 32  1  0
  9 33  1  0
 10 34  1  0
 14 35  1  0
 15 36  1  0
 21 37  1  0
M  END
$$$$
