
     RDKit          3D

 60 65  0  0  0  0  0  0  0  0999 V2000
    2.8047   -5.7179   -0.2110 O   0  0  0  0  0  0  0  0  0  0  0  0
    2.6148   -4.5119   -0.1067 C   0  0  0  0  0  0  0  0  0  0  0  0
    1.5572   -3.9971    0.6363 N   0  0  0  0  0  0  0  0  0  0  0  0
    1.3097   -2.6366    0.8078 C   0  0  0  0  0  0  0  0  0  0  0  0
    0.0793   -2.3098    1.6533 C   0  0  0  0  0  0  0  0  0  0  0  0
   -1.1950   -2.5349    0.8307 C   0  0  0  0  0  0  0  0  0  0  0  0
   -1.3217   -1.5461   -0.3344 C   0  0  0  0  0  0  0  0  0  0  0  0
   -0.6592   -0.2653   -0.0215 N   0  0  0  0  0  0  0  0  0  0  0  0
   -0.6907    0.9461   -1.2019 S   0  0  0  0  0  6  0  0  0  0  0  0
   -0.5764    0.3165   -2.5005 O   0  0  0  0  0  0  0  0  0  0  0  0
    0.2240    1.9944   -0.8021 O   0  0  0  0  0  0  0  0  0  0  0  0
   -2.3420    1.5914   -1.0588 C   0  0  0  0  0  0  0  0  0  0  0  0
   -2.5908    2.6726   -0.2044 C   0  0  0  0  0  0  0  0  0  0  0  0
   -3.8829    3.1918   -0.1105 C   0  0  0  0  0  0  0  0  0  0  0  0
   -4.9103    2.6437   -0.8781 C   0  0  0  0  0  0  0  0  0  0  0  0
   -4.6555    1.5586   -1.7261 C   0  0  0  0  0  0  0  0  0  0  0  0
   -3.3658    1.0441   -1.8384 C   0  0  0  0  0  0  0  0  0  0  0  0
   -5.6244    0.9561   -2.4858 O   0  0  0  0  0  0  0  0  0  0  0  0
   -6.9400    1.3434   -2.0687 C   0  0  0  0  0  0  0  0  0  0  0  0
   -7.0113    2.8421   -1.8295 C   0  0  0  0  0  0  0  0  0  0  0  0
   -6.1487    3.2207   -0.7497 O   0  0  0  0  0  0  0  0  0  0  0  0
   -0.6963    0.1254    1.3941 C   0  0  0  0  0  0  0  0  0  0  0  0
    0.1066   -0.8803    2.2239 C   0  0  0  0  0  0  0  0  0  0  0  0
    2.0288   -1.6974    0.2632 N   0  0  0  0  0  0  0  0  0  0  0  0
    3.0527   -2.1714   -0.4804 C   0  0  0  0  0  0  0  0  0  0  0  0
    3.4101   -3.4763   -0.7081 C   0  0  0  0  0  0  0  0  0  0  0  0
    4.5056   -3.5368   -1.5131 N   0  0  0  0  0  0  0  0  0  0  0  0
    4.8473   -2.2821   -1.8136 N   0  0  0  0  0  0  0  0  0  0  0  0
    3.9676   -1.4549   -1.1941 N   0  0  0  0  0  0  0  0  0  0  0  0
    4.0285   -0.0182   -1.3761 C   0  0  0  0  0  0  0  0  0  0  0  0
    4.5345    0.6754   -0.1349 C   0  0  0  0  0  0  0  0  0  0  0  0
    5.8941    0.6225    0.2139 C   0  0  0  0  0  0  0  0  0  0  0  0
    6.3543    1.2450    1.3772 C   0  0  0  0  0  0  0  0  0  0  0  0
    5.4609    1.9230    2.2045 C   0  0  0  0  0  0  0  0  0  0  0  0
    4.1148    1.9737    1.8626 C   0  0  0  0  0  0  0  0  0  0  0  0
    3.2550    2.6167    2.6640 F   0  0  0  0  0  0  0  0  0  0  0  0
    3.6455    1.3613    0.7055 C   0  0  0  0  0  0  0  0  0  0  0  0
    0.9816   -4.6928    1.0859 H   0  0  0  0  0  0  0  0  0  0  0  0
    0.0827   -3.0146    2.4950 H   0  0  0  0  0  0  0  0  0  0  0  0
   -1.2462   -3.5591    0.4435 H   0  0  0  0  0  0  0  0  0  0  0  0
   -2.0629   -2.4159    1.4926 H   0  0  0  0  0  0  0  0  0  0  0  0
   -0.8410   -1.9838   -1.2164 H   0  0  0  0  0  0  0  0  0  0  0  0
   -2.3811   -1.3957   -0.5626 H   0  0  0  0  0  0  0  0  0  0  0  0
   -1.7876    3.1199    0.3780 H   0  0  0  0  0  0  0  0  0  0  0  0
   -4.0866    4.0353    0.5445 H   0  0  0  0  0  0  0  0  0  0  0  0
   -3.1699    0.2216   -2.5228 H   0  0  0  0  0  0  0  0  0  0  0  0
   -7.1963    0.7801   -1.1629 H   0  0  0  0  0  0  0  0  0  0  0  0
   -7.6378    1.0528   -2.8601 H   0  0  0  0  0  0  0  0  0  0  0  0
   -6.7198    3.4056   -2.7240 H   0  0  0  0  0  0  0  0  0  0  0  0
   -8.0306    3.1345   -1.5581 H   0  0  0  0  0  0  0  0  0  0  0  0
   -0.2786    1.1237    1.5550 H   0  0  0  0  0  0  0  0  0  0  0  0
   -1.7379    0.1512    1.7356 H   0  0  0  0  0  0  0  0  0  0  0  0
   -0.3142   -0.8885    3.2380 H   0  0  0  0  0  0  0  0  0  0  0  0
    1.1383   -0.5247    2.3400 H   0  0  0  0  0  0  0  0  0  0  0  0
    3.0223    0.3231   -1.6464 H   0  0  0  0  0  0  0  0  0  0  0  0
    4.6833    0.1970   -2.2280 H   0  0  0  0  0  0  0  0  0  0  0  0
    6.6023    0.0853   -0.4163 H   0  0  0  0  0  0  0  0  0  0  0  0
    7.4082    1.1947    1.6388 H   0  0  0  0  0  0  0  0  0  0  0  0
    5.8029    2.4068    3.1134 H   0  0  0  0  0  0  0  0  0  0  0  0
    2.5842    1.4160    0.4747 H   0  0  0  0  0  0  0  0  0  0  0  0
  1  2  2  0
  2  3  1  0
  3  4  1  0
  4  5  1  0
  5  6  1  0
  6  7  1  0
  7  8  1  0
  8  9  1  0
  9 10  2  0
  9 11  2  0
  9 12  1  0
 12 13  2  0
 13 14  1  0
 14 15  2  0
 15 16  1  0
 16 17  2  0
 16 18  1  0
 18 19  1  0
 19 20  1  0
 20 21  1  0
  8 22  1  0
 22 23  1  0
  4 24  2  0
 24 25  1  0
 25 26  2  0
 26 27  1  0
 27 28  2  0
 28 29  1  0
 29 30  1  0
 30 31  1  0
 31 32  2  0
 32 33  1  0
 33 34  2  0
 34 35  1  0
 35 36  1  0
 35 37  2  0
 26  2  1  0
 37 31  1  0
 23  5  1  0
 29 25  1  0
 17 12  1  0
 21 15  1  0
  3 38  1  0
  5 39  1  0
  6 40  1  0
  6 41  1  0
  7 42  1  0
  7 43  1  0
 13 44  1  0
 14 45  1  0
 17 46  1  0
 19 47  1  0
 19 48  1  0
 20 49  1  0
 20 50  1  0
 22 51  1  0
 22 52  1  0
 23 53  1  0
 23 54  1  0
 30 55  1  0
 30 56  1  0
 32 57  1  0
 33 58  1  0
 34 59  1  0
 37 60  1  0
M  END
$$$$
