
     RDKit          3D

 45 44  0  0  0  0  0  0  0  0999 V2000
    4.9279   -1.4563    1.3683 C   0  0  0  0  0  0  0  0  0  0  0  0
    5.3179   -2.8490    0.8995 C   0  0  0  0  0  0  0  0  0  0  0  0
    4.8532   -3.1951   -0.5197 C   0  0  0  0  0  0  0  0  0  0  0  0
    3.3378   -3.3054   -0.6797 C   0  0  0  0  0  0  0  0  0  0  0  0
    2.6993   -2.0139   -0.7752 N   0  0  0  0  0  0  0  0  0  0  0  0
    1.4228   -1.7953   -0.3558 C   0  0  0  0  0  0  0  0  0  0  0  0
    0.7248   -2.5904    0.2537 O   0  0  0  0  0  0  0  0  0  0  0  0
    1.0532   -0.5450   -0.7217 O   0  0  0  0  0  0  0  0  0  0  0  0
   -0.2700   -0.1744   -0.3098 C   0  0  0  0  0  0  0  0  0  0  0  0
   -0.4796    1.3338   -0.5435 C   0  0  0  0  0  0  0  0  0  0  0  0
    0.6142    2.2177    0.0852 C   0  0  0  0  0  0  0  0  0  0  0  0
    0.8174    2.0197    1.5821 C   0  0  0  0  0  0  0  0  0  0  0  0
   -1.8014    1.7643   -0.1092 N   0  0  0  0  0  0  0  0  0  0  0  0
   -2.9276    1.5031   -0.8280 C   0  0  0  0  0  0  0  0  0  0  0  0
   -2.9539    1.0122   -1.9448 O   0  0  0  0  0  0  0  0  0  0  0  0
   -4.0067    1.8601   -0.0921 O   0  0  0  0  0  0  0  0  0  0  0  0
   -5.2909    1.6417   -0.7053 C   0  0  0  0  0  0  0  0  0  0  0  0
   -5.7283    0.1987   -0.4769 C   0  0  0  0  0  0  0  0  0  0  0  0
   -6.2703    2.6106   -0.0537 C   0  0  0  0  0  0  0  0  0  0  0  0
    5.1838   -0.6995    0.6210 H   0  0  0  0  0  0  0  0  0  0  0  0
    5.4583   -1.2108    2.2936 H   0  0  0  0  0  0  0  0  0  0  0  0
    3.8577   -1.3933    1.5814 H   0  0  0  0  0  0  0  0  0  0  0  0
    4.9337   -3.5916    1.6093 H   0  0  0  0  0  0  0  0  0  0  0  0
    6.4130   -2.9268    0.9275 H   0  0  0  0  0  0  0  0  0  0  0  0
    5.2901   -4.1682   -0.7788 H   0  0  0  0  0  0  0  0  0  0  0  0
    5.2616   -2.4678   -1.2317 H   0  0  0  0  0  0  0  0  0  0  0  0
    3.1101   -3.8274   -1.6170 H   0  0  0  0  0  0  0  0  0  0  0  0
    2.8958   -3.8884    0.1356 H   0  0  0  0  0  0  0  0  0  0  0  0
    3.0688   -1.3118   -1.4005 H   0  0  0  0  0  0  0  0  0  0  0  0
   -0.9940   -0.7485   -0.9001 H   0  0  0  0  0  0  0  0  0  0  0  0
   -0.4237   -0.4150    0.7490 H   0  0  0  0  0  0  0  0  0  0  0  0
   -0.4273    1.5044   -1.6277 H   0  0  0  0  0  0  0  0  0  0  0  0
    1.5692    2.0307   -0.4207 H   0  0  0  0  0  0  0  0  0  0  0  0
    0.3697    3.2724   -0.0961 H   0  0  0  0  0  0  0  0  0  0  0  0
   -0.1095    2.1794    2.1400 H   0  0  0  0  0  0  0  0  0  0  0  0
    1.5585    2.7373    1.9528 H   0  0  0  0  0  0  0  0  0  0  0  0
    1.1899    1.0158    1.8069 H   0  0  0  0  0  0  0  0  0  0  0  0
   -1.9681    2.0300    0.8512 H   0  0  0  0  0  0  0  0  0  0  0  0
   -5.2467    1.8625   -1.7795 H   0  0  0  0  0  0  0  0  0  0  0  0
   -5.0303   -0.5010   -0.9491 H   0  0  0  0  0  0  0  0  0  0  0  0
   -5.7365   -0.0419    0.5927 H   0  0  0  0  0  0  0  0  0  0  0  0
   -6.7269    0.0175   -0.8861 H   0  0  0  0  0  0  0  0  0  0  0  0
   -6.3379    2.4357    1.0255 H   0  0  0  0  0  0  0  0  0  0  0  0
   -5.9292    3.6435   -0.1847 H   0  0  0  0  0  0  0  0  0  0  0  0
   -7.2702    2.5149   -0.4881 H   0  0  0  0  0  0  0  0  0  0  0  0
  1  2  1  0
  2  3  1  0
  3  4  1  0
  4  5  1  0
  5  6  1  0
  6  7  2  0
  6  8  1  0
  8  9  1  0
  9 10  1  0
 10 11  1  0
 11 12  1  0
 10 13  1  0
 13 14  1  0
 14 15  2  0
 14 16  1  0
 16 17  1  0
 17 18  1  0
 17 19  1  0
  1 20  1  0
  1 21  1  0
  1 22  1  0
  2 23  1  0
  2 24  1  0
  3 25  1  0
  3 26  1  0
  4 27  1  0
  4 28  1  0
  5 29  1  0
  9 30  1  0
  9 31  1  0
 10 32  1  0
 11 33  1  0
 11 34  1  0
 12 35  1  0
 12 36  1  0
 12 37  1  0
 13 38  1  0
 17 39  1  0
 18 40  1  0
 18 41  1  0
 18 42  1  0
 19 43  1  0
 19 44  1  0
 19 45  1  0
M  END
$$$$
