
     RDKit          3D

 51 54  0  0  0  0  0  0  0  0999 V2000
    6.2825    3.5877   -3.4593 C   0  0  0  0  0  0  0  0  0  0  0  0
    5.7169    2.1956   -3.6899 C   0  0  0  0  0  0  0  0  0  0  0  0
    4.4371    1.9743   -2.9270 C   0  0  0  0  0  0  0  0  0  0  0  0
    3.2035    2.3217   -3.4864 C   0  0  0  0  0  0  0  0  0  0  0  0
    2.0166    2.1368   -2.7650 C   0  0  0  0  0  0  0  0  0  0  0  0
    2.0254    1.6058   -1.4626 C   0  0  0  0  0  0  0  0  0  0  0  0
    0.7954    1.4384   -0.7131 N   0  0  0  0  0  0  0  0  0  0  0  0
   -0.1974    2.4143   -0.8597 C   0  0  0  0  0  0  0  0  0  0  0  0
   -0.0901    3.4680   -1.4953 O   0  0  0  0  0  0  0  0  0  0  0  0
   -1.4605    2.2097   -0.1358 C   0  0  0  0  0  0  0  0  0  0  0  0
   -2.5192    3.1157   -0.3304 C   0  0  0  0  0  0  0  0  0  0  0  0
   -3.7158    2.9560    0.3591 C   0  0  0  0  0  0  0  0  0  0  0  0
   -3.8557    1.8934    1.2424 C   0  0  0  0  0  0  0  0  0  0  0  0
   -2.8013    0.9947    1.4336 C   0  0  0  0  0  0  0  0  0  0  0  0
   -1.5843    1.1444    0.7470 C   0  0  0  0  0  0  0  0  0  0  0  0
   -0.4935    0.2553    0.9165 N   0  0  0  0  0  0  0  0  0  0  0  0
   -0.6285   -0.9159    1.7859 C   0  0  0  0  0  0  0  0  0  0  0  0
   -1.4141   -2.0523    1.1188 C   0  0  0  0  0  0  0  0  0  0  0  0
   -1.7833   -2.0275   -0.0501 O   0  0  0  0  0  0  0  0  0  0  0  0
   -1.6935   -3.0989    1.9750 N   0  0  0  0  0  0  0  0  0  0  0  0
   -2.4723   -4.2449    1.5639 C   0  0  0  0  0  0  0  0  0  0  0  0
   -3.2459   -4.7290    2.7344 C   0  0  0  0  0  0  0  0  0  0  0  0
   -3.3415   -5.9449    3.3808 C   0  0  0  0  0  0  0  0  0  0  0  0
   -4.2478   -5.7586    4.4476 C   0  0  0  0  0  0  0  0  0  0  0  0
   -4.6463   -4.4504    4.3867 C   0  0  0  0  0  0  0  0  0  0  0  0
   -4.0508   -3.8161    3.3470 O   0  0  0  0  0  0  0  0  0  0  0  0
    0.6696    0.3381    0.1493 C   0  0  0  0  0  0  0  0  0  0  0  0
    1.5159   -0.5531    0.2497 O   0  0  0  0  0  0  0  0  0  0  0  0
    3.2733    1.2615   -0.9147 C   0  0  0  0  0  0  0  0  0  0  0  0
    4.4614    1.4448   -1.6334 C   0  0  0  0  0  0  0  0  0  0  0  0
    7.2354    3.7023   -3.9923 H   0  0  0  0  0  0  0  0  0  0  0  0
    6.4617    3.7752   -2.3924 H   0  0  0  0  0  0  0  0  0  0  0  0
    5.5927    4.3607   -3.8259 H   0  0  0  0  0  0  0  0  0  0  0  0
    5.5410    2.0408   -4.7583 H   0  0  0  0  0  0  0  0  0  0  0  0
    6.4564    1.4438   -3.3958 H   0  0  0  0  0  0  0  0  0  0  0  0
    3.1501    2.7382   -4.4911 H   0  0  0  0  0  0  0  0  0  0  0  0
    1.0815    2.3993   -3.2610 H   0  0  0  0  0  0  0  0  0  0  0  0
   -2.4096    3.9503   -1.0226 H   0  0  0  0  0  0  0  0  0  0  0  0
   -4.5343    3.6561    0.2010 H   0  0  0  0  0  0  0  0  0  0  0  0
   -4.7896    1.7540    1.7805 H   0  0  0  0  0  0  0  0  0  0  0  0
   -2.9809    0.1783    2.1242 H   0  0  0  0  0  0  0  0  0  0  0  0
    0.3616   -1.3137    2.0550 H   0  0  0  0  0  0  0  0  0  0  0  0
   -1.1036   -0.6261    2.7317 H   0  0  0  0  0  0  0  0  0  0  0  0
   -1.3396   -3.0866    2.9211 H   0  0  0  0  0  0  0  0  0  0  0  0
   -3.1347   -3.9895    0.7267 H   0  0  0  0  0  0  0  0  0  0  0  0
   -1.7652   -5.0058    1.2197 H   0  0  0  0  0  0  0  0  0  0  0  0
   -2.8285   -6.8518    3.1059 H   0  0  0  0  0  0  0  0  0  0  0  0
   -4.5821   -6.4919    5.1694 H   0  0  0  0  0  0  0  0  0  0  0  0
   -5.3304   -3.8466    4.9609 H   0  0  0  0  0  0  0  0  0  0  0  0
    3.3566    0.8751    0.0986 H   0  0  0  0  0  0  0  0  0  0  0  0
    5.4055    1.1731   -1.1683 H   0  0  0  0  0  0  0  0  0  0  0  0
  1  2  1  0
  2  3  1  0
  3  4  2  0
  4  5  1  0
  5  6  2  0
  6  7  1  0
  7  8  1  0
  8  9  2  0
  8 10  1  0
 10 11  2  0
 11 12  1  0
 12 13  2  0
 13 14  1  0
 14 15  2  0
 15 16  1  0
 16 17  1  0
 17 18  1  0
 18 19  2  0
 18 20  1  0
 20 21  1  0
 21 22  1  0
 22 23  2  0
 23 24  1  0
 24 25  2  0
 25 26  1  0
 16 27  1  0
 27 28  2  0
  6 29  1  0
 29 30  2  0
 30  3  1  0
 27  7  1  0
 15 10  1  0
 26 22  1  0
  1 31  1  0
  1 32  1  0
  1 33  1  0
  2 34  1  0
  2 35  1  0
  4 36  1  0
  5 37  1  0
 11 38  1  0
 12 39  1  0
 13 40  1  0
 14 41  1  0
 17 42  1  0
 17 43  1  0
 20 44  1  0
 21 45  1  0
 21 46  1  0
 23 47  1  0
 24 48  1  0
 25 49  1  0
 29 50  1  0
 30 51  1  0
M  END
$$$$
