
     RDKit          3D

 51 53  0  0  0  0  0  0  0  0999 V2000
    4.6830    0.6341   -3.0600 C   0  0  0  0  0  0  0  0  0  0  0  0
    4.3120    1.0111   -1.7390 O   0  0  0  0  0  0  0  0  0  0  0  0
    3.0047    0.8252   -1.3729 C   0  0  0  0  0  0  0  0  0  0  0  0
    2.0449    0.1807   -2.1613 C   0  0  0  0  0  0  0  0  0  0  0  0
    0.7389    0.0099   -1.6921 C   0  0  0  0  0  0  0  0  0  0  0  0
    0.3854    0.4760   -0.4264 C   0  0  0  0  0  0  0  0  0  0  0  0
   -0.9849    0.2988    0.0972 C   0  0  0  0  0  0  0  0  0  0  0  0
   -1.9069   -0.2868   -0.5999 N   0  0  0  0  0  0  0  0  0  0  0  0
   -3.1653   -0.3616   -0.0583 N   0  0  0  0  0  0  0  0  0  0  0  0
   -3.7881    0.6319    0.6879 C   0  0  0  0  0  0  0  0  0  0  0  0
   -3.2381    1.6572    1.0878 O   0  0  0  0  0  0  0  0  0  0  0  0
   -5.2391    0.4120    1.0222 C   0  0  0  0  0  0  0  0  0  0  0  0
   -5.7892    1.2770    1.9887 C   0  0  0  0  0  0  0  0  0  0  0  0
   -7.1214    1.1633    2.3825 C   0  0  0  0  0  0  0  0  0  0  0  0
   -7.9240    0.1828    1.8142 C   0  0  0  0  0  0  0  0  0  0  0  0
   -7.3991   -0.6812    0.8495 C   0  0  0  0  0  0  0  0  0  0  0  0
   -6.0607   -0.5769    0.4390 C   0  0  0  0  0  0  0  0  0  0  0  0
   -5.5020   -1.3918   -0.5138 O   0  0  0  0  0  0  0  0  0  0  0  0
   -6.3477   -2.3305   -1.1711 C   0  0  0  0  0  0  0  0  0  0  0  0
    1.3327    1.1221    0.3690 C   0  0  0  0  0  0  0  0  0  0  0  0
    2.6458    1.3111   -0.1003 C   0  0  0  0  0  0  0  0  0  0  0  0
    3.6484    2.0006    0.8006 C   0  0  0  0  0  0  0  0  0  0  0  0
    4.0748    1.1361    1.8670 O   0  0  0  0  0  0  0  0  0  0  0  0
    4.9809    0.1945    1.4551 C   0  0  0  0  0  0  0  0  0  0  0  0
    6.2579    0.5311    1.0044 C   0  0  0  0  0  0  0  0  0  0  0  0
    6.6465    1.8141    0.9650 F   0  0  0  0  0  0  0  0  0  0  0  0
    7.1438   -0.4627    0.6028 C   0  0  0  0  0  0  0  0  0  0  0  0
    8.3644   -0.1320    0.1581 F   0  0  0  0  0  0  0  0  0  0  0  0
    6.7676   -1.7978    0.6673 C   0  0  0  0  0  0  0  0  0  0  0  0
    7.6226   -2.7540    0.2780 F   0  0  0  0  0  0  0  0  0  0  0  0
    5.5098   -2.1430    1.1432 C   0  0  0  0  0  0  0  0  0  0  0  0
    5.1528   -3.4330    1.2163 F   0  0  0  0  0  0  0  0  0  0  0  0
    4.6222   -1.1511    1.5445 C   0  0  0  0  0  0  0  0  0  0  0  0
    3.4105   -1.4951    2.0053 F   0  0  0  0  0  0  0  0  0  0  0  0
    4.0974    1.1792   -3.8076 H   0  0  0  0  0  0  0  0  0  0  0  0
    5.7345    0.9028   -3.1997 H   0  0  0  0  0  0  0  0  0  0  0  0
    4.5959   -0.4486   -3.1976 H   0  0  0  0  0  0  0  0  0  0  0  0
    2.2778   -0.2098   -3.1466 H   0  0  0  0  0  0  0  0  0  0  0  0
    0.0043   -0.4934   -2.3167 H   0  0  0  0  0  0  0  0  0  0  0  0
   -1.1565    0.6682    1.1226 H   0  0  0  0  0  0  0  0  0  0  0  0
   -3.7740   -1.0316   -0.5246 H   0  0  0  0  0  0  0  0  0  0  0  0
   -5.1725    2.0503    2.4452 H   0  0  0  0  0  0  0  0  0  0  0  0
   -7.5267    1.8395    3.1312 H   0  0  0  0  0  0  0  0  0  0  0  0
   -8.9637    0.0889    2.1195 H   0  0  0  0  0  0  0  0  0  0  0  0
   -8.0695   -1.4287    0.4369 H   0  0  0  0  0  0  0  0  0  0  0  0
   -7.1652   -1.8265   -1.6969 H   0  0  0  0  0  0  0  0  0  0  0  0
   -5.7443   -2.8538   -1.9191 H   0  0  0  0  0  0  0  0  0  0  0  0
   -6.7258   -3.0786   -0.4670 H   0  0  0  0  0  0  0  0  0  0  0  0
    1.0596    1.4792    1.3604 H   0  0  0  0  0  0  0  0  0  0  0  0
    3.1553    2.8603    1.2718 H   0  0  0  0  0  0  0  0  0  0  0  0
    4.4903    2.4305    0.2466 H   0  0  0  0  0  0  0  0  0  0  0  0
  1  2  1  0
  2  3  1  0
  3  4  2  0
  4  5  1  0
  5  6  2  0
  6  7  1  0
  7  8  2  3
  8  9  1  0
  9 10  1  0
 10 11  2  0
 10 12  1  0
 12 13  2  0
 13 14  1  0
 14 15  2  0
 15 16  1  0
 16 17  2  0
 17 18  1  0
 18 19  1  0
  6 20  1  0
 20 21  2  0
 21 22  1  0
 22 23  1  0
 23 24  1  0
 24 25  2  0
 25 26  1  0
 25 27  1  0
 27 28  1  0
 27 29  2  0
 29 30  1  0
 29 31  1  0
 31 32  1  0
 31 33  2  0
 33 34  1  0
 21  3  1  0
 33 24  1  0
 17 12  1  0
  1 35  1  0
  1 36  1  0
  1 37  1  0
  4 38  1  0
  5 39  1  0
  7 40  1  0
  9 41  1  0
 13 42  1  0
 14 43  1  0
 15 44  1  0
 16 45  1  0
 19 46  1  0
 19 47  1  0
 19 48  1  0
 20 49  1  0
 22 50  1  0
 22 51  1  0
M  END
$$$$
