
     RDKit          3D

 54 56  0  0  0  0  0  0  0  0999 V2000
    7.5615   -0.2704   -3.0721 C   0  0  0  0  0  0  0  0  0  0  0  0
    6.6440    0.7018   -2.5858 O   0  0  0  0  0  0  0  0  0  0  0  0
    5.8345    0.3206   -1.5491 C   0  0  0  0  0  0  0  0  0  0  0  0
    5.0881    1.3510   -0.9768 C   0  0  0  0  0  0  0  0  0  0  0  0
    4.2250    1.0988    0.0918 C   0  0  0  0  0  0  0  0  0  0  0  0
    4.0886   -0.1972    0.5994 C   0  0  0  0  0  0  0  0  0  0  0  0
    3.1517   -0.4765    1.7448 C   0  0  0  0  0  0  0  0  0  0  0  0
    1.8140   -1.0828    1.3045 C   0  0  0  0  0  0  0  0  0  0  0  0
    0.9345   -0.1500    0.4644 C   0  0  0  0  0  0  0  0  0  0  0  0
    0.4872    1.0404    1.2239 C   0  0  0  0  0  0  0  0  0  0  0  0
    0.8913    2.2850    1.1408 N   0  0  0  0  0  0  0  0  0  0  0  0
    0.1591    2.9909    2.0740 N   0  0  0  0  0  0  0  0  0  0  0  0
   -0.6489    2.1300    2.6565 C   0  0  0  0  0  0  0  0  0  0  0  0
   -1.7649    2.5504    3.9186 S   0  0  0  0  0  0  0  0  0  0  0  0
   -2.8733    1.1195    3.8991 C   0  0  0  0  0  0  0  0  0  0  0  0
   -3.6570    1.0591    2.5953 C   0  0  0  0  0  0  0  0  0  0  0  0
   -4.4686    1.9319    2.3023 O   0  0  0  0  0  0  0  0  0  0  0  0
   -3.3498   -0.0522    1.8305 N   0  0  0  0  0  0  0  0  0  0  0  0
   -3.8009   -0.3701    0.5251 C   0  0  0  0  0  0  0  0  0  0  0  0
   -4.5775    0.4961   -0.2479 C   0  0  0  0  0  0  0  0  0  0  0  0
   -4.9829    0.1529   -1.5522 C   0  0  0  0  0  0  0  0  0  0  0  0
   -5.8105    1.1359   -2.3420 C   0  0  0  0  0  0  0  0  0  0  0  0
   -4.6221   -1.0983   -2.0886 C   0  0  0  0  0  0  0  0  0  0  0  0
   -5.0117   -1.5058   -3.4842 C   0  0  0  0  0  0  0  0  0  0  0  0
   -3.8335   -1.9647   -1.3224 C   0  0  0  0  0  0  0  0  0  0  0  0
   -3.4283   -1.6036   -0.0329 C   0  0  0  0  0  0  0  0  0  0  0  0
   -2.3564   -2.8443    0.9370 Br  0  0  0  0  0  0  0  0  0  0  0  0
   -0.4835    0.8553    2.1716 O   0  0  0  0  0  0  0  0  0  0  0  0
    4.8301   -1.2294    0.0194 C   0  0  0  0  0  0  0  0  0  0  0  0
    5.7000   -0.9725   -1.0470 C   0  0  0  0  0  0  0  0  0  0  0  0
    8.2248   -0.6223   -2.2746 H   0  0  0  0  0  0  0  0  0  0  0  0
    7.0388   -1.1066   -3.5471 H   0  0  0  0  0  0  0  0  0  0  0  0
    8.1832    0.2099   -3.8333 H   0  0  0  0  0  0  0  0  0  0  0  0
    5.1817    2.3625   -1.3629 H   0  0  0  0  0  0  0  0  0  0  0  0
    3.6613    1.9243    0.5187 H   0  0  0  0  0  0  0  0  0  0  0  0
    3.6463   -1.1740    2.4325 H   0  0  0  0  0  0  0  0  0  0  0  0
    2.9894    0.4369    2.3290 H   0  0  0  0  0  0  0  0  0  0  0  0
    1.9994   -1.9988    0.7299 H   0  0  0  0  0  0  0  0  0  0  0  0
    1.2645   -1.3861    2.2032 H   0  0  0  0  0  0  0  0  0  0  0  0
    0.0506   -0.7035    0.1273 H   0  0  0  0  0  0  0  0  0  0  0  0
    1.4590    0.1644   -0.4435 H   0  0  0  0  0  0  0  0  0  0  0  0
   -3.5923    1.2144    4.7163 H   0  0  0  0  0  0  0  0  0  0  0  0
   -2.3060    0.2028    4.0778 H   0  0  0  0  0  0  0  0  0  0  0  0
   -2.7385   -0.7514    2.2405 H   0  0  0  0  0  0  0  0  0  0  0  0
   -4.8731    1.4702    0.1356 H   0  0  0  0  0  0  0  0  0  0  0  0
   -5.3639    1.3080   -3.3264 H   0  0  0  0  0  0  0  0  0  0  0  0
   -5.8684    2.1093   -1.8384 H   0  0  0  0  0  0  0  0  0  0  0  0
   -6.8311    0.7603   -2.4637 H   0  0  0  0  0  0  0  0  0  0  0  0
   -4.8648   -2.5785   -3.6393 H   0  0  0  0  0  0  0  0  0  0  0  0
   -4.3995   -0.9694   -4.2137 H   0  0  0  0  0  0  0  0  0  0  0  0
   -6.0695   -1.2984   -3.6744 H   0  0  0  0  0  0  0  0  0  0  0  0
   -3.5293   -2.9270   -1.7342 H   0  0  0  0  0  0  0  0  0  0  0  0
    4.7429   -2.2442    0.3972 H   0  0  0  0  0  0  0  0  0  0  0  0
    6.2545   -1.8045   -1.4647 H   0  0  0  0  0  0  0  0  0  0  0  0
  1  2  1  0
  2  3  1  0
  3  4  2  0
  4  5  1  0
  5  6  2  0
  6  7  1  0
  7  8  1  0
  8  9  1  0
  9 10  1  0
 10 11  2  0
 11 12  1  0
 12 13  2  0
 13 14  1  0
 14 15  1  0
 15 16  1  0
 16 17  2  0
 16 18  1  0
 18 19  1  0
 19 20  2  0
 20 21  1  0
 21 22  1  0
 21 23  2  0
 23 24  1  0
 23 25  1  0
 25 26  2  0
 26 27  1  0
 13 28  1  0
  6 29  1  0
 29 30  2  0
 30  3  1  0
 28 10  1  0
 26 19  1  0
  1 31  1  0
  1 32  1  0
  1 33  1  0
  4 34  1  0
  5 35  1  0
  7 36  1  0
  7 37  1  0
  8 38  1  0
  8 39  1  0
  9 40  1  0
  9 41  1  0
 15 42  1  0
 15 43  1  0
 18 44  1  0
 20 45  1  0
 22 46  1  0
 22 47  1  0
 22 48  1  0
 24 49  1  0
 24 50  1  0
 24 51  1  0
 25 52  1  0
 29 53  1  0
 30 54  1  0
M  END
$$$$
