
     RDKit          3D

 58 62  0  0  0  0  0  0  0  0999 V2000
    8.4674    0.9804    1.8305 C   0  0  0  0  0  0  0  0  0  0  0  0
    7.3403    0.9242    2.6944 O   0  0  0  0  0  0  0  0  0  0  0  0
    6.1396    0.5829    2.1335 C   0  0  0  0  0  0  0  0  0  0  0  0
    5.0564    0.6124    3.0175 C   0  0  0  0  0  0  0  0  0  0  0  0
    3.7704    0.2791    2.5822 C   0  0  0  0  0  0  0  0  0  0  0  0
    3.5451   -0.0909    1.2572 C   0  0  0  0  0  0  0  0  0  0  0  0
    2.2339   -0.4157    0.8697 N   0  0  0  0  0  0  0  0  0  0  0  0
    1.9553   -0.7695   -0.3631 C   0  0  0  0  0  0  0  0  0  0  0  0
    0.6238   -1.0519   -0.6592 N   0  0  0  0  0  0  0  0  0  0  0  0
    0.0359   -0.8403   -1.9871 C   0  0  0  0  0  0  0  0  0  0  0  0
   -1.4476   -0.4138   -1.9032 C   0  0  0  0  0  0  0  0  0  0  0  0
   -2.2839   -1.3986   -1.2001 N   0  0  0  0  0  0  0  0  0  0  0  0
   -3.6521   -0.9377   -0.9402 C   0  0  0  0  0  0  0  0  0  0  0  0
   -3.8133    0.2145    0.0716 C   0  0  0  0  0  0  0  0  0  0  0  0
   -5.2696    0.5990    0.2543 C   0  0  0  0  0  0  0  0  0  0  0  0
   -6.0449   -0.1480    1.1604 C   0  0  0  0  0  0  0  0  0  0  0  0
   -7.3927    0.1450    1.3628 C   0  0  0  0  0  0  0  0  0  0  0  0
   -7.9895    1.1855    0.6607 C   0  0  0  0  0  0  0  0  0  0  0  0
   -7.2382    1.9350   -0.2432 C   0  0  0  0  0  0  0  0  0  0  0  0
   -5.8752    1.6559   -0.4650 C   0  0  0  0  0  0  0  0  0  0  0  0
   -5.1039    2.5148   -1.4441 C   0  0  0  0  0  0  0  0  0  0  0  0
   -4.4157    1.7854   -2.3663 F   0  0  0  0  0  0  0  0  0  0  0  0
   -5.8912    3.3622   -2.1661 F   0  0  0  0  0  0  0  0  0  0  0  0
   -4.1811    3.3055   -0.8300 F   0  0  0  0  0  0  0  0  0  0  0  0
   -1.6006   -1.9867   -0.0354 C   0  0  0  0  0  0  0  0  0  0  0  0
   -0.3413   -1.2313    0.4389 C   0  0  0  0  0  0  0  0  0  0  0  0
    3.0580   -0.8514   -1.3170 C   0  0  0  0  0  0  0  0  0  0  0  0
    3.1276   -1.2794   -2.6325 C   0  0  0  0  0  0  0  0  0  0  0  0
    4.4645   -1.1371   -3.0717 C   0  0  0  0  0  0  0  0  0  0  0  0
    5.1913   -0.6542   -2.0074 C   0  0  0  0  0  0  0  0  0  0  0  0
    4.3421   -0.5128   -0.9351 N   0  0  0  0  0  0  0  0  0  0  0  0
    4.6353   -0.1162    0.3807 C   0  0  0  0  0  0  0  0  0  0  0  0
    5.9308    0.2158    0.8031 C   0  0  0  0  0  0  0  0  0  0  0  0
    9.3263    1.3076    2.4239 H   0  0  0  0  0  0  0  0  0  0  0  0
    8.3175    1.7134    1.0307 H   0  0  0  0  0  0  0  0  0  0  0  0
    8.7011   -0.0081    1.4233 H   0  0  0  0  0  0  0  0  0  0  0  0
    5.2142    0.8964    4.0553 H   0  0  0  0  0  0  0  0  0  0  0  0
    2.9374    0.3070    3.2795 H   0  0  0  0  0  0  0  0  0  0  0  0
    0.5748   -0.0518   -2.5229 H   0  0  0  0  0  0  0  0  0  0  0  0
    0.1135   -1.7677   -2.5658 H   0  0  0  0  0  0  0  0  0  0  0  0
   -1.4870    0.5641   -1.4091 H   0  0  0  0  0  0  0  0  0  0  0  0
   -1.8316   -0.2786   -2.9206 H   0  0  0  0  0  0  0  0  0  0  0  0
   -4.1103   -0.6533   -1.8961 H   0  0  0  0  0  0  0  0  0  0  0  0
   -4.2404   -1.8001   -0.5998 H   0  0  0  0  0  0  0  0  0  0  0  0
   -3.2349    1.0919   -0.2308 H   0  0  0  0  0  0  0  0  0  0  0  0
   -3.4050   -0.0745    1.0479 H   0  0  0  0  0  0  0  0  0  0  0  0
   -5.5972   -0.9683    1.7197 H   0  0  0  0  0  0  0  0  0  0  0  0
   -7.9756   -0.4392    2.0696 H   0  0  0  0  0  0  0  0  0  0  0  0
   -9.0401    1.4155    0.8185 H   0  0  0  0  0  0  0  0  0  0  0  0
   -7.7257    2.7493   -0.7795 H   0  0  0  0  0  0  0  0  0  0  0  0
   -2.2819   -2.1243    0.8124 H   0  0  0  0  0  0  0  0  0  0  0  0
   -1.2926   -2.9977   -0.3318 H   0  0  0  0  0  0  0  0  0  0  0  0
    0.1123   -1.8136    1.2503 H   0  0  0  0  0  0  0  0  0  0  0  0
   -0.6214   -0.2518    0.8451 H   0  0  0  0  0  0  0  0  0  0  0  0
    2.3110   -1.6613   -3.2276 H   0  0  0  0  0  0  0  0  0  0  0  0
    4.8567   -1.3726   -4.0527 H   0  0  0  0  0  0  0  0  0  0  0  0
    6.2443   -0.4228   -1.9390 H   0  0  0  0  0  0  0  0  0  0  0  0
    6.7576    0.1786    0.1061 H   0  0  0  0  0  0  0  0  0  0  0  0
  1  2  1  0
  2  3  1  0
  3  4  2  0
  4  5  1  0
  5  6  2  0
  6  7  1  0
  7  8  2  0
  8  9  1  0
  9 10  1  0
 10 11  1  0
 11 12  1  0
 12 13  1  0
 13 14  1  0
 14 15  1  0
 15 16  2  0
 16 17  1  0
 17 18  2  0
 18 19  1  0
 19 20  2  0
 20 21  1  0
 21 22  1  0
 21 23  1  0
 21 24  1  0
 12 25  1  0
 25 26  1  0
  8 27  1  0
 27 28  2  0
 28 29  1  0
 29 30  2  0
 30 31  1  0
 31 32  1  0
 32 33  2  0
 33  3  1  0
 32  6  1  0
 26  9  1  0
 31 27  1  0
 20 15  1  0
  1 34  1  0
  1 35  1  0
  1 36  1  0
  4 37  1  0
  5 38  1  0
 10 39  1  0
 10 40  1  0
 11 41  1  0
 11 42  1  0
 13 43  1  0
 13 44  1  0
 14 45  1  0
 14 46  1  0
 16 47  1  0
 17 48  1  0
 18 49  1  0
 19 50  1  0
 25 51  1  0
 25 52  1  0
 26 53  1  0
 26 54  1  0
 28 55  1  0
 29 56  1  0
 30 57  1  0
 33 58  1  0
M  END
$$$$
