
     RDKit          3D

 52 54  0  0  0  0  0  0  0  0999 V2000
   -4.2265    1.5305    0.9027 C   0  0  0  0  0  0  0  0  0  0  0  0
   -3.6502    0.7620   -0.1936 N   0  0  0  0  0  0  0  0  0  0  0  0
   -4.4875   -0.2999   -0.7586 C   0  0  0  0  0  0  0  0  0  0  0  0
   -4.7485   -1.4442    0.1949 C   0  0  0  0  0  0  0  0  0  0  0  0
   -3.7088   -2.0559    0.9117 C   0  0  0  0  0  0  0  0  0  0  0  0
   -3.9676   -3.1338    1.7607 C   0  0  0  0  0  0  0  0  0  0  0  0
   -5.2655   -3.6192    1.8977 C   0  0  0  0  0  0  0  0  0  0  0  0
   -6.3070   -3.0263    1.1879 C   0  0  0  0  0  0  0  0  0  0  0  0
   -6.0507   -1.9482    0.3387 C   0  0  0  0  0  0  0  0  0  0  0  0
   -2.3178    0.9839   -0.5315 C   0  0  0  0  0  0  0  0  0  0  0  0
   -1.6166    1.8000    0.0728 O   0  0  0  0  0  0  0  0  0  0  0  0
   -1.7430    0.1778   -1.7000 C   0  0  0  0  0  0  0  0  0  0  0  0
   -0.3995    0.5957   -1.9555 O   0  0  0  0  0  0  0  0  0  0  0  0
    0.2432   -0.1208   -2.9193 C   0  0  0  0  0  0  0  0  0  0  0  0
   -0.2386   -1.0791   -3.5097 O   0  0  0  0  0  0  0  0  0  0  0  0
    1.6614    0.3829   -3.1063 C   0  0  0  0  0  0  0  0  0  0  0  0
    1.7854    1.7995   -2.7229 N   0  0  0  0  0  0  0  0  0  0  0  0
    3.3107    2.4809   -2.6531 S   0  0  0  0  0  6  0  0  0  0  0  0
    3.9910    2.1490   -3.8855 O   0  0  0  0  0  0  0  0  0  0  0  0
    3.1481    3.8450   -2.2061 O   0  0  0  0  0  0  0  0  0  0  0  0
    4.0771    1.5748   -1.3331 C   0  0  0  0  0  0  0  0  0  0  0  0
    5.1275    0.6975   -1.6027 C   0  0  0  0  0  0  0  0  0  0  0  0
    5.7098   -0.0147   -0.5530 C   0  0  0  0  0  0  0  0  0  0  0  0
    5.2527    0.1468    0.7664 C   0  0  0  0  0  0  0  0  0  0  0  0
    5.8292   -0.5653    1.8300 C   0  0  0  0  0  0  0  0  0  0  0  0
    5.3679   -0.3941    3.1364 C   0  0  0  0  0  0  0  0  0  0  0  0
    4.3256    0.4910    3.3965 C   0  0  0  0  0  0  0  0  0  0  0  0
    3.7413    1.2085    2.3518 C   0  0  0  0  0  0  0  0  0  0  0  0
    4.1926    1.0476    1.0323 C   0  0  0  0  0  0  0  0  0  0  0  0
    3.6141    1.7627   -0.0263 C   0  0  0  0  0  0  0  0  0  0  0  0
   -3.6429    2.4297    1.1184 H   0  0  0  0  0  0  0  0  0  0  0  0
   -5.2426    1.8345    0.6336 H   0  0  0  0  0  0  0  0  0  0  0  0
   -4.2543    0.9077    1.8015 H   0  0  0  0  0  0  0  0  0  0  0  0
   -4.0499   -0.7145   -1.6703 H   0  0  0  0  0  0  0  0  0  0  0  0
   -5.4319    0.1725   -1.0570 H   0  0  0  0  0  0  0  0  0  0  0  0
   -2.6876   -1.6936    0.8261 H   0  0  0  0  0  0  0  0  0  0  0  0
   -3.1545   -3.5952    2.3158 H   0  0  0  0  0  0  0  0  0  0  0  0
   -5.4651   -4.4592    2.5579 H   0  0  0  0  0  0  0  0  0  0  0  0
   -7.3203   -3.4064    1.2930 H   0  0  0  0  0  0  0  0  0  0  0  0
   -6.8791   -1.5055   -0.2111 H   0  0  0  0  0  0  0  0  0  0  0  0
   -2.3457    0.3721   -2.5931 H   0  0  0  0  0  0  0  0  0  0  0  0
   -1.7511   -0.8833   -1.4300 H   0  0  0  0  0  0  0  0  0  0  0  0
    1.9279    0.2729   -4.1615 H   0  0  0  0  0  0  0  0  0  0  0  0
    2.3028   -0.2478   -2.4852 H   0  0  0  0  0  0  0  0  0  0  0  0
    1.1399    2.1348   -2.0018 H   0  0  0  0  0  0  0  0  0  0  0  0
    5.4995    0.5628   -2.6162 H   0  0  0  0  0  0  0  0  0  0  0  0
    6.5294   -0.6970   -0.7706 H   0  0  0  0  0  0  0  0  0  0  0  0
    6.6470   -1.2597    1.6493 H   0  0  0  0  0  0  0  0  0  0  0  0
    5.8247   -0.9508    3.9509 H   0  0  0  0  0  0  0  0  0  0  0  0
    3.9674    0.6263    4.4139 H   0  0  0  0  0  0  0  0  0  0  0  0
    2.9293    1.8972    2.5778 H   0  0  0  0  0  0  0  0  0  0  0  0
    2.8071    2.4679    0.1663 H   0  0  0  0  0  0  0  0  0  0  0  0
  1  2  1  0
  2  3  1  0
  3  4  1  0
  4  5  2  0
  5  6  1  0
  6  7  2  0
  7  8  1  0
  8  9  2  0
  2 10  1  0
 10 11  2  0
 10 12  1  0
 12 13  1  0
 13 14  1  0
 14 15  2  0
 14 16  1  0
 16 17  1  0
 17 18  1  0
 18 19  2  0
 18 20  2  0
 18 21  1  0
 21 22  2  0
 22 23  1  0
 23 24  2  0
 24 25  1  0
 25 26  2  0
 26 27  1  0
 27 28  2  0
 28 29  1  0
 29 30  2  0
  9  4  1  0
 30 21  1  0
 29 24  1  0
  1 31  1  0
  1 32  1  0
  1 33  1  0
  3 34  1  0
  3 35  1  0
  5 36  1  0
  6 37  1  0
  7 38  1  0
  8 39  1  0
  9 40  1  0
 12 41  1  0
 12 42  1  0
 16 43  1  0
 16 44  1  0
 17 45  1  0
 22 46  1  0
 23 47  1  0
 25 48  1  0
 26 49  1  0
 27 50  1  0
 28 51  1  0
 30 52  1  0
M  END
$$$$
