
     RDKit          3D

 51 55  0  0  0  0  0  0  0  0999 V2000
    1.6998    2.2226   -0.9880 O   0  0  0  0  0  0  0  0  0  0  0  0
    0.9611    1.7135   -0.1486 C   0  0  0  0  0  0  0  0  0  0  0  0
   -0.5134    2.1263   -0.0511 C   0  0  0  0  0  0  0  0  0  0  0  0
   -1.4295    1.0985   -0.5636 N   0  0  0  0  0  0  0  0  0  0  0  0
   -1.7201    0.0212    0.2706 C   0  0  0  0  0  0  0  0  0  0  0  0
   -1.2125   -0.0713    1.3943 O   0  0  0  0  0  0  0  0  0  0  0  0
   -2.5462   -1.1162   -0.2914 C   0  0  0  0  0  0  0  0  0  0  0  0
   -4.0485   -0.8695   -0.2917 C   0  0  0  0  0  0  0  0  0  0  0  0
   -4.6856   -1.1745    1.0281 C   0  0  0  0  0  0  0  0  0  0  0  0
   -5.8167   -1.8820    1.3869 C   0  0  0  0  0  0  0  0  0  0  0  0
   -5.9004   -1.8165    2.7990 C   0  0  0  0  0  0  0  0  0  0  0  0
   -4.8180   -1.0777    3.2120 C   0  0  0  0  0  0  0  0  0  0  0  0
   -4.0790   -0.6817    2.1458 O   0  0  0  0  0  0  0  0  0  0  0  0
   -4.5754    0.7949   -0.8352 S   0  0  0  0  0  0  0  0  0  0  0  0
   -3.3729    1.1032   -2.1200 C   0  0  0  0  0  0  0  0  0  0  0  0
   -3.8751    1.3102   -3.4140 C   0  0  0  0  0  0  0  0  0  0  0  0
   -3.0298    1.6963   -4.4525 C   0  0  0  0  0  0  0  0  0  0  0  0
   -1.6785    1.9014   -4.2011 C   0  0  0  0  0  0  0  0  0  0  0  0
   -1.1696    1.7112   -2.9147 C   0  0  0  0  0  0  0  0  0  0  0  0
   -1.9992    1.2930   -1.8604 C   0  0  0  0  0  0  0  0  0  0  0  0
    1.3131    0.7470    0.7771 N   0  0  0  0  0  0  0  0  0  0  0  0
    2.5752    0.1606    0.9865 C   0  0  0  0  0  0  0  0  0  0  0  0
    2.6494   -0.8489    1.9569 C   0  0  0  0  0  0  0  0  0  0  0  0
    3.8612   -1.4874    2.2330 C   0  0  0  0  0  0  0  0  0  0  0  0
    5.0087   -1.1207    1.5383 C   0  0  0  0  0  0  0  0  0  0  0  0
    4.9489   -0.0978    0.5877 C   0  0  0  0  0  0  0  0  0  0  0  0
    3.7342    0.5307    0.3013 C   0  0  0  0  0  0  0  0  0  0  0  0
    6.0475    0.3385   -0.1111 O   0  0  0  0  0  0  0  0  0  0  0  0
    7.2635   -0.1035    0.5008 C   0  0  0  0  0  0  0  0  0  0  0  0
    7.1761   -1.5767    0.8620 C   0  0  0  0  0  0  0  0  0  0  0  0
    6.1600   -1.7980    1.8467 O   0  0  0  0  0  0  0  0  0  0  0  0
   -0.6586    3.0748   -0.5819 H   0  0  0  0  0  0  0  0  0  0  0  0
   -0.7489    2.3272    1.0022 H   0  0  0  0  0  0  0  0  0  0  0  0
   -2.3048   -2.0200    0.2842 H   0  0  0  0  0  0  0  0  0  0  0  0
   -2.1911   -1.3349   -1.3068 H   0  0  0  0  0  0  0  0  0  0  0  0
   -4.4822   -1.5691   -1.0182 H   0  0  0  0  0  0  0  0  0  0  0  0
   -6.4996   -2.3778    0.7111 H   0  0  0  0  0  0  0  0  0  0  0  0
   -6.6562   -2.2521    3.4374 H   0  0  0  0  0  0  0  0  0  0  0  0
   -4.4514   -0.7578    4.1775 H   0  0  0  0  0  0  0  0  0  0  0  0
   -4.9378    1.1942   -3.6187 H   0  0  0  0  0  0  0  0  0  0  0  0
   -3.4295    1.8554   -5.4511 H   0  0  0  0  0  0  0  0  0  0  0  0
   -1.0143    2.2110   -5.0051 H   0  0  0  0  0  0  0  0  0  0  0  0
   -0.1030    1.8649   -2.7670 H   0  0  0  0  0  0  0  0  0  0  0  0
    0.5460    0.3842    1.3498 H   0  0  0  0  0  0  0  0  0  0  0  0
    1.7621   -1.1544    2.5076 H   0  0  0  0  0  0  0  0  0  0  0  0
    3.9055   -2.2734    2.9809 H   0  0  0  0  0  0  0  0  0  0  0  0
    3.7300    1.3145   -0.4481 H   0  0  0  0  0  0  0  0  0  0  0  0
    7.4556    0.5168    1.3848 H   0  0  0  0  0  0  0  0  0  0  0  0
    8.0749    0.0629   -0.2148 H   0  0  0  0  0  0  0  0  0  0  0  0
    8.1256   -1.9199    1.2842 H   0  0  0  0  0  0  0  0  0  0  0  0
    6.9492   -2.1935   -0.0161 H   0  0  0  0  0  0  0  0  0  0  0  0
  1  2  2  0
  2  3  1  0
  3  4  1  0
  4  5  1  0
  5  6  2  0
  5  7  1  0
  7  8  1  0
  8  9  1  0
  9 10  2  0
 10 11  1  0
 11 12  2  0
 12 13  1  0
  8 14  1  0
 14 15  1  0
 15 16  2  0
 16 17  1  0
 17 18  2  0
 18 19  1  0
 19 20  2  0
  2 21  1  0
 21 22  1  0
 22 23  2  0
 23 24  1  0
 24 25  2  0
 25 26  1  0
 26 27  2  0
 26 28  1  0
 28 29  1  0
 29 30  1  0
 30 31  1  0
 20  4  1  0
 27 22  1  0
 13  9  1  0
 20 15  1  0
 31 25  1  0
  3 32  1  0
  3 33  1  0
  7 34  1  0
  7 35  1  0
  8 36  1  0
 10 37  1  0
 11 38  1  0
 12 39  1  0
 16 40  1  0
 17 41  1  0
 18 42  1  0
 19 43  1  0
 21 44  1  0
 23 45  1  0
 24 46  1  0
 27 47  1  0
 29 48  1  0
 29 49  1  0
 30 50  1  0
 30 51  1  0
M  END
$$$$
