
     RDKit          3D

 30 31  0  0  0  0  0  0  0  0999 V2000
    4.7406   -2.9899   -1.8560 C   0  0  0  0  0  0  0  0  0  0  0  0
    3.4940   -2.6470   -2.4480 O   0  0  0  0  0  0  0  0  0  0  0  0
    2.6760   -1.8178   -1.7324 C   0  0  0  0  0  0  0  0  0  0  0  0
    1.4756   -1.4925   -2.3664 C   0  0  0  0  0  0  0  0  0  0  0  0
    0.5451   -0.6524   -1.7479 C   0  0  0  0  0  0  0  0  0  0  0  0
    0.8002   -0.1251   -0.4746 C   0  0  0  0  0  0  0  0  0  0  0  0
   -0.1721    0.7720    0.1881 C   0  0  0  0  0  0  0  0  0  0  0  0
    0.2710    2.0608    0.6205 C   0  0  0  0  0  0  0  0  0  0  0  0
    0.6390    3.0928    1.0043 N   0  0  0  0  0  0  0  0  0  0  0  0
   -1.4390    0.3432    0.3592 C   0  0  0  0  0  0  0  0  0  0  0  0
   -2.5583    1.0720    0.9638 C   0  0  0  0  0  0  0  0  0  0  0  0
   -2.4810    1.7049    2.2003 C   0  0  0  0  0  0  0  0  0  0  0  0
   -3.6165    2.3384    2.7005 C   0  0  0  0  0  0  0  0  0  0  0  0
   -4.7936    2.3089    1.9639 C   0  0  0  0  0  0  0  0  0  0  0  0
   -4.7881    1.6364    0.7546 C   0  0  0  0  0  0  0  0  0  0  0  0
   -3.7029    1.0113    0.2461 N   0  0  0  0  0  0  0  0  0  0  0  0
    2.0100   -0.4514    0.1553 C   0  0  0  0  0  0  0  0  0  0  0  0
    2.9406   -1.2932   -0.4682 C   0  0  0  0  0  0  0  0  0  0  0  0
    4.5948   -3.5455   -0.9237 H   0  0  0  0  0  0  0  0  0  0  0  0
    5.2731   -3.6439   -2.5532 H   0  0  0  0  0  0  0  0  0  0  0  0
    5.3592   -2.1009   -1.6947 H   0  0  0  0  0  0  0  0  0  0  0  0
    1.2639   -1.8937   -3.3550 H   0  0  0  0  0  0  0  0  0  0  0  0
   -0.3745   -0.4101   -2.2774 H   0  0  0  0  0  0  0  0  0  0  0  0
   -1.7396   -0.6343   -0.0142 H   0  0  0  0  0  0  0  0  0  0  0  0
   -1.5651    1.7105    2.7817 H   0  0  0  0  0  0  0  0  0  0  0  0
   -3.5804    2.8491    3.6588 H   0  0  0  0  0  0  0  0  0  0  0  0
   -5.6935    2.7940    2.3248 H   0  0  0  0  0  0  0  0  0  0  0  0
   -5.6839    1.5785    0.1427 H   0  0  0  0  0  0  0  0  0  0  0  0
    2.2451   -0.0588    1.1433 H   0  0  0  0  0  0  0  0  0  0  0  0
    3.8604   -1.5163    0.0624 H   0  0  0  0  0  0  0  0  0  0  0  0
  1  2  1  0
  2  3  1  0
  3  4  2  0
  4  5  1  0
  5  6  2  0
  6  7  1  0
  7  8  1  0
  8  9  3  0
  7 10  2  3
 10 11  1  0
 11 12  2  0
 12 13  1  0
 13 14  2  0
 14 15  1  0
 15 16  2  0
  6 17  1  0
 17 18  2  0
 18  3  1  0
 16 11  1  0
  1 19  1  0
  1 20  1  0
  1 21  1  0
  4 22  1  0
  5 23  1  0
 10 24  1  0
 12 25  1  0
 13 26  1  0
 14 27  1  0
 15 28  1  0
 17 29  1  0
 18 30  1  0
M  END
$$$$
