
     RDKit          3D

 25 26  0  0  0  0  0  0  0  0999 V2000
    5.6675   -0.7487    0.1704 O   0  0  0  0  0  0  0  0  0  0  0  0
    4.8379   -0.0888   -0.4712 N   0  0  0  0  0  4  0  0  0  0  0  0
    5.1157    0.6661   -1.4130 O   0  0  0  0  0  1  0  0  0  0  0  0
    3.4398   -0.2096   -0.0880 C   0  0  0  0  0  0  0  0  0  0  0  0
    3.0455   -1.0509    0.9489 C   0  0  0  0  0  0  0  0  0  0  0  0
    1.6881   -1.1235    1.2688 C   0  0  0  0  0  0  0  0  0  0  0  0
    0.7578   -0.3586    0.5569 C   0  0  0  0  0  0  0  0  0  0  0  0
   -0.6023   -0.4857    0.9188 N   0  0  0  0  0  0  0  0  0  0  0  0
   -1.7516    0.0007    0.2566 C   0  0  0  0  0  0  0  0  0  0  0  0
   -2.9461    0.1348    0.9840 C   0  0  0  0  0  0  0  0  0  0  0  0
   -4.1285    0.5534    0.3661 C   0  0  0  0  0  0  0  0  0  0  0  0
   -4.1421    0.8230   -0.9987 C   0  0  0  0  0  0  0  0  0  0  0  0
   -2.9775    0.6619   -1.7434 C   0  0  0  0  0  0  0  0  0  0  0  0
   -1.7971    0.2422   -1.1208 C   0  0  0  0  0  0  0  0  0  0  0  0
    1.1515    0.4491   -0.4527 N   0  0  0  0  0  0  0  0  0  0  0  0
    2.4723    0.5158   -0.7582 C   0  0  0  0  0  0  0  0  0  0  0  0
    3.7629   -1.6498    1.5041 H   0  0  0  0  0  0  0  0  0  0  0  0
    1.3581   -1.7868    2.0633 H   0  0  0  0  0  0  0  0  0  0  0  0
   -0.6982   -0.4164    1.9256 H   0  0  0  0  0  0  0  0  0  0  0  0
   -2.9688   -0.0838    2.0483 H   0  0  0  0  0  0  0  0  0  0  0  0
   -5.0380    0.6624    0.9508 H   0  0  0  0  0  0  0  0  0  0  0  0
   -5.0588    1.1472   -1.4835 H   0  0  0  0  0  0  0  0  0  0  0  0
   -2.9826    0.8546   -2.8130 H   0  0  0  0  0  0  0  0  0  0  0  0
   -0.9131    0.1016   -1.7360 H   0  0  0  0  0  0  0  0  0  0  0  0
    2.7076    1.1898   -1.5782 H   0  0  0  0  0  0  0  0  0  0  0  0
  1  2  2  0
  2  3  1  0
  2  4  1  0
  4  5  2  0
  5  6  1  0
  6  7  2  0
  7  8  1  0
  8  9  1  0
  9 10  2  0
 10 11  1  0
 11 12  2  0
 12 13  1  0
 13 14  2  0
  7 15  1  0
 15 16  2  0
 16  4  1  0
 14  9  1  0
  5 17  1  0
  6 18  1  0
  8 19  1  0
 10 20  1  0
 11 21  1  0
 12 22  1  0
 13 23  1  0
 14 24  1  0
 16 25  1  0
M  CHG  2   2   1   3  -1
M  END
$$$$
