
     RDKit          3D

 52 54  0  0  0  0  0  0  0  0999 V2000
   -4.5874    1.5273   -0.0319 C   0  0  0  0  0  0  0  0  0  0  0  0
   -4.0133    0.7258   -1.1039 N   0  0  0  0  0  0  0  0  0  0  0  0
   -4.9309    0.2707   -2.1485 C   0  0  0  0  0  0  0  0  0  0  0  0
   -5.8973   -0.7801   -1.6523 C   0  0  0  0  0  0  0  0  0  0  0  0
   -5.4713   -2.1033   -1.4663 C   0  0  0  0  0  0  0  0  0  0  0  0
   -6.3560   -3.0735   -0.9935 C   0  0  0  0  0  0  0  0  0  0  0  0
   -7.6746   -2.7315   -0.7002 C   0  0  0  0  0  0  0  0  0  0  0  0
   -8.1101   -1.4198   -0.8795 C   0  0  0  0  0  0  0  0  0  0  0  0
   -7.2266   -0.4476   -1.3523 C   0  0  0  0  0  0  0  0  0  0  0  0
   -2.7420    0.1593   -1.0537 C   0  0  0  0  0  0  0  0  0  0  0  0
   -2.3404   -0.6359   -1.9083 O   0  0  0  0  0  0  0  0  0  0  0  0
   -1.8444    0.5447    0.1312 C   0  0  0  0  0  0  0  0  0  0  0  0
   -0.5621   -0.0849    0.0569 O   0  0  0  0  0  0  0  0  0  0  0  0
    0.2930    0.4960   -0.8372 C   0  0  0  0  0  0  0  0  0  0  0  0
    0.0680    1.5394   -1.4392 O   0  0  0  0  0  0  0  0  0  0  0  0
    1.5410   -0.3404   -1.0329 C   0  0  0  0  0  0  0  0  0  0  0  0
    1.8416   -1.1826    0.1357 N   0  0  0  0  0  0  0  0  0  0  0  0
    3.3008   -1.9953    0.1661 S   0  0  0  0  0  6  0  0  0  0  0  0
    3.6905   -2.2711   -1.1981 O   0  0  0  0  0  0  0  0  0  0  0  0
    3.1622   -3.0457    1.1497 O   0  0  0  0  0  0  0  0  0  0  0  0
    4.3865   -0.7668    0.8408 C   0  0  0  0  0  0  0  0  0  0  0  0
    4.3487   -0.5009    2.2102 C   0  0  0  0  0  0  0  0  0  0  0  0
    5.2078    0.4590    2.7464 C   0  0  0  0  0  0  0  0  0  0  0  0
    6.1119    1.1525    1.9240 C   0  0  0  0  0  0  0  0  0  0  0  0
    6.9806    2.1214    2.4505 C   0  0  0  0  0  0  0  0  0  0  0  0
    7.8768    2.8009    1.6237 C   0  0  0  0  0  0  0  0  0  0  0  0
    7.9172    2.5204    0.2611 C   0  0  0  0  0  0  0  0  0  0  0  0
    7.0612    1.5597   -0.2796 C   0  0  0  0  0  0  0  0  0  0  0  0
    6.1526    0.8682    0.5372 C   0  0  0  0  0  0  0  0  0  0  0  0
    5.2866   -0.0991    0.0055 C   0  0  0  0  0  0  0  0  0  0  0  0
   -3.8232    2.0896    0.5066 H   0  0  0  0  0  0  0  0  0  0  0  0
   -5.0947    0.8627    0.6731 H   0  0  0  0  0  0  0  0  0  0  0  0
   -5.3033    2.2405   -0.4511 H   0  0  0  0  0  0  0  0  0  0  0  0
   -5.4730    1.1467   -2.5256 H   0  0  0  0  0  0  0  0  0  0  0  0
   -4.3772   -0.1295   -3.0061 H   0  0  0  0  0  0  0  0  0  0  0  0
   -4.4438   -2.3834   -1.6941 H   0  0  0  0  0  0  0  0  0  0  0  0
   -6.0150   -4.0964   -0.8565 H   0  0  0  0  0  0  0  0  0  0  0  0
   -8.3632   -3.4885   -0.3341 H   0  0  0  0  0  0  0  0  0  0  0  0
   -9.1396   -1.1549   -0.6526 H   0  0  0  0  0  0  0  0  0  0  0  0
   -7.5836    0.5707   -1.4867 H   0  0  0  0  0  0  0  0  0  0  0  0
   -1.7299    1.6318    0.1969 H   0  0  0  0  0  0  0  0  0  0  0  0
   -2.3194    0.1888    1.0511 H   0  0  0  0  0  0  0  0  0  0  0  0
    1.3717   -0.9734   -1.9094 H   0  0  0  0  0  0  0  0  0  0  0  0
    2.3736    0.3456   -1.2158 H   0  0  0  0  0  0  0  0  0  0  0  0
    1.0654   -1.7177    0.5277 H   0  0  0  0  0  0  0  0  0  0  0  0
    3.6592   -1.0348    2.8604 H   0  0  0  0  0  0  0  0  0  0  0  0
    5.1708    0.6610    3.8150 H   0  0  0  0  0  0  0  0  0  0  0  0
    6.9671    2.3542    3.5131 H   0  0  0  0  0  0  0  0  0  0  0  0
    8.5445    3.5482    2.0451 H   0  0  0  0  0  0  0  0  0  0  0  0
    8.6163    3.0481   -0.3827 H   0  0  0  0  0  0  0  0  0  0  0  0
    7.1105    1.3544   -1.3470 H   0  0  0  0  0  0  0  0  0  0  0  0
    5.3159   -0.3307   -1.0576 H   0  0  0  0  0  0  0  0  0  0  0  0
  1  2  1  0
  2  3  1  0
  3  4  1  0
  4  5  2  0
  5  6  1  0
  6  7  2  0
  7  8  1  0
  8  9  2  0
  2 10  1  0
 10 11  2  0
 10 12  1  0
 12 13  1  0
 13 14  1  0
 14 15  2  0
 14 16  1  0
 16 17  1  0
 17 18  1  0
 18 19  2  0
 18 20  2  0
 18 21  1  0
 21 22  2  0
 22 23  1  0
 23 24  2  0
 24 25  1  0
 25 26  2  0
 26 27  1  0
 27 28  2  0
 28 29  1  0
 29 30  2  0
  9  4  1  0
 30 21  1  0
 29 24  1  0
  1 31  1  0
  1 32  1  0
  1 33  1  0
  3 34  1  0
  3 35  1  0
  5 36  1  0
  6 37  1  0
  7 38  1  0
  8 39  1  0
  9 40  1  0
 12 41  1  0
 12 42  1  0
 16 43  1  0
 16 44  1  0
 17 45  1  0
 22 46  1  0
 23 47  1  0
 25 48  1  0
 26 49  1  0
 27 50  1  0
 28 51  1  0
 30 52  1  0
M  END
$$$$
