
     RDKit          3D

 61 66  0  0  0  0  0  0  0  0999 V2000
   -1.2265    3.1568   -1.9833 C   0  0  0  0  0  0  0  0  0  0  0  0
   -2.5570    2.9910   -1.2456 C   0  0  0  0  0  0  0  0  0  0  0  0
   -3.7177    2.8994   -2.2378 C   0  0  0  0  0  0  0  0  0  0  0  0
   -2.6341    1.9132   -0.1653 C   0  0  0  0  0  0  0  0  0  0  0  0
   -3.4872    2.2090    0.9234 C   0  0  0  0  0  0  0  0  0  0  0  0
   -3.5891    1.3749    2.0400 C   0  0  0  0  0  0  0  0  0  0  0  0
   -2.8333    0.2137    2.1107 C   0  0  0  0  0  0  0  0  0  0  0  0
   -1.9968   -0.1249    1.0525 C   0  0  0  0  0  0  0  0  0  0  0  0
   -1.9155    0.7035   -0.0864 C   0  0  0  0  0  0  0  0  0  0  0  0
   -1.1019    0.2224   -1.1336 N   0  0  0  0  0  0  0  0  0  0  0  0
    0.2745    0.1012   -1.1255 C   0  0  0  0  0  0  0  0  0  0  0  0
    1.2936    0.6167    0.1776 S   0  0  0  0  0  0  0  0  0  0  0  0
    2.9373    0.2656   -0.5209 C   0  0  0  0  0  0  0  0  0  0  0  0
    3.9934    0.3755    0.5504 C   0  0  0  0  0  0  0  0  0  0  0  0
    4.8083    1.4440    0.4733 C   0  0  0  0  0  0  0  0  0  0  0  0
    5.8270    1.7864    1.4627 C   0  0  0  0  0  0  0  0  0  0  0  0
    6.5732    2.7430    1.2984 O   0  0  0  0  0  0  0  0  0  0  0  0
    5.8554    1.0000    2.5870 O   0  0  0  0  0  0  0  0  0  0  0  0
    5.0626   -0.1627    2.6931 C   0  0  0  0  0  0  0  0  0  0  0  0
    5.2798   -0.8623    3.8761 C   0  0  0  0  0  0  0  0  0  0  0  0
    4.5990   -2.0437    4.0968 C   0  0  0  0  0  0  0  0  0  0  0  0
    3.7297   -2.5522    3.1302 C   0  0  0  0  0  0  0  0  0  0  0  0
    3.1014   -3.7774    3.4139 C   0  0  0  0  0  0  0  0  0  0  0  0
    2.2472   -4.3809    2.5015 C   0  0  0  0  0  0  0  0  0  0  0  0
    2.0233   -3.7649    1.2861 C   0  0  0  0  0  0  0  0  0  0  0  0
    2.6407   -2.5404    0.9956 C   0  0  0  0  0  0  0  0  0  0  0  0
    3.5023   -1.8567    1.8996 C   0  0  0  0  0  0  0  0  0  0  0  0
    4.1628   -0.5834    1.6910 C   0  0  0  0  0  0  0  0  0  0  0  0
    0.6927   -0.4025   -2.2608 N   0  0  0  0  0  0  0  0  0  0  0  0
   -0.4106   -0.6750   -3.0213 N   0  0  0  0  0  0  0  0  0  0  0  0
   -1.5016   -0.3596   -2.3356 C   0  0  0  0  0  0  0  0  0  0  0  0
   -2.8602   -0.6169   -2.8223 C   0  0  0  0  0  0  0  0  0  0  0  0
   -3.1051   -0.6125   -4.2026 C   0  0  0  0  0  0  0  0  0  0  0  0
   -4.3835   -0.8665   -4.6961 C   0  0  0  0  0  0  0  0  0  0  0  0
   -5.3929   -1.1311   -3.7890 C   0  0  0  0  0  0  0  0  0  0  0  0
   -5.2041   -1.1645   -2.4541 N   0  0  0  0  0  0  0  0  0  0  0  0
   -3.9465   -0.9166   -2.0053 C   0  0  0  0  0  0  0  0  0  0  0  0
   -1.2166    4.1074   -2.5298 H   0  0  0  0  0  0  0  0  0  0  0  0
   -1.0590    2.3745   -2.7266 H   0  0  0  0  0  0  0  0  0  0  0  0
   -0.3819    3.1732   -1.2867 H   0  0  0  0  0  0  0  0  0  0  0  0
   -2.6812    3.9475   -0.7153 H   0  0  0  0  0  0  0  0  0  0  0  0
   -3.7441    3.7888   -2.8777 H   0  0  0  0  0  0  0  0  0  0  0  0
   -3.6241    2.0317   -2.8923 H   0  0  0  0  0  0  0  0  0  0  0  0
   -4.6843    2.8304   -1.7257 H   0  0  0  0  0  0  0  0  0  0  0  0
   -4.0786    3.1249    0.9181 H   0  0  0  0  0  0  0  0  0  0  0  0
   -4.2510    1.6450    2.8599 H   0  0  0  0  0  0  0  0  0  0  0  0
   -2.9004   -0.4304    2.9835 H   0  0  0  0  0  0  0  0  0  0  0  0
   -1.4276   -1.0514    1.1181 H   0  0  0  0  0  0  0  0  0  0  0  0
    3.0962    1.0207   -1.3023 H   0  0  0  0  0  0  0  0  0  0  0  0
    3.0107   -0.6839   -1.0532 H   0  0  0  0  0  0  0  0  0  0  0  0
    4.7349    2.1682   -0.3322 H   0  0  0  0  0  0  0  0  0  0  0  0
    5.9779   -0.4853    4.6186 H   0  0  0  0  0  0  0  0  0  0  0  0
    4.7734   -2.5776    5.0294 H   0  0  0  0  0  0  0  0  0  0  0  0
    3.2824   -4.2852    4.3602 H   0  0  0  0  0  0  0  0  0  0  0  0
    1.7753   -5.3310    2.7351 H   0  0  0  0  0  0  0  0  0  0  0  0
    1.3758   -4.2320    0.5478 H   0  0  0  0  0  0  0  0  0  0  0  0
    2.4265   -2.1613    0.0088 H   0  0  0  0  0  0  0  0  0  0  0  0
   -2.2961   -0.4091   -4.9026 H   0  0  0  0  0  0  0  0  0  0  0  0
   -4.5821   -0.8610   -5.7620 H   0  0  0  0  0  0  0  0  0  0  0  0
   -6.4070   -1.3348   -4.1209 H   0  0  0  0  0  0  0  0  0  0  0  0
   -3.8594   -0.9914   -0.9267 H   0  0  0  0  0  0  0  0  0  0  0  0
  1  2  1  0
  2  3  1  0
  2  4  1  0
  4  5  2  0
  5  6  1  0
  6  7  2  0
  7  8  1  0
  8  9  2  0
  9 10  1  0
 10 11  1  0
 11 12  1  0
 12 13  1  0
 13 14  1  0
 14 15  2  0
 15 16  1  0
 16 17  2  0
 16 18  1  0
 18 19  1  0
 19 20  2  0
 20 21  1  0
 21 22  2  0
 22 23  1  0
 23 24  2  0
 24 25  1  0
 25 26  2  0
 26 27  1  0
 27 28  2  0
 11 29  2  0
 29 30  1  0
 30 31  2  0
 31 32  1  0
 32 33  2  0
 33 34  1  0
 34 35  2  0
 35 36  1  0
 36 37  2  0
  9  4  1  0
 31 10  1  0
 37 32  1  0
 28 14  1  0
 28 19  1  0
 27 22  1  0
  1 38  1  0
  1 39  1  0
  1 40  1  0
  2 41  1  0
  3 42  1  0
  3 43  1  0
  3 44  1  0
  5 45  1  0
  6 46  1  0
  7 47  1  0
  8 48  1  0
 13 49  1  0
 13 50  1  0
 15 51  1  0
 20 52  1  0
 21 53  1  0
 23 54  1  0
 24 55  1  0
 25 56  1  0
 26 57  1  0
 33 58  1  0
 34 59  1  0
 35 60  1  0
 37 61  1  0
M  END
$$$$
