
     RDKit          3D

 43 46  0  0  0  0  0  0  0  0999 V2000
   -1.5649    1.9986   -0.1131 O   0  0  0  0  0  0  0  0  0  0  0  0
   -1.8382    0.8183    0.0680 C   0  0  0  0  0  0  0  0  0  0  0  0
   -0.9492   -0.2389    0.1422 N   0  0  0  0  0  0  0  0  0  0  0  0
    0.4588   -0.1761    0.1016 C   0  0  0  0  0  0  0  0  0  0  0  0
    1.1558   -1.3884    0.1150 C   0  0  0  0  0  0  0  0  0  0  0  0
    2.5569   -1.4158    0.0827 C   0  0  0  0  0  0  0  0  0  0  0  0
    3.2864   -0.2297    0.0354 C   0  0  0  0  0  0  0  0  0  0  0  0
    4.6949   -0.1595    0.0044 N   0  0  0  0  0  0  0  0  0  0  0  0
    5.6023   -1.2099   -0.0507 C   0  0  0  0  0  0  0  0  0  0  0  0
    5.2773   -2.3914   -0.1290 O   0  0  0  0  0  0  0  0  0  0  0  0
    7.0028   -0.7788   -0.0243 C   0  0  0  0  0  0  0  0  0  0  0  0
    7.5712    0.4109    0.4034 C   0  0  0  0  0  0  0  0  0  0  0  0
    8.9903    0.4292    0.2537 C   0  0  0  0  0  0  0  0  0  0  0  0
    9.4673   -0.7474   -0.2745 C   0  0  0  0  0  0  0  0  0  0  0  0
    8.2144   -1.8669   -0.5785 S   0  0  0  0  0  0  0  0  0  0  0  0
    2.5881    0.9829    0.0281 C   0  0  0  0  0  0  0  0  0  0  0  0
    1.1874    1.0103    0.0617 C   0  0  0  0  0  0  0  0  0  0  0  0
   -3.2738    0.4362    0.1854 C   0  0  0  0  0  0  0  0  0  0  0  0
   -3.6959   -0.5753    1.0542 C   0  0  0  0  0  0  0  0  0  0  0  0
   -5.0519   -0.9031    1.1342 C   0  0  0  0  0  0  0  0  0  0  0  0
   -6.0030   -0.2219    0.3573 C   0  0  0  0  0  0  0  0  0  0  0  0
   -7.3682   -0.5423    0.4268 C   0  0  0  0  0  0  0  0  0  0  0  0
   -8.3031    0.1481   -0.3465 C   0  0  0  0  0  0  0  0  0  0  0  0
   -7.8859    1.1678   -1.1969 C   0  0  0  0  0  0  0  0  0  0  0  0
   -6.5327    1.4996   -1.2773 C   0  0  0  0  0  0  0  0  0  0  0  0
   -5.5794    0.8139   -0.5080 C   0  0  0  0  0  0  0  0  0  0  0  0
   -4.2150    1.1362   -0.5795 C   0  0  0  0  0  0  0  0  0  0  0  0
   -1.3436   -1.1703    0.1596 H   0  0  0  0  0  0  0  0  0  0  0  0
    0.6262   -2.3371    0.1491 H   0  0  0  0  0  0  0  0  0  0  0  0
    3.0408   -2.3872    0.0977 H   0  0  0  0  0  0  0  0  0  0  0  0
    5.0793    0.7729   -0.0362 H   0  0  0  0  0  0  0  0  0  0  0  0
    7.0132    1.2370    0.8257 H   0  0  0  0  0  0  0  0  0  0  0  0
    9.6288    1.2606    0.5276 H   0  0  0  0  0  0  0  0  0  0  0  0
   10.4941   -1.0103   -0.4903 H   0  0  0  0  0  0  0  0  0  0  0  0
    3.1155    1.9329   -0.0046 H   0  0  0  0  0  0  0  0  0  0  0  0
    0.6985    1.9795    0.0582 H   0  0  0  0  0  0  0  0  0  0  0  0
   -2.9910   -1.0962    1.6965 H   0  0  0  0  0  0  0  0  0  0  0  0
   -5.3652   -1.6897    1.8178 H   0  0  0  0  0  0  0  0  0  0  0  0
   -7.7160   -1.3337    1.0870 H   0  0  0  0  0  0  0  0  0  0  0  0
   -9.3572   -0.1095   -0.2826 H   0  0  0  0  0  0  0  0  0  0  0  0
   -8.6134    1.7074   -1.7979 H   0  0  0  0  0  0  0  0  0  0  0  0
   -6.2268    2.3012   -1.9465 H   0  0  0  0  0  0  0  0  0  0  0  0
   -3.8759    1.9358   -1.2367 H   0  0  0  0  0  0  0  0  0  0  0  0
  1  2  2  0
  2  3  1  0
  3  4  1  0
  4  5  2  0
  5  6  1  0
  6  7  2  0
  7  8  1  0
  8  9  1  0
  9 10  2  0
  9 11  1  0
 11 12  2  0
 12 13  1  0
 13 14  2  0
 14 15  1  0
  7 16  1  0
 16 17  2  0
  2 18  1  0
 18 19  2  0
 19 20  1  0
 20 21  2  0
 21 22  1  0
 22 23  2  0
 23 24  1  0
 24 25  2  0
 25 26  1  0
 26 27  2  0
 17  4  1  0
 27 18  1  0
 15 11  1  0
 26 21  1  0
  3 28  1  0
  5 29  1  0
  6 30  1  0
  8 31  1  0
 12 32  1  0
 13 33  1  0
 14 34  1  0
 16 35  1  0
 17 36  1  0
 19 37  1  0
 20 38  1  0
 22 39  1  0
 23 40  1  0
 24 41  1  0
 25 42  1  0
 27 43  1  0
M  END
$$$$
