
     RDKit          3D

 47 49  0  0  0  0  0  0  0  0999 V2000
   -2.4628    0.9284   -2.5244 O   0  0  0  0  0  0  0  0  0  0  0  0
   -2.9637    0.4376   -1.5162 C   0  0  0  0  0  0  0  0  0  0  0  0
   -4.4664    0.1412   -1.4617 C   0  0  0  0  0  0  0  0  0  0  0  0
   -4.8385   -0.4356   -0.2110 O   0  0  0  0  0  0  0  0  0  0  0  0
   -6.1598   -0.7449   -0.0412 C   0  0  0  0  0  0  0  0  0  0  0  0
   -6.4721   -1.3055    1.2013 C   0  0  0  0  0  0  0  0  0  0  0  0
   -7.7850   -1.6694    1.5094 C   0  0  0  0  0  0  0  0  0  0  0  0
   -8.7910   -1.4711    0.5684 C   0  0  0  0  0  0  0  0  0  0  0  0
  -10.5700   -1.9604    0.9762 Br  0  0  0  0  0  0  0  0  0  0  0  0
   -8.4928   -0.9134   -0.6731 C   0  0  0  0  0  0  0  0  0  0  0  0
   -7.1762   -0.5499   -0.9785 C   0  0  0  0  0  0  0  0  0  0  0  0
   -2.3038    0.0967   -0.3498 N   0  0  0  0  0  0  0  0  0  0  0  0
   -0.9369    0.2315   -0.0499 C   0  0  0  0  0  0  0  0  0  0  0  0
    0.0053    0.7687   -0.9287 C   0  0  0  0  0  0  0  0  0  0  0  0
    1.3529    0.8712   -0.5566 C   0  0  0  0  0  0  0  0  0  0  0  0
    1.7741    0.4258    0.7014 C   0  0  0  0  0  0  0  0  0  0  0  0
    3.1959    0.5166    1.1524 C   0  0  0  0  0  0  0  0  0  0  0  0
    3.4145    0.6257    2.3536 O   0  0  0  0  0  0  0  0  0  0  0  0
    4.1412    0.4325    0.1488 N   0  0  0  0  0  0  0  0  0  0  0  0
    5.5543    0.5199    0.2571 C   0  0  0  0  0  0  0  0  0  0  0  0
    6.1930    0.7813    1.4760 C   0  0  0  0  0  0  0  0  0  0  0  0
    7.5869    0.8633    1.5580 C   0  0  0  0  0  0  0  0  0  0  0  0
    8.3686    0.6883    0.4221 C   0  0  0  0  0  0  0  0  0  0  0  0
    7.7567    0.4328   -0.8032 C   0  0  0  0  0  0  0  0  0  0  0  0
    6.3557    0.3485   -0.8976 C   0  0  0  0  0  0  0  0  0  0  0  0
    5.7249    0.0838   -2.2204 C   0  0  0  0  0  0  0  0  0  0  0  0
    4.5252    0.0211   -2.4330 O   0  0  0  0  0  0  0  0  0  0  0  0
    6.6123   -0.0912   -3.2156 O   0  0  0  0  0  0  0  0  0  0  0  0
    0.8282   -0.0982    1.5895 C   0  0  0  0  0  0  0  0  0  0  0  0
   -0.5154   -0.1979    1.2139 C   0  0  0  0  0  0  0  0  0  0  0  0
   -4.9855    1.0957   -1.6063 H   0  0  0  0  0  0  0  0  0  0  0  0
   -4.6839   -0.5570   -2.2782 H   0  0  0  0  0  0  0  0  0  0  0  0
   -5.6884   -1.4616    1.9387 H   0  0  0  0  0  0  0  0  0  0  0  0
   -8.0083   -2.1035    2.4803 H   0  0  0  0  0  0  0  0  0  0  0  0
   -9.2759   -0.7568   -1.4109 H   0  0  0  0  0  0  0  0  0  0  0  0
   -6.9849   -0.1188   -1.9560 H   0  0  0  0  0  0  0  0  0  0  0  0
   -2.8995   -0.3024    0.3707 H   0  0  0  0  0  0  0  0  0  0  0  0
   -0.2753    1.1278   -1.9145 H   0  0  0  0  0  0  0  0  0  0  0  0
    2.0460    1.3245   -1.2607 H   0  0  0  0  0  0  0  0  0  0  0  0
    3.8014    0.2243   -0.7904 H   0  0  0  0  0  0  0  0  0  0  0  0
    5.6315    0.9311    2.3932 H   0  0  0  0  0  0  0  0  0  0  0  0
    8.0569    1.0661    2.5178 H   0  0  0  0  0  0  0  0  0  0  0  0
    9.4517    0.7529    0.4897 H   0  0  0  0  0  0  0  0  0  0  0  0
    8.3839    0.3023   -1.6821 H   0  0  0  0  0  0  0  0  0  0  0  0
    6.0626   -0.2556   -4.0104 H   0  0  0  0  0  0  0  0  0  0  0  0
    1.1353   -0.4329    2.5787 H   0  0  0  0  0  0  0  0  0  0  0  0
   -1.2231   -0.6135    1.9269 H   0  0  0  0  0  0  0  0  0  0  0  0
  1  2  2  0
  2  3  1  0
  3  4  1  0
  4  5  1  0
  5  6  2  0
  6  7  1  0
  7  8  2  0
  8  9  1  0
  8 10  1  0
 10 11  2  0
  2 12  1  0
 12 13  1  0
 13 14  2  0
 14 15  1  0
 15 16  2  0
 16 17  1  0
 17 18  2  0
 17 19  1  0
 19 20  1  0
 20 21  2  0
 21 22  1  0
 22 23  2  0
 23 24  1  0
 24 25  2  0
 25 26  1  0
 26 27  2  0
 26 28  1  0
 16 29  1  0
 29 30  2  0
 11  5  1  0
 30 13  1  0
 25 20  1  0
  3 31  1  0
  3 32  1  0
  6 33  1  0
  7 34  1  0
 10 35  1  0
 11 36  1  0
 12 37  1  0
 14 38  1  0
 15 39  1  0
 19 40  1  0
 21 41  1  0
 22 42  1  0
 23 43  1  0
 24 44  1  0
 28 45  1  0
 29 46  1  0
 30 47  1  0
M  END
$$$$
