
     RDKit          3D

 28 29  0  0  0  0  0  0  0  0999 V2000
    5.7999   -0.0552    0.1865 C   0  0  0  0  0  0  0  0  0  0  0  0
    4.6244   -0.8086    0.7778 C   0  0  0  0  0  0  0  0  0  0  0  0
    3.4197   -0.2286    0.2668 O   0  0  0  0  0  0  0  0  0  0  0  0
    2.2810   -0.8178    0.7235 C   0  0  0  0  0  0  0  0  0  0  0  0
    2.2361   -1.7613    1.5018 O   0  0  0  0  0  0  0  0  0  0  0  0
    1.1236   -0.1705    0.1580 C   0  0  0  0  0  0  0  0  0  0  0  0
    1.0094    0.8920   -0.7229 C   0  0  0  0  0  0  0  0  0  0  0  0
   -0.3698    1.1255   -0.9523 C   0  0  0  0  0  0  0  0  0  0  0  0
   -1.0773    0.2033   -0.2090 C   0  0  0  0  0  0  0  0  0  0  0  0
   -2.4837   -0.0066   -0.0728 C   0  0  0  0  0  0  0  0  0  0  0  0
   -3.5325    0.6693   -0.6590 C   0  0  0  0  0  0  0  0  0  0  0  0
   -4.6980    0.0401   -0.1700 C   0  0  0  0  0  0  0  0  0  0  0  0
   -6.1116    0.3568   -0.4690 C   0  0  0  0  0  0  0  0  0  0  0  0
   -4.3935   -0.9591    0.6636 N   0  0  0  0  0  0  0  0  0  0  0  0
   -3.0133   -0.9873    0.7234 O   0  0  0  0  0  0  0  0  0  0  0  0
   -0.1605   -0.5726    0.4563 N   0  0  0  0  0  0  0  0  0  0  0  0
    5.7487    1.0066    0.4491 H   0  0  0  0  0  0  0  0  0  0  0  0
    5.7846   -0.1138   -0.9069 H   0  0  0  0  0  0  0  0  0  0  0  0
    6.7474   -0.4636    0.5489 H   0  0  0  0  0  0  0  0  0  0  0  0
    4.6790   -1.8642    0.4889 H   0  0  0  0  0  0  0  0  0  0  0  0
    4.6425   -0.7230    1.8701 H   0  0  0  0  0  0  0  0  0  0  0  0
    1.8370    1.4416   -1.1550 H   0  0  0  0  0  0  0  0  0  0  0  0
   -0.7921    1.8884   -1.5937 H   0  0  0  0  0  0  0  0  0  0  0  0
   -3.4653    1.5006   -1.3440 H   0  0  0  0  0  0  0  0  0  0  0  0
   -6.1889    1.1977   -1.1658 H   0  0  0  0  0  0  0  0  0  0  0  0
   -6.6479    0.6264    0.4465 H   0  0  0  0  0  0  0  0  0  0  0  0
   -6.6117   -0.5049   -0.9228 H   0  0  0  0  0  0  0  0  0  0  0  0
   -0.3871   -1.3371    1.0819 H   0  0  0  0  0  0  0  0  0  0  0  0
  1  2  1  0
  2  3  1  0
  3  4  1  0
  4  5  2  0
  4  6  1  0
  6  7  2  0
  7  8  1  0
  8  9  2  0
  9 10  1  0
 10 11  2  0
 11 12  1  0
 12 13  1  0
 12 14  2  0
 14 15  1  0
  9 16  1  0
 16  6  1  0
 15 10  1  0
  1 17  1  0
  1 18  1  0
  1 19  1  0
  2 20  1  0
  2 21  1  0
  7 22  1  0
  8 23  1  0
 11 24  1  0
 13 25  1  0
 13 26  1  0
 13 27  1  0
 16 28  1  0
M  END
$$$$
