
     RDKit          3D

 38 41  0  0  0  0  0  0  0  0999 V2000
   -3.5934    2.4330   -3.0779 O   0  0  0  0  0  0  0  0  0  0  0  0
   -3.6529    2.3781   -1.8530 C   0  0  0  0  0  0  0  0  0  0  0  0
   -3.1761    1.2501   -1.0749 C   0  0  0  0  0  0  0  0  0  0  0  0
   -2.6430    0.0916   -1.6074 C   0  0  0  0  0  0  0  0  0  0  0  0
   -2.3011   -0.7406   -0.5755 N   0  0  0  0  0  0  0  0  0  0  0  0
   -1.6950   -2.0538   -0.7464 C   0  0  0  0  0  0  0  0  0  0  0  0
   -0.2640   -2.1302   -0.2416 C   0  0  0  0  0  0  0  0  0  0  0  0
    0.0909   -3.0896    0.4405 O   0  0  0  0  0  0  0  0  0  0  0  0
    0.5500   -1.0961   -0.6765 N   0  0  0  0  0  0  0  0  0  0  0  0
    1.9222   -0.9045   -0.4076 C   0  0  0  0  0  0  0  0  0  0  0  0
    2.7103   -1.8034    0.3367 C   0  0  0  0  0  0  0  0  0  0  0  0
    4.0705   -1.5534    0.5663 C   0  0  0  0  0  0  0  0  0  0  0  0
    4.6114   -0.4027    0.0410 C   0  0  0  0  0  0  0  0  0  0  0  0
    3.8513    0.4790   -0.6865 C   0  0  0  0  0  0  0  0  0  0  0  0
    2.5105    0.2586   -0.9280 C   0  0  0  0  0  0  0  0  0  0  0  0
    4.5695    1.5509   -1.1171 O   0  0  0  0  0  0  0  0  0  0  0  0
    5.8701    1.2413   -0.5729 C   0  0  0  0  0  0  0  0  0  0  0  0
    5.9034    0.0002    0.1616 O   0  0  0  0  0  0  0  0  0  0  0  0
   -2.6115   -0.1523    0.6327 C   0  0  0  0  0  0  0  0  0  0  0  0
   -2.4496   -0.6143    1.9489 C   0  0  0  0  0  0  0  0  0  0  0  0
   -2.8557    0.2197    2.9936 C   0  0  0  0  0  0  0  0  0  0  0  0
   -3.4052    1.4712    2.7375 C   0  0  0  0  0  0  0  0  0  0  0  0
   -3.5630    1.9237    1.4233 C   0  0  0  0  0  0  0  0  0  0  0  0
   -3.1607    1.1030    0.3472 C   0  0  0  0  0  0  0  0  0  0  0  0
   -4.0801    3.2126   -1.2728 H   0  0  0  0  0  0  0  0  0  0  0  0
   -2.4930   -0.1913   -2.6431 H   0  0  0  0  0  0  0  0  0  0  0  0
   -2.3208   -2.7688   -0.2013 H   0  0  0  0  0  0  0  0  0  0  0  0
   -1.7126   -2.3162   -1.8094 H   0  0  0  0  0  0  0  0  0  0  0  0
    0.1065   -0.3549   -1.2085 H   0  0  0  0  0  0  0  0  0  0  0  0
    2.2930   -2.7146    0.7542 H   0  0  0  0  0  0  0  0  0  0  0  0
    4.6760   -2.2461    1.1400 H   0  0  0  0  0  0  0  0  0  0  0  0
    1.9466    0.9814   -1.5068 H   0  0  0  0  0  0  0  0  0  0  0  0
    6.5895    1.1805   -1.3976 H   0  0  0  0  0  0  0  0  0  0  0  0
    6.1718    2.0542    0.0978 H   0  0  0  0  0  0  0  0  0  0  0  0
   -2.0194   -1.5884    2.1655 H   0  0  0  0  0  0  0  0  0  0  0  0
   -2.7379   -0.1167    4.0215 H   0  0  0  0  0  0  0  0  0  0  0  0
   -3.7144    2.1042    3.5660 H   0  0  0  0  0  0  0  0  0  0  0  0
   -3.9942    2.9048    1.2461 H   0  0  0  0  0  0  0  0  0  0  0  0
  1  2  2  0
  2  3  1  0
  3  4  2  0
  4  5  1  0
  5  6  1  0
  6  7  1  0
  7  8  2  0
  7  9  1  0
  9 10  1  0
 10 11  2  0
 11 12  1  0
 12 13  2  0
 13 14  1  0
 14 15  2  0
 14 16  1  0
 16 17  1  0
 17 18  1  0
  5 19  1  0
 19 20  2  0
 20 21  1  0
 21 22  2  0
 22 23  1  0
 23 24  2  0
 24  3  1  0
 15 10  1  0
 24 19  1  0
 18 13  1  0
  2 25  1  0
  4 26  1  0
  6 27  1  0
  6 28  1  0
  9 29  1  0
 11 30  1  0
 12 31  1  0
 15 32  1  0
 17 33  1  0
 17 34  1  0
 20 35  1  0
 21 36  1  0
 22 37  1  0
 23 38  1  0
M  END
$$$$
