
     RDKit          3D

 51 55  0  0  0  0  0  0  0  0999 V2000
    8.8339   -0.0887   -0.0551 F   0  0  0  0  0  0  0  0  0  0  0  0
    7.5659    0.0408    0.3569 C   0  0  0  0  0  0  0  0  0  0  0  0
    7.0764   -0.8076    1.3424 C   0  0  0  0  0  0  0  0  0  0  0  0
    5.7553   -0.6744    1.7714 C   0  0  0  0  0  0  0  0  0  0  0  0
    4.9261    0.3117    1.2151 C   0  0  0  0  0  0  0  0  0  0  0  0
    3.4883    0.4423    1.6646 C   0  0  0  0  0  0  0  0  0  0  0  0
    2.5463   -0.4066    0.7927 C   0  0  0  0  0  0  0  0  0  0  0  0
    1.1543   -0.3994    1.2769 N   0  0  0  0  0  0  0  0  0  0  0  0
    0.3524   -1.4647    0.6247 C   0  0  0  0  0  0  0  0  0  0  0  0
    0.0006   -1.2045   -0.8597 C   0  0  0  0  0  0  0  0  0  0  0  0
   -0.6845    0.0937   -1.0200 N   0  0  0  0  0  0  0  0  0  0  0  0
   -2.0751    0.1231   -0.9095 C   0  0  0  0  0  0  0  0  0  0  0  0
   -2.6287    0.8515    0.0268 N   0  0  0  0  0  0  0  0  0  0  0  0
   -4.0282    0.8740    0.1866 C   0  0  0  0  0  0  0  0  0  0  0  0
   -4.5653    1.6506    1.2151 C   0  0  0  0  0  0  0  0  0  0  0  0
   -5.9461    1.7011    1.4245 C   0  0  0  0  0  0  0  0  0  0  0  0
   -6.8063    0.9713    0.6031 C   0  0  0  0  0  0  0  0  0  0  0  0
   -6.2920    0.1883   -0.4309 C   0  0  0  0  0  0  0  0  0  0  0  0
   -4.9085    0.1471   -0.6274 C   0  0  0  0  0  0  0  0  0  0  0  0
   -4.3072   -0.6049   -1.6492 N   0  0  0  0  0  0  0  0  0  0  0  0
   -4.8871   -1.3923   -2.6157 C   0  0  0  0  0  0  0  0  0  0  0  0
   -3.8889   -1.8722   -3.4361 C   0  0  0  0  0  0  0  0  0  0  0  0
   -2.6629   -1.3702   -2.9416 C   0  0  0  0  0  0  0  0  0  0  0  0
   -2.9404   -0.6184   -1.8136 C   0  0  0  0  0  0  0  0  0  0  0  0
    0.0915    1.1965   -0.4158 C   0  0  0  0  0  0  0  0  0  0  0  0
    0.4605    0.8953    1.0559 C   0  0  0  0  0  0  0  0  0  0  0  0
    5.4377    1.1560    0.2174 C   0  0  0  0  0  0  0  0  0  0  0  0
    6.7592    1.0204   -0.2095 C   0  0  0  0  0  0  0  0  0  0  0  0
    7.7248   -1.5656    1.7695 H   0  0  0  0  0  0  0  0  0  0  0  0
    5.3755   -1.3421    2.5420 H   0  0  0  0  0  0  0  0  0  0  0  0
    3.2100    1.5020    1.6341 H   0  0  0  0  0  0  0  0  0  0  0  0
    3.4079    0.1367    2.7158 H   0  0  0  0  0  0  0  0  0  0  0  0
    2.6166   -0.0889   -0.2543 H   0  0  0  0  0  0  0  0  0  0  0  0
    2.9192   -1.4396    0.8217 H   0  0  0  0  0  0  0  0  0  0  0  0
   -0.5810   -1.5754    1.1928 H   0  0  0  0  0  0  0  0  0  0  0  0
    0.8660   -2.4296    0.7157 H   0  0  0  0  0  0  0  0  0  0  0  0
   -0.6128   -2.0349   -1.2228 H   0  0  0  0  0  0  0  0  0  0  0  0
    0.9106   -1.2018   -1.4709 H   0  0  0  0  0  0  0  0  0  0  0  0
   -3.8980    2.2181    1.8582 H   0  0  0  0  0  0  0  0  0  0  0  0
   -6.3482    2.3104    2.2300 H   0  0  0  0  0  0  0  0  0  0  0  0
   -7.8800    1.0145    0.7698 H   0  0  0  0  0  0  0  0  0  0  0  0
   -6.9802   -0.3686   -1.0578 H   0  0  0  0  0  0  0  0  0  0  0  0
   -5.9560   -1.5405   -2.6644 H   0  0  0  0  0  0  0  0  0  0  0  0
   -4.0319   -2.5051   -4.3026 H   0  0  0  0  0  0  0  0  0  0  0  0
   -1.6804   -1.5363   -3.3631 H   0  0  0  0  0  0  0  0  0  0  0  0
   -0.4591    2.1429   -0.4793 H   0  0  0  0  0  0  0  0  0  0  0  0
    1.0032    1.3431   -1.0070 H   0  0  0  0  0  0  0  0  0  0  0  0
   -0.4567    0.8802    1.6583 H   0  0  0  0  0  0  0  0  0  0  0  0
    1.0486    1.7257    1.4598 H   0  0  0  0  0  0  0  0  0  0  0  0
    4.8107    1.9242   -0.2298 H   0  0  0  0  0  0  0  0  0  0  0  0
    7.1642    1.6708   -0.9780 H   0  0  0  0  0  0  0  0  0  0  0  0
  1  2  1  0
  2  3  2  0
  3  4  1  0
  4  5  2  0
  5  6  1  0
  6  7  1  0
  7  8  1  0
  8  9  1  0
  9 10  1  0
 10 11  1  0
 11 12  1  0
 12 13  2  0
 13 14  1  0
 14 15  2  0
 15 16  1  0
 16 17  2  0
 17 18  1  0
 18 19  2  0
 19 20  1  0
 20 21  1  0
 21 22  2  0
 22 23  1  0
 23 24  2  0
 11 25  1  0
 25 26  1  0
  5 27  1  0
 27 28  2  0
 28  2  1  0
 26  8  1  0
 24 12  1  0
 19 14  1  0
 24 20  1  0
  3 29  1  0
  4 30  1  0
  6 31  1  0
  6 32  1  0
  7 33  1  0
  7 34  1  0
  9 35  1  0
  9 36  1  0
 10 37  1  0
 10 38  1  0
 15 39  1  0
 16 40  1  0
 17 41  1  0
 18 42  1  0
 21 43  1  0
 22 44  1  0
 23 45  1  0
 25 46  1  0
 25 47  1  0
 26 48  1  0
 26 49  1  0
 27 50  1  0
 28 51  1  0
M  END
$$$$
