
     RDKit          3D

 46 49  0  0  0  0  0  0  0  0999 V2000
    1.9070   -1.3354    0.6887 O   0  0  0  0  0  0  0  0  0  0  0  0
    2.3314   -0.2065    0.9065 C   0  0  0  0  0  0  0  0  0  0  0  0
    1.4985    0.9147    1.5144 C   0  0  0  0  0  0  0  0  0  0  0  0
    0.0573    0.6060    1.4610 N   0  0  0  0  0  4  0  0  0  0  0  0
   -0.8822    1.1543    0.5891 C   0  0  0  0  0  0  0  0  0  0  0  0
   -2.1131    0.5456    0.8112 C   0  0  0  0  0  0  0  0  0  0  0  0
   -3.4645    0.8726    0.0738 C   0  0  0  0  0  0  0  0  0  0  0  0
   -4.6517    0.2376    0.4411 C   0  0  0  0  0  0  0  0  0  0  0  0
   -5.8465    0.5384   -0.2246 C   0  0  0  0  0  0  0  0  0  0  0  0
   -5.8660    1.4780   -1.2583 C   0  0  0  0  0  0  0  0  0  0  0  0
   -7.3746    1.7982   -2.0307 Cl  0  0  0  0  0  0  0  0  0  0  0  0
   -4.6811    2.1204   -1.6240 C   0  0  0  0  0  0  0  0  0  0  0  0
   -4.6157    3.2982   -2.8858 Cl  0  0  0  0  0  0  0  0  0  0  0  0
   -3.4838    1.8185   -0.9592 C   0  0  0  0  0  0  0  0  0  0  0  0
   -1.8363   -0.3789    1.8027 N   0  0  0  0  0  0  0  0  0  0  0  0
   -0.5594   -0.3316    2.1742 C   0  0  0  0  0  0  0  0  0  0  0  0
   -0.2235   -1.3056    3.2386 C   0  0  0  0  0  0  0  0  0  0  0  0
   -1.4538   -2.2330    3.2243 C   0  0  0  0  0  0  0  0  0  0  0  0
   -2.5695   -1.4131    2.5210 C   0  0  0  0  0  0  0  0  0  0  0  0
    3.5960    0.2308    0.6735 O   0  0  0  0  0  0  0  0  0  0  0  0
    4.4522   -0.6807   -0.0328 C   0  0  0  0  0  0  0  0  0  0  0  0
    4.3330   -0.4078   -1.5082 C   0  0  0  0  0  0  0  0  0  0  0  0
    4.9659    0.7073   -2.0760 C   0  0  0  0  0  0  0  0  0  0  0  0
    4.8368    0.9751   -3.4396 C   0  0  0  0  0  0  0  0  0  0  0  0
    4.0706    0.1362   -4.2468 C   0  0  0  0  0  0  0  0  0  0  0  0
    3.4302   -0.9702   -3.6914 C   0  0  0  0  0  0  0  0  0  0  0  0
    3.5577   -1.2403   -2.3279 C   0  0  0  0  0  0  0  0  0  0  0  0
    1.7830    1.0496    2.5622 H   0  0  0  0  0  0  0  0  0  0  0  0
    1.6732    1.8419    0.9594 H   0  0  0  0  0  0  0  0  0  0  0  0
   -0.5510    1.9251   -0.0867 H   0  0  0  0  0  0  0  0  0  0  0  0
   -4.6940   -0.4870    1.2451 H   0  0  0  0  0  0  0  0  0  0  0  0
   -6.7666    0.0361    0.0707 H   0  0  0  0  0  0  0  0  0  0  0  0
   -2.5811    2.3351   -1.2735 H   0  0  0  0  0  0  0  0  0  0  0  0
   -0.1410   -0.7342    4.1655 H   0  0  0  0  0  0  0  0  0  0  0  0
    0.7063   -1.8169    2.9926 H   0  0  0  0  0  0  0  0  0  0  0  0
   -1.2283   -3.1191    2.6187 H   0  0  0  0  0  0  0  0  0  0  0  0
   -1.7431   -2.5735    4.2222 H   0  0  0  0  0  0  0  0  0  0  0  0
   -3.1396   -2.0392    1.8312 H   0  0  0  0  0  0  0  0  0  0  0  0
   -3.2282   -0.9344    3.2514 H   0  0  0  0  0  0  0  0  0  0  0  0
    5.4805   -0.4950    0.2983 H   0  0  0  0  0  0  0  0  0  0  0  0
    4.2347   -1.7273    0.2131 H   0  0  0  0  0  0  0  0  0  0  0  0
    5.5710    1.3714   -1.4622 H   0  0  0  0  0  0  0  0  0  0  0  0
    5.3407    1.8345   -3.8762 H   0  0  0  0  0  0  0  0  0  0  0  0
    3.9790    0.3411   -5.3111 H   0  0  0  0  0  0  0  0  0  0  0  0
    2.8381   -1.6275   -4.3239 H   0  0  0  0  0  0  0  0  0  0  0  0
    3.0514   -2.1097   -1.9118 H   0  0  0  0  0  0  0  0  0  0  0  0
  1  2  2  0
  2  3  1  0
  3  4  1  0
  4  5  1  0
  5  6  2  0
  6  7  1  0
  7  8  2  0
  8  9  1  0
  9 10  2  0
 10 11  1  0
 10 12  1  0
 12 13  1  0
 12 14  2  0
  6 15  1  0
 15 16  1  0
 16 17  1  0
 17 18  1  0
 18 19  1  0
  2 20  1  0
 20 21  1  0
 21 22  1  0
 22 23  2  0
 23 24  1  0
 24 25  2  0
 25 26  1  0
 26 27  2  0
 16  4  2  0
 27 22  1  0
 14  7  1  0
 19 15  1  0
  3 28  1  0
  3 29  1  0
  5 30  1  0
  8 31  1  0
  9 32  1  0
 14 33  1  0
 17 34  1  0
 17 35  1  0
 18 36  1  0
 18 37  1  0
 19 38  1  0
 19 39  1  0
 21 40  1  0
 21 41  1  0
 23 42  1  0
 24 43  1  0
 25 44  1  0
 26 45  1  0
 27 46  1  0
M  CHG  1   4   1
M  END
$$$$
