
     RDKit          3D

 39 40  0  0  0  0  0  0  0  0999 V2000
   -0.3231   -2.9750   -0.7454 O   0  0  0  0  0  0  0  0  0  0  0  0
   -0.7633   -1.9446   -1.2582 C   0  0  0  0  0  0  0  0  0  0  0  0
   -2.0668   -1.4155   -0.7728 C   0  0  0  0  0  0  0  0  0  0  0  0
   -2.5748   -0.2169   -1.0957 C   0  0  0  0  0  0  0  0  0  0  0  0
   -3.8695    0.2764   -0.6000 C   0  0  0  0  0  0  0  0  0  0  0  0
   -4.3294    0.0124    0.6977 C   0  0  0  0  0  0  0  0  0  0  0  0
   -5.5539    0.5248    1.1345 C   0  0  0  0  0  0  0  0  0  0  0  0
   -6.3161    1.3120    0.2814 C   0  0  0  0  0  0  0  0  0  0  0  0
   -7.5029    1.7913    0.7496 O   0  0  0  0  0  0  0  0  0  0  0  0
   -5.8726    1.6017   -1.0035 C   0  0  0  0  0  0  0  0  0  0  0  0
   -4.6472    1.0880   -1.4393 C   0  0  0  0  0  0  0  0  0  0  0  0
    0.0085   -1.2298   -2.3325 C   0  0  0  0  0  0  0  0  0  0  0  0
    0.8606   -0.1163   -1.7918 C   0  0  0  0  0  0  0  0  0  0  0  0
    0.6161    1.0593   -2.0579 O   0  0  0  0  0  0  0  0  0  0  0  0
    2.0114   -0.4999   -0.9249 C   0  0  0  0  0  0  0  0  0  0  0  0
    2.7884    0.4457   -0.3767 C   0  0  0  0  0  0  0  0  0  0  0  0
    3.9446    0.1615    0.4843 C   0  0  0  0  0  0  0  0  0  0  0  0
    5.0469    1.0276    0.4393 C   0  0  0  0  0  0  0  0  0  0  0  0
    6.1603    0.8126    1.2574 C   0  0  0  0  0  0  0  0  0  0  0  0
    6.1657   -0.2672    2.1326 C   0  0  0  0  0  0  0  0  0  0  0  0
    7.2281   -0.5156    2.9494 O   0  0  0  0  0  0  0  0  0  0  0  0
    5.0780   -1.1276    2.2048 C   0  0  0  0  0  0  0  0  0  0  0  0
    3.9662   -0.9113    1.3864 C   0  0  0  0  0  0  0  0  0  0  0  0
   -2.5910   -2.0991   -0.1109 H   0  0  0  0  0  0  0  0  0  0  0  0
   -2.0530    0.4681   -1.7597 H   0  0  0  0  0  0  0  0  0  0  0  0
   -3.7402   -0.5822    1.3913 H   0  0  0  0  0  0  0  0  0  0  0  0
   -5.9067    0.3150    2.1404 H   0  0  0  0  0  0  0  0  0  0  0  0
   -7.9173    2.3283    0.0546 H   0  0  0  0  0  0  0  0  0  0  0  0
   -6.4573    2.2215   -1.6756 H   0  0  0  0  0  0  0  0  0  0  0  0
   -4.3080    1.3243   -2.4458 H   0  0  0  0  0  0  0  0  0  0  0  0
   -0.6718   -0.8435   -3.0988 H   0  0  0  0  0  0  0  0  0  0  0  0
    0.6500   -1.9520   -2.8515 H   0  0  0  0  0  0  0  0  0  0  0  0
    2.1814   -1.5599   -0.7718 H   0  0  0  0  0  0  0  0  0  0  0  0
    2.5922    1.4985   -0.5754 H   0  0  0  0  0  0  0  0  0  0  0  0
    5.0512    1.8765   -0.2415 H   0  0  0  0  0  0  0  0  0  0  0  0
    7.0025    1.4943    1.1971 H   0  0  0  0  0  0  0  0  0  0  0  0
    7.9042    0.1642    2.7947 H   0  0  0  0  0  0  0  0  0  0  0  0
    5.0903   -1.9620    2.9005 H   0  0  0  0  0  0  0  0  0  0  0  0
    3.1181   -1.5856    1.4760 H   0  0  0  0  0  0  0  0  0  0  0  0
  1  2  2  0
  2  3  1  0
  3  4  2  3
  4  5  1  0
  5  6  2  0
  6  7  1  0
  7  8  2  0
  8  9  1  0
  8 10  1  0
 10 11  2  0
  2 12  1  0
 12 13  1  0
 13 14  2  0
 13 15  1  0
 15 16  2  3
 16 17  1  0
 17 18  2  0
 18 19  1  0
 19 20  2  0
 20 21  1  0
 20 22  1  0
 22 23  2  0
 11  5  1  0
 23 17  1  0
  3 24  1  0
  4 25  1  0
  6 26  1  0
  7 27  1  0
  9 28  1  0
 10 29  1  0
 11 30  1  0
 12 31  1  0
 12 32  1  0
 15 33  1  0
 16 34  1  0
 18 35  1  0
 19 36  1  0
 21 37  1  0
 22 38  1  0
 23 39  1  0
M  END
$$$$
