
     RDKit          3D

 84 86  0  0  0  0  0  0  0  0999 V2000
    1.7016    3.5277    4.1225 C   0  0  0  0  0  0  0  0  0  0  0  0
    1.1204    2.1783    3.8303 C   0  0  0  0  0  0  0  0  0  0  0  0
    1.7871    1.1898    3.5576 O   0  0  0  0  0  0  0  0  0  0  0  0
   -0.2400    2.2321    3.8671 O   0  0  0  0  0  0  0  0  0  0  0  0
   -0.9177    0.9974    3.5934 C   0  0  1  0  0  0  0  0  0  0  0  0
   -2.4167    1.0603    3.9602 C   0  0  1  0  0  0  0  0  0  0  0  0
   -2.9832    2.4518    4.2189 C   0  0  0  0  0  0  0  0  0  0  0  0
   -3.1571    0.3350    2.8190 C   0  0  0  0  0  0  0  0  0  0  0  0
   -2.0877   -0.4283    1.9972 C   0  0  2  0  0  0  0  0  0  0  0  0
   -2.4968   -0.5395    0.6257 O   0  0  0  0  0  0  0  0  0  0  0  0
   -3.6065   -1.2666    0.3373 C   0  0  0  0  0  0  0  0  0  0  0  0
   -3.8451   -1.2694   -1.1416 C   0  0  0  0  0  0  0  0  0  0  0  0
   -4.2999   -1.8536    1.1538 O   0  0  0  0  0  0  0  0  0  0  0  0
   -1.7245   -1.7912    2.7033 C   0  0  0  0  0  0  0  0  0  0  0  0
   -1.6690   -1.8568    3.9379 O   0  0  0  0  0  0  0  0  0  0  0  0
   -1.4495   -3.0795    1.9520 C   0  0  0  0  0  0  0  0  0  0  0  0
   -2.0768   -4.2702    2.6390 C   0  0  0  0  0  0  0  0  0  0  0  0
   -0.7018   -3.2687    0.8449 C   0  0  0  0  0  0  0  0  0  0  0  0
    0.0153   -2.2496    0.0178 C   0  0  0  0  0  0  0  0  0  0  0  0
    1.5587   -2.2872   -0.1030 C   0  0  0  0  0  0  0  0  0  0  0  0
    1.9870   -3.5792   -0.8365 C   0  0  0  0  0  0  0  0  0  0  0  0
    2.2120   -2.3095    1.2960 C   0  0  0  0  0  0  0  0  0  0  0  0
    2.0521   -1.0416   -0.9508 C   0  0  2  0  0  0  0  0  0  0  0  0
    3.5023   -1.0995   -1.0018 O   0  0  0  0  0  0  0  0  0  0  0  0
    4.0926   -0.5530   -2.1001 C   0  0  0  0  0  0  0  0  0  0  0  0
    5.5786   -0.7156   -2.0132 C   0  0  0  0  0  0  0  0  0  0  0  0
    3.5098   -0.0036   -3.0241 O   0  0  0  0  0  0  0  0  0  0  0  0
    1.6515    0.3631   -0.4149 C   0  0  0  0  0  0  0  0  0  0  0  0
    0.2750    0.8484   -0.9117 C   0  0  2  0  0  0  0  0  0  0  0  0
    0.4523    1.3246   -2.2668 O   0  0  0  0  0  0  0  0  0  0  0  0
   -0.0709    0.5722   -3.2648 C   0  0  0  0  0  0  0  0  0  0  0  0
   -0.7192   -0.4547   -3.1308 O   0  0  0  0  0  0  0  0  0  0  0  0
    0.2234    1.1896   -4.5840 C   0  0  0  0  0  0  0  0  0  0  0  0
   -0.5219    0.7700   -5.6939 C   0  0  0  0  0  0  0  0  0  0  0  0
   -0.2788    1.3230   -6.9527 C   0  0  0  0  0  0  0  0  0  0  0  0
    0.7123    2.2917   -7.1088 C   0  0  0  0  0  0  0  0  0  0  0  0
    1.4651    2.7057   -6.0101 C   0  0  0  0  0  0  0  0  0  0  0  0
    1.2242    2.1561   -4.7488 C   0  0  0  0  0  0  0  0  0  0  0  0
   -0.3449    1.9546   -0.0585 C   0  0  0  0  0  0  0  0  0  0  0  0
   -0.4030    3.3266   -0.6919 C   0  0  0  0  0  0  0  0  0  0  0  0
   -0.8988    1.7813    1.1660 C   0  0  0  0  0  0  0  0  0  0  0  0
   -0.8763    0.5600    2.0981 C   0  0  1  0  0  0  0  0  0  0  0  0
    2.6599    3.4033    4.6360 H   0  0  0  0  0  0  0  0  0  0  0  0
    1.8452    4.0735    3.1867 H   0  0  0  0  0  0  0  0  0  0  0  0
    1.0410    4.0934    4.7867 H   0  0  0  0  0  0  0  0  0  0  0  0
   -0.4530    0.2232    4.2182 H   0  0  0  0  0  0  0  0  0  0  0  0
   -2.5587    0.4847    4.8845 H   0  0  0  0  0  0  0  0  0  0  0  0
   -2.4865    2.9222    5.0737 H   0  0  0  0  0  0  0  0  0  0  0  0
   -2.8652    3.1086    3.3518 H   0  0  0  0  0  0  0  0  0  0  0  0
   -4.0527    2.3931    4.4494 H   0  0  0  0  0  0  0  0  0  0  0  0
   -3.9170   -0.3378    3.2328 H   0  0  0  0  0  0  0  0  0  0  0  0
   -3.6891    1.0506    2.1785 H   0  0  0  0  0  0  0  0  0  0  0  0
   -4.8210   -1.7174   -1.3495 H   0  0  0  0  0  0  0  0  0  0  0  0
   -3.0693   -1.8563   -1.6398 H   0  0  0  0  0  0  0  0  0  0  0  0
   -3.8519   -0.2432   -1.5191 H   0  0  0  0  0  0  0  0  0  0  0  0
   -1.6228   -4.4351    3.6222 H   0  0  0  0  0  0  0  0  0  0  0  0
   -3.1524   -4.1101    2.7712 H   0  0  0  0  0  0  0  0  0  0  0  0
   -1.9536   -5.1937    2.0628 H   0  0  0  0  0  0  0  0  0  0  0  0
   -0.6091   -4.2867    0.4656 H   0  0  0  0  0  0  0  0  0  0  0  0
   -0.2281   -1.2966    0.4490 H   0  0  0  0  0  0  0  0  0  0  0  0
   -0.4268   -2.2763   -0.9857 H   0  0  0  0  0  0  0  0  0  0  0  0
    3.0751   -3.6356   -0.9507 H   0  0  0  0  0  0  0  0  0  0  0  0
    1.6756   -4.4763   -0.2908 H   0  0  0  0  0  0  0  0  0  0  0  0
    1.5435   -3.6277   -1.8371 H   0  0  0  0  0  0  0  0  0  0  0  0
    1.8959   -1.4610    1.9084 H   0  0  0  0  0  0  0  0  0  0  0  0
    3.3052   -2.2852    1.2316 H   0  0  0  0  0  0  0  0  0  0  0  0
    1.9468   -3.2201    1.8452 H   0  0  0  0  0  0  0  0  0  0  0  0
    1.6684   -1.1713   -1.9699 H   0  0  0  0  0  0  0  0  0  0  0  0
    6.0440   -0.2697   -2.8967 H   0  0  0  0  0  0  0  0  0  0  0  0
    5.9567   -0.2044   -1.1239 H   0  0  0  0  0  0  0  0  0  0  0  0
    5.8335   -1.7779   -1.9851 H   0  0  0  0  0  0  0  0  0  0  0  0
    2.4031    1.0954   -0.7403 H   0  0  0  0  0  0  0  0  0  0  0  0
    1.7206    0.3693    0.6744 H   0  0  0  0  0  0  0  0  0  0  0  0
   -0.4620    0.0509   -0.9287 H   0  0  0  0  0  0  0  0  0  0  0  0
   -1.2939    0.0113   -5.5816 H   0  0  0  0  0  0  0  0  0  0  0  0
   -0.8592    0.9952   -7.8114 H   0  0  0  0  0  0  0  0  0  0  0  0
    0.9036    2.7192   -8.0905 H   0  0  0  0  0  0  0  0  0  0  0  0
    2.2471    3.4505   -6.1361 H   0  0  0  0  0  0  0  0  0  0  0  0
    1.8359    2.4739   -3.9077 H   0  0  0  0  0  0  0  0  0  0  0  0
   -1.0532    3.3163   -1.5726 H   0  0  0  0  0  0  0  0  0  0  0  0
   -0.7931    4.0867   -0.0063 H   0  0  0  0  0  0  0  0  0  0  0  0
    0.5997    3.6494   -0.9914 H   0  0  0  0  0  0  0  0  0  0  0  0
   -1.3847    2.6546    1.6037 H   0  0  0  0  0  0  0  0  0  0  0  0
    0.0672    0.0349    1.9527 H   0  0  0  0  0  0  0  0  0  0  0  0
  1  2  1  0
  2  3  2  0
  2  4  1  0
  4  5  1  0
  5  6  1  0
  6  7  1  0
  6  8  1  0
  8  9  1  0
  9 10  1  6
 10 11  1  0
 11 12  1  0
 11 13  2  0
  9 14  1  0
 14 15  2  0
 14 16  1  0
 16 17  1  0
 16 18  2  3
 18 19  1  0
 19 20  1  0
 20 21  1  0
 20 22  1  0
 20 23  1  0
 23 24  1  0
 24 25  1  0
 25 26  1  0
 25 27  2  0
 23 28  1  0
 28 29  1  0
 29 30  1  0
 30 31  1  0
 31 32  2  0
 31 33  1  0
 33 34  2  0
 34 35  1  0
 35 36  2  0
 36 37  1  0
 37 38  2  0
 29 39  1  0
 39 40  1  0
 39 41  2  0
 41 42  1  0
 42  5  1  0
 42  9  1  0
 38 33  1  0
  1 43  1  0
  1 44  1  0
  1 45  1  0
  5 46  1  1
  6 47  1  1
  7 48  1  0
  7 49  1  0
  7 50  1  0
  8 51  1  0
  8 52  1  0
 12 53  1  0
 12 54  1  0
 12 55  1  0
 17 56  1  0
 17 57  1  0
 17 58  1  0
 18 59  1  0
 19 60  1  0
 19 61  1  0
 21 62  1  0
 21 63  1  0
 21 64  1  0
 22 65  1  0
 22 66  1  0
 22 67  1  0
 23 68  1  6
 26 69  1  0
 26 70  1  0
 26 71  1  0
 28 72  1  0
 28 73  1  0
 29 74  1  6
 34 75  1  0
 35 76  1  0
 36 77  1  0
 37 78  1  0
 38 79  1  0
 40 80  1  0
 40 81  1  0
 40 82  1  0
 41 83  1  0
 42 84  1  1
M  END
$$$$
