
     RDKit          3D

 42 44  0  0  0  0  0  0  0  0999 V2000
   -8.5143   -0.2132   -0.3181 C   0  0  0  0  0  0  0  0  0  0  0  0
   -7.5728   -0.1612    0.8564 C   0  0  0  0  0  0  0  0  0  0  0  0
   -7.9957   -0.1357    2.0107 O   0  0  0  0  0  0  0  0  0  0  0  0
   -6.1015   -0.1385    0.6042 C   0  0  0  0  0  0  0  0  0  0  0  0
   -5.2346   -0.1208    1.7025 C   0  0  0  0  0  0  0  0  0  0  0  0
   -3.8488   -0.0993    1.5117 C   0  0  0  0  0  0  0  0  0  0  0  0
   -3.3059   -0.0967    0.2218 C   0  0  0  0  0  0  0  0  0  0  0  0
   -1.9002   -0.0687    0.1137 N   0  0  0  0  0  0  0  0  0  0  0  0
   -1.1473   -0.1387   -1.0451 C   0  0  0  0  0  0  0  0  0  0  0  0
   -1.5647   -0.3045   -2.1844 O   0  0  0  0  0  0  0  0  0  0  0  0
    0.3247   -0.0354   -0.8394 C   0  0  0  0  0  0  0  0  0  0  0  0
    1.1706   -0.8043   -1.6436 C   0  0  0  0  0  0  0  0  0  0  0  0
    2.5594   -0.7350   -1.4799 C   0  0  0  0  0  0  0  0  0  0  0  0
    3.1179    0.1124   -0.5213 C   0  0  0  0  0  0  0  0  0  0  0  0
    4.4995    0.2429   -0.2942 N   0  0  0  0  0  0  0  0  0  0  0  0
    5.5421   -0.4179   -0.9211 C   0  0  0  0  0  0  0  0  0  0  0  0
    5.4235   -1.2612   -1.8033 O   0  0  0  0  0  0  0  0  0  0  0  0
    6.8415   -0.0086   -0.4163 C   0  0  0  0  0  0  0  0  0  0  0  0
    8.1190   -0.4086   -0.7602 C   0  0  0  0  0  0  0  0  0  0  0  0
    9.0112    0.3236    0.0587 C   0  0  0  0  0  0  0  0  0  0  0  0
    8.2291    1.1266    0.8542 C   0  0  0  0  0  0  0  0  0  0  0  0
    6.9128    0.9361    0.5782 O   0  0  0  0  0  0  0  0  0  0  0  0
    2.2658    0.8971    0.2682 C   0  0  0  0  0  0  0  0  0  0  0  0
    0.8767    0.8291    0.1113 C   0  0  0  0  0  0  0  0  0  0  0  0
   -4.1732   -0.1094   -0.8719 C   0  0  0  0  0  0  0  0  0  0  0  0
   -5.5627   -0.1316   -0.6853 C   0  0  0  0  0  0  0  0  0  0  0  0
   -9.5447   -0.2526    0.0491 H   0  0  0  0  0  0  0  0  0  0  0  0
   -8.4060    0.6860   -0.9300 H   0  0  0  0  0  0  0  0  0  0  0  0
   -8.3331   -1.1138   -0.9105 H   0  0  0  0  0  0  0  0  0  0  0  0
   -5.6334   -0.1247    2.7157 H   0  0  0  0  0  0  0  0  0  0  0  0
   -3.2073   -0.0877    2.3892 H   0  0  0  0  0  0  0  0  0  0  0  0
   -1.3935   -0.0682    0.9892 H   0  0  0  0  0  0  0  0  0  0  0  0
    0.7536   -1.4640   -2.4028 H   0  0  0  0  0  0  0  0  0  0  0  0
    3.1740   -1.3546   -2.1262 H   0  0  0  0  0  0  0  0  0  0  0  0
    4.7937    0.9023    0.4188 H   0  0  0  0  0  0  0  0  0  0  0  0
    8.3626   -1.1435   -1.5162 H   0  0  0  0  0  0  0  0  0  0  0  0
   10.0912    0.2724    0.0678 H   0  0  0  0  0  0  0  0  0  0  0  0
    8.4461    1.8521    1.6263 H   0  0  0  0  0  0  0  0  0  0  0  0
    2.6726    1.5805    1.0102 H   0  0  0  0  0  0  0  0  0  0  0  0
    0.2466    1.4776    0.7138 H   0  0  0  0  0  0  0  0  0  0  0  0
   -3.8007   -0.0991   -1.8922 H   0  0  0  0  0  0  0  0  0  0  0  0
   -6.1937   -0.1413   -1.5693 H   0  0  0  0  0  0  0  0  0  0  0  0
  1  2  1  0
  2  3  2  0
  2  4  1  0
  4  5  2  0
  5  6  1  0
  6  7  2  0
  7  8  1  0
  8  9  1  0
  9 10  2  0
  9 11  1  0
 11 12  2  0
 12 13  1  0
 13 14  2  0
 14 15  1  0
 15 16  1  0
 16 17  2  0
 16 18  1  0
 18 19  2  0
 19 20  1  0
 20 21  2  0
 21 22  1  0
 14 23  1  0
 23 24  2  0
  7 25  1  0
 25 26  2  0
 26  4  1  0
 24 11  1  0
 22 18  1  0
  1 27  1  0
  1 28  1  0
  1 29  1  0
  5 30  1  0
  6 31  1  0
  8 32  1  0
 12 33  1  0
 13 34  1  0
 15 35  1  0
 19 36  1  0
 20 37  1  0
 21 38  1  0
 23 39  1  0
 24 40  1  0
 25 41  1  0
 26 42  1  0
M  END
$$$$
