
     RDKit          3D

 57 61  0  0  0  0  0  0  0  0999 V2000
    0.1518    1.0155    1.4598 O   0  0  0  0  0  0  0  0  0  0  0  0
    0.6224    0.3752    0.2596 C   0  0  0  0  0  0  0  0  0  0  0  0
    1.2826   -0.9673    0.6180 C   0  0  0  0  0  0  0  0  0  0  0  0
    2.4453   -0.7451    1.4760 N   0  0  0  0  0  0  0  0  0  0  0  0
    3.6382   -0.2695    0.9746 C   0  0  0  0  0  0  0  0  0  0  0  0
    3.8671   -0.3097   -0.3119 N   0  0  0  0  0  0  0  0  0  0  0  0
    5.0816    0.1817   -0.8330 C   0  0  0  0  0  0  0  0  0  0  0  0
    5.2877    0.1122   -2.2121 C   0  0  0  0  0  0  0  0  0  0  0  0
    6.4713    0.5896   -2.7816 C   0  0  0  0  0  0  0  0  0  0  0  0
    7.4645    1.1437   -1.9727 C   0  0  0  0  0  0  0  0  0  0  0  0
    7.2814    1.2226   -0.5917 C   0  0  0  0  0  0  0  0  0  0  0  0
    6.0925    0.7407   -0.0363 C   0  0  0  0  0  0  0  0  0  0  0  0
    5.8283    0.7768    1.3427 N   0  0  0  0  0  0  0  0  0  0  0  0
    6.6027    1.2523    2.3743 C   0  0  0  0  0  0  0  0  0  0  0  0
    5.9156    1.0571    3.5536 C   0  0  0  0  0  0  0  0  0  0  0  0
    4.6819    0.4461    3.2263 C   0  0  0  0  0  0  0  0  0  0  0  0
    4.6468    0.2893    1.8526 C   0  0  0  0  0  0  0  0  0  0  0  0
   -0.5095    0.2133   -0.7858 C   0  0  0  0  0  0  0  0  0  0  0  0
   -1.5488   -0.7867   -0.4748 N   0  0  0  0  0  0  0  0  0  0  0  0
   -2.4509   -1.0164   -1.6263 C   0  0  0  0  0  0  0  0  0  0  0  0
   -3.7922   -0.2454   -1.6012 C   0  0  0  0  0  0  0  0  0  0  0  0
   -4.5421   -0.5152   -0.3637 N   0  0  0  0  0  0  0  0  0  0  0  0
   -5.9270   -0.4798   -0.3429 C   0  0  0  0  0  0  0  0  0  0  0  0
   -6.6588    0.2780   -1.2731 C   0  0  0  0  0  0  0  0  0  0  0  0
   -8.0586    0.3267   -1.2583 C   0  0  0  0  0  0  0  0  0  0  0  0
   -8.7699   -0.3869   -0.3024 C   0  0  0  0  0  0  0  0  0  0  0  0
   -8.0787   -1.1433    0.6353 C   0  0  0  0  0  0  0  0  0  0  0  0
   -6.6784   -1.1839    0.6124 C   0  0  0  0  0  0  0  0  0  0  0  0
   -3.7581   -1.0123    0.7781 C   0  0  0  0  0  0  0  0  0  0  0  0
   -2.3235   -0.4333    0.7385 C   0  0  0  0  0  0  0  0  0  0  0  0
   -0.1867    1.8889    1.1973 H   0  0  0  0  0  0  0  0  0  0  0  0
    1.3746    1.0497   -0.1672 H   0  0  0  0  0  0  0  0  0  0  0  0
    0.5836   -1.5926    1.1839 H   0  0  0  0  0  0  0  0  0  0  0  0
    1.5670   -1.5243   -0.2817 H   0  0  0  0  0  0  0  0  0  0  0  0
    2.1756   -0.3393    2.3663 H   0  0  0  0  0  0  0  0  0  0  0  0
    4.5178   -0.3216   -2.8444 H   0  0  0  0  0  0  0  0  0  0  0  0
    6.6173    0.5261   -3.8569 H   0  0  0  0  0  0  0  0  0  0  0  0
    8.3843    1.5121   -2.4207 H   0  0  0  0  0  0  0  0  0  0  0  0
    8.0684    1.6545    0.0173 H   0  0  0  0  0  0  0  0  0  0  0  0
    7.5771    1.6857    2.2026 H   0  0  0  0  0  0  0  0  0  0  0  0
    6.2682    1.3228    4.5421 H   0  0  0  0  0  0  0  0  0  0  0  0
    3.9069    0.1496    3.9206 H   0  0  0  0  0  0  0  0  0  0  0  0
   -0.9794    1.1903   -0.9593 H   0  0  0  0  0  0  0  0  0  0  0  0
   -0.0207   -0.0793   -1.7244 H   0  0  0  0  0  0  0  0  0  0  0  0
   -1.9395   -0.8268   -2.5781 H   0  0  0  0  0  0  0  0  0  0  0  0
   -2.6820   -2.0902   -1.6333 H   0  0  0  0  0  0  0  0  0  0  0  0
   -4.3634   -0.5615   -2.4826 H   0  0  0  0  0  0  0  0  0  0  0  0
   -3.6041    0.8317   -1.6845 H   0  0  0  0  0  0  0  0  0  0  0  0
   -6.1451    0.8728   -2.0231 H   0  0  0  0  0  0  0  0  0  0  0  0
   -8.5860    0.9289   -1.9930 H   0  0  0  0  0  0  0  0  0  0  0  0
   -9.8554   -0.3524   -0.2869 H   0  0  0  0  0  0  0  0  0  0  0  0
   -8.6225   -1.7088    1.3871 H   0  0  0  0  0  0  0  0  0  0  0  0
   -6.1860   -1.8051    1.3548 H   0  0  0  0  0  0  0  0  0  0  0  0
   -3.7257   -2.1085    0.7622 H   0  0  0  0  0  0  0  0  0  0  0  0
   -4.2104   -0.6960    1.7258 H   0  0  0  0  0  0  0  0  0  0  0  0
   -2.4167    0.6579    0.8237 H   0  0  0  0  0  0  0  0  0  0  0  0
   -1.7824   -0.7904    1.6215 H   0  0  0  0  0  0  0  0  0  0  0  0
  1  2  1  0
  2  3  1  0
  3  4  1  0
  4  5  1  0
  5  6  2  0
  6  7  1  0
  7  8  2  0
  8  9  1  0
  9 10  2  0
 10 11  1  0
 11 12  2  0
 12 13  1  0
 13 14  1  0
 14 15  2  0
 15 16  1  0
 16 17  2  0
  2 18  1  0
 18 19  1  0
 19 20  1  0
 20 21  1  0
 21 22  1  0
 22 23  1  0
 23 24  2  0
 24 25  1  0
 25 26  2  0
 26 27  1  0
 27 28  2  0
 22 29  1  0
 29 30  1  0
 17  5  1  0
 30 19  1  0
 12  7  1  0
 17 13  1  0
 28 23  1  0
  1 31  1  0
  2 32  1  0
  3 33  1  0
  3 34  1  0
  4 35  1  0
  8 36  1  0
  9 37  1  0
 10 38  1  0
 11 39  1  0
 14 40  1  0
 15 41  1  0
 16 42  1  0
 18 43  1  0
 18 44  1  0
 20 45  1  0
 20 46  1  0
 21 47  1  0
 21 48  1  0
 24 49  1  0
 25 50  1  0
 26 51  1  0
 27 52  1  0
 28 53  1  0
 29 54  1  0
 29 55  1  0
 30 56  1  0
 30 57  1  0
M  END
$$$$
