
     RDKit          3D

 39 40  0  0  0  0  0  0  0  0999 V2000
   -1.7984   -2.0072   -0.6601 C   0  0  0  0  0  0  0  0  0  0  0  0
   -2.5000   -0.6768   -0.4753 C   0  0  0  0  0  0  0  0  0  0  0  0
   -1.8421    0.4489   -0.1372 C   0  0  0  0  0  0  0  0  0  0  0  0
   -0.3834    0.4763    0.1505 C   0  0  0  0  0  0  0  0  0  0  0  0
    0.2079   -0.3813    0.9248 N   0  0  0  0  0  0  0  0  0  0  0  0
    1.5674   -0.2519    1.0681 N   0  0  0  0  0  0  0  0  0  0  0  0
    2.4281   -0.0420   -0.0055 C   0  0  0  0  0  0  0  0  0  0  0  0
    2.0793    0.1327   -1.1725 O   0  0  0  0  0  0  0  0  0  0  0  0
    3.8859   -0.0992    0.2966 C   0  0  0  0  0  0  0  0  0  0  0  0
    4.3756    0.1591    1.5855 C   0  0  0  0  0  0  0  0  0  0  0  0
    5.7481    0.0822    1.8333 C   0  0  0  0  0  0  0  0  0  0  0  0
    6.4022    0.4255    3.5742 Br  0  0  0  0  0  0  0  0  0  0  0  0
    6.6419   -0.2406    0.8136 C   0  0  0  0  0  0  0  0  0  0  0  0
    6.1624   -0.4763   -0.4741 C   0  0  0  0  0  0  0  0  0  0  0  0
    4.7950   -0.3955   -0.7321 C   0  0  0  0  0  0  0  0  0  0  0  0
    4.4138   -0.6215   -2.0279 O   0  0  0  0  0  0  0  0  0  0  0  0
   -2.5709    1.7366   -0.0979 C   0  0  0  0  0  0  0  0  0  0  0  0
   -1.9466    2.7807    0.0907 O   0  0  0  0  0  0  0  0  0  0  0  0
   -3.9358    1.6851   -0.2805 N   0  0  0  0  0  0  0  0  0  0  0  0
   -4.6856    2.9261   -0.2247 C   0  0  0  0  0  0  0  0  0  0  0  0
   -4.6314    0.5388   -0.6334 C   0  0  0  0  0  0  0  0  0  0  0  0
   -5.8379    0.5686   -0.8842 O   0  0  0  0  0  0  0  0  0  0  0  0
   -3.8815   -0.6385   -0.7005 N   0  0  0  0  0  0  0  0  0  0  0  0
   -4.6089   -1.8595   -1.0472 C   0  0  0  0  0  0  0  0  0  0  0  0
   -0.7169   -1.9160   -0.7871 H   0  0  0  0  0  0  0  0  0  0  0  0
   -1.9891   -2.6605    0.1974 H   0  0  0  0  0  0  0  0  0  0  0  0
   -2.1392   -2.5117   -1.5702 H   0  0  0  0  0  0  0  0  0  0  0  0
    0.1522    1.3345   -0.2952 H   0  0  0  0  0  0  0  0  0  0  0  0
    1.9291   -0.7667    1.8661 H   0  0  0  0  0  0  0  0  0  0  0  0
    3.7081    0.4446    2.3936 H   0  0  0  0  0  0  0  0  0  0  0  0
    7.7102   -0.3005    1.0061 H   0  0  0  0  0  0  0  0  0  0  0  0
    6.8522   -0.7153   -1.2798 H   0  0  0  0  0  0  0  0  0  0  0  0
    3.4637   -0.3803   -2.1138 H   0  0  0  0  0  0  0  0  0  0  0  0
   -5.6490    2.7636    0.2691 H   0  0  0  0  0  0  0  0  0  0  0  0
   -4.1429    3.7065    0.3159 H   0  0  0  0  0  0  0  0  0  0  0  0
   -4.8701    3.2640   -1.2496 H   0  0  0  0  0  0  0  0  0  0  0  0
   -5.6930   -1.7241   -0.9974 H   0  0  0  0  0  0  0  0  0  0  0  0
   -4.3497   -2.6605   -0.3481 H   0  0  0  0  0  0  0  0  0  0  0  0
   -4.3505   -2.1479   -2.0707 H   0  0  0  0  0  0  0  0  0  0  0  0
  1  2  1  0
  2  3  2  0
  3  4  1  0
  4  5  2  3
  5  6  1  0
  6  7  1  0
  7  8  2  0
  7  9  1  0
  9 10  2  0
 10 11  1  0
 11 12  1  0
 11 13  2  0
 13 14  1  0
 14 15  2  0
 15 16  1  0
  3 17  1  0
 17 18  2  0
 17 19  1  0
 19 20  1  0
 19 21  1  0
 21 22  2  0
 21 23  1  0
 23 24  1  0
 23  2  1  0
 15  9  1  0
  1 25  1  0
  1 26  1  0
  1 27  1  0
  4 28  1  0
  6 29  1  0
 10 30  1  0
 13 31  1  0
 14 32  1  0
 16 33  1  0
 20 34  1  0
 20 35  1  0
 20 36  1  0
 24 37  1  0
 24 38  1  0
 24 39  1  0
M  END
$$$$
