
     RDKit          3D

 53 58  0  0  0  0  0  0  0  0999 V2000
   -0.9145    1.8262   -0.9834 O   0  0  0  0  0  0  0  0  0  0  0  0
   -1.4447    0.7171   -0.8662 C   0  0  0  0  0  0  0  0  0  0  0  0
   -0.6461   -0.5153   -1.3446 C   0  0  0  0  0  0  0  0  0  0  0  0
    0.7797   -0.3768   -0.9867 N   0  0  0  0  0  4  0  0  0  0  0  0
    1.4370   -0.9956    0.0752 C   0  0  0  0  0  0  0  0  0  0  0  0
    2.7537   -0.5505    0.1122 C   0  0  0  0  0  0  0  0  0  0  0  0
    3.8499   -0.9641    1.1620 C   0  0  0  0  0  0  0  0  0  0  0  0
    3.5537   -1.9125    2.1480 C   0  0  0  0  0  0  0  0  0  0  0  0
    4.5263   -2.2829    3.0837 C   0  0  0  0  0  0  0  0  0  0  0  0
    5.7992   -1.7097    3.0455 C   0  0  0  0  0  0  0  0  0  0  0  0
    6.9482   -2.2146    4.2285 Cl  0  0  0  0  0  0  0  0  0  0  0  0
    6.0948   -0.7588    2.0658 C   0  0  0  0  0  0  0  0  0  0  0  0
    7.6403    0.0045    1.9500 Cl  0  0  0  0  0  0  0  0  0  0  0  0
    5.1208   -0.3872    1.1280 C   0  0  0  0  0  0  0  0  0  0  0  0
    2.8274    0.3137   -0.9656 N   0  0  0  0  0  0  0  0  0  0  0  0
    1.6485    0.4431   -1.5713 C   0  0  0  0  0  0  0  0  0  0  0  0
    1.6761    1.3969   -2.7056 C   0  0  0  0  0  0  0  0  0  0  0  0
    3.1896    1.5816   -2.9289 C   0  0  0  0  0  0  0  0  0  0  0  0
    3.8455    1.1505   -1.5889 C   0  0  0  0  0  0  0  0  0  0  0  0
   -2.6596    0.4450   -0.2132 N   0  0  0  0  0  0  0  0  0  0  0  0
   -3.1655    1.3075    0.8309 C   0  0  0  0  0  0  0  0  0  0  0  0
   -2.9078    2.6901    0.8259 C   0  0  0  0  0  0  0  0  0  0  0  0
   -3.3842    3.5297    1.8393 C   0  0  0  0  0  0  0  0  0  0  0  0
   -4.1265    3.0058    2.8881 C   0  0  0  0  0  0  0  0  0  0  0  0
   -4.3928    1.6411    2.9225 C   0  0  0  0  0  0  0  0  0  0  0  0
   -3.9226    0.7959    1.9047 C   0  0  0  0  0  0  0  0  0  0  0  0
   -4.2411   -0.9448    2.0881 S   0  0  0  0  0  0  0  0  0  0  0  0
   -4.2411   -1.3912    0.3750 C   0  0  0  0  0  0  0  0  0  0  0  0
   -5.0040   -2.5007   -0.0169 C   0  0  0  0  0  0  0  0  0  0  0  0
   -5.0449   -2.8983   -1.3512 C   0  0  0  0  0  0  0  0  0  0  0  0
   -4.3340   -2.1811   -2.3049 C   0  0  0  0  0  0  0  0  0  0  0  0
   -3.5638   -1.0814   -1.9185 C   0  0  0  0  0  0  0  0  0  0  0  0
   -3.4774   -0.6864   -0.5680 C   0  0  0  0  0  0  0  0  0  0  0  0
   -0.7150   -0.5917   -2.4339 H   0  0  0  0  0  0  0  0  0  0  0  0
   -1.0020   -1.4430   -0.8886 H   0  0  0  0  0  0  0  0  0  0  0  0
    0.8701   -1.6738    0.6905 H   0  0  0  0  0  0  0  0  0  0  0  0
    2.5790   -2.3882    2.2192 H   0  0  0  0  0  0  0  0  0  0  0  0
    4.2854   -3.0235    3.8452 H   0  0  0  0  0  0  0  0  0  0  0  0
    5.3827    0.3636    0.3935 H   0  0  0  0  0  0  0  0  0  0  0  0
    1.1593    0.9553   -3.5581 H   0  0  0  0  0  0  0  0  0  0  0  0
    1.1991    2.3169   -2.3644 H   0  0  0  0  0  0  0  0  0  0  0  0
    3.4577    2.5991   -3.2257 H   0  0  0  0  0  0  0  0  0  0  0  0
    3.5202    0.8999   -3.7215 H   0  0  0  0  0  0  0  0  0  0  0  0
    4.0344    2.0141   -0.9446 H   0  0  0  0  0  0  0  0  0  0  0  0
    4.7630    0.5854   -1.7668 H   0  0  0  0  0  0  0  0  0  0  0  0
   -2.3730    3.1716    0.0129 H   0  0  0  0  0  0  0  0  0  0  0  0
   -3.1815    4.5980    1.7986 H   0  0  0  0  0  0  0  0  0  0  0  0
   -4.4992    3.6564    3.6759 H   0  0  0  0  0  0  0  0  0  0  0  0
   -4.9693    1.2393    3.7542 H   0  0  0  0  0  0  0  0  0  0  0  0
   -5.5853   -3.0579    0.7164 H   0  0  0  0  0  0  0  0  0  0  0  0
   -5.6539   -3.7506   -1.6463 H   0  0  0  0  0  0  0  0  0  0  0  0
   -4.4028   -2.4631   -3.3538 H   0  0  0  0  0  0  0  0  0  0  0  0
   -3.0892   -0.5043   -2.7087 H   0  0  0  0  0  0  0  0  0  0  0  0
  1  2  2  0
  2  3  1  0
  3  4  1  0
  4  5  1  0
  5  6  2  0
  6  7  1  0
  7  8  2  0
  8  9  1  0
  9 10  2  0
 10 11  1  0
 10 12  1  0
 12 13  1  0
 12 14  2  0
  6 15  1  0
 15 16  1  0
 16 17  1  0
 17 18  1  0
 18 19  1  0
  2 20  1  0
 20 21  1  0
 21 22  2  0
 22 23  1  0
 23 24  2  0
 24 25  1  0
 25 26  2  0
 26 27  1  0
 27 28  1  0
 28 29  2  0
 29 30  1  0
 30 31  2  0
 31 32  1  0
 32 33  2  0
 16  4  2  0
 33 20  1  0
 14  7  1  0
 19 15  1  0
 26 21  1  0
 33 28  1  0
  3 34  1  0
  3 35  1  0
  5 36  1  0
  8 37  1  0
  9 38  1  0
 14 39  1  0
 17 40  1  0
 17 41  1  0
 18 42  1  0
 18 43  1  0
 19 44  1  0
 19 45  1  0
 22 46  1  0
 23 47  1  0
 24 48  1  0
 25 49  1  0
 29 50  1  0
 30 51  1  0
 31 52  1  0
 32 53  1  0
M  CHG  1   4   1
M  END
$$$$
