
     RDKit          3D

 65 68  0  0  0  0  0  0  0  0999 V2000
    4.6794    4.5261    2.4927 C   0  0  0  0  0  0  0  0  0  0  0  0
    4.3776    3.2879    1.7597 C   0  0  0  0  0  0  0  0  0  0  0  0
    4.0047    2.0165    2.1275 C   0  0  0  0  0  0  0  0  0  0  0  0
    3.8658    1.3219    0.9038 C   0  0  0  0  0  0  0  0  0  0  0  0
    3.5194    0.0075    0.6816 N   0  0  0  0  0  0  0  0  0  0  0  0
    3.3041   -0.9391    1.6560 C   0  0  0  0  0  0  0  0  0  0  0  0
    3.3663   -0.7554    2.8700 O   0  0  0  0  0  0  0  0  0  0  0  0
    2.9509   -2.3067    1.1030 C   0  0  0  0  0  0  0  0  0  0  0  0
    1.4907   -2.6249    1.4026 C   0  0  0  0  0  0  0  0  0  0  0  0
    0.5364   -1.7993    0.5535 C   0  0  0  0  0  0  0  0  0  0  0  0
    0.9721   -1.0377   -0.3141 O   0  0  0  0  0  0  0  0  0  0  0  0
   -0.8213   -1.9448    0.7997 N   0  0  0  0  0  0  0  0  0  0  0  0
   -1.3900   -2.8592    1.7966 C   0  0  0  0  0  0  0  0  0  0  0  0
   -2.1945   -3.9287    1.1140 C   0  0  0  0  0  0  0  0  0  0  0  0
   -1.8169   -4.7886    0.0919 C   0  0  0  0  0  0  0  0  0  0  0  0
   -2.8859   -5.6375   -0.3184 C   0  0  0  0  0  0  0  0  0  0  0  0
   -4.0273   -5.4301    0.4244 C   0  0  0  0  0  0  0  0  0  0  0  0
   -3.7900   -4.2538    1.6421 S   0  0  0  0  0  0  0  0  0  0  0  0
   -1.7783   -1.0294    0.1414 C   0  0  0  0  0  0  0  0  0  0  0  0
   -1.4959    0.4366    0.5578 C   0  0  0  0  0  0  0  0  0  0  0  0
   -1.8048    0.8472    1.6796 O   0  0  0  0  0  0  0  0  0  0  0  0
   -0.8400    1.2206   -0.3787 N   0  0  0  0  0  0  0  0  0  0  0  0
   -0.4080    2.5684   -0.0743 C   0  0  0  0  0  0  0  0  0  0  0  0
   -1.5668    3.5223    0.2548 C   0  0  0  0  0  0  0  0  0  0  0  0
   -1.2044    4.8745   -0.3628 C   0  0  0  0  0  0  0  0  0  0  0  0
    0.2011    4.7138   -0.9305 C   0  0  0  0  0  0  0  0  0  0  0  0
    0.2906    3.2324   -1.2586 C   0  0  0  0  0  0  0  0  0  0  0  0
   -2.0982   -1.2567   -1.3352 C   0  0  0  0  0  0  0  0  0  0  0  0
   -3.2995   -0.7159   -1.8438 C   0  0  0  0  0  0  0  0  0  0  0  0
   -3.6808   -0.9075   -3.1736 C   0  0  0  0  0  0  0  0  0  0  0  0
   -2.8656   -1.6462   -4.0265 C   0  0  0  0  0  0  0  0  0  0  0  0
   -1.6731   -2.1850   -3.5456 C   0  0  0  0  0  0  0  0  0  0  0  0
   -1.2930   -1.9949   -2.2116 C   0  0  0  0  0  0  0  0  0  0  0  0
    4.1343    2.1251   -0.1381 N   0  0  0  0  0  0  0  0  0  0  0  0
    4.4706    3.3502    0.4035 O   0  0  0  0  0  0  0  0  0  0  0  0
    4.3483    4.4575    3.5335 H   0  0  0  0  0  0  0  0  0  0  0  0
    5.7547    4.7189    2.4818 H   0  0  0  0  0  0  0  0  0  0  0  0
    4.1758    5.3787    2.0312 H   0  0  0  0  0  0  0  0  0  0  0  0
    3.8407    1.6557    3.1324 H   0  0  0  0  0  0  0  0  0  0  0  0
    3.4107   -0.2250   -0.2994 H   0  0  0  0  0  0  0  0  0  0  0  0
    3.5998   -3.0313    1.6053 H   0  0  0  0  0  0  0  0  0  0  0  0
    3.1698   -2.3753    0.0336 H   0  0  0  0  0  0  0  0  0  0  0  0
    1.2891   -2.4255    2.4610 H   0  0  0  0  0  0  0  0  0  0  0  0
    1.3052   -3.6839    1.1898 H   0  0  0  0  0  0  0  0  0  0  0  0
   -0.6169   -3.3433    2.3978 H   0  0  0  0  0  0  0  0  0  0  0  0
   -1.9904   -2.2590    2.4909 H   0  0  0  0  0  0  0  0  0  0  0  0
   -0.8340   -4.7783   -0.3699 H   0  0  0  0  0  0  0  0  0  0  0  0
   -2.8292   -6.3454   -1.1366 H   0  0  0  0  0  0  0  0  0  0  0  0
   -4.9845   -5.9246    0.3277 H   0  0  0  0  0  0  0  0  0  0  0  0
   -2.7445   -1.2285    0.6278 H   0  0  0  0  0  0  0  0  0  0  0  0
   -0.2890    0.7042   -1.0677 H   0  0  0  0  0  0  0  0  0  0  0  0
    0.2827    2.5162    0.7793 H   0  0  0  0  0  0  0  0  0  0  0  0
   -1.6993    3.5991    1.3430 H   0  0  0  0  0  0  0  0  0  0  0  0
   -2.5229    3.1705   -0.1580 H   0  0  0  0  0  0  0  0  0  0  0  0
   -1.9071    5.1106   -1.1740 H   0  0  0  0  0  0  0  0  0  0  0  0
   -1.2655    5.6881    0.3671 H   0  0  0  0  0  0  0  0  0  0  0  0
    0.3650    5.3444   -1.8161 H   0  0  0  0  0  0  0  0  0  0  0  0
    0.9533    4.9811   -0.1736 H   0  0  0  0  0  0  0  0  0  0  0  0
    1.3266    2.8971   -1.3704 H   0  0  0  0  0  0  0  0  0  0  0  0
   -0.2377    3.0216   -2.1972 H   0  0  0  0  0  0  0  0  0  0  0  0
   -3.9645   -0.1435   -1.1952 H   0  0  0  0  0  0  0  0  0  0  0  0
   -4.6188   -0.4860   -3.5347 H   0  0  0  0  0  0  0  0  0  0  0  0
   -3.1640   -1.8065   -5.0614 H   0  0  0  0  0  0  0  0  0  0  0  0
   -1.0268   -2.7576   -4.2088 H   0  0  0  0  0  0  0  0  0  0  0  0
   -0.3560   -2.4393   -1.8857 H   0  0  0  0  0  0  0  0  0  0  0  0
  1  2  1  0
  2  3  2  0
  3  4  1  0
  4  5  1  0
  5  6  1  0
  6  7  2  0
  6  8  1  0
  8  9  1  0
  9 10  1  0
 10 11  2  0
 10 12  1  0
 12 13  1  0
 13 14  1  0
 14 15  2  0
 15 16  1  0
 16 17  2  0
 17 18  1  0
 12 19  1  0
 19 20  1  0
 20 21  2  0
 20 22  1  0
 22 23  1  0
 23 24  1  0
 24 25  1  0
 25 26  1  0
 26 27  1  0
 19 28  1  0
 28 29  2  0
 29 30  1  0
 30 31  2  0
 31 32  1  0
 32 33  2  0
  4 34  2  0
 34 35  1  0
 35  2  1  0
 18 14  1  0
 27 23  1  0
 33 28  1  0
  1 36  1  0
  1 37  1  0
  1 38  1  0
  3 39  1  0
  5 40  1  0
  8 41  1  0
  8 42  1  0
  9 43  1  0
  9 44  1  0
 13 45  1  0
 13 46  1  0
 15 47  1  0
 16 48  1  0
 17 49  1  0
 19 50  1  0
 22 51  1  0
 23 52  1  0
 24 53  1  0
 24 54  1  0
 25 55  1  0
 25 56  1  0
 26 57  1  0
 26 58  1  0
 27 59  1  0
 27 60  1  0
 29 61  1  0
 30 62  1  0
 31 63  1  0
 32 64  1  0
 33 65  1  0
M  END
$$$$
