
     RDKit          3D

 38 38  0  0  0  0  0  0  0  0999 V2000
    4.2598   -0.4575   -4.1099 C   0  0  0  0  0  0  0  0  0  0  0  0
    4.6494   -0.2471   -2.6598 C   0  0  0  0  0  0  0  0  0  0  0  0
    3.4783   -0.4194   -1.8531 O   0  0  0  0  0  0  0  0  0  0  0  0
    3.6804   -0.2085   -0.5233 C   0  0  0  0  0  0  0  0  0  0  0  0
    4.7627    0.0248   -0.0004 O   0  0  0  0  0  0  0  0  0  0  0  0
    2.4029   -0.3821    0.2417 C   0  0  0  0  0  0  0  0  0  0  0  0
    1.3418    0.6258   -0.1156 C   0  0  0  0  0  0  0  0  0  0  0  0
    1.5974    1.6747   -0.7031 O   0  0  0  0  0  0  0  0  0  0  0  0
   -0.0731    0.3490    0.2795 C   0  0  0  0  0  0  0  0  0  0  0  0
   -1.0858    1.1088   -0.3285 C   0  0  0  0  0  0  0  0  0  0  0  0
   -2.4251    0.8962   -0.0012 C   0  0  0  0  0  0  0  0  0  0  0  0
   -3.4831    1.5767   -0.5448 O   0  0  0  0  0  0  0  0  0  0  0  0
   -3.2015    2.5153   -1.5746 C   0  0  0  0  0  0  0  0  0  0  0  0
   -2.7381   -0.0778    0.9616 C   0  0  0  0  0  0  0  0  0  0  0  0
   -4.0585   -0.3338    1.2609 O   0  0  0  0  0  0  0  0  0  0  0  0
   -4.4864    0.5094    2.3293 C   0  0  0  0  0  0  0  0  0  0  0  0
   -1.7367   -0.8546    1.5710 C   0  0  0  0  0  0  0  0  0  0  0  0
   -2.1641   -1.7806    2.4870 O   0  0  0  0  0  0  0  0  0  0  0  0
   -1.2105   -2.7063    2.9890 C   0  0  0  0  0  0  0  0  0  0  0  0
   -0.4006   -0.6266    1.2322 C   0  0  0  0  0  0  0  0  0  0  0  0
    5.1248   -0.3367   -4.7679 H   0  0  0  0  0  0  0  0  0  0  0  0
    3.4855    0.2570   -4.4084 H   0  0  0  0  0  0  0  0  0  0  0  0
    3.8418   -1.4591   -4.2553 H   0  0  0  0  0  0  0  0  0  0  0  0
    5.0465    0.7656   -2.5267 H   0  0  0  0  0  0  0  0  0  0  0  0
    5.4078   -0.9828   -2.3697 H   0  0  0  0  0  0  0  0  0  0  0  0
    2.6302   -0.2779    1.3085 H   0  0  0  0  0  0  0  0  0  0  0  0
    2.0493   -1.4019    0.0563 H   0  0  0  0  0  0  0  0  0  0  0  0
   -0.8003    1.8606   -1.0592 H   0  0  0  0  0  0  0  0  0  0  0  0
   -4.1539    2.9317   -1.9166 H   0  0  0  0  0  0  0  0  0  0  0  0
   -2.5936    3.3436   -1.1963 H   0  0  0  0  0  0  0  0  0  0  0  0
   -2.7231    2.0310   -2.4323 H   0  0  0  0  0  0  0  0  0  0  0  0
   -5.5305    0.2669    2.5487 H   0  0  0  0  0  0  0  0  0  0  0  0
   -3.9006    0.3314    3.2378 H   0  0  0  0  0  0  0  0  0  0  0  0
   -4.4377    1.5671    2.0489 H   0  0  0  0  0  0  0  0  0  0  0  0
   -0.4651   -2.2007    3.6113 H   0  0  0  0  0  0  0  0  0  0  0  0
   -1.7412   -3.4235    3.6225 H   0  0  0  0  0  0  0  0  0  0  0  0
   -0.7341   -3.2666    2.1776 H   0  0  0  0  0  0  0  0  0  0  0  0
    0.3850   -1.1921    1.7180 H   0  0  0  0  0  0  0  0  0  0  0  0
  1  2  1  0
  2  3  1  0
  3  4  1  0
  4  5  2  0
  4  6  1  0
  6  7  1  0
  7  8  2  0
  7  9  1  0
  9 10  2  0
 10 11  1  0
 11 12  1  0
 12 13  1  0
 11 14  2  0
 14 15  1  0
 15 16  1  0
 14 17  1  0
 17 18  1  0
 18 19  1  0
 17 20  2  0
 20  9  1  0
  1 21  1  0
  1 22  1  0
  1 23  1  0
  2 24  1  0
  2 25  1  0
  6 26  1  0
  6 27  1  0
 10 28  1  0
 13 29  1  0
 13 30  1  0
 13 31  1  0
 16 32  1  0
 16 33  1  0
 16 34  1  0
 19 35  1  0
 19 36  1  0
 19 37  1  0
 20 38  1  0
M  END
$$$$
