
     RDKit          3D

 44 46  0  0  0  0  0  0  0  0999 V2000
   -3.5329    2.8058   -2.3648 C   0  0  0  0  0  0  0  0  0  0  0  0
   -4.3689    1.7891   -1.5833 C   0  0  0  0  0  0  0  0  0  0  0  0
   -5.2666    2.4907   -0.5613 C   0  0  0  0  0  0  0  0  0  0  0  0
   -3.4940    0.7342   -0.9269 C   0  0  0  0  0  0  0  0  0  0  0  0
   -2.5386    1.0730    0.0459 C   0  0  0  0  0  0  0  0  0  0  0  0
   -1.7438    0.0902    0.6389 C   0  0  0  0  0  0  0  0  0  0  0  0
   -1.8953   -1.2422    0.2515 C   0  0  0  0  0  0  0  0  0  0  0  0
   -0.8947   -2.5004    1.0005 S   0  0  0  0  0  6  0  0  0  0  0  0
   -0.1921   -1.9339    2.1315 O   0  0  0  0  0  0  0  0  0  0  0  0
   -1.7249   -3.6775    1.1530 O   0  0  0  0  0  0  0  0  0  0  0  0
    0.2150   -2.8705   -0.2234 N   0  0  0  0  0  0  0  0  0  0  0  0
    1.3498   -2.0259   -0.3674 C   0  0  0  0  0  0  0  0  0  0  0  0
    1.2576   -0.8708   -1.1401 C   0  0  0  0  0  0  0  0  0  0  0  0
    2.3565   -0.0204   -1.2429 C   0  0  0  0  0  0  0  0  0  0  0  0
    3.5351   -0.3209   -0.5615 C   0  0  0  0  0  0  0  0  0  0  0  0
    4.5539    0.5804   -0.7065 O   0  0  0  0  0  0  0  0  0  0  0  0
    3.6433   -1.4817    0.2187 C   0  0  0  0  0  0  0  0  0  0  0  0
    5.1467   -1.9951    1.0370 S   0  0  0  0  0  0  0  0  0  0  0  0
    5.3646   -0.7441    2.2249 C   0  0  0  0  0  0  0  0  0  0  0  0
    5.4699    0.5811    1.8842 N   0  0  0  0  0  0  0  0  0  0  0  0
    5.6381    1.1672    3.0474 C   0  0  0  0  0  0  0  0  0  0  0  0
    5.6491    0.2297    4.0321 N   0  0  0  0  0  0  0  0  0  0  0  0
    5.4946   -1.0038    3.5277 N   0  0  0  0  0  0  0  0  0  0  0  0
    2.5319   -2.3322    0.3101 C   0  0  0  0  0  0  0  0  0  0  0  0
   -2.8484   -1.6027   -0.7028 C   0  0  0  0  0  0  0  0  0  0  0  0
   -3.6405   -0.6147   -1.2907 C   0  0  0  0  0  0  0  0  0  0  0  0
   -2.8982    2.3049   -3.1042 H   0  0  0  0  0  0  0  0  0  0  0  0
   -2.8812    3.3922   -1.7081 H   0  0  0  0  0  0  0  0  0  0  0  0
   -4.1821    3.5069   -2.9004 H   0  0  0  0  0  0  0  0  0  0  0  0
   -5.0302    1.2932   -2.3063 H   0  0  0  0  0  0  0  0  0  0  0  0
   -5.9486    3.1865   -1.0619 H   0  0  0  0  0  0  0  0  0  0  0  0
   -4.6858    3.0633    0.1700 H   0  0  0  0  0  0  0  0  0  0  0  0
   -5.8741    1.7642   -0.0100 H   0  0  0  0  0  0  0  0  0  0  0  0
   -2.4072    2.1085    0.3531 H   0  0  0  0  0  0  0  0  0  0  0  0
   -1.0108    0.3722    1.3917 H   0  0  0  0  0  0  0  0  0  0  0  0
    0.3668   -3.8776   -0.2727 H   0  0  0  0  0  0  0  0  0  0  0  0
    0.3438   -0.6294   -1.6757 H   0  0  0  0  0  0  0  0  0  0  0  0
    2.2958    0.8807   -1.8474 H   0  0  0  0  0  0  0  0  0  0  0  0
    5.1063    0.5363    0.1030 H   0  0  0  0  0  0  0  0  0  0  0  0
    5.7545    2.2258    3.2326 H   0  0  0  0  0  0  0  0  0  0  0  0
    5.7580    0.3492    5.0334 H   0  0  0  0  0  0  0  0  0  0  0  0
    2.5850   -3.2312    0.9196 H   0  0  0  0  0  0  0  0  0  0  0  0
   -2.9788   -2.6432   -0.9913 H   0  0  0  0  0  0  0  0  0  0  0  0
   -4.3787   -0.9069   -2.0352 H   0  0  0  0  0  0  0  0  0  0  0  0
  1  2  1  0
  2  3  1  0
  2  4  1  0
  4  5  2  0
  5  6  1  0
  6  7  2  0
  7  8  1  0
  8  9  2  0
  8 10  2  0
  8 11  1  0
 11 12  1  0
 12 13  2  0
 13 14  1  0
 14 15  2  0
 15 16  1  0
 15 17  1  0
 17 18  1  0
 18 19  1  0
 19 20  1  0
 20 21  2  0
 21 22  1  0
 22 23  1  0
 17 24  2  0
  7 25  1  0
 25 26  2  0
 26  4  1  0
 24 12  1  0
 23 19  2  0
  1 27  1  0
  1 28  1  0
  1 29  1  0
  2 30  1  0
  3 31  1  0
  3 32  1  0
  3 33  1  0
  5 34  1  0
  6 35  1  0
 11 36  1  0
 13 37  1  0
 14 38  1  0
 16 39  1  0
 21 40  1  0
 22 41  1  0
 24 42  1  0
 25 43  1  0
 26 44  1  0
M  END
$$$$
