
     RDKit          3D

 46 48  0  0  0  0  0  0  0  0999 V2000
   -6.7027    1.9082    1.7001 C   0  0  0  0  0  0  0  0  0  0  0  0
   -6.0409    1.9805    0.4441 O   0  0  0  0  0  0  0  0  0  0  0  0
   -5.1777    0.9651    0.1327 C   0  0  0  0  0  0  0  0  0  0  0  0
   -4.5349    1.1117   -1.0963 C   0  0  0  0  0  0  0  0  0  0  0  0
   -3.6297    0.1492   -1.5422 C   0  0  0  0  0  0  0  0  0  0  0  0
   -3.3488   -0.9740   -0.7550 C   0  0  0  0  0  0  0  0  0  0  0  0
   -2.4074   -1.9927   -1.2471 C   0  0  0  0  0  0  0  0  0  0  0  0
   -1.0957   -1.8235   -1.4622 C   0  0  0  0  0  0  0  0  0  0  0  0
   -0.1545   -0.3891   -1.2248 S   0  0  0  0  0  0  0  0  0  0  0  0
    1.2930   -1.1928   -1.7365 C   0  0  0  0  0  0  0  0  0  0  0  0
    2.5233   -0.6721   -1.8000 C   0  0  0  0  0  0  0  0  0  0  0  0
    2.8579    0.7452   -1.5020 C   0  0  0  0  0  0  0  0  0  0  0  0
    2.1571    1.6718   -1.8901 O   0  0  0  0  0  0  0  0  0  0  0  0
    4.1396    1.0132   -0.7917 C   0  0  0  0  0  0  0  0  0  0  0  0
    4.7745    0.0499    0.0022 C   0  0  0  0  0  0  0  0  0  0  0  0
    5.9763    0.3549    0.6495 C   0  0  0  0  0  0  0  0  0  0  0  0
    6.5474    1.6273    0.5283 C   0  0  0  0  0  0  0  0  0  0  0  0
    7.8524    1.9449    1.1977 C   0  0  0  0  0  0  0  0  0  0  0  0
    5.9098    2.5879   -0.2650 C   0  0  0  0  0  0  0  0  0  0  0  0
    4.7098    2.2862   -0.9132 C   0  0  0  0  0  0  0  0  0  0  0  0
    1.0483   -2.4994   -2.0511 N   0  0  0  0  0  0  0  0  0  0  0  0
   -0.2445   -2.9454   -1.9394 C   0  0  0  0  0  0  0  0  0  0  0  0
   -0.6127   -4.0799   -2.1954 O   0  0  0  0  0  0  0  0  0  0  0  0
   -4.0012   -1.1341    0.4836 C   0  0  0  0  0  0  0  0  0  0  0  0
   -3.6836   -2.2716    1.1860 O   0  0  0  0  0  0  0  0  0  0  0  0
   -4.2626   -2.4375    2.4728 C   0  0  0  0  0  0  0  0  0  0  0  0
   -4.9116   -0.1595    0.9195 C   0  0  0  0  0  0  0  0  0  0  0  0
   -7.3323    2.7979    1.7978 H   0  0  0  0  0  0  0  0  0  0  0  0
   -5.9846    1.9163    2.5267 H   0  0  0  0  0  0  0  0  0  0  0  0
   -7.3560    1.0309    1.7513 H   0  0  0  0  0  0  0  0  0  0  0  0
   -4.7400    1.9833   -1.7132 H   0  0  0  0  0  0  0  0  0  0  0  0
   -3.1467    0.2859   -2.5070 H   0  0  0  0  0  0  0  0  0  0  0  0
   -2.8540   -2.9737   -1.4018 H   0  0  0  0  0  0  0  0  0  0  0  0
    3.3644   -1.2895   -2.0951 H   0  0  0  0  0  0  0  0  0  0  0  0
    4.3473   -0.9381    0.1485 H   0  0  0  0  0  0  0  0  0  0  0  0
    6.4609   -0.4061    1.2585 H   0  0  0  0  0  0  0  0  0  0  0  0
    7.8803    2.9918    1.5175 H   0  0  0  0  0  0  0  0  0  0  0  0
    8.6808    1.7621    0.5063 H   0  0  0  0  0  0  0  0  0  0  0  0
    7.9965    1.3281    2.0912 H   0  0  0  0  0  0  0  0  0  0  0  0
    6.3402    3.5807   -0.3807 H   0  0  0  0  0  0  0  0  0  0  0  0
    4.2227    3.0497   -1.5174 H   0  0  0  0  0  0  0  0  0  0  0  0
    1.7559   -3.1418   -2.3759 H   0  0  0  0  0  0  0  0  0  0  0  0
   -5.3512   -2.5322    2.4055 H   0  0  0  0  0  0  0  0  0  0  0  0
   -3.8741   -3.3688    2.8961 H   0  0  0  0  0  0  0  0  0  0  0  0
   -3.9751   -1.6222    3.1448 H   0  0  0  0  0  0  0  0  0  0  0  0
   -5.4159   -0.2786    1.8686 H   0  0  0  0  0  0  0  0  0  0  0  0
  1  2  1  0
  2  3  1  0
  3  4  2  0
  4  5  1  0
  5  6  2  0
  6  7  1  0
  7  8  2  3
  8  9  1  0
  9 10  1  0
 10 11  2  3
 11 12  1  0
 12 13  2  0
 12 14  1  0
 14 15  2  0
 15 16  1  0
 16 17  2  0
 17 18  1  0
 17 19  1  0
 19 20  2  0
 10 21  1  0
 21 22  1  0
 22 23  2  0
  6 24  1  0
 24 25  1  0
 25 26  1  0
 24 27  2  0
 27  3  1  0
 22  8  1  0
 20 14  1  0
  1 28  1  0
  1 29  1  0
  1 30  1  0
  4 31  1  0
  5 32  1  0
  7 33  1  0
 11 34  1  0
 15 35  1  0
 16 36  1  0
 18 37  1  0
 18 38  1  0
 18 39  1  0
 19 40  1  0
 20 41  1  0
 21 42  1  0
 26 43  1  0
 26 44  1  0
 26 45  1  0
 27 46  1  0
M  END
$$$$
