
     RDKit          3D

 45 47  0  0  0  0  0  0  0  0999 V2000
   -6.2131    1.3206   -1.7536 C   0  0  0  0  0  0  0  0  0  0  0  0
   -4.8539    0.6718   -1.5468 C   0  0  0  0  0  0  0  0  0  0  0  0
   -5.0090   -0.3726   -0.5774 O   0  0  0  0  0  0  0  0  0  0  0  0
   -3.9620   -0.3550    0.3095 C   0  0  0  0  0  0  0  0  0  0  0  0
   -4.1445    0.3207    1.5152 C   0  0  0  0  0  0  0  0  0  0  0  0
   -3.1162    0.3605    2.4536 C   0  0  0  0  0  0  0  0  0  0  0  0
   -1.9093   -0.2882    2.1974 C   0  0  0  0  0  0  0  0  0  0  0  0
   -0.8644   -0.2680    3.2308 C   0  0  0  0  0  0  0  0  0  0  0  0
    0.4339    0.0489    3.0816 C   0  0  0  0  0  0  0  0  0  0  0  0
    1.5445   -0.0245    4.4189 S   0  0  0  0  0  0  0  0  0  0  0  0
    2.9442    0.3798    3.4188 C   0  0  0  0  0  0  0  0  0  0  0  0
    4.4955    0.5056    4.0178 S   0  0  0  0  0  0  0  0  0  0  0  0
    2.5131    0.5981    2.1251 N   0  0  0  0  0  0  0  0  0  0  0  0
    3.4078    0.8505    1.0656 N   0  0  0  0  0  0  0  0  0  0  0  0
    3.8217   -0.2587    0.3499 C   0  0  0  0  0  0  0  0  0  0  0  0
    3.5757   -1.4125    0.6846 O   0  0  0  0  0  0  0  0  0  0  0  0
    4.5734    0.0150   -0.8975 C   0  0  0  0  0  0  0  0  0  0  0  0
    4.5338   -0.9357   -1.9201 C   0  0  0  0  0  0  0  0  0  0  0  0
    5.2510   -0.6807   -3.0699 C   0  0  0  0  0  0  0  0  0  0  0  0
    5.9898    0.4328   -3.2528 N   0  0  0  0  0  0  0  0  0  0  0  0
    6.0274    1.3266   -2.2390 C   0  0  0  0  0  0  0  0  0  0  0  0
    5.3425    1.1683   -1.0506 C   0  0  0  0  0  0  0  0  0  0  0  0
    1.1587    0.4938    1.8436 C   0  0  0  0  0  0  0  0  0  0  0  0
    0.6479    0.7589    0.7631 O   0  0  0  0  0  0  0  0  0  0  0  0
   -1.7587   -1.0089    1.0013 C   0  0  0  0  0  0  0  0  0  0  0  0
   -2.7729   -1.0337    0.0386 C   0  0  0  0  0  0  0  0  0  0  0  0
   -2.7073   -1.6892   -1.1600 O   0  0  0  0  0  0  0  0  0  0  0  0
   -1.4319   -2.2022   -1.5436 C   0  0  0  0  0  0  0  0  0  0  0  0
   -6.5897    1.7257   -0.8090 H   0  0  0  0  0  0  0  0  0  0  0  0
   -6.1510    2.1336   -2.4929 H   0  0  0  0  0  0  0  0  0  0  0  0
   -6.9473    0.5782   -2.0906 H   0  0  0  0  0  0  0  0  0  0  0  0
   -4.5195    0.2314   -2.4776 H   0  0  0  0  0  0  0  0  0  0  0  0
   -4.1234    1.4419   -1.2468 H   0  0  0  0  0  0  0  0  0  0  0  0
   -5.0853    0.8179    1.7174 H   0  0  0  0  0  0  0  0  0  0  0  0
   -3.2692    0.9006    3.3850 H   0  0  0  0  0  0  0  0  0  0  0  0
   -1.2349   -0.5508    4.2213 H   0  0  0  0  0  0  0  0  0  0  0  0
    3.2429    1.7182    0.5659 H   0  0  0  0  0  0  0  0  0  0  0  0
    3.9631   -1.8525   -1.8222 H   0  0  0  0  0  0  0  0  0  0  0  0
    5.2542   -1.3853   -3.9001 H   0  0  0  0  0  0  0  0  0  0  0  0
    6.6519    2.1969   -2.4133 H   0  0  0  0  0  0  0  0  0  0  0  0
    5.4465    1.9121   -0.2662 H   0  0  0  0  0  0  0  0  0  0  0  0
   -0.8365   -1.5478    0.8373 H   0  0  0  0  0  0  0  0  0  0  0  0
   -1.1246   -3.0290   -0.8872 H   0  0  0  0  0  0  0  0  0  0  0  0
   -1.5244   -2.6028   -2.5559 H   0  0  0  0  0  0  0  0  0  0  0  0
   -0.6706   -1.4105   -1.5705 H   0  0  0  0  0  0  0  0  0  0  0  0
  1  2  1  0
  2  3  1  0
  3  4  1  0
  4  5  2  0
  5  6  1  0
  6  7  2  0
  7  8  1  0
  8  9  2  3
  9 10  1  0
 10 11  1  0
 11 12  2  0
 11 13  1  0
 13 14  1  0
 14 15  1  0
 15 16  2  0
 15 17  1  0
 17 18  2  0
 18 19  1  0
 19 20  2  0
 20 21  1  0
 21 22  2  0
 13 23  1  0
 23 24  2  0
  7 25  1  0
 25 26  2  0
 26 27  1  0
 27 28  1  0
 26  4  1  0
 23  9  1  0
 22 17  1  0
  1 29  1  0
  1 30  1  0
  1 31  1  0
  2 32  1  0
  2 33  1  0
  5 34  1  0
  6 35  1  0
  8 36  1  0
 14 37  1  0
 18 38  1  0
 19 39  1  0
 21 40  1  0
 22 41  1  0
 25 42  1  0
 28 43  1  0
 28 44  1  0
 28 45  1  0
M  END
$$$$
