
     RDKit          3D

 30 31  0  0  0  0  0  0  0  0999 V2000
    4.3497   -1.0517   -1.9406 C   0  0  0  0  0  0  0  0  0  0  0  0
    3.7449   -0.8135   -0.6757 O   0  0  0  0  0  0  0  0  0  0  0  0
    2.3921   -0.9921   -0.5927 C   0  0  0  0  0  0  0  0  0  0  0  0
    1.5434   -1.3391   -1.6431 C   0  0  0  0  0  0  0  0  0  0  0  0
    0.1687   -1.4873   -1.4194 C   0  0  0  0  0  0  0  0  0  0  0  0
   -0.3759   -1.2862   -0.1430 C   0  0  0  0  0  0  0  0  0  0  0  0
   -1.8270   -1.4482    0.0847 C   0  0  0  0  0  0  0  0  0  0  0  0
   -2.4123   -2.7250   -0.1937 C   0  0  0  0  0  0  0  0  0  0  0  0
   -2.8964   -3.7514   -0.4373 N   0  0  0  0  0  0  0  0  0  0  0  0
   -2.6245   -0.4637    0.5482 C   0  0  0  0  0  0  0  0  0  0  0  0
   -2.2620    0.9153    0.8840 C   0  0  0  0  0  0  0  0  0  0  0  0
   -1.5758    1.7521    0.0097 C   0  0  0  0  0  0  0  0  0  0  0  0
   -1.3052    3.0589    0.4082 C   0  0  0  0  0  0  0  0  0  0  0  0
   -1.7388    3.4943    1.6540 C   0  0  0  0  0  0  0  0  0  0  0  0
   -2.4341    2.6014    2.4509 C   0  0  0  0  0  0  0  0  0  0  0  0
   -2.7107    1.3285    2.0906 N   0  0  0  0  0  0  0  0  0  0  0  0
    0.4843   -0.9474    0.9094 C   0  0  0  0  0  0  0  0  0  0  0  0
    1.8549   -0.7976    0.6813 C   0  0  0  0  0  0  0  0  0  0  0  0
    5.4263   -0.8888   -1.8324 H   0  0  0  0  0  0  0  0  0  0  0  0
    4.2002   -2.0879   -2.2616 H   0  0  0  0  0  0  0  0  0  0  0  0
    3.9802   -0.3469   -2.6927 H   0  0  0  0  0  0  0  0  0  0  0  0
    1.9163   -1.5037   -2.6488 H   0  0  0  0  0  0  0  0  0  0  0  0
   -0.4701   -1.7596   -2.2580 H   0  0  0  0  0  0  0  0  0  0  0  0
   -3.6754   -0.6730    0.7468 H   0  0  0  0  0  0  0  0  0  0  0  0
   -1.2538    1.4076   -0.9669 H   0  0  0  0  0  0  0  0  0  0  0  0
   -0.7628    3.7309   -0.2509 H   0  0  0  0  0  0  0  0  0  0  0  0
   -1.5447    4.5054    1.9937 H   0  0  0  0  0  0  0  0  0  0  0  0
   -2.8007    2.8942    3.4308 H   0  0  0  0  0  0  0  0  0  0  0  0
    0.0989   -0.7952    1.9162 H   0  0  0  0  0  0  0  0  0  0  0  0
    2.5104   -0.5302    1.5069 H   0  0  0  0  0  0  0  0  0  0  0  0
  1  2  1  0
  2  3  1  0
  3  4  2  0
  4  5  1  0
  5  6  2  0
  6  7  1  0
  7  8  1  0
  8  9  3  0
  7 10  2  3
 10 11  1  0
 11 12  2  0
 12 13  1  0
 13 14  2  0
 14 15  1  0
 15 16  2  0
  6 17  1  0
 17 18  2  0
 18  3  1  0
 16 11  1  0
  1 19  1  0
  1 20  1  0
  1 21  1  0
  4 22  1  0
  5 23  1  0
 10 24  1  0
 12 25  1  0
 13 26  1  0
 14 27  1  0
 15 28  1  0
 17 29  1  0
 18 30  1  0
M  END
$$$$
