
     RDKit          3D

 54 58  0  0  0  0  0  0  0  0999 V2000
    2.5291   -0.3970   -2.3891 O   0  0  0  0  0  0  0  0  0  0  0  0
    2.3586   -0.8970   -1.2793 C   0  0  0  0  0  0  0  0  0  0  0  0
    1.3468   -2.0075   -1.0576 C   0  0  0  0  0  0  0  0  0  0  0  0
    0.2885   -1.7392    0.3938 S   0  0  0  0  0  0  0  0  0  0  0  0
   -0.3944   -0.1852   -0.0606 C   0  0  0  0  0  0  0  0  0  0  0  0
    0.2877    0.8401    0.3461 N   0  0  0  0  0  0  0  0  0  0  0  0
   -0.2474    2.0814   -0.0097 C   0  0  0  0  0  0  0  0  0  0  0  0
   -1.4039    2.1937   -0.7182 C   0  0  0  0  0  0  0  0  0  0  0  0
   -1.8200    3.8029   -1.0206 S   0  0  0  0  0  0  0  0  0  0  0  0
   -0.4282    4.3863   -0.1722 C   0  0  0  0  0  0  0  0  0  0  0  0
   -0.0572    5.7306    0.0252 C   0  0  0  0  0  0  0  0  0  0  0  0
    1.1028    6.0114    0.7511 C   0  0  0  0  0  0  0  0  0  0  0  0
    1.8780    4.9840    1.2715 C   0  0  0  0  0  0  0  0  0  0  0  0
    1.5088    3.6513    1.0716 C   0  0  0  0  0  0  0  0  0  0  0  0
    0.3416    3.3322    0.3371 C   0  0  0  0  0  0  0  0  0  0  0  0
   -2.1716    1.0601   -1.1375 C   0  0  0  0  0  0  0  0  0  0  0  0
   -3.2500    1.1355   -1.7242 O   0  0  0  0  0  0  0  0  0  0  0  0
   -1.5837   -0.1646   -0.7864 N   0  0  0  0  0  0  0  0  0  0  0  0
   -2.3609   -1.3632   -1.1290 C   0  0  0  0  0  0  0  0  0  0  0  0
   -3.3814   -1.7054   -0.0355 C   0  0  0  0  0  0  0  0  0  0  0  0
   -4.1331   -2.9704   -0.3597 C   0  0  0  0  0  0  0  0  0  0  0  0
   -5.2863   -2.9226   -1.1542 C   0  0  0  0  0  0  0  0  0  0  0  0
   -5.9702   -4.0951   -1.4767 C   0  0  0  0  0  0  0  0  0  0  0  0
   -5.5062   -5.3239   -1.0117 C   0  0  0  0  0  0  0  0  0  0  0  0
   -4.3578   -5.3819   -0.2232 C   0  0  0  0  0  0  0  0  0  0  0  0
   -3.6719   -4.2108    0.1008 C   0  0  0  0  0  0  0  0  0  0  0  0
    3.1122   -0.5569   -0.1789 N   0  0  0  0  0  0  0  0  0  0  0  0
    4.0113    0.5711   -0.2598 C   0  0  0  0  0  0  0  0  0  0  0  0
    4.8120    0.6206    0.9843 C   0  0  0  0  0  0  0  0  0  0  0  0
    6.0628    0.1518    1.3277 C   0  0  0  0  0  0  0  0  0  0  0  0
    6.2651    0.5097    2.6830 C   0  0  0  0  0  0  0  0  0  0  0  0
    5.1275    1.1714    3.0797 C   0  0  0  0  0  0  0  0  0  0  0  0
    4.2367    1.2358    2.0584 O   0  0  0  0  0  0  0  0  0  0  0  0
    1.8897   -2.9500   -0.9389 H   0  0  0  0  0  0  0  0  0  0  0  0
    0.7157   -2.0903   -1.9478 H   0  0  0  0  0  0  0  0  0  0  0  0
   -0.6625    6.5372   -0.3789 H   0  0  0  0  0  0  0  0  0  0  0  0
    1.3979    7.0459    0.9128 H   0  0  0  0  0  0  0  0  0  0  0  0
    2.7774    5.2119    1.8381 H   0  0  0  0  0  0  0  0  0  0  0  0
    2.1184    2.8530    1.4873 H   0  0  0  0  0  0  0  0  0  0  0  0
   -1.6962   -2.2108   -1.3151 H   0  0  0  0  0  0  0  0  0  0  0  0
   -2.8826   -1.1922   -2.0795 H   0  0  0  0  0  0  0  0  0  0  0  0
   -2.8844   -1.8116    0.9372 H   0  0  0  0  0  0  0  0  0  0  0  0
   -4.0949   -0.8804    0.0918 H   0  0  0  0  0  0  0  0  0  0  0  0
   -5.6602   -1.9703   -1.5253 H   0  0  0  0  0  0  0  0  0  0  0  0
   -6.8658   -4.0495   -2.0917 H   0  0  0  0  0  0  0  0  0  0  0  0
   -6.0395   -6.2366   -1.2629 H   0  0  0  0  0  0  0  0  0  0  0  0
   -3.9971   -6.3415    0.1388 H   0  0  0  0  0  0  0  0  0  0  0  0
   -2.7783   -4.2729    0.7176 H   0  0  0  0  0  0  0  0  0  0  0  0
    2.6607   -0.6948    0.7198 H   0  0  0  0  0  0  0  0  0  0  0  0
    4.6530    0.4622   -1.1404 H   0  0  0  0  0  0  0  0  0  0  0  0
    3.4170    1.4807   -0.3875 H   0  0  0  0  0  0  0  0  0  0  0  0
    6.7427   -0.3793    0.6771 H   0  0  0  0  0  0  0  0  0  0  0  0
    7.1341    0.3129    3.2945 H   0  0  0  0  0  0  0  0  0  0  0  0
    4.8099    1.6272    4.0070 H   0  0  0  0  0  0  0  0  0  0  0  0
  1  2  2  0
  2  3  1  0
  3  4  1  0
  4  5  1  0
  5  6  2  0
  6  7  1  0
  7  8  2  0
  8  9  1  0
  9 10  1  0
 10 11  2  0
 11 12  1  0
 12 13  2  0
 13 14  1  0
 14 15  2  0
  8 16  1  0
 16 17  2  0
 16 18  1  0
 18 19  1  0
 19 20  1  0
 20 21  1  0
 21 22  2  0
 22 23  1  0
 23 24  2  0
 24 25  1  0
 25 26  2  0
  2 27  1  0
 27 28  1  0
 28 29  1  0
 29 30  2  0
 30 31  1  0
 31 32  2  0
 32 33  1  0
 18  5  1  0
 26 21  1  0
 33 29  1  0
 15  7  1  0
 15 10  1  0
  3 34  1  0
  3 35  1  0
 11 36  1  0
 12 37  1  0
 13 38  1  0
 14 39  1  0
 19 40  1  0
 19 41  1  0
 20 42  1  0
 20 43  1  0
 22 44  1  0
 23 45  1  0
 24 46  1  0
 25 47  1  0
 26 48  1  0
 27 49  1  0
 28 50  1  0
 28 51  1  0
 30 52  1  0
 31 53  1  0
 32 54  1  0
M  END
$$$$
