
     RDKit          3D

 48 50  0  0  0  0  0  0  0  0999 V2000
    4.6616   -3.8746    0.0433 C   0  0  0  0  0  0  0  0  0  0  0  0
    4.1978   -2.7959   -0.7696 O   0  0  0  0  0  0  0  0  0  0  0  0
    2.8852   -2.4659   -0.5474 C   0  0  0  0  0  0  0  0  0  0  0  0
    1.8684   -3.4314   -0.5188 C   0  0  0  0  0  0  0  0  0  0  0  0
    0.5373   -3.0464   -0.3419 C   0  0  0  0  0  0  0  0  0  0  0  0
    0.2211   -1.6952   -0.1914 C   0  0  0  0  0  0  0  0  0  0  0  0
   -1.1966   -1.3199   -0.0308 C   0  0  0  0  0  0  0  0  0  0  0  0
   -1.5648   -0.1083    0.2520 N   0  0  0  0  0  0  0  0  0  0  0  0
   -2.9174    0.1442    0.2411 N   0  0  0  0  0  0  0  0  0  0  0  0
   -3.7811   -0.3084   -0.7592 C   0  0  0  0  0  0  0  0  0  0  0  0
   -3.5470   -1.2392   -1.5245 O   0  0  0  0  0  0  0  0  0  0  0  0
   -5.0994    0.4097   -0.7760 C   0  0  0  0  0  0  0  0  0  0  0  0
   -5.3662    1.0935    0.3732 N   0  0  0  0  0  0  0  0  0  0  0  0
   -6.5971    1.6410    0.4854 C   0  0  0  0  0  0  0  0  0  0  0  0
   -6.8279    2.4551    1.9777 Cl  0  0  0  0  0  0  0  0  0  0  0  0
   -7.5756    1.5692   -0.4974 C   0  0  0  0  0  0  0  0  0  0  0  0
   -9.1563    2.2388   -0.2669 Cl  0  0  0  0  0  0  0  0  0  0  0  0
   -7.2600    0.9261   -1.7149 C   0  0  0  0  0  0  0  0  0  0  0  0
   -8.1331    1.0342   -2.8246 N   0  0  0  0  0  0  0  0  0  0  0  0
   -5.9760    0.3608   -1.8659 C   0  0  0  0  0  0  0  0  0  0  0  0
   -5.5543   -0.3145   -3.4123 Cl  0  0  0  0  0  0  0  0  0  0  0  0
    1.2291   -0.7278   -0.2204 C   0  0  0  0  0  0  0  0  0  0  0  0
    2.5716   -1.1044   -0.4127 C   0  0  0  0  0  0  0  0  0  0  0  0
    3.6496   -0.0489   -0.3849 C   0  0  0  0  0  0  0  0  0  0  0  0
    4.2033   -0.0344    0.9405 O   0  0  0  0  0  0  0  0  0  0  0  0
    4.4220    1.2427    1.3753 C   0  0  0  0  0  0  0  0  0  0  0  0
    3.4613    1.8456    2.1899 C   0  0  0  0  0  0  0  0  0  0  0  0
    3.6919    3.1291    2.6835 C   0  0  0  0  0  0  0  0  0  0  0  0
    4.8838    3.7826    2.3706 C   0  0  0  0  0  0  0  0  0  0  0  0
    5.1051    5.0095    2.8614 F   0  0  0  0  0  0  0  0  0  0  0  0
    5.8499    3.1834    1.5677 C   0  0  0  0  0  0  0  0  0  0  0  0
    5.6119    1.9074    1.0749 C   0  0  0  0  0  0  0  0  0  0  0  0
    6.5410    1.3202    0.3046 F   0  0  0  0  0  0  0  0  0  0  0  0
    4.3503   -3.7629    1.0913 H   0  0  0  0  0  0  0  0  0  0  0  0
    5.7552   -3.8609    0.0159 H   0  0  0  0  0  0  0  0  0  0  0  0
    4.3288   -4.8386   -0.3620 H   0  0  0  0  0  0  0  0  0  0  0  0
    2.0934   -4.4890   -0.6509 H   0  0  0  0  0  0  0  0  0  0  0  0
   -0.2425   -3.8062   -0.3203 H   0  0  0  0  0  0  0  0  0  0  0  0
   -1.9243   -2.1458   -0.1314 H   0  0  0  0  0  0  0  0  0  0  0  0
   -3.2002    0.9875    0.7437 H   0  0  0  0  0  0  0  0  0  0  0  0
   -8.0019    0.3319   -3.5559 H   0  0  0  0  0  0  0  0  0  0  0  0
   -9.1139    1.1988   -2.5953 H   0  0  0  0  0  0  0  0  0  0  0  0
    0.9720    0.3185   -0.0844 H   0  0  0  0  0  0  0  0  0  0  0  0
    4.4457   -0.2685   -1.1017 H   0  0  0  0  0  0  0  0  0  0  0  0
    3.2206    0.9195   -0.6699 H   0  0  0  0  0  0  0  0  0  0  0  0
    2.5440    1.3191    2.4411 H   0  0  0  0  0  0  0  0  0  0  0  0
    2.9564    3.6202    3.3161 H   0  0  0  0  0  0  0  0  0  0  0  0
    6.7770    3.6982    1.3415 H   0  0  0  0  0  0  0  0  0  0  0  0
  1  2  1  0
  2  3  1  0
  3  4  2  0
  4  5  1  0
  5  6  2  0
  6  7  1  0
  7  8  2  3
  8  9  1  0
  9 10  1  0
 10 11  2  0
 10 12  1  0
 12 13  2  0
 13 14  1  0
 14 15  1  0
 14 16  2  0
 16 17  1  0
 16 18  1  0
 18 19  1  0
 18 20  2  0
 20 21  1  0
  6 22  1  0
 22 23  2  0
 23 24  1  0
 24 25  1  0
 25 26  1  0
 26 27  2  0
 27 28  1  0
 28 29  2  0
 29 30  1  0
 29 31  1  0
 31 32  2  0
 32 33  1  0
 23  3  1  0
 32 26  1  0
 20 12  1  0
  1 34  1  0
  1 35  1  0
  1 36  1  0
  4 37  1  0
  5 38  1  0
  7 39  1  0
  9 40  1  0
 19 41  1  0
 19 42  1  0
 22 43  1  0
 24 44  1  0
 24 45  1  0
 27 46  1  0
 28 47  1  0
 31 48  1  0
M  END
$$$$
