
     RDKit          3D

 56 58  0  0  0  0  0  0  0  0999 V2000
    2.0715   -5.0261   -1.1322 C   0  0  0  0  0  0  0  0  0  0  0  0
    2.7063   -4.3481   -0.0560 O   0  0  0  0  0  0  0  0  0  0  0  0
    3.0413   -3.0397   -0.2689 C   0  0  0  0  0  0  0  0  0  0  0  0
    3.8768   -2.4833    0.7017 C   0  0  0  0  0  0  0  0  0  0  0  0
    4.2997   -1.1553    0.6035 C   0  0  0  0  0  0  0  0  0  0  0  0
    3.8865   -0.3606   -0.4717 C   0  0  0  0  0  0  0  0  0  0  0  0
    4.3177    1.0792   -0.5736 C   0  0  0  0  0  0  0  0  0  0  0  0
    3.4709    1.9257    0.2225 N   0  0  0  0  0  0  0  0  0  0  0  0
    2.3102    2.4715   -0.2716 C   0  0  0  0  0  0  0  0  0  0  0  0
    1.9409    2.4657   -1.4384 O   0  0  0  0  0  0  0  0  0  0  0  0
    1.4194    3.1038    0.8218 C   0  0  0  0  0  0  0  0  0  0  0  0
    1.8149    3.1554    1.9775 O   0  0  0  0  0  0  0  0  0  0  0  0
    0.2108    3.5425    0.3494 N   0  0  0  0  0  0  0  0  0  0  0  0
   -0.8179    4.1265    1.1966 C   0  0  0  0  0  0  0  0  0  0  0  0
   -2.2466    3.8000    0.7103 C   0  0  0  0  0  0  0  0  0  0  0  0
   -2.4800    4.4772   -0.5477 O   0  0  0  0  0  0  0  0  0  0  0  0
   -2.7348    3.4787   -1.5415 C   0  0  0  0  0  0  0  0  0  0  0  0
   -3.2227    2.2704   -0.7765 C   0  0  0  0  0  0  0  0  0  0  0  0
   -2.4227    2.3551    0.4502 N   0  0  0  0  0  0  0  0  0  0  0  0
   -2.9459    1.4654    1.7828 S   0  0  0  0  0  6  0  0  0  0  0  0
   -2.0263    1.6939    2.8744 O   0  0  0  0  0  0  0  0  0  0  0  0
   -4.3634    1.7145    1.9406 O   0  0  0  0  0  0  0  0  0  0  0  0
   -2.7193   -0.2023    1.2256 C   0  0  0  0  0  0  0  0  0  0  0  0
   -1.4202   -0.6878    1.0535 C   0  0  0  0  0  0  0  0  0  0  0  0
   -1.2293   -1.9970    0.6087 C   0  0  0  0  0  0  0  0  0  0  0  0
   -2.3313   -2.8192    0.3322 C   0  0  0  0  0  0  0  0  0  0  0  0
   -2.1198   -4.2365   -0.1129 C   0  0  0  0  0  0  0  0  0  0  0  0
   -3.6280   -2.3241    0.5322 C   0  0  0  0  0  0  0  0  0  0  0  0
   -3.8264   -1.0156    0.9767 C   0  0  0  0  0  0  0  0  0  0  0  0
    3.0264   -0.9154   -1.4291 C   0  0  0  0  0  0  0  0  0  0  0  0
    2.6101   -2.2475   -1.3322 C   0  0  0  0  0  0  0  0  0  0  0  0
    1.0680   -4.6270   -1.3088 H   0  0  0  0  0  0  0  0  0  0  0  0
    1.9663   -6.0780   -0.8486 H   0  0  0  0  0  0  0  0  0  0  0  0
    2.6784   -4.9843   -2.0434 H   0  0  0  0  0  0  0  0  0  0  0  0
    4.2058   -3.0922    1.5408 H   0  0  0  0  0  0  0  0  0  0  0  0
    4.9515   -0.7486    1.3733 H   0  0  0  0  0  0  0  0  0  0  0  0
    5.3438    1.1928   -0.2073 H   0  0  0  0  0  0  0  0  0  0  0  0
    4.3040    1.4127   -1.6178 H   0  0  0  0  0  0  0  0  0  0  0  0
    3.5558    1.9117    1.2353 H   0  0  0  0  0  0  0  0  0  0  0  0
    0.0606    3.4907   -0.6534 H   0  0  0  0  0  0  0  0  0  0  0  0
   -0.6656    3.7854    2.2252 H   0  0  0  0  0  0  0  0  0  0  0  0
   -0.6558    5.2099    1.1714 H   0  0  0  0  0  0  0  0  0  0  0  0
   -2.9894    4.1874    1.4159 H   0  0  0  0  0  0  0  0  0  0  0  0
   -1.7943    3.2701   -2.0639 H   0  0  0  0  0  0  0  0  0  0  0  0
   -3.4650    3.8485   -2.2665 H   0  0  0  0  0  0  0  0  0  0  0  0
   -4.2905    2.3782   -0.5566 H   0  0  0  0  0  0  0  0  0  0  0  0
   -3.0495    1.3438   -1.3290 H   0  0  0  0  0  0  0  0  0  0  0  0
   -0.5589   -0.0581    1.2689 H   0  0  0  0  0  0  0  0  0  0  0  0
   -0.2143   -2.3748    0.4858 H   0  0  0  0  0  0  0  0  0  0  0  0
   -3.0112   -4.6315   -0.6135 H   0  0  0  0  0  0  0  0  0  0  0  0
   -1.8929   -4.8706    0.7491 H   0  0  0  0  0  0  0  0  0  0  0  0
   -1.2951   -4.2937   -0.8288 H   0  0  0  0  0  0  0  0  0  0  0  0
   -4.4930   -2.9579    0.3458 H   0  0  0  0  0  0  0  0  0  0  0  0
   -4.8384   -0.6457    1.1283 H   0  0  0  0  0  0  0  0  0  0  0  0
    2.6685   -0.3060   -2.2577 H   0  0  0  0  0  0  0  0  0  0  0  0
    1.9425   -2.6295   -2.0971 H   0  0  0  0  0  0  0  0  0  0  0  0
  1  2  1  0
  2  3  1  0
  3  4  2  0
  4  5  1  0
  5  6  2  0
  6  7  1  0
  7  8  1  0
  8  9  1  0
  9 10  2  0
  9 11  1  0
 11 12  2  0
 11 13  1  0
 13 14  1  0
 14 15  1  0
 15 16  1  0
 16 17  1  0
 17 18  1  0
 18 19  1  0
 19 20  1  0
 20 21  2  0
 20 22  2  0
 20 23  1  0
 23 24  2  0
 24 25  1  0
 25 26  2  0
 26 27  1  0
 26 28  1  0
 28 29  2  0
  6 30  1  0
 30 31  2  0
 31  3  1  0
 19 15  1  0
 29 23  1  0
  1 32  1  0
  1 33  1  0
  1 34  1  0
  4 35  1  0
  5 36  1  0
  7 37  1  0
  7 38  1  0
  8 39  1  0
 13 40  1  0
 14 41  1  0
 14 42  1  0
 15 43  1  0
 17 44  1  0
 17 45  1  0
 18 46  1  0
 18 47  1  0
 24 48  1  0
 25 49  1  0
 27 50  1  0
 27 51  1  0
 27 52  1  0
 28 53  1  0
 29 54  1  0
 30 55  1  0
 31 56  1  0
M  END
$$$$
