
     RDKit          3D

 43 43  0  0  0  0  0  0  0  0999 V2000
   -5.3304   -0.7407    1.4049 C   0  0  0  0  0  0  0  0  0  0  0  0
   -4.1902   -1.2843    2.2083 C   0  0  0  0  0  0  0  0  0  0  0  0
   -4.6563   -2.5393    3.3179 Cl  0  0  0  0  0  0  0  0  0  0  0  0
   -2.8944   -0.9305    2.1614 C   0  0  0  0  0  0  0  0  0  0  0  0
   -2.2722    0.1342    1.3176 C   0  0  0  0  0  0  0  0  0  0  0  0
   -1.3644   -0.3608    0.1815 N   0  0  0  0  0  4  0  0  0  0  0  0
   -0.1573   -1.1109    0.7404 C   0  0  0  0  0  0  0  0  0  0  0  0
   -2.1391   -1.2707   -0.7653 C   0  0  0  0  0  0  0  0  0  0  0  0
   -0.8640    0.9192   -0.5951 C   0  0  0  0  0  0  0  0  0  0  0  0
    0.1504    0.7101   -1.7165 C   0  0  0  0  0  0  0  0  0  0  0  0
    0.3707   -0.3588   -2.2671 O   0  0  0  0  0  0  0  0  0  0  0  0
    0.7683    1.8914   -1.9917 O   0  0  0  0  0  0  0  0  0  0  0  0
    1.9407    1.8142   -2.8272 C   0  0  0  0  0  0  0  0  0  0  0  0
    3.1886    2.0433   -1.9691 C   0  0  0  0  0  0  0  0  0  0  0  0
    3.3415    1.0384   -0.8476 C   0  0  0  0  0  0  0  0  0  0  0  0
    3.5624   -0.3178   -1.1235 C   0  0  0  0  0  0  0  0  0  0  0  0
    3.7161   -1.2372   -0.0837 C   0  0  0  0  0  0  0  0  0  0  0  0
    3.6565   -0.8108    1.2415 C   0  0  0  0  0  0  0  0  0  0  0  0
    3.4419    0.5357    1.5285 C   0  0  0  0  0  0  0  0  0  0  0  0
    3.2837    1.4558    0.4902 C   0  0  0  0  0  0  0  0  0  0  0  0
   -5.8587   -1.5503    0.8894 H   0  0  0  0  0  0  0  0  0  0  0  0
   -6.0416   -0.2232    2.0578 H   0  0  0  0  0  0  0  0  0  0  0  0
   -5.0082   -0.0320    0.6382 H   0  0  0  0  0  0  0  0  0  0  0  0
   -2.2119   -1.4289    2.8494 H   0  0  0  0  0  0  0  0  0  0  0  0
   -1.6531    0.7746    1.9593 H   0  0  0  0  0  0  0  0  0  0  0  0
   -3.0247    0.7817    0.8558 H   0  0  0  0  0  0  0  0  0  0  0  0
    0.3902   -0.4335    1.4010 H   0  0  0  0  0  0  0  0  0  0  0  0
    0.4751   -1.4477   -0.0825 H   0  0  0  0  0  0  0  0  0  0  0  0
   -0.5115   -1.9836    1.2953 H   0  0  0  0  0  0  0  0  0  0  0  0
   -2.9815   -0.7048   -1.1733 H   0  0  0  0  0  0  0  0  0  0  0  0
   -1.4836   -1.6144   -1.5661 H   0  0  0  0  0  0  0  0  0  0  0  0
   -2.4951   -2.1402   -0.2061 H   0  0  0  0  0  0  0  0  0  0  0  0
   -0.4112    1.5633    0.1671 H   0  0  0  0  0  0  0  0  0  0  0  0
   -1.7555    1.3988   -1.0117 H   0  0  0  0  0  0  0  0  0  0  0  0
    1.8581    2.6150   -3.5703 H   0  0  0  0  0  0  0  0  0  0  0  0
    2.0005    0.8703   -3.3804 H   0  0  0  0  0  0  0  0  0  0  0  0
    3.1379    3.0520   -1.5405 H   0  0  0  0  0  0  0  0  0  0  0  0
    4.0856    2.0140   -2.5988 H   0  0  0  0  0  0  0  0  0  0  0  0
    3.6342   -0.6689   -2.1517 H   0  0  0  0  0  0  0  0  0  0  0  0
    3.9111   -2.2828   -0.3108 H   0  0  0  0  0  0  0  0  0  0  0  0
    3.8124   -1.5227    2.0491 H   0  0  0  0  0  0  0  0  0  0  0  0
    3.4318    0.8750    2.5619 H   0  0  0  0  0  0  0  0  0  0  0  0
    3.1472    2.5077    0.7346 H   0  0  0  0  0  0  0  0  0  0  0  0
  1  2  1  0
  2  3  1  0
  2  4  2  3
  4  5  1  0
  5  6  1  0
  6  7  1  0
  6  8  1  0
  6  9  1  0
  9 10  1  0
 10 11  2  0
 10 12  1  0
 12 13  1  0
 13 14  1  0
 14 15  1  0
 15 16  2  0
 16 17  1  0
 17 18  2  0
 18 19  1  0
 19 20  2  0
 20 15  1  0
  1 21  1  0
  1 22  1  0
  1 23  1  0
  4 24  1  0
  5 25  1  0
  5 26  1  0
  7 27  1  0
  7 28  1  0
  7 29  1  0
  8 30  1  0
  8 31  1  0
  8 32  1  0
  9 33  1  0
  9 34  1  0
 13 35  1  0
 13 36  1  0
 14 37  1  0
 14 38  1  0
 16 39  1  0
 17 40  1  0
 18 41  1  0
 19 42  1  0
 20 43  1  0
M  CHG  1   6   1
M  END
$$$$
