
     RDKit          3D

 58 59  0  0  0  0  0  0  0  0999 V2000
    8.4749    1.4395   -2.1436 C   0  0  0  0  0  0  0  0  0  0  0  0
    8.9345    0.1445   -1.4926 C   0  0  0  0  0  0  0  0  0  0  0  0
    7.8425   -0.9217   -1.4205 C   0  0  0  0  0  0  0  0  0  0  0  0
    6.6690   -0.5380   -0.5211 C   0  0  0  0  0  0  0  0  0  0  0  0
    5.7796   -1.6550   -0.4683 O   0  0  0  0  0  0  0  0  0  0  0  0
    4.6597   -1.5271    0.3052 C   0  0  0  0  0  0  0  0  0  0  0  0
    4.2903   -0.3971    1.0364 C   0  0  0  0  0  0  0  0  0  0  0  0
    3.1095   -0.3991    1.7908 C   0  0  0  0  0  0  0  0  0  0  0  0
    2.2873   -1.5324    1.8120 C   0  0  0  0  0  0  0  0  0  0  0  0
    1.0263   -1.5794    2.6031 C   0  0  0  0  0  0  0  0  0  0  0  0
    0.5701   -2.6515    2.9833 O   0  0  0  0  0  0  0  0  0  0  0  0
    0.4019   -0.3701    2.8347 N   0  0  0  0  0  0  0  0  0  0  0  0
   -0.9332   -0.3478    3.4155 C   0  0  0  0  0  0  0  0  0  0  0  0
   -1.9894   -0.4392    2.3232 C   0  0  0  0  0  0  0  0  0  0  0  0
   -1.8110   -0.1341    1.1485 O   0  0  0  0  0  0  0  0  0  0  0  0
   -3.1813   -0.8428    2.8462 O   0  0  0  0  0  0  0  0  0  0  0  0
   -4.2501   -0.8729    1.8946 C   0  0  0  0  0  0  0  0  0  0  0  0
   -4.6995    0.5341    1.4922 C   0  0  0  0  0  0  0  0  0  0  0  0
   -4.5011    1.5064    2.2315 O   0  0  0  0  0  0  0  0  0  0  0  0
   -5.3580    0.7175    0.1567 C   0  0  0  0  0  0  0  0  0  0  0  0
   -5.2038    1.8732   -0.5285 C   0  0  0  0  0  0  0  0  0  0  0  0
   -4.4533    2.9337   -0.0278 N   0  0  0  0  0  0  0  0  0  0  0  0
   -5.8082    2.0092   -1.7761 N   0  0  0  0  0  0  0  0  0  0  0  0
   -5.6148    3.2438   -2.5359 C   0  0  0  0  0  0  0  0  0  0  0  0
   -6.5664    1.0103   -2.3826 C   0  0  0  0  0  0  0  0  0  0  0  0
   -7.1370    1.1750   -3.4626 O   0  0  0  0  0  0  0  0  0  0  0  0
   -6.6566   -0.1864   -1.6941 N   0  0  0  0  0  0  0  0  0  0  0  0
   -7.4532   -1.2454   -2.2877 C   0  0  0  0  0  0  0  0  0  0  0  0
   -6.1870   -0.3637   -0.4143 C   0  0  0  0  0  0  0  0  0  0  0  0
   -6.4472   -1.3551    0.2669 O   0  0  0  0  0  0  0  0  0  0  0  0
    2.6661   -2.6690    1.0913 C   0  0  0  0  0  0  0  0  0  0  0  0
    3.8433   -2.6605    0.3390 C   0  0  0  0  0  0  0  0  0  0  0  0
    8.0604    1.2535   -3.1393 H   0  0  0  0  0  0  0  0  0  0  0  0
    7.7143    1.9438   -1.5402 H   0  0  0  0  0  0  0  0  0  0  0  0
    9.3206    2.1261   -2.2515 H   0  0  0  0  0  0  0  0  0  0  0  0
    9.7752   -0.2572   -2.0708 H   0  0  0  0  0  0  0  0  0  0  0  0
    9.3150    0.3571   -0.4868 H   0  0  0  0  0  0  0  0  0  0  0  0
    7.4714   -1.1522   -2.4270 H   0  0  0  0  0  0  0  0  0  0  0  0
    8.2821   -1.8563   -1.0492 H   0  0  0  0  0  0  0  0  0  0  0  0
    6.1457    0.3286   -0.9397 H   0  0  0  0  0  0  0  0  0  0  0  0
    7.0406   -0.3064    0.4842 H   0  0  0  0  0  0  0  0  0  0  0  0
    4.9010    0.4997    1.0482 H   0  0  0  0  0  0  0  0  0  0  0  0
    2.8620    0.4828    2.3749 H   0  0  0  0  0  0  0  0  0  0  0  0
    0.6208    0.3891    2.2011 H   0  0  0  0  0  0  0  0  0  0  0  0
   -1.0539    0.6040    3.9398 H   0  0  0  0  0  0  0  0  0  0  0  0
   -1.0481   -1.1804    4.1160 H   0  0  0  0  0  0  0  0  0  0  0  0
   -3.9491   -1.4625    1.0215 H   0  0  0  0  0  0  0  0  0  0  0  0
   -5.0913   -1.3718    2.3853 H   0  0  0  0  0  0  0  0  0  0  0  0
   -4.2412    2.8206    0.9726 H   0  0  0  0  0  0  0  0  0  0  0  0
   -4.9084    3.8301   -0.1700 H   0  0  0  0  0  0  0  0  0  0  0  0
   -6.1343    4.0608   -2.0253 H   0  0  0  0  0  0  0  0  0  0  0  0
   -4.5455    3.4663   -2.6127 H   0  0  0  0  0  0  0  0  0  0  0  0
   -6.0096    3.1753   -3.5532 H   0  0  0  0  0  0  0  0  0  0  0  0
   -7.3167   -1.2687   -3.3731 H   0  0  0  0  0  0  0  0  0  0  0  0
   -7.1814   -2.2230   -1.8795 H   0  0  0  0  0  0  0  0  0  0  0  0
   -8.5072   -1.0481   -2.0679 H   0  0  0  0  0  0  0  0  0  0  0  0
    2.0460   -3.5630    1.1097 H   0  0  0  0  0  0  0  0  0  0  0  0
    4.1277   -3.5472   -0.2229 H   0  0  0  0  0  0  0  0  0  0  0  0
  1  2  1  0
  2  3  1  0
  3  4  1  0
  4  5  1  0
  5  6  1  0
  6  7  2  0
  7  8  1  0
  8  9  2  0
  9 10  1  0
 10 11  2  0
 10 12  1  0
 12 13  1  0
 13 14  1  0
 14 15  2  0
 14 16  1  0
 16 17  1  0
 17 18  1  0
 18 19  2  0
 18 20  1  0
 20 21  2  0
 21 22  1  0
 21 23  1  0
 23 24  1  0
 23 25  1  0
 25 26  2  0
 25 27  1  0
 27 28  1  0
 27 29  1  0
 29 30  2  0
  9 31  1  0
 31 32  2  0
 32  6  1  0
 29 20  1  0
  1 33  1  0
  1 34  1  0
  1 35  1  0
  2 36  1  0
  2 37  1  0
  3 38  1  0
  3 39  1  0
  4 40  1  0
  4 41  1  0
  7 42  1  0
  8 43  1  0
 12 44  1  0
 13 45  1  0
 13 46  1  0
 17 47  1  0
 17 48  1  0
 22 49  1  0
 22 50  1  0
 24 51  1  0
 24 52  1  0
 24 53  1  0
 28 54  1  0
 28 55  1  0
 28 56  1  0
 31 57  1  0
 32 58  1  0
M  END
$$$$
