
     RDKit          3D

 27 27  0  0  0  0  0  0  0  0999 V2000
   -1.8629   -1.2772    0.3530 C   0  0  0  0  0  0  0  0  0  0  0  0
   -1.5180    0.1234   -0.1742 C   0  0  0  0  0  0  0  0  0  0  0  0
   -1.0871    0.0247   -1.6394 C   0  0  0  0  0  0  0  0  0  0  0  0
   -2.7739    1.0095   -0.0855 C   0  0  0  0  0  0  0  0  0  0  0  0
   -0.2280    0.8961    0.8523 S   0  0  0  0  0  6  0  0  0  0  0  0
   -0.6331    0.8282    2.2442 O   0  0  0  0  0  0  0  0  0  0  0  0
    0.2121    2.1489    0.2766 O   0  0  0  0  0  0  0  0  0  0  0  0
    1.1744   -0.1357    0.7983 C   0  0  0  0  0  0  0  0  0  0  0  0
    1.3577   -1.2224    1.7159 C   0  0  0  0  0  0  0  0  0  0  0  0
    2.5620   -1.8613    1.5335 C   0  0  0  0  0  0  0  0  0  0  0  0
    3.4772   -1.1482    0.2822 S   0  0  0  0  0  0  0  0  0  0  0  0
    2.2660    0.0300   -0.0362 C   0  0  0  0  0  0  0  0  0  0  0  0
    2.4764    0.9788   -1.0999 C   0  0  0  0  0  0  0  0  0  0  0  0
    1.7125    1.2566   -2.0113 O   0  0  0  0  0  0  0  0  0  0  0  0
    3.6875    1.5720   -1.0206 O   0  0  0  0  0  0  0  0  0  0  0  0
   -1.0196   -1.9669    0.2484 H   0  0  0  0  0  0  0  0  0  0  0  0
   -2.7039   -1.7094   -0.2014 H   0  0  0  0  0  0  0  0  0  0  0  0
   -2.1432   -1.2522    1.4115 H   0  0  0  0  0  0  0  0  0  0  0  0
   -1.8832   -0.4104   -2.2546 H   0  0  0  0  0  0  0  0  0  0  0  0
   -0.2040   -0.6104   -1.7582 H   0  0  0  0  0  0  0  0  0  0  0  0
   -0.8584    1.0115   -2.0546 H   0  0  0  0  0  0  0  0  0  0  0  0
   -3.5937    0.5990   -0.6856 H   0  0  0  0  0  0  0  0  0  0  0  0
   -2.5703    2.0238   -0.4470 H   0  0  0  0  0  0  0  0  0  0  0  0
   -3.1281    1.0959    0.9479 H   0  0  0  0  0  0  0  0  0  0  0  0
    0.6473   -1.5065    2.4850 H   0  0  0  0  0  0  0  0  0  0  0  0
    2.9565   -2.7038    2.0862 H   0  0  0  0  0  0  0  0  0  0  0  0
    3.6779    2.2059   -1.7664 H   0  0  0  0  0  0  0  0  0  0  0  0
  1  2  1  0
  2  3  1  0
  2  4  1  0
  2  5  1  0
  5  6  2  0
  5  7  2  0
  5  8  1  0
  8  9  1  0
  9 10  2  0
 10 11  1  0
 11 12  1  0
 12 13  1  0
 13 14  2  0
 13 15  1  0
 12  8  2  0
  1 16  1  0
  1 17  1  0
  1 18  1  0
  3 19  1  0
  3 20  1  0
  3 21  1  0
  4 22  1  0
  4 23  1  0
  4 24  1  0
  9 25  1  0
 10 26  1  0
 15 27  1  0
M  END
$$$$
