
     RDKit          3D

 47 50  0  0  0  0  0  0  0  0999 V2000
   -5.8666    0.4801    2.1779 C   0  0  0  0  0  0  0  0  0  0  0  0
   -5.9631    1.3629    0.9414 C   0  0  0  0  0  0  0  0  0  0  0  0
   -4.6202    1.5148    0.2296 C   0  0  0  0  0  0  0  0  0  0  0  0
   -4.2055    0.2362   -0.2448 O   0  0  0  0  0  0  0  0  0  0  0  0
   -2.9421    0.1326   -0.7708 C   0  0  0  0  0  0  0  0  0  0  0  0
   -2.1467    1.2248   -1.1291 C   0  0  0  0  0  0  0  0  0  0  0  0
   -0.8735    1.0250   -1.6694 C   0  0  0  0  0  0  0  0  0  0  0  0
   -0.3790   -0.2679   -1.8511 C   0  0  0  0  0  0  0  0  0  0  0  0
    0.9400   -0.5027   -2.4467 C   0  0  0  0  0  0  0  0  0  0  0  0
    2.1254   -0.1603   -1.9197 C   0  0  0  0  0  0  0  0  0  0  0  0
    3.6371   -0.5255   -2.7571 S   0  0  0  0  0  0  0  0  0  0  0  0
    4.5173    0.1771   -1.4671 C   0  0  0  0  0  0  0  0  0  0  0  0
    5.7761    0.3708   -1.2038 N   0  0  0  0  0  0  0  0  0  0  0  0
    5.7068    1.0035    0.0283 C   0  0  0  0  0  0  0  0  0  0  0  0
    6.9863    1.4610    0.8029 C   0  0  0  0  0  0  0  0  0  0  0  0
    7.0050    2.0953    2.0308 C   0  0  0  0  0  0  0  0  0  0  0  0
    8.3652    2.3226    2.3523 C   0  0  0  0  0  0  0  0  0  0  0  0
    9.0934    1.8144    1.3034 C   0  0  0  0  0  0  0  0  0  0  0  0
    8.2692    1.2908    0.3605 O   0  0  0  0  0  0  0  0  0  0  0  0
    4.4587    1.1951    0.5067 N   0  0  0  0  0  0  0  0  0  0  0  0
    3.7296    0.6489   -0.4826 N   0  0  0  0  0  0  0  0  0  0  0  0
    2.3612    0.5261   -0.6051 C   0  0  0  0  0  0  0  0  0  0  0  0
    1.5787    0.9276    0.2344 O   0  0  0  0  0  0  0  0  0  0  0  0
   -1.1798   -1.3657   -1.5096 C   0  0  0  0  0  0  0  0  0  0  0  0
   -2.4571   -1.1753   -0.9677 C   0  0  0  0  0  0  0  0  0  0  0  0
   -3.3063   -2.1914   -0.6044 O   0  0  0  0  0  0  0  0  0  0  0  0
   -2.8185   -3.5276   -0.6729 C   0  0  0  0  0  0  0  0  0  0  0  0
   -3.9043   -4.4490   -0.1467 C   0  0  0  0  0  0  0  0  0  0  0  0
   -6.8401    0.4192    2.6746 H   0  0  0  0  0  0  0  0  0  0  0  0
   -5.1452    0.8869    2.8937 H   0  0  0  0  0  0  0  0  0  0  0  0
   -5.5573   -0.5373    1.9184 H   0  0  0  0  0  0  0  0  0  0  0  0
   -6.6943    0.9199    0.2552 H   0  0  0  0  0  0  0  0  0  0  0  0
   -6.3339    2.3521    1.2318 H   0  0  0  0  0  0  0  0  0  0  0  0
   -4.7503    2.1974   -0.6182 H   0  0  0  0  0  0  0  0  0  0  0  0
   -3.8817    1.9278    0.9277 H   0  0  0  0  0  0  0  0  0  0  0  0
   -2.4908    2.2461   -1.0063 H   0  0  0  0  0  0  0  0  0  0  0  0
   -0.2771    1.8933   -1.9399 H   0  0  0  0  0  0  0  0  0  0  0  0
    0.9006   -1.0252   -3.4018 H   0  0  0  0  0  0  0  0  0  0  0  0
    6.1347    2.3581    2.6169 H   0  0  0  0  0  0  0  0  0  0  0  0
    8.7646    2.7971    3.2375 H   0  0  0  0  0  0  0  0  0  0  0  0
   10.1506    1.7498    1.0858 H   0  0  0  0  0  0  0  0  0  0  0  0
   -0.7890   -2.3643   -1.6746 H   0  0  0  0  0  0  0  0  0  0  0  0
   -2.5947   -3.7964   -1.7115 H   0  0  0  0  0  0  0  0  0  0  0  0
   -1.9224   -3.6407   -0.0519 H   0  0  0  0  0  0  0  0  0  0  0  0
   -4.8191   -4.3449   -0.7395 H   0  0  0  0  0  0  0  0  0  0  0  0
   -3.5794   -5.4927   -0.1788 H   0  0  0  0  0  0  0  0  0  0  0  0
   -4.1624   -4.1903    0.8856 H   0  0  0  0  0  0  0  0  0  0  0  0
  1  2  1  0
  2  3  1  0
  3  4  1  0
  4  5  1  0
  5  6  2  0
  6  7  1  0
  7  8  2  0
  8  9  1  0
  9 10  2  3
 10 11  1  0
 11 12  1  0
 12 13  2  0
 13 14  1  0
 14 15  1  0
 15 16  2  0
 16 17  1  0
 17 18  2  0
 18 19  1  0
 14 20  2  0
 20 21  1  0
 21 22  1  0
 22 23  2  0
  8 24  1  0
 24 25  2  0
 25 26  1  0
 26 27  1  0
 27 28  1  0
 25  5  1  0
 22 10  1  0
 21 12  1  0
 19 15  1  0
  1 29  1  0
  1 30  1  0
  1 31  1  0
  2 32  1  0
  2 33  1  0
  3 34  1  0
  3 35  1  0
  6 36  1  0
  7 37  1  0
  9 38  1  0
 16 39  1  0
 17 40  1  0
 18 41  1  0
 24 42  1  0
 27 43  1  0
 27 44  1  0
 28 45  1  0
 28 46  1  0
 28 47  1  0
M  END
$$$$
