
     RDKit          3D

 68 71  0  0  0  0  0  0  0  0999 V2000
    8.5793   -1.5855    2.5903 C   0  0  0  0  0  0  0  0  0  0  0  0
    7.5586   -0.6408    2.1029 C   0  0  0  0  0  0  0  0  0  0  0  0
    6.2280   -0.7455    1.7865 C   0  0  0  0  0  0  0  0  0  0  0  0
    5.8498    0.5600    1.4039 C   0  0  0  0  0  0  0  0  0  0  0  0
    4.6176    1.0392    1.0176 N   0  0  0  0  0  0  0  0  0  0  0  0
    3.4643    0.2934    0.9321 C   0  0  0  0  0  0  0  0  0  0  0  0
    3.3646   -0.9109    1.1497 O   0  0  0  0  0  0  0  0  0  0  0  0
    2.2754    1.1465    0.5381 C   0  0  0  0  0  0  0  0  0  0  0  0
    0.9980    0.3209    0.4114 C   0  0  0  0  0  0  0  0  0  0  0  0
   -0.2173    1.2078    0.2082 C   0  0  0  0  0  0  0  0  0  0  0  0
   -0.0880    2.4305    0.1229 O   0  0  0  0  0  0  0  0  0  0  0  0
   -1.4589    0.5898    0.0819 N   0  0  0  0  0  0  0  0  0  0  0  0
   -2.6442    1.4572    0.0350 C   0  0  0  0  0  0  0  0  0  0  0  0
   -3.2394    1.6229    1.3894 C   0  0  0  0  0  0  0  0  0  0  0  0
   -4.4994    1.3812    1.8996 C   0  0  0  0  0  0  0  0  0  0  0  0
   -4.4565    1.7461    3.2673 C   0  0  0  0  0  0  0  0  0  0  0  0
   -3.1788    2.1943    3.5034 C   0  0  0  0  0  0  0  0  0  0  0  0
   -2.4341    2.1287    2.3701 O   0  0  0  0  0  0  0  0  0  0  0  0
   -1.6194   -0.8680   -0.1890 C   0  0  0  0  0  0  0  0  0  0  0  0
   -1.4812   -1.1744   -1.7185 C   0  0  0  0  0  0  0  0  0  0  0  0
   -1.4734   -2.3199   -2.1678 O   0  0  0  0  0  0  0  0  0  0  0  0
   -1.3760   -0.0634   -2.5400 N   0  0  0  0  0  0  0  0  0  0  0  0
   -1.0554   -0.1835   -3.9544 C   0  0  0  0  0  0  0  0  0  0  0  0
    0.4503   -0.3899   -4.1642 C   0  0  0  0  0  0  0  0  0  0  0  0
    1.0297    0.9812   -4.5268 C   0  0  0  0  0  0  0  0  0  0  0  0
   -0.1255    1.9694   -4.4330 C   0  0  0  0  0  0  0  0  0  0  0  0
   -1.3576    1.1169   -4.6948 C   0  0  0  0  0  0  0  0  0  0  0  0
   -2.8628   -1.4935    0.4507 C   0  0  0  0  0  0  0  0  0  0  0  0
   -4.0328   -1.7039   -0.3084 C   0  0  0  0  0  0  0  0  0  0  0  0
   -5.1810   -2.2525    0.2643 C   0  0  0  0  0  0  0  0  0  0  0  0
   -5.1875   -2.5993    1.6085 C   0  0  0  0  0  0  0  0  0  0  0  0
   -4.0448   -2.4012    2.3809 C   0  0  0  0  0  0  0  0  0  0  0  0
   -2.8795   -1.8470    1.8223 C   0  0  0  0  0  0  0  0  0  0  0  0
   -1.6790   -1.6607    2.7126 C   0  0  0  0  0  0  0  0  0  0  0  0
    6.8884    1.3984    1.4752 N   0  0  0  0  0  0  0  0  0  0  0  0
    7.9650    0.6404    1.9000 O   0  0  0  0  0  0  0  0  0  0  0  0
    9.0961   -1.1778    3.4659 H   0  0  0  0  0  0  0  0  0  0  0  0
    9.3223   -1.7841    1.8116 H   0  0  0  0  0  0  0  0  0  0  0  0
    8.1240   -2.5369    2.8805 H   0  0  0  0  0  0  0  0  0  0  0  0
    5.6143   -1.6329    1.8512 H   0  0  0  0  0  0  0  0  0  0  0  0
    4.6101    2.0303    0.8105 H   0  0  0  0  0  0  0  0  0  0  0  0
    2.4949    1.6411   -0.4152 H   0  0  0  0  0  0  0  0  0  0  0  0
    2.1525    1.9241    1.3016 H   0  0  0  0  0  0  0  0  0  0  0  0
    1.1003   -0.3615   -0.4386 H   0  0  0  0  0  0  0  0  0  0  0  0
    0.8450   -0.2652    1.3240 H   0  0  0  0  0  0  0  0  0  0  0  0
   -3.3712    1.0496   -0.6746 H   0  0  0  0  0  0  0  0  0  0  0  0
   -2.3720    2.4481   -0.3455 H   0  0  0  0  0  0  0  0  0  0  0  0
   -5.3403    0.9776    1.3534 H   0  0  0  0  0  0  0  0  0  0  0  0
   -5.2567    1.6873    3.9917 H   0  0  0  0  0  0  0  0  0  0  0  0
   -2.6677    2.5762    4.3769 H   0  0  0  0  0  0  0  0  0  0  0  0
   -0.7542   -1.3913    0.2303 H   0  0  0  0  0  0  0  0  0  0  0  0
   -1.2020    0.8257   -2.0866 H   0  0  0  0  0  0  0  0  0  0  0  0
   -1.6293   -1.0228   -4.3634 H   0  0  0  0  0  0  0  0  0  0  0  0
    0.9502   -0.8161   -3.2876 H   0  0  0  0  0  0  0  0  0  0  0  0
    0.6211   -1.0815   -4.9998 H   0  0  0  0  0  0  0  0  0  0  0  0
    1.4140    0.9525   -5.5553 H   0  0  0  0  0  0  0  0  0  0  0  0
    1.8632    1.2676   -3.8745 H   0  0  0  0  0  0  0  0  0  0  0  0
   -0.1685    2.4070   -3.4284 H   0  0  0  0  0  0  0  0  0  0  0  0
   -0.0255    2.7900   -5.1491 H   0  0  0  0  0  0  0  0  0  0  0  0
   -1.4457    0.9235   -5.7700 H   0  0  0  0  0  0  0  0  0  0  0  0
   -2.2744    1.6069   -4.3565 H   0  0  0  0  0  0  0  0  0  0  0  0
   -4.0668   -1.4515   -1.3666 H   0  0  0  0  0  0  0  0  0  0  0  0
   -6.0668   -2.4153   -0.3440 H   0  0  0  0  0  0  0  0  0  0  0  0
   -6.0787   -3.0297    2.0568 H   0  0  0  0  0  0  0  0  0  0  0  0
   -4.0695   -2.6789    3.4317 H   0  0  0  0  0  0  0  0  0  0  0  0
   -1.3364   -0.6227    2.6920 H   0  0  0  0  0  0  0  0  0  0  0  0
   -0.8679   -2.3230    2.3938 H   0  0  0  0  0  0  0  0  0  0  0  0
   -1.9114   -1.9009    3.7562 H   0  0  0  0  0  0  0  0  0  0  0  0
  1  2  1  0
  2  3  2  0
  3  4  1  0
  4  5  1  0
  5  6  1  0
  6  7  2  0
  6  8  1  0
  8  9  1  0
  9 10  1  0
 10 11  2  0
 10 12  1  0
 12 13  1  0
 13 14  1  0
 14 15  2  0
 15 16  1  0
 16 17  2  0
 17 18  1  0
 12 19  1  0
 19 20  1  0
 20 21  2  0
 20 22  1  0
 22 23  1  0
 23 24  1  0
 24 25  1  0
 25 26  1  0
 26 27  1  0
 19 28  1  0
 28 29  2  0
 29 30  1  0
 30 31  2  0
 31 32  1  0
 32 33  2  0
 33 34  1  0
  4 35  2  0
 35 36  1  0
 36  2  1  0
 18 14  1  0
 27 23  1  0
 33 28  1  0
  1 37  1  0
  1 38  1  0
  1 39  1  0
  3 40  1  0
  5 41  1  0
  8 42  1  0
  8 43  1  0
  9 44  1  0
  9 45  1  0
 13 46  1  0
 13 47  1  0
 15 48  1  0
 16 49  1  0
 17 50  1  0
 19 51  1  0
 22 52  1  0
 23 53  1  0
 24 54  1  0
 24 55  1  0
 25 56  1  0
 25 57  1  0
 26 58  1  0
 26 59  1  0
 27 60  1  0
 27 61  1  0
 29 62  1  0
 30 63  1  0
 31 64  1  0
 32 65  1  0
 34 66  1  0
 34 67  1  0
 34 68  1  0
M  END
$$$$
