
     RDKit          3D

 43 46  0  0  0  0  0  0  0  0999 V2000
    5.9246    2.1016    1.4629 C   0  0  0  0  0  0  0  0  0  0  0  0
    4.6415    1.4387    1.0531 C   0  0  0  0  0  0  0  0  0  0  0  0
    4.3791    1.1727   -0.2941 C   0  0  0  0  0  0  0  0  0  0  0  0
    3.1710    0.5844   -0.6828 C   0  0  0  0  0  0  0  0  0  0  0  0
    2.2056    0.2665    0.2728 C   0  0  0  0  0  0  0  0  0  0  0  0
    0.8456   -0.3969   -0.1483 C   0  0  0  0  0  0  0  0  0  0  0  0
   -0.1598   -0.8300    0.7080 C   0  0  0  0  0  0  0  0  0  0  0  0
   -1.1988   -1.3796   -0.0489 N   0  0  0  0  0  4  0  0  0  0  0  0
   -2.4372   -1.9620    0.4589 C   0  0  0  0  0  0  0  0  0  0  0  0
   -3.2798   -0.8744    1.0774 C   0  0  0  0  0  0  0  0  0  0  0  0
   -3.6419   -0.9326    2.4307 C   0  0  0  0  0  0  0  0  0  0  0  0
   -4.4207    0.0794    3.0018 C   0  0  0  0  0  0  0  0  0  0  0  0
   -4.8506    1.1631    2.2311 C   0  0  0  0  0  0  0  0  0  0  0  0
   -5.8006    2.3775    3.0052 Cl  0  0  0  0  0  0  0  0  0  0  0  0
   -4.5018    1.2297    0.8802 C   0  0  0  0  0  0  0  0  0  0  0  0
   -4.9852    2.5326   -0.1444 Cl  0  0  0  0  0  0  0  0  0  0  0  0
   -3.7247    0.2140    0.3084 C   0  0  0  0  0  0  0  0  0  0  0  0
   -0.8411   -1.2936   -1.3249 C   0  0  0  0  0  0  0  0  0  0  0  0
    0.3460   -0.7014   -1.4025 N   0  0  0  0  0  0  0  0  0  0  0  0
    0.7863   -0.5407   -2.7812 C   0  0  0  0  0  0  0  0  0  0  0  0
   -0.4872   -0.8695   -3.6091 C   0  0  0  0  0  0  0  0  0  0  0  0
   -1.4020   -1.6537   -2.6474 C   0  0  0  0  0  0  0  0  0  0  0  0
    2.4590    0.5403    1.6218 C   0  0  0  0  0  0  0  0  0  0  0  0
    3.6674    1.1291    2.0063 C   0  0  0  0  0  0  0  0  0  0  0  0
    5.8055    3.1893    1.4456 H   0  0  0  0  0  0  0  0  0  0  0  0
    6.7406    1.8234    0.7876 H   0  0  0  0  0  0  0  0  0  0  0  0
    6.2186    1.7931    2.4716 H   0  0  0  0  0  0  0  0  0  0  0  0
    5.1212    1.4211   -1.0516 H   0  0  0  0  0  0  0  0  0  0  0  0
    3.0292    0.3835   -1.7363 H   0  0  0  0  0  0  0  0  0  0  0  0
   -0.2698   -0.8227    1.7794 H   0  0  0  0  0  0  0  0  0  0  0  0
   -2.9866   -2.4441   -0.3566 H   0  0  0  0  0  0  0  0  0  0  0  0
   -2.1736   -2.7355    1.1890 H   0  0  0  0  0  0  0  0  0  0  0  0
   -3.3283   -1.7643    3.0609 H   0  0  0  0  0  0  0  0  0  0  0  0
   -4.6935    0.0174    4.0543 H   0  0  0  0  0  0  0  0  0  0  0  0
   -3.4653    0.2820   -0.7458 H   0  0  0  0  0  0  0  0  0  0  0  0
    1.5852   -1.2601   -2.9827 H   0  0  0  0  0  0  0  0  0  0  0  0
    1.1223    0.4815   -2.9694 H   0  0  0  0  0  0  0  0  0  0  0  0
   -0.9814    0.0686   -3.8884 H   0  0  0  0  0  0  0  0  0  0  0  0
   -0.2650   -1.4180   -4.5283 H   0  0  0  0  0  0  0  0  0  0  0  0
   -1.2915   -2.7352   -2.7495 H   0  0  0  0  0  0  0  0  0  0  0  0
   -2.4460   -1.3415   -2.6899 H   0  0  0  0  0  0  0  0  0  0  0  0
    1.7373    0.3195    2.4026 H   0  0  0  0  0  0  0  0  0  0  0  0
    3.8463    1.3468    3.0584 H   0  0  0  0  0  0  0  0  0  0  0  0
  1  2  1  0
  2  3  2  0
  3  4  1  0
  4  5  2  0
  5  6  1  0
  6  7  2  0
  7  8  1  0
  8  9  1  0
  9 10  1  0
 10 11  2  0
 11 12  1  0
 12 13  2  0
 13 14  1  0
 13 15  1  0
 15 16  1  0
 15 17  2  0
  8 18  2  0
 18 19  1  0
 19 20  1  0
 20 21  1  0
 21 22  1  0
  5 23  1  0
 23 24  2  0
 24  2  1  0
 19  6  1  0
 17 10  1  0
 22 18  1  0
  1 25  1  0
  1 26  1  0
  1 27  1  0
  3 28  1  0
  4 29  1  0
  7 30  1  0
  9 31  1  0
  9 32  1  0
 11 33  1  0
 12 34  1  0
 17 35  1  0
 20 36  1  0
 20 37  1  0
 21 38  1  0
 21 39  1  0
 22 40  1  0
 22 41  1  0
 23 42  1  0
 24 43  1  0
M  CHG  1   8   1
M  END
$$$$
