
     RDKit          3D

 58 63  0  0  0  0  0  0  0  0999 V2000
    7.1508   -1.7595   -0.5442 C   0  0  0  0  0  0  0  0  0  0  0  0
    6.1164   -1.5753    0.5123 C   0  0  0  0  0  0  0  0  0  0  0  0
    5.8715   -2.3604    1.6194 C   0  0  0  0  0  0  0  0  0  0  0  0
    4.8031   -1.8513    2.4126 C   0  0  0  0  0  0  0  0  0  0  0  0
    4.2342   -0.7166    1.8667 C   0  0  0  0  0  0  0  0  0  0  0  0
    3.1633    0.0852    2.4400 C   0  0  0  0  0  0  0  0  0  0  0  0
    3.1982    0.4266    3.6235 O   0  0  0  0  0  0  0  0  0  0  0  0
    2.0732    0.4396    1.6312 N   0  0  0  0  0  0  0  0  0  0  0  0
    1.0628    1.3277    2.1946 C   0  0  0  0  0  0  0  0  0  0  0  0
    0.3191    2.0754    1.0946 C   0  0  0  0  0  0  0  0  0  0  0  0
   -0.4088    1.1248    0.0927 C   0  0  0  0  0  0  0  0  0  0  0  0
    0.2285   -0.2910    0.1624 C   0  0  0  0  0  0  0  0  0  0  0  0
    1.7402   -0.2203    0.3697 C   0  0  0  0  0  0  0  0  0  0  0  0
   -0.1297    1.5755   -1.2616 O   0  0  0  0  0  0  0  0  0  0  0  0
   -0.7779    2.7092   -1.6621 C   0  0  0  0  0  0  0  0  0  0  0  0
   -0.2332    3.3725   -2.7613 C   0  0  0  0  0  0  0  0  0  0  0  0
   -0.8210    4.5504   -3.2285 C   0  0  0  0  0  0  0  0  0  0  0  0
   -1.9570    5.0579   -2.5978 C   0  0  0  0  0  0  0  0  0  0  0  0
   -2.6761    6.5084   -3.1771 Cl  0  0  0  0  0  0  0  0  0  0  0  0
   -2.5166    4.3936   -1.5095 C   0  0  0  0  0  0  0  0  0  0  0  0
   -1.9253    3.2112   -1.0518 C   0  0  0  0  0  0  0  0  0  0  0  0
   -2.5252    2.4620    0.0676 C   0  0  0  0  0  0  0  0  0  0  0  0
   -3.4637    2.9517    0.6875 O   0  0  0  0  0  0  0  0  0  0  0  0
   -1.9459    1.0740    0.3252 C   0  0  0  0  0  0  0  0  0  0  0  0
   -2.7204    0.0884   -0.5419 C   0  0  0  0  0  0  0  0  0  0  0  0
   -3.0020   -0.9618    0.4746 C   0  0  0  0  0  0  0  0  0  0  0  0
   -3.5622   -2.2824    0.1039 C   0  0  0  0  0  0  0  0  0  0  0  0
   -3.7196   -3.2551    1.0992 C   0  0  0  0  0  0  0  0  0  0  0  0
   -4.2427   -4.5098    0.7809 C   0  0  0  0  0  0  0  0  0  0  0  0
   -4.6114   -4.7982   -0.5316 C   0  0  0  0  0  0  0  0  0  0  0  0
   -4.4603   -3.8329   -1.5266 C   0  0  0  0  0  0  0  0  0  0  0  0
   -3.9380   -2.5752   -1.2121 C   0  0  0  0  0  0  0  0  0  0  0  0
   -2.7199   -0.6289    1.6929 N   0  0  0  0  0  0  0  0  0  0  0  0
   -2.2287    0.6955    1.6765 O   0  0  0  0  0  0  0  0  0  0  0  0
    5.0645   -0.2267    0.4514 S   0  0  0  0  0  0  0  0  0  0  0  0
    6.6940   -1.7849   -1.5389 H   0  0  0  0  0  0  0  0  0  0  0  0
    7.8834   -0.9460   -0.5140 H   0  0  0  0  0  0  0  0  0  0  0  0
    7.6908   -2.7016   -0.4015 H   0  0  0  0  0  0  0  0  0  0  0  0
    6.4405   -3.2503    1.8615 H   0  0  0  0  0  0  0  0  0  0  0  0
    4.4587   -2.2943    3.3398 H   0  0  0  0  0  0  0  0  0  0  0  0
    0.3772    0.7222    2.7988 H   0  0  0  0  0  0  0  0  0  0  0  0
    1.5415    2.0476    2.8681 H   0  0  0  0  0  0  0  0  0  0  0  0
    1.0440    2.6984    0.5528 H   0  0  0  0  0  0  0  0  0  0  0  0
   -0.3831    2.7737    1.5638 H   0  0  0  0  0  0  0  0  0  0  0  0
   -0.1924   -0.8739    0.9886 H   0  0  0  0  0  0  0  0  0  0  0  0
    0.0352   -0.8449   -0.7640 H   0  0  0  0  0  0  0  0  0  0  0  0
    2.2069    0.3512   -0.4399 H   0  0  0  0  0  0  0  0  0  0  0  0
    2.1505   -1.2349    0.3579 H   0  0  0  0  0  0  0  0  0  0  0  0
    0.6576    2.9826   -3.2484 H   0  0  0  0  0  0  0  0  0  0  0  0
   -0.3867    5.0686   -4.0802 H   0  0  0  0  0  0  0  0  0  0  0  0
   -3.4087    4.7859   -1.0254 H   0  0  0  0  0  0  0  0  0  0  0  0
   -3.6741    0.4880   -0.9037 H   0  0  0  0  0  0  0  0  0  0  0  0
   -2.1476   -0.2924   -1.3901 H   0  0  0  0  0  0  0  0  0  0  0  0
   -3.4407   -3.0425    2.1298 H   0  0  0  0  0  0  0  0  0  0  0  0
   -4.3660   -5.2590    1.5596 H   0  0  0  0  0  0  0  0  0  0  0  0
   -5.0209   -5.7751   -0.7779 H   0  0  0  0  0  0  0  0  0  0  0  0
   -4.7554   -4.0596   -2.5485 H   0  0  0  0  0  0  0  0  0  0  0  0
   -3.8447   -1.8431   -2.0082 H   0  0  0  0  0  0  0  0  0  0  0  0
  1  2  1  0
  2  3  2  0
  3  4  1  0
  4  5  2  0
  5  6  1  0
  6  7  2  0
  6  8  1  0
  8  9  1  0
  9 10  1  0
 10 11  1  0
 11 12  1  0
 12 13  1  0
 11 14  1  0
 14 15  1  0
 15 16  2  0
 16 17  1  0
 17 18  2  0
 18 19  1  0
 18 20  1  0
 20 21  2  0
 21 22  1  0
 22 23  2  0
 22 24  1  0
 24 25  1  0
 25 26  1  0
 26 27  1  0
 27 28  2  0
 28 29  1  0
 29 30  2  0
 30 31  1  0
 31 32  2  0
 26 33  2  0
 33 34  1  0
  5 35  1  0
 35  2  1  0
 13  8  1  0
 21 15  1  0
 34 24  1  0
 24 11  1  0
 32 27  1  0
  1 36  1  0
  1 37  1  0
  1 38  1  0
  3 39  1  0
  4 40  1  0
  9 41  1  0
  9 42  1  0
 10 43  1  0
 10 44  1  0
 12 45  1  0
 12 46  1  0
 13 47  1  0
 13 48  1  0
 16 49  1  0
 17 50  1  0
 20 51  1  0
 25 52  1  0
 25 53  1  0
 28 54  1  0
 29 55  1  0
 30 56  1  0
 31 57  1  0
 32 58  1  0
M  END
$$$$
