
     RDKit          3D

 51 53  0  0  0  0  0  0  0  0999 V2000
    9.6193    0.5847    1.7958 C   0  0  0  0  0  0  0  0  0  0  0  0
    8.2202    0.5132    1.5535 O   0  0  0  0  0  0  0  0  0  0  0  0
    7.8238    0.0204    0.3395 C   0  0  0  0  0  0  0  0  0  0  0  0
    8.6699   -0.4160   -0.6795 C   0  0  0  0  0  0  0  0  0  0  0  0
    8.1315   -0.8977   -1.8733 C   0  0  0  0  0  0  0  0  0  0  0  0
    6.7480   -0.9440   -2.0508 C   0  0  0  0  0  0  0  0  0  0  0  0
    5.8881   -0.5095   -1.0371 C   0  0  0  0  0  0  0  0  0  0  0  0
    4.5084   -0.5869   -1.2899 N   0  0  0  0  0  0  0  0  0  0  0  0
    3.4703   -0.2246   -0.4591 C   0  0  0  0  0  0  0  0  0  0  0  0
    3.5016    0.2408    0.6720 O   0  0  0  0  0  0  0  0  0  0  0  0
    2.0983   -0.4670   -1.1119 C   0  0  0  0  0  0  0  0  0  0  0  0
    2.0490   -0.9310   -2.2437 O   0  0  0  0  0  0  0  0  0  0  0  0
    1.0585   -0.1050   -0.2781 N   0  0  0  0  0  0  0  0  0  0  0  0
   -0.2375   -0.2444   -0.6764 N   0  0  0  0  0  0  0  0  0  0  0  0
   -1.1266    0.1268    0.1874 C   0  0  0  0  0  0  0  0  0  0  0  0
   -2.5317    0.0092   -0.1547 C   0  0  0  0  0  0  0  0  0  0  0  0
   -3.0780   -0.4988   -1.3568 C   0  0  0  0  0  0  0  0  0  0  0  0
   -4.4543   -0.4498   -1.2718 C   0  0  0  0  0  0  0  0  0  0  0  0
   -5.4280   -0.9776   -2.2706 C   0  0  0  0  0  0  0  0  0  0  0  0
   -4.7887    0.0915   -0.0349 N   0  0  0  0  0  0  0  0  0  0  0  0
   -6.1119    0.2868    0.4601 C   0  0  0  0  0  0  0  0  0  0  0  0
   -7.0938    0.8557   -0.3587 C   0  0  0  0  0  0  0  0  0  0  0  0
   -8.3886    1.0458    0.1320 C   0  0  0  0  0  0  0  0  0  0  0  0
   -8.7109    0.6672    1.4382 C   0  0  0  0  0  0  0  0  0  0  0  0
  -10.3304    0.9344    1.9764 Cl  0  0  0  0  0  0  0  0  0  0  0  0
   -7.7314    0.0951    2.2572 C   0  0  0  0  0  0  0  0  0  0  0  0
   -8.0579   -0.4054    3.8789 Cl  0  0  0  0  0  0  0  0  0  0  0  0
   -6.4335   -0.0946    1.7692 C   0  0  0  0  0  0  0  0  0  0  0  0
   -3.6041    0.3987    0.6413 C   0  0  0  0  0  0  0  0  0  0  0  0
   -3.5620    1.1070    1.9583 C   0  0  0  0  0  0  0  0  0  0  0  0
    6.4355   -0.0290    0.1544 C   0  0  0  0  0  0  0  0  0  0  0  0
    9.7642    0.9954    2.7996 H   0  0  0  0  0  0  0  0  0  0  0  0
   10.0752   -0.4106    1.7744 H   0  0  0  0  0  0  0  0  0  0  0  0
   10.1088    1.2600    1.0862 H   0  0  0  0  0  0  0  0  0  0  0  0
    9.7496   -0.3948   -0.5771 H   0  0  0  0  0  0  0  0  0  0  0  0
    8.7913   -1.2378   -2.6676 H   0  0  0  0  0  0  0  0  0  0  0  0
    6.3546   -1.3237   -2.9906 H   0  0  0  0  0  0  0  0  0  0  0  0
    4.2101   -0.9531   -2.1927 H   0  0  0  0  0  0  0  0  0  0  0  0
    1.2952    0.2676    0.6405 H   0  0  0  0  0  0  0  0  0  0  0  0
   -0.8591    0.5267    1.1800 H   0  0  0  0  0  0  0  0  0  0  0  0
   -2.5126   -0.8902   -2.1956 H   0  0  0  0  0  0  0  0  0  0  0  0
   -6.2569   -1.5064   -1.7905 H   0  0  0  0  0  0  0  0  0  0  0  0
   -4.9377   -1.6936   -2.9398 H   0  0  0  0  0  0  0  0  0  0  0  0
   -5.8234   -0.1689   -2.8919 H   0  0  0  0  0  0  0  0  0  0  0  0
   -6.8625    1.1978   -1.3646 H   0  0  0  0  0  0  0  0  0  0  0  0
   -9.1413    1.4994   -0.5094 H   0  0  0  0  0  0  0  0  0  0  0  0
   -5.6956   -0.5783    2.4042 H   0  0  0  0  0  0  0  0  0  0  0  0
   -3.5749    0.3865    2.7815 H   0  0  0  0  0  0  0  0  0  0  0  0
   -2.6485    1.7033    2.0513 H   0  0  0  0  0  0  0  0  0  0  0  0
   -4.3953    1.8060    2.0764 H   0  0  0  0  0  0  0  0  0  0  0  0
    5.8055    0.3184    0.9675 H   0  0  0  0  0  0  0  0  0  0  0  0
  1  2  1  0
  2  3  1  0
  3  4  2  0
  4  5  1  0
  5  6  2  0
  6  7  1  0
  7  8  1  0
  8  9  1  0
  9 10  2  0
  9 11  1  0
 11 12  2  0
 11 13  1  0
 13 14  1  0
 14 15  2  3
 15 16  1  0
 16 17  1  0
 17 18  2  0
 18 19  1  0
 18 20  1  0
 20 21  1  0
 21 22  2  0
 22 23  1  0
 23 24  2  0
 24 25  1  0
 24 26  1  0
 26 27  1  0
 26 28  2  0
 20 29  1  0
 29 30  1  0
  7 31  2  0
 31  3  1  0
 29 16  2  0
 28 21  1  0
  1 32  1  0
  1 33  1  0
  1 34  1  0
  4 35  1  0
  5 36  1  0
  6 37  1  0
  8 38  1  0
 13 39  1  0
 15 40  1  0
 17 41  1  0
 19 42  1  0
 19 43  1  0
 19 44  1  0
 22 45  1  0
 23 46  1  0
 28 47  1  0
 30 48  1  0
 30 49  1  0
 30 50  1  0
 31 51  1  0
M  END
$$$$
