
     RDKit          3D

 39 41  0  0  0  0  0  0  0  0999 V2000
    3.6979   -2.1331   -1.4559 O   0  0  0  0  0  0  0  0  0  0  0  0
    3.3098   -1.1774   -0.8035 C   0  0  0  0  0  0  0  0  0  0  0  0
    2.0161   -0.8555   -0.5680 O   0  0  0  0  0  0  0  0  0  0  0  0
    1.0799   -1.7549   -1.1653 C   0  0  0  0  0  0  0  0  0  0  0  0
   -0.3036   -1.2694   -0.8190 C   0  0  0  0  0  0  0  0  0  0  0  0
   -0.9547   -1.7325    0.3300 C   0  0  0  0  0  0  0  0  0  0  0  0
   -2.2302   -1.2634    0.6609 C   0  0  0  0  0  0  0  0  0  0  0  0
   -2.8857   -0.3154   -0.1406 C   0  0  0  0  0  0  0  0  0  0  0  0
   -4.2284    0.1771    0.2093 C   0  0  0  0  0  0  0  0  0  0  0  0
   -4.4949    0.7137    1.4801 C   0  0  0  0  0  0  0  0  0  0  0  0
   -5.7691    1.1819    1.8126 C   0  0  0  0  0  0  0  0  0  0  0  0
   -6.8002    1.1202    0.8787 C   0  0  0  0  0  0  0  0  0  0  0  0
   -6.5580    0.5917   -0.3866 C   0  0  0  0  0  0  0  0  0  0  0  0
   -5.2829    0.1251   -0.7177 C   0  0  0  0  0  0  0  0  0  0  0  0
   -2.2186    0.1517   -1.2841 C   0  0  0  0  0  0  0  0  0  0  0  0
   -0.9427   -0.3142   -1.6178 C   0  0  0  0  0  0  0  0  0  0  0  0
    4.2168   -0.1950   -0.1509 C   0  0  0  0  0  0  0  0  0  0  0  0
    3.7361    0.8957    0.5896 C   0  0  0  0  0  0  0  0  0  0  0  0
    4.6301    1.7911    1.1834 C   0  0  0  0  0  0  0  0  0  0  0  0
    6.0053    1.6042    1.0424 C   0  0  0  0  0  0  0  0  0  0  0  0
    6.4767    0.5208    0.3069 C   0  0  0  0  0  0  0  0  0  0  0  0
    7.8127    0.3024    0.1450 O   0  0  0  0  0  0  0  0  0  0  0  0
    5.5979   -0.3776   -0.2891 C   0  0  0  0  0  0  0  0  0  0  0  0
    1.2088   -1.7709   -2.2547 H   0  0  0  0  0  0  0  0  0  0  0  0
    1.2299   -2.7710   -0.7801 H   0  0  0  0  0  0  0  0  0  0  0  0
   -0.4742   -2.4630    0.9772 H   0  0  0  0  0  0  0  0  0  0  0  0
   -2.7176   -1.6537    1.5523 H   0  0  0  0  0  0  0  0  0  0  0  0
   -3.7007    0.7816    2.2209 H   0  0  0  0  0  0  0  0  0  0  0  0
   -5.9535    1.5963    2.8002 H   0  0  0  0  0  0  0  0  0  0  0  0
   -7.7914    1.4834    1.1367 H   0  0  0  0  0  0  0  0  0  0  0  0
   -7.3609    0.5388   -1.1171 H   0  0  0  0  0  0  0  0  0  0  0  0
   -5.1182   -0.2948   -1.7080 H   0  0  0  0  0  0  0  0  0  0  0  0
   -2.6867    0.9003   -1.9204 H   0  0  0  0  0  0  0  0  0  0  0  0
   -0.4492    0.0790   -2.5041 H   0  0  0  0  0  0  0  0  0  0  0  0
    2.6679    1.0611    0.7125 H   0  0  0  0  0  0  0  0  0  0  0  0
    4.2512    2.6345    1.7559 H   0  0  0  0  0  0  0  0  0  0  0  0
    6.6879    2.3078    1.5091 H   0  0  0  0  0  0  0  0  0  0  0  0
    8.3046    0.9996    0.6091 H   0  0  0  0  0  0  0  0  0  0  0  0
    5.9921   -1.2162   -0.8588 H   0  0  0  0  0  0  0  0  0  0  0  0
  1  2  2  0
  2  3  1  0
  3  4  1  0
  4  5  1  0
  5  6  2  0
  6  7  1  0
  7  8  2  0
  8  9  1  0
  9 10  2  0
 10 11  1  0
 11 12  2  0
 12 13  1  0
 13 14  2  0
  8 15  1  0
 15 16  2  0
  2 17  1  0
 17 18  2  0
 18 19  1  0
 19 20  2  0
 20 21  1  0
 21 22  1  0
 21 23  2  0
 16  5  1  0
 23 17  1  0
 14  9  1  0
  4 24  1  0
  4 25  1  0
  6 26  1  0
  7 27  1  0
 10 28  1  0
 11 29  1  0
 12 30  1  0
 13 31  1  0
 14 32  1  0
 15 33  1  0
 16 34  1  0
 18 35  1  0
 19 36  1  0
 20 37  1  0
 22 38  1  0
 23 39  1  0
M  END
$$$$
