
     RDKit          3D

 58 61  0  0  0  0  0  0  0  0999 V2000
   -4.3443    5.0102    2.1053 C   0  0  0  0  0  0  0  0  0  0  0  0
   -4.3045    3.5965    1.9590 O   0  0  0  0  0  0  0  0  0  0  0  0
   -3.6321    3.1055    0.8732 C   0  0  0  0  0  0  0  0  0  0  0  0
   -2.9744    3.8640   -0.0953 C   0  0  0  0  0  0  0  0  0  0  0  0
   -2.3195    3.2319   -1.1552 C   0  0  0  0  0  0  0  0  0  0  0  0
   -2.3202    1.8401   -1.2517 C   0  0  0  0  0  0  0  0  0  0  0  0
   -2.9766    1.0647   -0.2890 C   0  0  0  0  0  0  0  0  0  0  0  0
   -2.9604   -0.4008   -0.3805 C   0  0  0  0  0  0  0  0  0  0  0  0
   -4.4467   -1.2161   -0.6162 S   0  0  0  0  0  0  0  0  0  0  0  0
   -3.6996   -2.7606   -0.6544 C   0  0  0  0  0  0  0  0  0  0  0  0
   -4.3388   -4.0037   -0.8256 C   0  0  0  0  0  0  0  0  0  0  0  0
   -3.5717   -5.1743   -0.8266 C   0  0  0  0  0  0  0  0  0  0  0  0
   -2.1953   -5.1175   -0.6579 C   0  0  0  0  0  0  0  0  0  0  0  0
   -1.3416   -6.1866   -0.6385 O   0  0  0  0  0  0  0  0  0  0  0  0
   -1.9213   -7.4772   -0.7814 C   0  0  0  0  0  0  0  0  0  0  0  0
   -1.5728   -3.8748   -0.4891 C   0  0  0  0  0  0  0  0  0  0  0  0
   -2.3179   -2.6658   -0.4893 C   0  0  0  0  0  0  0  0  0  0  0  0
   -1.8958   -1.2893   -0.3359 C   0  0  0  0  0  0  0  0  0  0  0  0
   -0.5198   -0.8357   -0.1516 C   0  0  0  0  0  0  0  0  0  0  0  0
   -0.1202   -0.2399    1.0477 C   0  0  0  0  0  0  0  0  0  0  0  0
    1.1990    0.1908    1.2079 C   0  0  0  0  0  0  0  0  0  0  0  0
    2.1326    0.0295    0.1809 C   0  0  0  0  0  0  0  0  0  0  0  0
    3.3845    0.4955    0.4714 O   0  0  0  0  0  0  0  0  0  0  0  0
    4.3794    0.3761   -0.5493 C   0  0  0  0  0  0  0  0  0  0  0  0
    5.7067    0.9731   -0.0424 C   0  0  0  0  0  0  0  0  0  0  0  0
    5.8508    2.4322   -0.2485 N   0  0  0  0  0  0  0  0  0  0  0  0
    4.8374    3.1903    0.4896 C   0  0  0  0  0  0  0  0  0  0  0  0
    7.1892    2.8621    0.1652 C   0  0  0  0  0  0  0  0  0  0  0  0
    1.7362   -0.5715   -1.0139 C   0  0  0  0  0  0  0  0  0  0  0  0
    0.4150   -1.0031   -1.1793 C   0  0  0  0  0  0  0  0  0  0  0  0
   -3.6291    1.7106    0.7710 C   0  0  0  0  0  0  0  0  0  0  0  0
   -4.8574    5.4805    1.2599 H   0  0  0  0  0  0  0  0  0  0  0  0
   -3.3383    5.4219    2.2370 H   0  0  0  0  0  0  0  0  0  0  0  0
   -4.9173    5.2366    3.0097 H   0  0  0  0  0  0  0  0  0  0  0  0
   -2.9493    4.9477   -0.0549 H   0  0  0  0  0  0  0  0  0  0  0  0
   -1.8048    3.8251   -1.9068 H   0  0  0  0  0  0  0  0  0  0  0  0
   -1.8042    1.3641   -2.0824 H   0  0  0  0  0  0  0  0  0  0  0  0
   -5.4166   -4.0557   -0.9544 H   0  0  0  0  0  0  0  0  0  0  0  0
   -4.0928   -6.1166   -0.9612 H   0  0  0  0  0  0  0  0  0  0  0  0
   -2.6156   -7.6915    0.0378 H   0  0  0  0  0  0  0  0  0  0  0  0
   -2.4119   -7.5835   -1.7546 H   0  0  0  0  0  0  0  0  0  0  0  0
   -1.1133   -8.2136   -0.7340 H   0  0  0  0  0  0  0  0  0  0  0  0
   -0.4943   -3.8401   -0.3502 H   0  0  0  0  0  0  0  0  0  0  0  0
   -0.8278   -0.1043    1.8622 H   0  0  0  0  0  0  0  0  0  0  0  0
    1.5007    0.6574    2.1424 H   0  0  0  0  0  0  0  0  0  0  0  0
    4.5437   -0.6878   -0.7608 H   0  0  0  0  0  0  0  0  0  0  0  0
    4.0650    0.8848   -1.4690 H   0  0  0  0  0  0  0  0  0  0  0  0
    6.5077    0.4825   -0.6100 H   0  0  0  0  0  0  0  0  0  0  0  0
    5.8466    0.7208    1.0168 H   0  0  0  0  0  0  0  0  0  0  0  0
    5.0050    4.2678    0.3758 H   0  0  0  0  0  0  0  0  0  0  0  0
    4.8424    2.9559    1.5601 H   0  0  0  0  0  0  0  0  0  0  0  0
    3.8360    3.0025    0.0905 H   0  0  0  0  0  0  0  0  0  0  0  0
    7.3715    2.6805    1.2307 H   0  0  0  0  0  0  0  0  0  0  0  0
    7.9587    2.3371   -0.4117 H   0  0  0  0  0  0  0  0  0  0  0  0
    7.3285    3.9311   -0.0317 H   0  0  0  0  0  0  0  0  0  0  0  0
    2.4261   -0.7198   -1.8377 H   0  0  0  0  0  0  0  0  0  0  0  0
    0.1207   -1.4666   -2.1186 H   0  0  0  0  0  0  0  0  0  0  0  0
   -4.1375    1.1267    1.5352 H   0  0  0  0  0  0  0  0  0  0  0  0
  1  2  1  0
  2  3  1  0
  3  4  2  0
  4  5  1  0
  5  6  2  0
  6  7  1  0
  7  8  1  0
  8  9  1  0
  9 10  1  0
 10 11  2  0
 11 12  1  0
 12 13  2  0
 13 14  1  0
 14 15  1  0
 13 16  1  0
 16 17  2  0
 17 18  1  0
 18 19  1  0
 19 20  2  0
 20 21  1  0
 21 22  2  0
 22 23  1  0
 23 24  1  0
 24 25  1  0
 25 26  1  0
 26 27  1  0
 26 28  1  0
 22 29  1  0
 29 30  2  0
  7 31  2  0
 31  3  1  0
 18  8  2  0
 30 19  1  0
 17 10  1  0
  1 32  1  0
  1 33  1  0
  1 34  1  0
  4 35  1  0
  5 36  1  0
  6 37  1  0
 11 38  1  0
 12 39  1  0
 15 40  1  0
 15 41  1  0
 15 42  1  0
 16 43  1  0
 20 44  1  0
 21 45  1  0
 24 46  1  0
 24 47  1  0
 25 48  1  0
 25 49  1  0
 27 50  1  0
 27 51  1  0
 27 52  1  0
 28 53  1  0
 28 54  1  0
 28 55  1  0
 29 56  1  0
 30 57  1  0
 31 58  1  0
M  END
$$$$
