
     RDKit          3D

 53 58  0  0  0  0  0  0  0  0999 V2000
   -0.9231    0.0699    2.1069 O   0  0  0  0  0  0  0  0  0  0  0  0
   -1.4693    0.4526    1.0671 C   0  0  0  0  0  0  0  0  0  0  0  0
   -0.7446    1.5276    0.2259 C   0  0  0  0  0  0  0  0  0  0  0  0
    0.7010    1.2373    0.1770 N   0  0  0  0  0  4  0  0  0  0  0  0
    1.3784    0.5550   -0.8334 C   0  0  0  0  0  0  0  0  0  0  0  0
    2.7095    0.4043   -0.4624 C   0  0  0  0  0  0  0  0  0  0  0  0
    3.8431   -0.2804   -1.3113 C   0  0  0  0  0  0  0  0  0  0  0  0
    3.5294   -0.8891   -2.5343 C   0  0  0  0  0  0  0  0  0  0  0  0
    4.5323   -1.4997   -3.2960 C   0  0  0  0  0  0  0  0  0  0  0  0
    5.8474   -1.5008   -2.8398 C   0  0  0  0  0  0  0  0  0  0  0  0
    7.0793   -2.2486   -3.7754 Cl  0  0  0  0  0  0  0  0  0  0  0  0
    6.1676   -0.8935   -1.6284 C   0  0  0  0  0  0  0  0  0  0  0  0
    5.1668   -0.2820   -0.8641 C   0  0  0  0  0  0  0  0  0  0  0  0
    2.7572    0.9873    0.7916 N   0  0  0  0  0  0  0  0  0  0  0  0
    1.5715    1.4718    1.1539 C   0  0  0  0  0  0  0  0  0  0  0  0
    1.5853    2.1026    2.4946 C   0  0  0  0  0  0  0  0  0  0  0  0
    2.9159    1.5855    3.0743 C   0  0  0  0  0  0  0  0  0  0  0  0
    3.7552    1.1632    1.8376 C   0  0  0  0  0  0  0  0  0  0  0  0
   -2.6267   -0.0966    0.4884 N   0  0  0  0  0  0  0  0  0  0  0  0
   -3.5041    0.6851   -0.3442 C   0  0  0  0  0  0  0  0  0  0  0  0
   -3.7274    2.0413   -0.0297 C   0  0  0  0  0  0  0  0  0  0  0  0
   -4.5632    2.8396   -0.8146 C   0  0  0  0  0  0  0  0  0  0  0  0
   -5.2004    2.2945   -1.9220 C   0  0  0  0  0  0  0  0  0  0  0  0
   -5.0210    0.9475   -2.2292 C   0  0  0  0  0  0  0  0  0  0  0  0
   -4.1923    0.1386   -1.4377 C   0  0  0  0  0  0  0  0  0  0  0  0
   -4.0086   -1.5628   -1.8912 S   0  0  0  0  0  0  0  0  0  0  0  0
   -3.6562   -2.2296   -0.2798 C   0  0  0  0  0  0  0  0  0  0  0  0
   -3.9904   -3.5759   -0.0574 C   0  0  0  0  0  0  0  0  0  0  0  0
   -3.6874   -4.1903    1.1537 C   0  0  0  0  0  0  0  0  0  0  0  0
   -3.0455   -3.4631    2.1455 C   0  0  0  0  0  0  0  0  0  0  0  0
   -2.7029   -2.1235    1.9254 C   0  0  0  0  0  0  0  0  0  0  0  0
   -2.9999   -1.4744    0.7131 C   0  0  0  0  0  0  0  0  0  0  0  0
   -1.0982    1.5581   -0.8086 H   0  0  0  0  0  0  0  0  0  0  0  0
   -0.8831    2.5089    0.6906 H   0  0  0  0  0  0  0  0  0  0  0  0
    0.8187    0.2609   -1.7056 H   0  0  0  0  0  0  0  0  0  0  0  0
    2.5152   -0.9151   -2.9233 H   0  0  0  0  0  0  0  0  0  0  0  0
    4.2819   -1.9722   -4.2435 H   0  0  0  0  0  0  0  0  0  0  0  0
    7.1973   -0.8915   -1.2758 H   0  0  0  0  0  0  0  0  0  0  0  0
    5.4625    0.1935    0.0627 H   0  0  0  0  0  0  0  0  0  0  0  0
    0.7134    1.7882    3.0662 H   0  0  0  0  0  0  0  0  0  0  0  0
    1.5939    3.1827    2.3284 H   0  0  0  0  0  0  0  0  0  0  0  0
    3.4251    2.3195    3.7035 H   0  0  0  0  0  0  0  0  0  0  0  0
    2.7176    0.6974    3.6864 H   0  0  0  0  0  0  0  0  0  0  0  0
    4.4432    1.9583    1.5364 H   0  0  0  0  0  0  0  0  0  0  0  0
    4.2929    0.2316    2.0282 H   0  0  0  0  0  0  0  0  0  0  0  0
   -3.3103    2.4895    0.8690 H   0  0  0  0  0  0  0  0  0  0  0  0
   -4.7388    3.8804   -0.5482 H   0  0  0  0  0  0  0  0  0  0  0  0
   -5.8599    2.9083   -2.5315 H   0  0  0  0  0  0  0  0  0  0  0  0
   -5.5465    0.5288   -3.0868 H   0  0  0  0  0  0  0  0  0  0  0  0
   -4.4881   -4.1582   -0.8315 H   0  0  0  0  0  0  0  0  0  0  0  0
   -3.9546   -5.2314    1.3217 H   0  0  0  0  0  0  0  0  0  0  0  0
   -2.8164   -3.9319    3.1003 H   0  0  0  0  0  0  0  0  0  0  0  0
   -2.2425   -1.5994    2.7576 H   0  0  0  0  0  0  0  0  0  0  0  0
  1  2  2  0
  2  3  1  0
  3  4  1  0
  4  5  1  0
  5  6  2  0
  6  7  1  0
  7  8  2  0
  8  9  1  0
  9 10  2  0
 10 11  1  0
 10 12  1  0
 12 13  2  0
  6 14  1  0
 14 15  1  0
 15 16  1  0
 16 17  1  0
 17 18  1  0
  2 19  1  0
 19 20  1  0
 20 21  2  0
 21 22  1  0
 22 23  2  0
 23 24  1  0
 24 25  2  0
 25 26  1  0
 26 27  1  0
 27 28  2  0
 28 29  1  0
 29 30  2  0
 30 31  1  0
 31 32  2  0
 15  4  2  0
 32 19  1  0
 13  7  1  0
 18 14  1  0
 25 20  1  0
 32 27  1  0
  3 33  1  0
  3 34  1  0
  5 35  1  0
  8 36  1  0
  9 37  1  0
 12 38  1  0
 13 39  1  0
 16 40  1  0
 16 41  1  0
 17 42  1  0
 17 43  1  0
 18 44  1  0
 18 45  1  0
 21 46  1  0
 22 47  1  0
 23 48  1  0
 24 49  1  0
 28 50  1  0
 29 51  1  0
 30 52  1  0
 31 53  1  0
M  CHG  1   4   1
M  END
$$$$
