
     RDKit          3D

 37 38  0  0  0  0  0  0  0  0999 V2000
    1.9387   -1.7359    0.5531 O   0  0  0  0  0  0  0  0  0  0  0  0
    0.9120   -1.1555    0.2028 C   0  0  0  0  0  0  0  0  0  0  0  0
   -0.4716   -1.7941    0.2762 C   0  0  0  0  0  0  0  0  0  0  0  0
   -1.4898   -0.7889    0.3459 O   0  0  0  0  0  0  0  0  0  0  0  0
   -2.7459   -1.2962    0.3398 C   0  0  0  0  0  0  0  0  0  0  0  0
   -3.0398   -2.4797    0.2514 O   0  0  0  0  0  0  0  0  0  0  0  0
   -3.7740   -0.2293    0.4373 C   0  0  0  0  0  0  0  0  0  0  0  0
   -3.4235    1.1129    0.6531 C   0  0  0  0  0  0  0  0  0  0  0  0
   -4.4161    2.0953    0.7365 C   0  0  0  0  0  0  0  0  0  0  0  0
   -5.7587    1.7417    0.6066 C   0  0  0  0  0  0  0  0  0  0  0  0
   -6.9725    2.9558    0.7092 Cl  0  0  0  0  0  0  0  0  0  0  0  0
   -6.1211    0.4140    0.3975 C   0  0  0  0  0  0  0  0  0  0  0  0
   -5.1320   -0.5665    0.3165 C   0  0  0  0  0  0  0  0  0  0  0  0
   -5.5783   -1.8463    0.1148 O   0  0  0  0  0  0  0  0  0  0  0  0
    0.9374    0.1104   -0.3468 N   0  0  0  0  0  0  0  0  0  0  0  0
    2.1581    0.8955   -0.3332 C   0  0  0  0  0  0  0  0  0  0  0  0
    3.2551    0.3249   -1.2457 C   0  0  0  0  0  0  0  0  0  0  0  0
    4.5684    0.4451   -0.6478 N   0  0  0  0  0  0  0  0  0  0  0  0
    5.2015   -0.5326    0.0826 C   0  0  0  0  0  0  0  0  0  0  0  0
    4.6228   -1.7408    0.3330 O   0  0  0  0  0  0  0  0  0  0  0  0
    6.4184   -0.1955    0.5195 C   0  0  0  0  0  0  0  0  0  0  0  0
    6.8374    1.4240    0.0558 S   0  0  0  0  0  0  0  0  0  0  0  0
    5.2800    1.6321   -0.7605 C   0  0  0  0  0  0  0  0  0  0  0  0
    4.9238    2.6655   -1.3034 O   0  0  0  0  0  0  0  0  0  0  0  0
   -0.5105   -2.4107    1.1810 H   0  0  0  0  0  0  0  0  0  0  0  0
   -0.6016   -2.4096   -0.6209 H   0  0  0  0  0  0  0  0  0  0  0  0
   -2.3854    1.4140    0.7658 H   0  0  0  0  0  0  0  0  0  0  0  0
   -4.1371    3.1331    0.9047 H   0  0  0  0  0  0  0  0  0  0  0  0
   -7.1668    0.1341    0.2990 H   0  0  0  0  0  0  0  0  0  0  0  0
   -4.8132   -2.4627    0.1192 H   0  0  0  0  0  0  0  0  0  0  0  0
    0.0472    0.5922   -0.4170 H   0  0  0  0  0  0  0  0  0  0  0  0
    1.8978    1.9115   -0.6488 H   0  0  0  0  0  0  0  0  0  0  0  0
    2.4948    0.9481    0.7092 H   0  0  0  0  0  0  0  0  0  0  0  0
    3.2499    0.8886   -2.1875 H   0  0  0  0  0  0  0  0  0  0  0  0
    3.0808   -0.7193   -1.5271 H   0  0  0  0  0  0  0  0  0  0  0  0
    3.6468   -1.6429    0.3594 H   0  0  0  0  0  0  0  0  0  0  0  0
    7.0669   -0.8325    1.1038 H   0  0  0  0  0  0  0  0  0  0  0  0
  1  2  2  0
  2  3  1  0
  3  4  1  0
  4  5  1  0
  5  6  2  0
  5  7  1  0
  7  8  2  0
  8  9  1  0
  9 10  2  0
 10 11  1  0
 10 12  1  0
 12 13  2  0
 13 14  1  0
  2 15  1  0
 15 16  1  0
 16 17  1  0
 17 18  1  0
 18 19  1  0
 19 20  1  0
 19 21  2  0
 21 22  1  0
 22 23  1  0
 23 24  2  0
 13  7  1  0
 23 18  1  0
  3 25  1  0
  3 26  1  0
  8 27  1  0
  9 28  1  0
 12 29  1  0
 14 30  1  0
 15 31  1  0
 16 32  1  0
 16 33  1  0
 17 34  1  0
 17 35  1  0
 20 36  1  0
 21 37  1  0
M  END
$$$$
