
     RDKit          3D

 34 36  0  0  0  0  0  0  0  0999 V2000
    4.7487    2.0012   -0.2423 C   0  0  0  0  0  0  0  0  0  0  0  0
    4.5433    0.6137    0.1144 N   0  0  0  0  0  0  0  0  0  0  0  0
    5.6192   -0.1992    0.1877 N   0  0  0  0  0  0  0  0  0  0  0  0
    5.0992   -1.3762    0.5326 C   0  0  0  0  0  0  0  0  0  0  0  0
    3.7018   -1.3220    0.6660 C   0  0  0  0  0  0  0  0  0  0  0  0
    2.7394   -2.6371    1.1363 Cl  0  0  0  0  0  0  0  0  0  0  0  0
    3.3430   -0.0181    0.3708 C   0  0  0  0  0  0  0  0  0  0  0  0
    2.0568    0.6548    0.3423 C   0  0  0  0  0  0  0  0  0  0  0  0
    1.9921    1.8750    0.4412 O   0  0  0  0  0  0  0  0  0  0  0  0
    0.9798   -0.1912    0.1589 N   0  0  0  0  0  0  0  0  0  0  0  0
   -0.3688    0.1415    0.1033 C   0  0  0  0  0  0  0  0  0  0  0  0
   -0.9069    1.7359    0.4312 S   0  0  0  0  0  0  0  0  0  0  0  0
   -2.4885    1.2937    0.1634 C   0  0  0  0  0  0  0  0  0  0  0  0
   -2.6554   -0.0252   -0.1553 C   0  0  0  0  0  0  0  0  0  0  0  0
   -1.4197   -0.7396   -0.1838 C   0  0  0  0  0  0  0  0  0  0  0  0
   -1.1905   -2.1502   -0.4850 C   0  0  0  0  0  0  0  0  0  0  0  0
   -2.2797   -2.9715   -0.4505 N   0  0  0  0  0  0  0  0  0  0  0  0
   -0.0781   -2.6126   -0.7233 O   0  0  0  0  0  0  0  0  0  0  0  0
   -4.0932   -0.3176   -0.4030 C   0  0  0  0  0  0  0  0  0  0  0  0
   -4.7149    1.1078   -0.5285 C   0  0  0  0  0  0  0  0  0  0  0  0
   -3.7404    2.0838    0.1933 C   0  0  0  0  0  0  0  0  0  0  0  0
    4.5178    2.6187    0.6288 H   0  0  0  0  0  0  0  0  0  0  0  0
    4.1026    2.2463   -1.0886 H   0  0  0  0  0  0  0  0  0  0  0  0
    5.7929    2.1499   -0.5313 H   0  0  0  0  0  0  0  0  0  0  0  0
    5.7599   -2.2210    0.6780 H   0  0  0  0  0  0  0  0  0  0  0  0
    1.1771   -1.1744   -0.0258 H   0  0  0  0  0  0  0  0  0  0  0  0
   -2.0865   -3.9617   -0.5204 H   0  0  0  0  0  0  0  0  0  0  0  0
   -3.1302   -2.6931    0.0130 H   0  0  0  0  0  0  0  0  0  0  0  0
   -4.5288   -0.8462    0.4515 H   0  0  0  0  0  0  0  0  0  0  0  0
   -4.2585   -0.8975   -1.3151 H   0  0  0  0  0  0  0  0  0  0  0  0
   -4.7706    1.3794   -1.5911 H   0  0  0  0  0  0  0  0  0  0  0  0
   -5.7304    1.1563   -0.1234 H   0  0  0  0  0  0  0  0  0  0  0  0
   -4.0651    2.2598    1.2239 H   0  0  0  0  0  0  0  0  0  0  0  0
   -3.6673    3.0366   -0.3380 H   0  0  0  0  0  0  0  0  0  0  0  0
  1  2  1  0
  2  3  1  0
  3  4  2  0
  4  5  1  0
  5  6  1  0
  5  7  2  0
  7  8  1  0
  8  9  2  0
  8 10  1  0
 10 11  1  0
 11 12  1  0
 12 13  1  0
 13 14  2  0
 14 15  1  0
 15 16  1  0
 16 17  1  0
 16 18  2  0
 14 19  1  0
 19 20  1  0
 20 21  1  0
  7  2  1  0
 15 11  2  0
 21 13  1  0
  1 22  1  0
  1 23  1  0
  1 24  1  0
  4 25  1  0
 10 26  1  0
 17 27  1  0
 17 28  1  0
 19 29  1  0
 19 30  1  0
 20 31  1  0
 20 32  1  0
 21 33  1  0
 21 34  1  0
M  END
$$$$
