
     RDKit          3D

 65 69  0  0  0  0  0  0  0  0999 V2000
    8.0633    0.7642    1.5696 O   0  0  0  0  0  0  0  0  0  0  0  0
    7.1528    0.1958    0.9432 C   0  0  0  0  0  0  0  0  0  0  0  0
    7.3180   -1.2630    0.4658 C   0  0  0  0  0  0  0  0  0  0  0  0
    7.4835   -1.5237   -1.0622 C   0  0  0  0  0  0  0  0  0  0  0  0
    8.4661   -2.6519   -0.7032 C   0  0  0  0  0  0  0  0  0  0  0  0
    8.7422   -1.8935    0.6046 C   0  0  0  0  0  0  0  0  0  0  0  0
    5.9937    0.9055    0.6464 N   0  0  0  0  0  0  0  0  0  0  0  0
    5.9304    2.3349    0.9870 C   0  0  0  0  0  0  0  0  0  0  0  0
    4.6750    2.9080    0.3328 C   0  0  0  0  0  0  0  0  0  0  0  0
    3.9550    1.6620   -0.0755 C   0  0  0  0  0  0  0  0  0  0  0  0
    2.6758    1.5921   -0.6127 C   0  0  0  0  0  0  0  0  0  0  0  0
    2.1866    0.3335   -0.9618 C   0  0  0  0  0  0  0  0  0  0  0  0
    0.5803    0.1806   -1.7032 S   0  0  0  0  0  6  0  0  0  0  0  0
    0.6693   -0.8526   -2.7114 O   0  0  0  0  0  0  0  0  0  0  0  0
    0.0866    1.5048   -2.0107 O   0  0  0  0  0  0  0  0  0  0  0  0
   -0.3167   -0.4560   -0.4341 N   0  0  0  0  0  0  0  0  0  0  0  0
   -1.0831    0.4771    0.4174 C   0  0  0  0  0  0  0  0  0  0  0  0
   -2.4825    0.6998   -0.1951 C   0  0  0  0  0  0  0  0  0  0  0  0
   -3.1167   -0.5836   -0.5762 N   0  0  0  0  0  0  0  0  0  0  0  0
   -3.7308   -1.2794    0.5836 C   0  0  0  0  0  0  0  0  0  0  0  0
   -5.0271   -0.6367    1.1424 C   0  0  0  0  0  0  0  0  0  0  0  0
   -6.0155   -0.4433    0.0634 N   0  0  0  0  0  0  0  0  0  0  0  0
   -7.3214   -0.0596    0.4247 C   0  0  0  0  0  0  0  0  0  0  0  0
   -8.3590   -0.2342   -0.5116 C   0  0  0  0  0  0  0  0  0  0  0  0
   -9.6856    0.1081   -0.2226 C   0  0  0  0  0  0  0  0  0  0  0  0
  -10.0160    0.6316    1.0227 C   0  0  0  0  0  0  0  0  0  0  0  0
   -9.0184    0.8049    1.9757 C   0  0  0  0  0  0  0  0  0  0  0  0
   -7.6970    0.4582    1.6798 C   0  0  0  0  0  0  0  0  0  0  0  0
   -6.7857    0.6659    2.6447 F   0  0  0  0  0  0  0  0  0  0  0  0
   -5.4669    0.2968   -1.0958 C   0  0  0  0  0  0  0  0  0  0  0  0
   -4.1700   -0.3790   -1.6002 C   0  0  0  0  0  0  0  0  0  0  0  0
    2.9676   -0.8186   -0.7795 C   0  0  0  0  0  0  0  0  0  0  0  0
    4.2572   -0.7239   -0.2378 C   0  0  0  0  0  0  0  0  0  0  0  0
    4.7556    0.5234    0.0991 C   0  0  0  0  0  0  0  0  0  0  0  0
    6.5896   -1.9258    0.9526 H   0  0  0  0  0  0  0  0  0  0  0  0
    7.9429   -0.6930   -1.6109 H   0  0  0  0  0  0  0  0  0  0  0  0
    6.5940   -1.8517   -1.6034 H   0  0  0  0  0  0  0  0  0  0  0  0
    7.9862   -3.6251   -0.5537 H   0  0  0  0  0  0  0  0  0  0  0  0
    9.3162   -2.7726   -1.3778 H   0  0  0  0  0  0  0  0  0  0  0  0
    9.5704   -1.1789    0.5287 H   0  0  0  0  0  0  0  0  0  0  0  0
    8.8980   -2.5202    1.4868 H   0  0  0  0  0  0  0  0  0  0  0  0
    6.8366    2.8511    0.6519 H   0  0  0  0  0  0  0  0  0  0  0  0
    5.8798    2.4167    2.0800 H   0  0  0  0  0  0  0  0  0  0  0  0
    4.9290    3.5045   -0.5492 H   0  0  0  0  0  0  0  0  0  0  0  0
    4.0968    3.5134    1.0373 H   0  0  0  0  0  0  0  0  0  0  0  0
    2.0855    2.4911   -0.7652 H   0  0  0  0  0  0  0  0  0  0  0  0
   -0.8873   -1.2463   -0.7547 H   0  0  0  0  0  0  0  0  0  0  0  0
   -0.5510    1.4226    0.5563 H   0  0  0  0  0  0  0  0  0  0  0  0
   -1.1743    0.0204    1.4082 H   0  0  0  0  0  0  0  0  0  0  0  0
   -2.3498    1.3115   -1.0954 H   0  0  0  0  0  0  0  0  0  0  0  0
   -3.0997    1.2922    0.4886 H   0  0  0  0  0  0  0  0  0  0  0  0
   -3.0014   -1.3910    1.3930 H   0  0  0  0  0  0  0  0  0  0  0  0
   -3.9672   -2.3023    0.2620 H   0  0  0  0  0  0  0  0  0  0  0  0
   -5.4318   -1.3075    1.9102 H   0  0  0  0  0  0  0  0  0  0  0  0
   -4.7786    0.3206    1.6140 H   0  0  0  0  0  0  0  0  0  0  0  0
   -8.1413   -0.6759   -1.4818 H   0  0  0  0  0  0  0  0  0  0  0  0
  -10.4582   -0.0474   -0.9716 H   0  0  0  0  0  0  0  0  0  0  0  0
  -11.0456    0.8948    1.2514 H   0  0  0  0  0  0  0  0  0  0  0  0
   -9.2546    1.2092    2.9551 H   0  0  0  0  0  0  0  0  0  0  0  0
   -6.1717    0.3188   -1.9345 H   0  0  0  0  0  0  0  0  0  0  0  0
   -5.2642    1.3367   -0.8096 H   0  0  0  0  0  0  0  0  0  0  0  0
   -4.4300   -1.3653   -2.0072 H   0  0  0  0  0  0  0  0  0  0  0  0
   -3.7654    0.1867   -2.4481 H   0  0  0  0  0  0  0  0  0  0  0  0
    2.5730   -1.7940   -1.0599 H   0  0  0  0  0  0  0  0  0  0  0  0
    4.8076   -1.6415   -0.0948 H   0  0  0  0  0  0  0  0  0  0  0  0
  1  2  2  0
  2  3  1  0
  3  4  1  0
  4  5  1  0
  5  6  1  0
  2  7  1  0
  7  8  1  0
  8  9  1  0
  9 10  1  0
 10 11  2  0
 11 12  1  0
 12 13  1  0
 13 14  2  0
 13 15  2  0
 13 16  1  0
 16 17  1  0
 17 18  1  0
 18 19  1  0
 19 20  1  0
 20 21  1  0
 21 22  1  0
 22 23  1  0
 23 24  2  0
 24 25  1  0
 25 26  2  0
 26 27  1  0
 27 28  2  0
 28 29  1  0
 22 30  1  0
 30 31  1  0
 12 32  2  0
 32 33  1  0
 33 34  2  0
  6  3  1  0
 34  7  1  0
 34 10  1  0
 31 19  1  0
 28 23  1  0
  3 35  1  0
  4 36  1  0
  4 37  1  0
  5 38  1  0
  5 39  1  0
  6 40  1  0
  6 41  1  0
  8 42  1  0
  8 43  1  0
  9 44  1  0
  9 45  1  0
 11 46  1  0
 16 47  1  0
 17 48  1  0
 17 49  1  0
 18 50  1  0
 18 51  1  0
 20 52  1  0
 20 53  1  0
 21 54  1  0
 21 55  1  0
 24 56  1  0
 25 57  1  0
 26 58  1  0
 27 59  1  0
 30 60  1  0
 30 61  1  0
 31 62  1  0
 31 63  1  0
 32 64  1  0
 33 65  1  0
M  END
$$$$
