
     RDKit          3D

 49 52  0  0  0  0  0  0  0  0999 V2000
   -4.6080   -1.6645    0.3174 C   0  0  0  0  0  0  0  0  0  0  0  0
   -4.0943   -0.2889    0.6916 C   0  0  0  0  0  0  0  0  0  0  0  0
   -2.8348    0.0403    0.6934 N   0  0  0  0  0  0  0  0  0  0  0  0
   -1.9085   -0.8756    0.3004 N   0  0  0  0  0  0  0  0  0  0  0  0
   -0.5554   -0.5715    0.3318 C   0  0  0  0  0  0  0  0  0  0  0  0
   -0.0720    0.4820    0.7344 O   0  0  0  0  0  0  0  0  0  0  0  0
    0.2679   -1.6702   -0.1680 C   0  0  0  0  0  0  0  0  0  0  0  0
   -0.2761   -2.8565   -0.5667 N   0  0  0  0  0  0  0  0  0  0  0  0
    0.7084   -3.6598   -0.9212 N   0  0  0  0  0  0  0  0  0  0  0  0
    1.9001   -2.9858   -0.8566 N   0  0  0  0  0  0  0  0  0  0  0  0
    3.1010   -3.6016   -1.3137 C   0  0  0  0  0  0  0  0  0  0  0  0
    3.0669   -4.9249   -1.5178 N   0  0  0  0  0  0  0  0  0  0  0  0
    4.3562   -5.2627   -1.8968 O   0  0  0  0  0  0  0  0  0  0  0  0
    5.1650   -4.1404   -1.9579 N   0  0  0  0  0  0  0  0  0  0  0  0
    4.3833   -3.1118   -1.6305 C   0  0  0  0  0  0  0  0  0  0  0  0
    4.8287   -1.8409   -1.6760 N   0  0  0  0  0  0  0  0  0  0  0  0
    1.6492   -1.7362   -0.2906 C   0  0  0  0  0  0  0  0  0  0  0  0
    2.6614   -0.7411    0.1303 C   0  0  0  0  0  0  0  0  0  0  0  0
    2.8858    0.0804   -1.0139 O   0  0  0  0  0  0  0  0  0  0  0  0
    3.5633    1.2516   -0.8020 C   0  0  0  0  0  0  0  0  0  0  0  0
    3.4478    2.1901   -1.8333 C   0  0  0  0  0  0  0  0  0  0  0  0
    4.1102    3.4155   -1.7511 C   0  0  0  0  0  0  0  0  0  0  0  0
    4.8931    3.6929   -0.6386 C   0  0  0  0  0  0  0  0  0  0  0  0
    5.5337    4.8661   -0.5568 F   0  0  0  0  0  0  0  0  0  0  0  0
    5.0261    2.7665    0.3891 C   0  0  0  0  0  0  0  0  0  0  0  0
    4.3623    1.5389    0.3078 C   0  0  0  0  0  0  0  0  0  0  0  0
   -5.0907    0.7556    1.0865 C   0  0  0  0  0  0  0  0  0  0  0  0
   -4.6916    1.7756    1.9626 C   0  0  0  0  0  0  0  0  0  0  0  0
   -5.5945    2.7708    2.3465 C   0  0  0  0  0  0  0  0  0  0  0  0
   -6.8950    2.7530    1.8482 C   0  0  0  0  0  0  0  0  0  0  0  0
   -8.0088    3.9766    2.3181 Cl  0  0  0  0  0  0  0  0  0  0  0  0
   -7.2983    1.7523    0.9650 C   0  0  0  0  0  0  0  0  0  0  0  0
   -6.3961    0.7549    0.5795 C   0  0  0  0  0  0  0  0  0  0  0  0
   -4.5209   -1.8017   -0.7641 H   0  0  0  0  0  0  0  0  0  0  0  0
   -5.6477   -1.8143    0.6164 H   0  0  0  0  0  0  0  0  0  0  0  0
   -4.0215   -2.4328    0.8304 H   0  0  0  0  0  0  0  0  0  0  0  0
   -2.1892   -1.7791   -0.0672 H   0  0  0  0  0  0  0  0  0  0  0  0
    5.7303   -1.7090   -2.1299 H   0  0  0  0  0  0  0  0  0  0  0  0
    4.1905   -1.0851   -1.9249 H   0  0  0  0  0  0  0  0  0  0  0  0
    2.2842   -0.1486    0.9715 H   0  0  0  0  0  0  0  0  0  0  0  0
    3.5832   -1.2282    0.4634 H   0  0  0  0  0  0  0  0  0  0  0  0
    2.8280    1.9719   -2.6997 H   0  0  0  0  0  0  0  0  0  0  0  0
    4.0172    4.1518   -2.5427 H   0  0  0  0  0  0  0  0  0  0  0  0
    5.6474    3.0049    1.2469 H   0  0  0  0  0  0  0  0  0  0  0  0
    4.4975    0.8316    1.1194 H   0  0  0  0  0  0  0  0  0  0  0  0
   -3.6744    1.8015    2.3508 H   0  0  0  0  0  0  0  0  0  0  0  0
   -5.2734    3.5546    3.0277 H   0  0  0  0  0  0  0  0  0  0  0  0
   -8.3101    1.7476    0.5671 H   0  0  0  0  0  0  0  0  0  0  0  0
   -6.7273    0.0040   -0.1322 H   0  0  0  0  0  0  0  0  0  0  0  0
  1  2  1  0
  2  3  2  3
  3  4  1  0
  4  5  1  0
  5  6  2  0
  5  7  1  0
  7  8  1  0
  8  9  2  0
  9 10  1  0
 10 11  1  0
 11 12  2  0
 12 13  1  0
 13 14  1  0
 14 15  2  0
 15 16  1  0
 10 17  1  0
 17 18  1  0
 18 19  1  0
 19 20  1  0
 20 21  2  0
 21 22  1  0
 22 23  2  0
 23 24  1  0
 23 25  1  0
 25 26  2  0
  2 27  1  0
 27 28  2  0
 28 29  1  0
 29 30  2  0
 30 31  1  0
 30 32  1  0
 32 33  2  0
 17  7  2  0
 26 20  1  0
 33 27  1  0
 15 11  1  0
  1 34  1  0
  1 35  1  0
  1 36  1  0
  4 37  1  0
 16 38  1  0
 16 39  1  0
 18 40  1  0
 18 41  1  0
 21 42  1  0
 22 43  1  0
 25 44  1  0
 26 45  1  0
 28 46  1  0
 29 47  1  0
 32 48  1  0
 33 49  1  0
M  END
$$$$
