
     RDKit          3D

 57 59  0  0  0  0  0  0  0  0999 V2000
   -5.8271    0.0792   -2.7754 C   0  0  0  0  0  0  0  0  0  0  0  0
   -5.0324    0.3262   -1.4956 C   0  0  0  0  0  0  0  0  0  0  0  0
   -4.0042   -0.6986   -1.2390 N   0  0  0  0  0  0  0  0  0  0  0  0
   -4.5985   -1.9965   -0.8730 C   0  0  0  0  0  0  0  0  0  0  0  0
   -3.5752   -3.1297   -0.8762 C   0  0  0  0  0  0  0  0  0  0  0  0
   -3.0576   -0.2207   -0.2086 C   0  0  0  0  0  0  0  0  0  0  0  0
   -1.6343   -0.1393   -0.7810 C   0  0  0  0  0  0  0  0  0  0  0  0
   -0.7160    0.3620    0.1955 O   0  0  0  0  0  0  0  0  0  0  0  0
   -0.5879    1.7160    0.3775 C   0  0  0  0  0  0  0  0  0  0  0  0
   -1.2319    2.6939   -0.3035 C   0  0  0  0  0  0  0  0  0  0  0  0
   -0.9980    4.1225    0.1093 C   0  0  2  0  0  0  0  0  0  0  0  0
   -1.2765    5.0861   -0.8948 O   0  0  0  0  0  0  0  0  0  0  0  0
   -0.6861    6.2549   -0.4654 C   0  0  0  0  0  0  0  0  0  0  0  0
   -0.9015    7.3428   -0.9741 O   0  0  0  0  0  0  0  0  0  0  0  0
    0.4696    6.0450    0.8718 S   0  0  0  0  0  0  0  0  0  0  0  0
    0.4722    4.3027    0.4986 C   0  0  1  0  0  0  0  0  0  0  0  0
    0.8515    3.3327    1.5623 C   0  0  0  0  0  0  0  0  0  0  0  0
    0.3404    2.0833    1.4615 C   0  0  0  0  0  0  0  0  0  0  0  0
    0.7176    1.1165    2.5269 C   0  0  0  0  0  0  0  0  0  0  0  0
    0.1499    1.1308    3.6164 O   0  0  0  0  0  0  0  0  0  0  0  0
    1.8306    0.1611    2.2755 C   0  0  0  0  0  0  0  0  0  0  0  0
    2.5387    0.0743    1.1394 C   0  0  0  0  0  0  0  0  0  0  0  0
    3.6459   -0.8746    0.9549 C   0  0  0  0  0  0  0  0  0  0  0  0
    3.5734   -2.2032    1.3917 C   0  0  0  0  0  0  0  0  0  0  0  0
    4.6388   -3.0886    1.1743 C   0  0  0  0  0  0  0  0  0  0  0  0
    5.7842   -2.6572    0.5085 C   0  0  0  0  0  0  0  0  0  0  0  0
    6.8881   -3.4148    0.2294 O   0  0  0  0  0  0  0  0  0  0  0  0
    6.8355   -4.7895    0.5962 C   0  0  0  0  0  0  0  0  0  0  0  0
    5.8547   -1.3364    0.0618 C   0  0  0  0  0  0  0  0  0  0  0  0
    4.7929   -0.4519    0.2765 C   0  0  0  0  0  0  0  0  0  0  0  0
   -6.4949   -0.7825   -2.6880 H   0  0  0  0  0  0  0  0  0  0  0  0
   -6.4501    0.9520   -2.9989 H   0  0  0  0  0  0  0  0  0  0  0  0
   -5.1587   -0.0808   -3.6292 H   0  0  0  0  0  0  0  0  0  0  0  0
   -5.7146    0.4233   -0.6415 H   0  0  0  0  0  0  0  0  0  0  0  0
   -4.5394    1.2983   -1.6262 H   0  0  0  0  0  0  0  0  0  0  0  0
   -5.0933   -1.9400    0.1051 H   0  0  0  0  0  0  0  0  0  0  0  0
   -5.3669   -2.2803   -1.5998 H   0  0  0  0  0  0  0  0  0  0  0  0
   -3.0739   -3.2016   -1.8470 H   0  0  0  0  0  0  0  0  0  0  0  0
   -2.8119   -3.0027   -0.1022 H   0  0  0  0  0  0  0  0  0  0  0  0
   -4.0784   -4.0847   -0.6875 H   0  0  0  0  0  0  0  0  0  0  0  0
   -3.0494   -0.8595    0.6847 H   0  0  0  0  0  0  0  0  0  0  0  0
   -3.3492    0.7630    0.1842 H   0  0  0  0  0  0  0  0  0  0  0  0
   -1.5826    0.4372   -1.7119 H   0  0  0  0  0  0  0  0  0  0  0  0
   -1.2913   -1.1503   -1.0322 H   0  0  0  0  0  0  0  0  0  0  0  0
   -1.9571    2.5054   -1.0858 H   0  0  0  0  0  0  0  0  0  0  0  0
   -1.6931    4.3116    0.9471 H   0  0  0  0  0  0  0  0  0  0  0  0
    1.1381    4.1676   -0.3652 H   0  0  0  0  0  0  0  0  0  0  0  0
    1.5310    3.6152    2.3589 H   0  0  0  0  0  0  0  0  0  0  0  0
    2.0468   -0.4744    3.1293 H   0  0  0  0  0  0  0  0  0  0  0  0
    2.3419    0.7224    0.2902 H   0  0  0  0  0  0  0  0  0  0  0  0
    2.6832   -2.5731    1.8964 H   0  0  0  0  0  0  0  0  0  0  0  0
    4.5367   -4.1059    1.5363 H   0  0  0  0  0  0  0  0  0  0  0  0
    6.0093   -5.3026    0.0927 H   0  0  0  0  0  0  0  0  0  0  0  0
    7.7673   -5.2587    0.2678 H   0  0  0  0  0  0  0  0  0  0  0  0
    6.7709   -4.9057    1.6837 H   0  0  0  0  0  0  0  0  0  0  0  0
    6.7440   -0.9921   -0.4611 H   0  0  0  0  0  0  0  0  0  0  0  0
    4.8790    0.5699   -0.0857 H   0  0  0  0  0  0  0  0  0  0  0  0
  1  2  1  0
  2  3  1  0
  3  4  1  0
  4  5  1  0
  3  6  1  0
  6  7  1  0
  7  8  1  0
  8  9  1  0
  9 10  2  0
 10 11  1  0
 11 12  1  0
 12 13  1  0
 13 14  2  0
 13 15  1  0
 15 16  1  0
 16 17  1  0
 17 18  2  0
 18 19  1  0
 19 20  2  0
 19 21  1  0
 21 22  2  0
 22 23  1  0
 23 24  2  0
 24 25  1  0
 25 26  2  0
 26 27  1  0
 27 28  1  0
 26 29  1  0
 29 30  2  0
 18  9  1  0
 30 23  1  0
 16 11  1  0
  1 31  1  0
  1 32  1  0
  1 33  1  0
  2 34  1  0
  2 35  1  0
  4 36  1  0
  4 37  1  0
  5 38  1  0
  5 39  1  0
  5 40  1  0
  6 41  1  0
  6 42  1  0
  7 43  1  0
  7 44  1  0
 10 45  1  0
 11 46  1  1
 16 47  1  6
 17 48  1  0
 21 49  1  0
 22 50  1  0
 24 51  1  0
 25 52  1  0
 28 53  1  0
 28 54  1  0
 28 55  1  0
 29 56  1  0
 30 57  1  0
M  END
$$$$
