
     RDKit          3D

 38 40  0  0  0  0  0  0  0  0999 V2000
   -3.7779    2.0918    3.2655 C   0  0  0  0  0  0  0  0  0  0  0  0
   -3.2153    0.9246    2.5086 C   0  0  0  0  0  0  0  0  0  0  0  0
   -1.9130    0.4713    2.7600 C   0  0  0  0  0  0  0  0  0  0  0  0
   -1.4023   -0.6291    2.0704 C   0  0  0  0  0  0  0  0  0  0  0  0
   -2.1972   -1.2750    1.1198 C   0  0  0  0  0  0  0  0  0  0  0  0
   -1.5540   -2.6765    0.2336 S   0  0  0  0  0  6  0  0  0  0  0  0
   -0.4120   -3.1891    0.9589 O   0  0  0  0  0  0  0  0  0  0  0  0
   -2.6753   -3.5314   -0.1010 O   0  0  0  0  0  0  0  0  0  0  0  0
   -1.0398   -2.0005   -1.2268 N   0  0  0  0  0  0  0  0  0  0  0  0
   -0.1727   -0.8727   -1.2166 C   0  0  0  0  0  0  0  0  0  0  0  0
   -0.6347    0.3288   -1.7560 C   0  0  0  0  0  0  0  0  0  0  0  0
    0.1744    1.4655   -1.7272 C   0  0  0  0  0  0  0  0  0  0  0  0
    1.4476    1.3931   -1.1610 C   0  0  0  0  0  0  0  0  0  0  0  0
    2.2297    2.5155   -1.1190 O   0  0  0  0  0  0  0  0  0  0  0  0
    1.9283    0.1868   -0.6307 C   0  0  0  0  0  0  0  0  0  0  0  0
    3.5436    0.0556    0.1190 S   0  0  0  0  0  0  0  0  0  0  0  0
    4.5901   -0.1146   -1.2682 C   0  0  0  0  0  0  0  0  0  0  0  0
    5.9373    0.1362   -1.1933 N   0  0  0  0  0  0  0  0  0  0  0  0
    6.3635   -0.1479   -2.3999 C   0  0  0  0  0  0  0  0  0  0  0  0
    5.3198   -0.5638   -3.1604 N   0  0  0  0  0  0  0  0  0  0  0  0
    4.1772   -0.5674   -2.4605 N   0  0  0  0  0  0  0  0  0  0  0  0
    1.1036   -0.9459   -0.6590 C   0  0  0  0  0  0  0  0  0  0  0  0
   -3.5079   -0.8534    0.8800 C   0  0  0  0  0  0  0  0  0  0  0  0
   -4.0121    0.2472    1.5742 C   0  0  0  0  0  0  0  0  0  0  0  0
   -4.4779    1.7398    4.0300 H   0  0  0  0  0  0  0  0  0  0  0  0
   -4.2992    2.7716    2.5842 H   0  0  0  0  0  0  0  0  0  0  0  0
   -2.9862    2.6660    3.7581 H   0  0  0  0  0  0  0  0  0  0  0  0
   -1.2869    0.9707    3.4976 H   0  0  0  0  0  0  0  0  0  0  0  0
   -0.3897   -0.9702    2.2767 H   0  0  0  0  0  0  0  0  0  0  0  0
   -1.7654   -2.0440   -1.9394 H   0  0  0  0  0  0  0  0  0  0  0  0
   -1.6289    0.3975   -2.1881 H   0  0  0  0  0  0  0  0  0  0  0  0
   -0.2039    2.3948   -2.1417 H   0  0  0  0  0  0  0  0  0  0  0  0
    1.7540    3.2592   -1.5212 H   0  0  0  0  0  0  0  0  0  0  0  0
    7.3785   -0.0772   -2.7637 H   0  0  0  0  0  0  0  0  0  0  0  0
    5.3112   -0.8648   -4.1284 H   0  0  0  0  0  0  0  0  0  0  0  0
    1.4684   -1.8887   -0.2575 H   0  0  0  0  0  0  0  0  0  0  0  0
   -4.1404   -1.3760    0.1659 H   0  0  0  0  0  0  0  0  0  0  0  0
   -5.0343    0.5718    1.3894 H   0  0  0  0  0  0  0  0  0  0  0  0
  1  2  1  0
  2  3  2  0
  3  4  1  0
  4  5  2  0
  5  6  1  0
  6  7  2  0
  6  8  2  0
  6  9  1  0
  9 10  1  0
 10 11  2  0
 11 12  1  0
 12 13  2  0
 13 14  1  0
 13 15  1  0
 15 16  1  0
 16 17  1  0
 17 18  1  0
 18 19  2  0
 19 20  1  0
 20 21  1  0
 15 22  2  0
  5 23  1  0
 23 24  2  0
 24  2  1  0
 22 10  1  0
 21 17  2  0
  1 25  1  0
  1 26  1  0
  1 27  1  0
  3 28  1  0
  4 29  1  0
  9 30  1  0
 11 31  1  0
 12 32  1  0
 14 33  1  0
 19 34  1  0
 20 35  1  0
 22 36  1  0
 23 37  1  0
 24 38  1  0
M  END
$$$$
