
     RDKit          3D

 62 66  0  0  0  0  0  0  0  0999 V2000
   -5.1889    6.1055   -1.7612 C   0  0  0  0  0  0  0  0  0  0  0  0
   -4.1757    5.1431   -1.4985 O   0  0  0  0  0  0  0  0  0  0  0  0
   -4.5683    3.8348   -1.4188 C   0  0  0  0  0  0  0  0  0  0  0  0
   -5.8617    3.3589   -1.5834 C   0  0  0  0  0  0  0  0  0  0  0  0
   -6.1361    1.9904   -1.4807 C   0  0  0  0  0  0  0  0  0  0  0  0
   -5.0847    1.0949   -1.2050 C   0  0  0  0  0  0  0  0  0  0  0  0
   -5.2009   -0.6102   -1.0446 S   0  0  0  0  0  0  0  0  0  0  0  0
   -3.5270   -0.7854   -0.7368 C   0  0  0  0  0  0  0  0  0  0  0  0
   -3.0033   -2.1383   -0.4914 C   0  0  0  0  0  0  0  0  0  0  0  0
   -2.9209   -3.0434   -1.5639 C   0  0  0  0  0  0  0  0  0  0  0  0
   -2.4069   -4.3265   -1.3761 C   0  0  0  0  0  0  0  0  0  0  0  0
   -1.9735   -4.7208   -0.1138 C   0  0  0  0  0  0  0  0  0  0  0  0
   -2.0481   -3.8334    0.9621 C   0  0  0  0  0  0  0  0  0  0  0  0
   -2.5480   -2.5379    0.7799 C   0  0  0  0  0  0  0  0  0  0  0  0
   -2.6753   -1.6395    1.8106 O   0  0  0  0  0  0  0  0  0  0  0  0
   -1.6518   -1.7004    2.7985 C   0  0  0  0  0  0  0  0  0  0  0  0
   -2.8744    0.4386   -0.7528 C   0  0  0  0  0  0  0  0  0  0  0  0
   -1.4405    0.5506   -0.4986 C   0  0  0  0  0  0  0  0  0  0  0  0
   -0.9851    1.2094    0.6471 C   0  0  0  0  0  0  0  0  0  0  0  0
    0.3850    1.3084    0.8994 C   0  0  0  0  0  0  0  0  0  0  0  0
    1.3144    0.7558    0.0150 C   0  0  0  0  0  0  0  0  0  0  0  0
    2.6195    0.9198    0.3867 O   0  0  0  0  0  0  0  0  0  0  0  0
    3.6165    0.3194   -0.4435 C   0  0  0  0  0  0  0  0  0  0  0  0
    5.0121    0.5874    0.1552 C   0  0  0  0  0  0  0  0  0  0  0  0
    5.2687   -0.1330    1.4210 N   0  0  0  0  0  0  0  0  0  0  0  0
    6.4810    0.3664    2.0876 C   0  0  0  0  0  0  0  0  0  0  0  0
    7.6419   -0.3802    1.4504 C   0  0  0  0  0  0  0  0  0  0  0  0
    7.0341   -1.6722    0.9237 C   0  0  0  0  0  0  0  0  0  0  0  0
    5.5438   -1.5629    1.2187 C   0  0  0  0  0  0  0  0  0  0  0  0
    0.8616    0.1089   -1.1353 C   0  0  0  0  0  0  0  0  0  0  0  0
   -0.5108    0.0084   -1.3922 C   0  0  0  0  0  0  0  0  0  0  0  0
   -3.7741    1.5389   -1.0279 C   0  0  0  0  0  0  0  0  0  0  0  0
   -3.5324    2.9335   -1.1453 C   0  0  0  0  0  0  0  0  0  0  0  0
   -4.7148    7.0914   -1.7873 H   0  0  0  0  0  0  0  0  0  0  0  0
   -5.9386    6.1177   -0.9631 H   0  0  0  0  0  0  0  0  0  0  0  0
   -5.6529    5.9334   -2.7380 H   0  0  0  0  0  0  0  0  0  0  0  0
   -6.6926    4.0235   -1.7960 H   0  0  0  0  0  0  0  0  0  0  0  0
   -7.1507    1.6242   -1.6121 H   0  0  0  0  0  0  0  0  0  0  0  0
   -3.2566   -2.7467   -2.5553 H   0  0  0  0  0  0  0  0  0  0  0  0
   -2.3515   -5.0176   -2.2130 H   0  0  0  0  0  0  0  0  0  0  0  0
   -1.5845   -5.7245    0.0381 H   0  0  0  0  0  0  0  0  0  0  0  0
   -1.7286   -4.1805    1.9393 H   0  0  0  0  0  0  0  0  0  0  0  0
   -0.6558   -1.7874    2.3502 H   0  0  0  0  0  0  0  0  0  0  0  0
   -1.8396   -2.5210    3.4978 H   0  0  0  0  0  0  0  0  0  0  0  0
   -1.6816   -0.7662    3.3675 H   0  0  0  0  0  0  0  0  0  0  0  0
   -1.6919    1.6344    1.3558 H   0  0  0  0  0  0  0  0  0  0  0  0
    0.7321    1.8152    1.7965 H   0  0  0  0  0  0  0  0  0  0  0  0
    3.4374   -0.7563   -0.5455 H   0  0  0  0  0  0  0  0  0  0  0  0
    3.5825    0.7846   -1.4365 H   0  0  0  0  0  0  0  0  0  0  0  0
    5.7754    0.3501   -0.5958 H   0  0  0  0  0  0  0  0  0  0  0  0
    5.0712    1.6657    0.3522 H   0  0  0  0  0  0  0  0  0  0  0  0
    6.4219    0.1112    3.1533 H   0  0  0  0  0  0  0  0  0  0  0  0
    6.5995    1.4539    2.0321 H   0  0  0  0  0  0  0  0  0  0  0  0
    8.0657    0.1970    0.6205 H   0  0  0  0  0  0  0  0  0  0  0  0
    8.4438   -0.5716    2.1704 H   0  0  0  0  0  0  0  0  0  0  0  0
    7.4717   -2.5503    1.4096 H   0  0  0  0  0  0  0  0  0  0  0  0
    7.2156   -1.7582   -0.1536 H   0  0  0  0  0  0  0  0  0  0  0  0
    5.3197   -2.0923    2.1534 H   0  0  0  0  0  0  0  0  0  0  0  0
    4.9355   -2.0360    0.4423 H   0  0  0  0  0  0  0  0  0  0  0  0
    1.5456   -0.3291   -1.8535 H   0  0  0  0  0  0  0  0  0  0  0  0
   -0.8473   -0.4988   -2.2932 H   0  0  0  0  0  0  0  0  0  0  0  0
   -2.5206    3.3138   -1.0222 H   0  0  0  0  0  0  0  0  0  0  0  0
  1  2  1  0
  2  3  1  0
  3  4  2  0
  4  5  1  0
  5  6  2  0
  6  7  1  0
  7  8  1  0
  8  9  1  0
  9 10  2  0
 10 11  1  0
 11 12  2  0
 12 13  1  0
 13 14  2  0
 14 15  1  0
 15 16  1  0
  8 17  2  0
 17 18  1  0
 18 19  2  0
 19 20  1  0
 20 21  2  0
 21 22  1  0
 22 23  1  0
 23 24  1  0
 24 25  1  0
 25 26  1  0
 26 27  1  0
 27 28  1  0
 28 29  1  0
 21 30  1  0
 30 31  2  0
 17 32  1  0
 32 33  2  0
 33  3  1  0
 32  6  1  0
 14  9  1  0
 31 18  1  0
 29 25  1  0
  1 34  1  0
  1 35  1  0
  1 36  1  0
  4 37  1  0
  5 38  1  0
 10 39  1  0
 11 40  1  0
 12 41  1  0
 13 42  1  0
 16 43  1  0
 16 44  1  0
 16 45  1  0
 19 46  1  0
 20 47  1  0
 23 48  1  0
 23 49  1  0
 24 50  1  0
 24 51  1  0
 26 52  1  0
 26 53  1  0
 27 54  1  0
 27 55  1  0
 28 56  1  0
 28 57  1  0
 29 58  1  0
 29 59  1  0
 30 60  1  0
 31 61  1  0
 33 62  1  0
M  END
$$$$
