
     RDKit          3D

 58 62  0  0  0  0  0  0  0  0999 V2000
    7.6435    1.2168    3.4760 C   0  0  0  0  0  0  0  0  0  0  0  0
    7.0745    1.7094    2.2674 O   0  0  0  0  0  0  0  0  0  0  0  0
    5.7265    1.5204    2.0829 C   0  0  0  0  0  0  0  0  0  0  0  0
    4.9430    0.6606    2.8547 C   0  0  0  0  0  0  0  0  0  0  0  0
    3.5799    0.5190    2.5830 C   0  0  0  0  0  0  0  0  0  0  0  0
    2.9739    1.2243    1.5346 C   0  0  0  0  0  0  0  0  0  0  0  0
    1.5482    1.0386    1.2811 C   0  0  0  0  0  0  0  0  0  0  0  0
    0.6557    0.3943    2.0104 N   0  0  0  0  0  0  0  0  0  0  0  0
   -0.5174    0.4977    1.2931 C   0  0  0  0  0  0  0  0  0  0  0  0
   -1.7676   -0.1221    1.8054 C   0  0  0  0  0  0  0  0  0  0  0  0
   -2.1842   -1.2458    0.9781 N   0  0  0  0  0  0  0  0  0  0  0  0
   -3.3223   -1.3553    0.2215 C   0  0  0  0  0  0  0  0  0  0  0  0
   -4.4762   -0.0741    0.0504 S   0  0  0  0  0  0  0  0  0  0  0  0
   -5.6616   -0.7846   -1.1266 C   0  0  0  0  0  0  0  0  0  0  0  0
   -5.2869   -0.5218   -2.5649 C   0  0  0  0  0  0  0  0  0  0  0  0
   -5.6244    0.6955   -3.1820 C   0  0  0  0  0  0  0  0  0  0  0  0
   -5.3051    0.9274   -4.5228 C   0  0  0  0  0  0  0  0  0  0  0  0
   -4.6371   -0.0525   -5.2573 C   0  0  0  0  0  0  0  0  0  0  0  0
   -4.2858   -1.2495   -4.6429 C   0  0  0  0  0  0  0  0  0  0  0  0
   -3.6401   -2.1863   -5.3504 F   0  0  0  0  0  0  0  0  0  0  0  0
   -4.6000   -1.4914   -3.3107 C   0  0  0  0  0  0  0  0  0  0  0  0
   -3.4312   -2.5422   -0.3315 N   0  0  0  0  0  0  0  0  0  0  0  0
   -2.3222   -3.2377    0.0754 C   0  0  0  0  0  0  0  0  0  0  0  0
   -1.9409   -4.5450   -0.2180 C   0  0  0  0  0  0  0  0  0  0  0  0
   -0.7537   -4.9668    0.3596 C   0  0  0  0  0  0  0  0  0  0  0  0
    0.0274   -4.2127    1.1633 N   0  0  0  0  0  0  0  0  0  0  0  0
   -0.3424   -2.9411    1.4434 C   0  0  0  0  0  0  0  0  0  0  0  0
   -1.5227   -2.4559    0.8979 C   0  0  0  0  0  0  0  0  0  0  0  0
   -0.2829    1.2182    0.1399 C   0  0  0  0  0  0  0  0  0  0  0  0
   -1.1046    1.6335   -1.0102 C   0  0  0  0  0  0  0  0  0  0  0  0
    1.0388    1.5708    0.1265 O   0  0  0  0  0  0  0  0  0  0  0  0
    3.7641    2.0860    0.7601 C   0  0  0  0  0  0  0  0  0  0  0  0
    5.1338    2.2358    1.0212 C   0  0  0  0  0  0  0  0  0  0  0  0
    5.9723    3.0612    0.3091 O   0  0  0  0  0  0  0  0  0  0  0  0
    5.4495    3.6915   -0.8516 C   0  0  0  0  0  0  0  0  0  0  0  0
    8.6846    1.5569    3.5246 H   0  0  0  0  0  0  0  0  0  0  0  0
    7.1225    1.6145    4.3545 H   0  0  0  0  0  0  0  0  0  0  0  0
    7.6541    0.1201    3.4841 H   0  0  0  0  0  0  0  0  0  0  0  0
    5.3616    0.0727    3.6653 H   0  0  0  0  0  0  0  0  0  0  0  0
    2.9893   -0.1604    3.1944 H   0  0  0  0  0  0  0  0  0  0  0  0
   -2.5627    0.6242    1.8668 H   0  0  0  0  0  0  0  0  0  0  0  0
   -1.6213   -0.5161    2.8201 H   0  0  0  0  0  0  0  0  0  0  0  0
   -6.6359   -0.3213   -0.9299 H   0  0  0  0  0  0  0  0  0  0  0  0
   -5.8130   -1.8543   -0.9508 H   0  0  0  0  0  0  0  0  0  0  0  0
   -6.1500    1.4679   -2.6207 H   0  0  0  0  0  0  0  0  0  0  0  0
   -5.5835    1.8659   -4.9977 H   0  0  0  0  0  0  0  0  0  0  0  0
   -4.3896    0.1047   -6.3045 H   0  0  0  0  0  0  0  0  0  0  0  0
   -4.3064   -2.4377   -2.8616 H   0  0  0  0  0  0  0  0  0  0  0  0
   -2.5365   -5.1879   -0.8492 H   0  0  0  0  0  0  0  0  0  0  0  0
   -0.3844   -5.9725    0.1840 H   0  0  0  0  0  0  0  0  0  0  0  0
    0.3134   -2.3683    2.0865 H   0  0  0  0  0  0  0  0  0  0  0  0
   -1.3828    0.7620   -1.6081 H   0  0  0  0  0  0  0  0  0  0  0  0
   -0.5653    2.3351   -1.6557 H   0  0  0  0  0  0  0  0  0  0  0  0
   -2.0225    2.1246   -0.6683 H   0  0  0  0  0  0  0  0  0  0  0  0
    3.2905    2.6403   -0.0450 H   0  0  0  0  0  0  0  0  0  0  0  0
    4.6756    4.4204   -0.5888 H   0  0  0  0  0  0  0  0  0  0  0  0
    5.0732    2.9569   -1.5704 H   0  0  0  0  0  0  0  0  0  0  0  0
    6.2675    4.2362   -1.3339 H   0  0  0  0  0  0  0  0  0  0  0  0
  1  2  1  0
  2  3  1  0
  3  4  2  0
  4  5  1  0
  5  6  2  0
  6  7  1  0
  7  8  2  0
  8  9  1  0
  9 10  1  0
 10 11  1  0
 11 12  1  0
 12 13  1  0
 13 14  1  0
 14 15  1  0
 15 16  2  0
 16 17  1  0
 17 18  2  0
 18 19  1  0
 19 20  1  0
 19 21  2  0
 12 22  2  0
 22 23  1  0
 23 24  2  0
 24 25  1  0
 25 26  2  0
 26 27  1  0
 27 28  2  0
  9 29  2  0
 29 30  1  0
 29 31  1  0
  6 32  1  0
 32 33  2  0
 33 34  1  0
 34 35  1  0
 33  3  1  0
 31  7  1  0
 28 11  1  0
 21 15  1  0
 28 23  1  0
  1 36  1  0
  1 37  1  0
  1 38  1  0
  4 39  1  0
  5 40  1  0
 10 41  1  0
 10 42  1  0
 14 43  1  0
 14 44  1  0
 16 45  1  0
 17 46  1  0
 18 47  1  0
 21 48  1  0
 24 49  1  0
 25 50  1  0
 27 51  1  0
 30 52  1  0
 30 53  1  0
 30 54  1  0
 32 55  1  0
 35 56  1  0
 35 57  1  0
 35 58  1  0
M  END
$$$$
