
     RDKit          3D

 64 67  0  0  0  0  0  0  0  0999 V2000
    5.0872   -5.2748   -4.4924 C   0  0  0  0  0  0  0  0  0  0  0  0
    4.7809   -3.8863   -4.4719 O   0  0  0  0  0  0  0  0  0  0  0  0
    4.5865   -3.3188   -3.2418 C   0  0  0  0  0  0  0  0  0  0  0  0
    4.6613   -3.9713   -2.0130 C   0  0  0  0  0  0  0  0  0  0  0  0
    4.4577   -3.2651   -0.8183 C   0  0  0  0  0  0  0  0  0  0  0  0
    4.1852   -1.8973   -0.8401 C   0  0  0  0  0  0  0  0  0  0  0  0
    4.0038   -1.1208    0.3161 N   0  0  0  0  0  0  0  0  0  0  0  0
    3.8024   -1.5699    1.6142 C   0  0  0  0  0  0  0  0  0  0  0  0
    3.6153   -2.7359    1.9605 O   0  0  0  0  0  0  0  0  0  0  0  0
    3.6948   -0.4112    2.6143 C   0  0  0  0  0  0  0  0  0  0  0  0
    2.3189    0.0839    2.6674 N   0  0  0  0  0  0  0  0  0  0  0  0
    1.4446   -0.5271    3.6610 C   0  0  0  0  0  0  0  0  0  0  0  0
    1.9079    0.8905    1.6219 C   0  0  0  0  0  0  0  0  0  0  0  0
    2.6855    1.3221    0.7705 O   0  0  0  0  0  0  0  0  0  0  0  0
    0.4749    1.2295    1.5087 C   0  0  0  0  0  0  0  0  0  0  0  0
   -0.4263    0.2794    1.2118 C   0  0  0  0  0  0  0  0  0  0  0  0
   -1.8199    0.5194    1.0362 C   0  0  0  0  0  0  0  0  0  0  0  0
   -2.7998   -0.2776    1.5774 C   0  0  0  0  0  0  0  0  0  0  0  0
   -4.0075    0.2985    1.2541 N   0  0  0  0  0  0  0  0  0  0  0  0
   -5.3134   -0.1398    1.6215 C   0  0  0  0  0  0  0  0  0  0  0  0
   -6.4289    0.6215    1.2378 C   0  0  0  0  0  0  0  0  0  0  0  0
   -7.7162    0.2220    1.6044 C   0  0  0  0  0  0  0  0  0  0  0  0
   -7.8980   -0.9370    2.3567 C   0  0  0  0  0  0  0  0  0  0  0  0
   -6.7985   -1.7066    2.7291 C   0  0  0  0  0  0  0  0  0  0  0  0
   -5.5054   -1.3119    2.3666 C   0  0  0  0  0  0  0  0  0  0  0  0
   -3.8363    1.4189    0.5115 N   0  0  0  0  0  0  0  0  0  0  0  0
   -2.5126    1.5386    0.3255 C   0  0  0  0  0  0  0  0  0  0  0  0
   -1.9799    2.6029   -0.5291 C   0  0  0  0  0  0  0  0  0  0  0  0
   -0.9312    2.3476   -1.4236 C   0  0  0  0  0  0  0  0  0  0  0  0
   -0.4293    3.3662   -2.2408 C   0  0  0  0  0  0  0  0  0  0  0  0
   -0.9809    4.6515   -2.1941 C   0  0  0  0  0  0  0  0  0  0  0  0
   -0.4250    5.7479   -3.0549 C   0  0  0  0  0  0  0  0  0  0  0  0
   -2.0286    4.9099   -1.3030 C   0  0  0  0  0  0  0  0  0  0  0  0
   -2.5290    3.8919   -0.4833 C   0  0  0  0  0  0  0  0  0  0  0  0
    4.1166   -1.2426   -2.0725 C   0  0  0  0  0  0  0  0  0  0  0  0
    4.3058   -1.9524   -3.2627 C   0  0  0  0  0  0  0  0  0  0  0  0
    5.3174   -5.5501   -5.5295 H   0  0  0  0  0  0  0  0  0  0  0  0
    4.2240   -5.8678   -4.1632 H   0  0  0  0  0  0  0  0  0  0  0  0
    5.9790   -5.5014   -3.8943 H   0  0  0  0  0  0  0  0  0  0  0  0
    4.8791   -5.0315   -1.9381 H   0  0  0  0  0  0  0  0  0  0  0  0
    4.5423   -3.8108    0.1170 H   0  0  0  0  0  0  0  0  0  0  0  0
    3.8646   -0.1151    0.1724 H   0  0  0  0  0  0  0  0  0  0  0  0
    4.3708    0.4001    2.3187 H   0  0  0  0  0  0  0  0  0  0  0  0
    4.0168   -0.7534    3.6035 H   0  0  0  0  0  0  0  0  0  0  0  0
    0.5279    0.0480    3.7939 H   0  0  0  0  0  0  0  0  0  0  0  0
    1.1951   -1.5400    3.3330 H   0  0  0  0  0  0  0  0  0  0  0  0
    1.9655   -0.5712    4.6231 H   0  0  0  0  0  0  0  0  0  0  0  0
    0.2296    2.2800    1.5932 H   0  0  0  0  0  0  0  0  0  0  0  0
   -0.0936   -0.7542    1.1212 H   0  0  0  0  0  0  0  0  0  0  0  0
   -2.7319   -1.1680    2.1826 H   0  0  0  0  0  0  0  0  0  0  0  0
   -6.3087    1.5340    0.6564 H   0  0  0  0  0  0  0  0  0  0  0  0
   -8.5745    0.8197    1.3089 H   0  0  0  0  0  0  0  0  0  0  0  0
   -8.9011   -1.2443    2.6410 H   0  0  0  0  0  0  0  0  0  0  0  0
   -6.9462   -2.6118    3.3156 H   0  0  0  0  0  0  0  0  0  0  0  0
   -4.6804   -1.9427    2.6799 H   0  0  0  0  0  0  0  0  0  0  0  0
   -0.5000    1.3521   -1.5068 H   0  0  0  0  0  0  0  0  0  0  0  0
    0.3907    3.1443   -2.9206 H   0  0  0  0  0  0  0  0  0  0  0  0
   -1.2219    6.4224   -3.3872 H   0  0  0  0  0  0  0  0  0  0  0  0
    0.0522    5.3392   -3.9540 H   0  0  0  0  0  0  0  0  0  0  0  0
    0.3192    6.3243   -2.4931 H   0  0  0  0  0  0  0  0  0  0  0  0
   -2.4696    5.9036   -1.2421 H   0  0  0  0  0  0  0  0  0  0  0  0
   -3.3529    4.1100    0.1939 H   0  0  0  0  0  0  0  0  0  0  0  0
    3.9065   -0.1779   -2.1257 H   0  0  0  0  0  0  0  0  0  0  0  0
    4.2375   -1.4334   -4.2150 H   0  0  0  0  0  0  0  0  0  0  0  0
  1  2  1  0
  2  3  1  0
  3  4  2  0
  4  5  1  0
  5  6  2  0
  6  7  1  0
  7  8  1  0
  8  9  2  0
  8 10  1  0
 10 11  1  0
 11 12  1  0
 11 13  1  0
 13 14  2  0
 13 15  1  0
 15 16  2  3
 16 17  1  0
 17 18  2  0
 18 19  1  0
 19 20  1  0
 20 21  2  0
 21 22  1  0
 22 23  2  0
 23 24  1  0
 24 25  2  0
 19 26  1  0
 26 27  2  0
 27 28  1  0
 28 29  2  0
 29 30  1  0
 30 31  2  0
 31 32  1  0
 31 33  1  0
 33 34  2  0
  6 35  1  0
 35 36  2  0
 36  3  1  0
 27 17  1  0
 34 28  1  0
 25 20  1  0
  1 37  1  0
  1 38  1  0
  1 39  1  0
  4 40  1  0
  5 41  1  0
  7 42  1  0
 10 43  1  0
 10 44  1  0
 12 45  1  0
 12 46  1  0
 12 47  1  0
 15 48  1  0
 16 49  1  0
 18 50  1  0
 21 51  1  0
 22 52  1  0
 23 53  1  0
 24 54  1  0
 25 55  1  0
 29 56  1  0
 30 57  1  0
 32 58  1  0
 32 59  1  0
 32 60  1  0
 33 61  1  0
 34 62  1  0
 35 63  1  0
 36 64  1  0
M  END
$$$$
