
     RDKit          3D

 31 31  0  0  0  0  0  0  0  0999 V2000
    2.6563   -1.3192    2.7758 C   0  0  0  0  0  0  0  0  0  0  0  0
    3.4983   -0.2738    2.3056 O   0  0  0  0  0  0  0  0  0  0  0  0
    3.0619    0.2211    1.0404 C   0  0  0  0  0  0  0  0  0  0  0  0
    1.7693    0.8186    1.1290 O   0  0  0  0  0  0  0  0  0  0  0  0
    1.3004    1.1993   -0.1030 C   0  0  0  0  0  0  0  0  0  0  0  0
    0.0943    0.8547   -0.5886 C   0  0  0  0  0  0  0  0  0  0  0  0
   -0.2991    1.3246   -1.8264 N   0  0  0  0  0  0  0  0  0  0  0  0
   -1.4937    1.0869   -2.4874 C   0  0  0  0  0  0  0  0  0  0  0  0
   -1.5580    1.7996   -3.8155 C   0  0  0  0  0  0  0  0  0  0  0  0
   -2.4175    0.3753   -2.1133 O   0  0  0  0  0  0  0  0  0  0  0  0
   -0.7657   -0.0368    0.2107 C   0  0  0  0  0  0  0  0  0  0  0  0
   -1.5356    0.4750    1.2639 C   0  0  0  0  0  0  0  0  0  0  0  0
   -2.3127   -0.3786    2.0497 C   0  0  0  0  0  0  0  0  0  0  0  0
   -2.3235   -1.7487    1.7914 C   0  0  0  0  0  0  0  0  0  0  0  0
   -1.5583   -2.2680    0.7480 C   0  0  0  0  0  0  0  0  0  0  0  0
   -0.7792   -1.4164   -0.0381 C   0  0  0  0  0  0  0  0  0  0  0  0
    2.6197   -2.1410    2.0540 H   0  0  0  0  0  0  0  0  0  0  0  0
    1.6472   -0.9467    2.9760 H   0  0  0  0  0  0  0  0  0  0  0  0
    3.0740   -1.6986    3.7124 H   0  0  0  0  0  0  0  0  0  0  0  0
    3.7909    0.9760    0.7245 H   0  0  0  0  0  0  0  0  0  0  0  0
    3.0672   -0.5988    0.3099 H   0  0  0  0  0  0  0  0  0  0  0  0
    1.9978    1.8416   -0.6258 H   0  0  0  0  0  0  0  0  0  0  0  0
    0.3547    1.9374   -2.2968 H   0  0  0  0  0  0  0  0  0  0  0  0
   -0.9968    1.2299   -4.5608 H   0  0  0  0  0  0  0  0  0  0  0  0
   -2.6012    1.8833   -4.1336 H   0  0  0  0  0  0  0  0  0  0  0  0
   -1.1458    2.8096   -3.7346 H   0  0  0  0  0  0  0  0  0  0  0  0
   -1.5302    1.5408    1.4760 H   0  0  0  0  0  0  0  0  0  0  0  0
   -2.9114    0.0274    2.8604 H   0  0  0  0  0  0  0  0  0  0  0  0
   -2.9348   -2.4107    2.3987 H   0  0  0  0  0  0  0  0  0  0  0  0
   -1.5748   -3.3341    0.5397 H   0  0  0  0  0  0  0  0  0  0  0  0
   -0.1937   -1.8295   -0.8547 H   0  0  0  0  0  0  0  0  0  0  0  0
  1  2  1  0
  2  3  1  0
  3  4  1  0
  4  5  1  0
  5  6  2  3
  6  7  1  0
  7  8  1  0
  8  9  1  0
  8 10  2  0
  6 11  1  0
 11 12  2  0
 12 13  1  0
 13 14  2  0
 14 15  1  0
 15 16  2  0
 16 11  1  0
  1 17  1  0
  1 18  1  0
  1 19  1  0
  3 20  1  0
  3 21  1  0
  5 22  1  0
  7 23  1  0
  9 24  1  0
  9 25  1  0
  9 26  1  0
 12 27  1  0
 13 28  1  0
 14 29  1  0
 15 30  1  0
 16 31  1  0
M  END
$$$$
