
     RDKit          3D

 37 39  0  0  0  0  0  0  0  0999 V2000
    6.4295   -0.2811    0.3652 C   0  0  0  0  0  0  0  0  0  0  0  0
    5.3333   -0.0242   -0.5050 O   0  0  0  0  0  0  0  0  0  0  0  0
    4.0771   -0.1017    0.0334 C   0  0  0  0  0  0  0  0  0  0  0  0
    3.7755   -0.4280    1.3624 C   0  0  0  0  0  0  0  0  0  0  0  0
    2.4478   -0.4743    1.7955 C   0  0  0  0  0  0  0  0  0  0  0  0
    1.4419   -0.1934    0.8831 C   0  0  0  0  0  0  0  0  0  0  0  0
    1.7183    0.1362   -0.4593 C   0  0  0  0  0  0  0  0  0  0  0  0
    3.0448    0.1799   -0.8747 C   0  0  0  0  0  0  0  0  0  0  0  0
    0.5657    0.3845   -1.2380 N   0  0  0  0  0  0  0  0  0  0  0  0
    0.7321    0.9240   -2.5775 C   0  0  0  0  0  0  0  0  0  0  0  0
   -0.6001    0.3099   -0.4734 C   0  0  0  0  0  0  0  0  0  0  0  0
   -1.8552    0.5436   -0.9013 C   0  0  0  0  0  0  0  0  0  0  0  0
   -3.0643    0.4566   -0.0775 C   0  0  0  0  0  0  0  0  0  0  0  0
   -3.5393    1.6044    0.5682 C   0  0  0  0  0  0  0  0  0  0  0  0
   -4.6744    1.5344    1.3646 C   0  0  0  0  0  0  0  0  0  0  0  0
   -5.3216    0.3180    1.5110 C   0  0  0  0  0  0  0  0  0  0  0  0
   -4.8255   -0.8022    0.8560 C   0  0  0  0  0  0  0  0  0  0  0  0
   -3.7245   -0.7254    0.0705 N   0  0  0  0  0  4  0  0  0  0  0  0
   -3.2438   -1.9531   -0.5959 C   0  0  0  0  0  0  0  0  0  0  0  0
   -0.3111   -0.1740    1.2267 S   0  0  0  0  0  0  0  0  0  0  0  0
    7.3502   -0.1710   -0.2158 H   0  0  0  0  0  0  0  0  0  0  0  0
    6.3968   -1.3067    0.7473 H   0  0  0  0  0  0  0  0  0  0  0  0
    6.4623    0.4459    1.1833 H   0  0  0  0  0  0  0  0  0  0  0  0
    4.5551   -0.6488    2.0852 H   0  0  0  0  0  0  0  0  0  0  0  0
    2.2168   -0.7211    2.8270 H   0  0  0  0  0  0  0  0  0  0  0  0
    3.3124    0.4283   -1.8966 H   0  0  0  0  0  0  0  0  0  0  0  0
   -0.2162    0.9769   -3.1204 H   0  0  0  0  0  0  0  0  0  0  0  0
    1.1482    1.9366   -2.5378 H   0  0  0  0  0  0  0  0  0  0  0  0
    1.3917    0.2899   -3.1802 H   0  0  0  0  0  0  0  0  0  0  0  0
   -2.0417    0.8401   -1.9282 H   0  0  0  0  0  0  0  0  0  0  0  0
   -3.0171    2.5543    0.4619 H   0  0  0  0  0  0  0  0  0  0  0  0
   -5.0448    2.4226    1.8747 H   0  0  0  0  0  0  0  0  0  0  0  0
   -6.2076    0.2406    2.1380 H   0  0  0  0  0  0  0  0  0  0  0  0
   -5.3081   -1.7706    0.9589 H   0  0  0  0  0  0  0  0  0  0  0  0
   -3.0649   -1.7347   -1.6517 H   0  0  0  0  0  0  0  0  0  0  0  0
   -4.0056   -2.7341   -0.5260 H   0  0  0  0  0  0  0  0  0  0  0  0
   -2.3337   -2.2824   -0.0902 H   0  0  0  0  0  0  0  0  0  0  0  0
  1  2  1  0
  2  3  1  0
  3  4  2  0
  4  5  1  0
  5  6  2  0
  6  7  1  0
  7  8  2  0
  7  9  1  0
  9 10  1  0
  9 11  1  0
 11 12  2  3
 12 13  1  0
 13 14  2  0
 14 15  1  0
 15 16  2  0
 16 17  1  0
 17 18  2  0
 18 19  1  0
 11 20  1  0
  8  3  1  0
 18 13  1  0
 20  6  1  0
  1 21  1  0
  1 22  1  0
  1 23  1  0
  4 24  1  0
  5 25  1  0
  8 26  1  0
 10 27  1  0
 10 28  1  0
 10 29  1  0
 12 30  1  0
 14 31  1  0
 15 32  1  0
 16 33  1  0
 17 34  1  0
 19 35  1  0
 19 36  1  0
 19 37  1  0
M  CHG  1  18   1
M  END
$$$$
