
     RDKit          3D

 61 65  0  0  0  0  0  0  0  0999 V2000
    6.4418   -4.3205    1.9087 C   0  0  0  0  0  0  0  0  0  0  0  0
    5.2478   -3.4917    1.5348 C   0  0  0  0  0  0  0  0  0  0  0  0
    4.4441   -3.8578    0.4519 C   0  0  0  0  0  0  0  0  0  0  0  0
    3.3133   -3.1045    0.1200 C   0  0  0  0  0  0  0  0  0  0  0  0
    2.9525   -1.9718    0.8673 C   0  0  0  0  0  0  0  0  0  0  0  0
    1.7654   -1.1789    0.5173 C   0  0  0  0  0  0  0  0  0  0  0  0
    1.8423    0.1987    0.3292 C   0  0  0  0  0  0  0  0  0  0  0  0
    0.7071    0.9522   -0.0017 C   0  0  0  0  0  0  0  0  0  0  0  0
    0.8046    2.4064   -0.1634 C   0  0  0  0  0  0  0  0  0  0  0  0
    0.4286    3.2751    0.8738 C   0  0  0  0  0  0  0  0  0  0  0  0
    0.5258    4.6598    0.7155 C   0  0  0  0  0  0  0  0  0  0  0  0
    1.0212    5.2051   -0.4726 C   0  0  0  0  0  0  0  0  0  0  0  0
    1.0970    6.6949   -0.6454 C   0  0  0  0  0  0  0  0  0  0  0  0
    1.4046    4.3470   -1.5071 C   0  0  0  0  0  0  0  0  0  0  0  0
    1.3083    2.9618   -1.3509 C   0  0  0  0  0  0  0  0  0  0  0  0
   -0.5081    0.3410   -0.1535 N   0  0  0  0  0  4  0  0  0  0  0  0
   -1.6732    1.1201   -0.5000 C   0  0  0  0  0  0  0  0  0  0  0  0
   -1.8450    1.5217   -1.8262 C   0  0  0  0  0  0  0  0  0  0  0  0
   -2.9697    2.2760   -2.1523 C   0  0  0  0  0  0  0  0  0  0  0  0
   -3.8969    2.6129   -1.1617 C   0  0  0  0  0  0  0  0  0  0  0  0
   -3.7087    2.2006    0.1609 C   0  0  0  0  0  0  0  0  0  0  0  0
   -2.5879    1.4475    0.5029 C   0  0  0  0  0  0  0  0  0  0  0  0
   -0.6136   -1.0121    0.0234 C   0  0  0  0  0  0  0  0  0  0  0  0
   -1.9144   -1.6620   -0.1655 C   0  0  0  0  0  0  0  0  0  0  0  0
   -2.7016   -2.0207    0.9411 C   0  0  0  0  0  0  0  0  0  0  0  0
   -3.9392   -2.6447    0.7653 C   0  0  0  0  0  0  0  0  0  0  0  0
   -4.4058   -2.9446   -0.5181 C   0  0  0  0  0  0  0  0  0  0  0  0
   -5.7486   -3.5887   -0.7099 C   0  0  0  0  0  0  0  0  0  0  0  0
   -3.6258   -2.5953   -1.6247 C   0  0  0  0  0  0  0  0  0  0  0  0
   -2.3879   -1.9710   -1.4510 C   0  0  0  0  0  0  0  0  0  0  0  0
    0.5155   -1.7724    0.3601 C   0  0  0  0  0  0  0  0  0  0  0  0
    3.7597   -1.6222    1.9618 C   0  0  0  0  0  0  0  0  0  0  0  0
    4.8899   -2.3756    2.2953 C   0  0  0  0  0  0  0  0  0  0  0  0
    7.1862   -3.7192    2.4408 H   0  0  0  0  0  0  0  0  0  0  0  0
    6.1343   -5.1504    2.5521 H   0  0  0  0  0  0  0  0  0  0  0  0
    6.9289   -4.7241    1.0151 H   0  0  0  0  0  0  0  0  0  0  0  0
    4.6967   -4.7330   -0.1441 H   0  0  0  0  0  0  0  0  0  0  0  0
    2.7251   -3.4151   -0.7411 H   0  0  0  0  0  0  0  0  0  0  0  0
    2.8021    0.7064    0.4382 H   0  0  0  0  0  0  0  0  0  0  0  0
    0.0572    2.8900    1.8220 H   0  0  0  0  0  0  0  0  0  0  0  0
    0.2193    5.3159    1.5291 H   0  0  0  0  0  0  0  0  0  0  0  0
    1.8148    6.9665   -1.4263 H   0  0  0  0  0  0  0  0  0  0  0  0
    0.1144    7.0890   -0.9209 H   0  0  0  0  0  0  0  0  0  0  0  0
    1.4275    7.1742    0.2819 H   0  0  0  0  0  0  0  0  0  0  0  0
    1.7887    4.7551   -2.4410 H   0  0  0  0  0  0  0  0  0  0  0  0
    1.6324    2.3259   -2.1735 H   0  0  0  0  0  0  0  0  0  0  0  0
   -1.1311    1.2588   -2.5999 H   0  0  0  0  0  0  0  0  0  0  0  0
   -3.1325    2.6067   -3.1768 H   0  0  0  0  0  0  0  0  0  0  0  0
   -4.7752    3.2027   -1.4229 H   0  0  0  0  0  0  0  0  0  0  0  0
   -4.4419    2.4719    0.9188 H   0  0  0  0  0  0  0  0  0  0  0  0
   -2.4436    1.1353    1.5321 H   0  0  0  0  0  0  0  0  0  0  0  0
   -2.3654   -1.8189    1.9574 H   0  0  0  0  0  0  0  0  0  0  0  0
   -4.5374   -2.9043    1.6380 H   0  0  0  0  0  0  0  0  0  0  0  0
   -5.7401   -4.2525   -1.5809 H   0  0  0  0  0  0  0  0  0  0  0  0
   -6.5140   -2.8203   -0.8558 H   0  0  0  0  0  0  0  0  0  0  0  0
   -6.0200   -4.1971    0.1592 H   0  0  0  0  0  0  0  0  0  0  0  0
   -3.9783   -2.8169   -2.6313 H   0  0  0  0  0  0  0  0  0  0  0  0
   -1.8014   -1.7350   -2.3375 H   0  0  0  0  0  0  0  0  0  0  0  0
    0.4062   -2.8488    0.5029 H   0  0  0  0  0  0  0  0  0  0  0  0
    3.5140   -0.7637    2.5836 H   0  0  0  0  0  0  0  0  0  0  0  0
    5.4899   -2.0851    3.1558 H   0  0  0  0  0  0  0  0  0  0  0  0
  1  2  1  0
  2  3  2  0
  3  4  1  0
  4  5  2  0
  5  6  1  0
  6  7  2  0
  7  8  1  0
  8  9  1  0
  9 10  2  0
 10 11  1  0
 11 12  2  0
 12 13  1  0
 12 14  1  0
 14 15  2  0
  8 16  2  0
 16 17  1  0
 17 18  2  0
 18 19  1  0
 19 20  2  0
 20 21  1  0
 21 22  2  0
 16 23  1  0
 23 24  1  0
 24 25  2  0
 25 26  1  0
 26 27  2  0
 27 28  1  0
 27 29  1  0
 29 30  2  0
 23 31  2  0
  5 32  1  0
 32 33  2  0
 33  2  1  0
 31  6  1  0
 15  9  1  0
 22 17  1  0
 30 24  1  0
  1 34  1  0
  1 35  1  0
  1 36  1  0
  3 37  1  0
  4 38  1  0
  7 39  1  0
 10 40  1  0
 11 41  1  0
 13 42  1  0
 13 43  1  0
 13 44  1  0
 14 45  1  0
 15 46  1  0
 18 47  1  0
 19 48  1  0
 20 49  1  0
 21 50  1  0
 22 51  1  0
 25 52  1  0
 26 53  1  0
 28 54  1  0
 28 55  1  0
 28 56  1  0
 29 57  1  0
 30 58  1  0
 31 59  1  0
 32 60  1  0
 33 61  1  0
M  CHG  1  16   1
M  END
$$$$
