
     RDKit          3D

 47 51  0  0  0  0  0  0  0  0999 V2000
    0.0603   -1.6510   -1.8907 C   0  0  0  0  0  0  0  0  0  0  0  0
   -0.9264   -0.6750   -1.3270 C   0  0  0  0  0  0  0  0  0  0  0  0
   -1.5466    0.1438   -2.1410 N   0  0  0  0  0  0  0  0  0  0  0  0
   -2.4280    1.0313   -1.5863 C   0  0  0  0  0  0  0  0  0  0  0  0
   -3.3170    2.1477   -2.5278 S   0  0  0  0  0  0  0  0  0  0  0  0
   -4.0973    2.7881   -1.1507 C   0  0  0  0  0  0  0  0  0  0  0  0
   -3.6934    2.1871    0.0285 C   0  0  0  0  0  0  0  0  0  0  0  0
   -2.7440    1.1812   -0.2517 C   0  0  0  0  0  0  0  0  0  0  0  0
   -1.9956    0.2011    0.6571 C   0  0  0  0  0  0  0  0  0  0  0  0
   -2.0442    0.0492    1.9565 N   0  0  0  0  0  0  0  0  0  0  0  0
   -1.1976   -0.9898    2.2627 N   0  0  0  0  0  0  0  0  0  0  0  0
   -0.6743   -1.4389    1.1376 C   0  0  0  0  0  0  0  0  0  0  0  0
    0.3752   -2.8143    1.0808 S   0  0  0  0  0  0  0  0  0  0  0  0
    1.7589   -2.1823    2.0773 C   0  0  0  0  0  0  0  0  0  0  0  0
    2.6275   -1.3029    1.1960 C   0  0  0  0  0  0  0  0  0  0  0  0
    2.3331   -0.1432    0.9192 O   0  0  0  0  0  0  0  0  0  0  0  0
    3.7433   -1.9307    0.6903 N   0  0  0  0  0  0  0  0  0  0  0  0
    4.5646   -1.2582   -0.2897 C   0  0  0  0  0  0  0  0  0  0  0  0
    5.6902   -2.1513   -0.6590 C   0  0  0  0  0  0  0  0  0  0  0  0
    7.0461   -2.1369   -0.3921 C   0  0  0  0  0  0  0  0  0  0  0  0
    7.5913   -3.2722   -1.0421 C   0  0  0  0  0  0  0  0  0  0  0  0
    6.5364   -3.9172   -1.6442 C   0  0  0  0  0  0  0  0  0  0  0  0
    5.3760   -3.2508   -1.4070 O   0  0  0  0  0  0  0  0  0  0  0  0
   -1.1286   -0.6956    0.0691 N   0  0  0  0  0  0  0  0  0  0  0  0
   -4.2545    2.5759    1.3599 C   0  0  0  0  0  0  0  0  0  0  0  0
   -4.9855    3.9277    1.2943 C   0  0  0  0  0  0  0  0  0  0  0  0
   -5.8913    4.0262    0.0574 C   0  0  0  0  0  0  0  0  0  0  0  0
   -5.0885    3.9070   -1.2486 C   0  0  0  0  0  0  0  0  0  0  0  0
    1.0531   -1.4798   -1.4663 H   0  0  0  0  0  0  0  0  0  0  0  0
   -0.2688   -2.6784   -1.7079 H   0  0  0  0  0  0  0  0  0  0  0  0
    0.1366   -1.5182   -2.9768 H   0  0  0  0  0  0  0  0  0  0  0  0
    2.3387   -3.0322    2.4519 H   0  0  0  0  0  0  0  0  0  0  0  0
    1.4216   -1.6085    2.9453 H   0  0  0  0  0  0  0  0  0  0  0  0
    3.7564   -2.9502    0.6705 H   0  0  0  0  0  0  0  0  0  0  0  0
    4.9263   -0.3173    0.1433 H   0  0  0  0  0  0  0  0  0  0  0  0
    3.9458   -1.0209   -1.1661 H   0  0  0  0  0  0  0  0  0  0  0  0
    7.5737   -1.3922    0.1933 H   0  0  0  0  0  0  0  0  0  0  0  0
    8.6262   -3.5838   -1.0619 H   0  0  0  0  0  0  0  0  0  0  0  0
    6.4499   -4.8144   -2.2404 H   0  0  0  0  0  0  0  0  0  0  0  0
   -3.4598    2.6301    2.1124 H   0  0  0  0  0  0  0  0  0  0  0  0
   -4.9597    1.7988    1.6790 H   0  0  0  0  0  0  0  0  0  0  0  0
   -4.2497    4.7412    1.2643 H   0  0  0  0  0  0  0  0  0  0  0  0
   -5.5779    4.0674    2.2056 H   0  0  0  0  0  0  0  0  0  0  0  0
   -6.4346    4.9777    0.0666 H   0  0  0  0  0  0  0  0  0  0  0  0
   -6.6423    3.2280    0.0999 H   0  0  0  0  0  0  0  0  0  0  0  0
   -5.7778    3.7521   -2.0875 H   0  0  0  0  0  0  0  0  0  0  0  0
   -4.5480    4.8448   -1.4296 H   0  0  0  0  0  0  0  0  0  0  0  0
  1  2  1  0
  2  3  2  0
  3  4  1  0
  4  5  1  0
  5  6  1  0
  6  7  2  0
  7  8  1  0
  8  9  1  0
  9 10  2  0
 10 11  1  0
 11 12  2  0
 12 13  1  0
 13 14  1  0
 14 15  1  0
 15 16  2  0
 15 17  1  0
 17 18  1  0
 18 19  1  0
 19 20  2  0
 20 21  1  0
 21 22  2  0
 22 23  1  0
 12 24  1  0
  7 25  1  0
 25 26  1  0
 26 27  1  0
 27 28  1  0
 24  2  1  0
  8  4  2  0
 24  9  1  0
 28  6  1  0
 23 19  1  0
  1 29  1  0
  1 30  1  0
  1 31  1  0
 14 32  1  0
 14 33  1  0
 17 34  1  0
 18 35  1  0
 18 36  1  0
 20 37  1  0
 21 38  1  0
 22 39  1  0
 25 40  1  0
 25 41  1  0
 26 42  1  0
 26 43  1  0
 27 44  1  0
 27 45  1  0
 28 46  1  0
 28 47  1  0
M  END
$$$$
