
     RDKit          3D

 35 36  0  0  0  0  0  0  0  0999 V2000
   -5.3740   -0.3948   -1.9662 C   0  0  0  0  0  0  0  0  0  0  0  0
   -4.6330    0.7920   -1.4088 C   0  0  0  0  0  0  0  0  0  0  0  0
   -4.9193    1.9391   -1.7456 O   0  0  0  0  0  0  0  0  0  0  0  0
   -3.5264    0.5634   -0.4328 C   0  0  0  0  0  0  0  0  0  0  0  0
   -3.1007   -0.7191   -0.0704 C   0  0  0  0  0  0  0  0  0  0  0  0
   -2.0560   -0.8791    0.8473 C   0  0  0  0  0  0  0  0  0  0  0  0
   -1.4291    0.2353    1.4034 C   0  0  0  0  0  0  0  0  0  0  0  0
   -0.3568    0.0985    2.3267 N   0  0  0  0  0  0  0  0  0  0  0  0
    1.0676   -0.6856    1.8615 S   0  0  0  0  0  6  0  0  0  0  0  0
    0.7348   -2.0121    1.3872 O   0  0  0  0  0  0  0  0  0  0  0  0
    1.9711   -0.4867    2.9770 O   0  0  0  0  0  0  0  0  0  0  0  0
    1.6240    0.3305    0.4803 C   0  0  0  0  0  0  0  0  0  0  0  0
    2.9565   -0.1805   -0.0065 C   0  0  0  0  0  0  0  0  0  0  0  0
    4.1524    0.3276    0.5232 C   0  0  0  0  0  0  0  0  0  0  0  0
    5.3856   -0.1501    0.0733 C   0  0  0  0  0  0  0  0  0  0  0  0
    5.4307   -1.1396   -0.9058 C   0  0  0  0  0  0  0  0  0  0  0  0
    6.9500   -1.7259   -1.4603 Cl  0  0  0  0  0  0  0  0  0  0  0  0
    4.2524   -1.6584   -1.4367 C   0  0  0  0  0  0  0  0  0  0  0  0
    3.0186   -1.1817   -0.9878 C   0  0  0  0  0  0  0  0  0  0  0  0
   -1.8553    1.5164    1.0548 C   0  0  0  0  0  0  0  0  0  0  0  0
   -2.8971    1.6795    0.1368 C   0  0  0  0  0  0  0  0  0  0  0  0
   -4.7021   -1.0095   -2.5706 H   0  0  0  0  0  0  0  0  0  0  0  0
   -6.1858   -0.0413   -2.6097 H   0  0  0  0  0  0  0  0  0  0  0  0
   -5.8180   -0.9804   -1.1570 H   0  0  0  0  0  0  0  0  0  0  0  0
   -3.5620   -1.6128   -0.4811 H   0  0  0  0  0  0  0  0  0  0  0  0
   -1.7523   -1.8847    1.1321 H   0  0  0  0  0  0  0  0  0  0  0  0
   -0.1820    0.8677    2.9735 H   0  0  0  0  0  0  0  0  0  0  0  0
    1.7040    1.3648    0.8290 H   0  0  0  0  0  0  0  0  0  0  0  0
    0.8777    0.2764   -0.3175 H   0  0  0  0  0  0  0  0  0  0  0  0
    4.1360    1.0908    1.2995 H   0  0  0  0  0  0  0  0  0  0  0  0
    6.3047    0.2483    0.4951 H   0  0  0  0  0  0  0  0  0  0  0  0
    4.2865   -2.4373   -2.1940 H   0  0  0  0  0  0  0  0  0  0  0  0
    2.1069   -1.6082   -1.4034 H   0  0  0  0  0  0  0  0  0  0  0  0
   -1.3895    2.3992    1.4841 H   0  0  0  0  0  0  0  0  0  0  0  0
   -3.2202    2.6850   -0.1304 H   0  0  0  0  0  0  0  0  0  0  0  0
  1  2  1  0
  2  3  2  0
  2  4  1  0
  4  5  2  0
  5  6  1  0
  6  7  2  0
  7  8  1  0
  8  9  1  0
  9 10  2  0
  9 11  2  0
  9 12  1  0
 12 13  1  0
 13 14  2  0
 14 15  1  0
 15 16  2  0
 16 17  1  0
 16 18  1  0
 18 19  2  0
  7 20  1  0
 20 21  2  0
 21  4  1  0
 19 13  1  0
  1 22  1  0
  1 23  1  0
  1 24  1  0
  5 25  1  0
  6 26  1  0
  8 27  1  0
 12 28  1  0
 12 29  1  0
 14 30  1  0
 15 31  1  0
 18 32  1  0
 19 33  1  0
 20 34  1  0
 21 35  1  0
M  END
$$$$
