
     RDKit          3D

 51 55  0  0  0  0  0  0  0  0999 V2000
    1.7120    1.8458   -1.2893 O   0  0  0  0  0  0  0  0  0  0  0  0
    1.1679    0.7505   -1.4014 C   0  0  0  0  0  0  0  0  0  0  0  0
   -0.1451    0.5972   -2.1823 C   0  0  0  0  0  0  0  0  0  0  0  0
   -1.3004    0.7463   -1.2927 N   0  0  0  0  0  0  0  0  0  0  0  0
   -1.5877   -0.3182   -0.4396 C   0  0  0  0  0  0  0  0  0  0  0  0
   -0.9819   -1.3948   -0.5118 O   0  0  0  0  0  0  0  0  0  0  0  0
   -2.5856   -0.0669    0.6707 C   0  0  0  0  0  0  0  0  0  0  0  0
   -4.0333   -0.2855    0.2614 C   0  0  0  0  0  0  0  0  0  0  0  0
   -4.4497   -1.7161    0.4028 C   0  0  0  0  0  0  0  0  0  0  0  0
   -3.9269   -2.9228   -0.0205 C   0  0  0  0  0  0  0  0  0  0  0  0
   -4.7904   -3.9310    0.4725 C   0  0  0  0  0  0  0  0  0  0  0  0
   -5.7886   -3.2811    1.1573 C   0  0  0  0  0  0  0  0  0  0  0  0
   -5.5888   -1.9394    1.1253 O   0  0  0  0  0  0  0  0  0  0  0  0
   -4.4529    0.3067   -1.4175 S   0  0  0  0  0  0  0  0  0  0  0  0
   -3.5317    1.8432   -1.4383 C   0  0  0  0  0  0  0  0  0  0  0  0
   -4.2841    3.0152   -1.5938 C   0  0  0  0  0  0  0  0  0  0  0  0
   -3.6555    4.2513   -1.7298 C   0  0  0  0  0  0  0  0  0  0  0  0
   -2.2701    4.3256   -1.7296 C   0  0  0  0  0  0  0  0  0  0  0  0
   -1.5085    3.1647   -1.5902 C   0  0  0  0  0  0  0  0  0  0  0  0
   -2.1212    1.9100   -1.4318 C   0  0  0  0  0  0  0  0  0  0  0  0
    1.5887   -0.4426   -0.8374 N   0  0  0  0  0  0  0  0  0  0  0  0
    2.7506   -0.6868   -0.0831 C   0  0  0  0  0  0  0  0  0  0  0  0
    2.9822   -2.0161    0.3066 C   0  0  0  0  0  0  0  0  0  0  0  0
    4.1275   -2.3588    1.0298 C   0  0  0  0  0  0  0  0  0  0  0  0
    5.0389   -1.3689    1.3871 C   0  0  0  0  0  0  0  0  0  0  0  0
    4.7866   -0.0340    1.0499 C   0  0  0  0  0  0  0  0  0  0  0  0
    3.6625    0.3024    0.2930 C   0  0  0  0  0  0  0  0  0  0  0  0
    5.6052    1.0009    1.4341 O   0  0  0  0  0  0  0  0  0  0  0  0
    6.4980    0.5945    2.4778 C   0  0  0  0  0  0  0  0  0  0  0  0
    7.1401   -0.7403    2.1320 C   0  0  0  0  0  0  0  0  0  0  0  0
    6.1510   -1.7780    2.0806 O   0  0  0  0  0  0  0  0  0  0  0  0
   -0.1763   -0.3906   -2.6570 H   0  0  0  0  0  0  0  0  0  0  0  0
   -0.1664    1.3281   -2.9982 H   0  0  0  0  0  0  0  0  0  0  0  0
   -2.3103   -0.7013    1.5226 H   0  0  0  0  0  0  0  0  0  0  0  0
   -2.4450    0.9576    1.0400 H   0  0  0  0  0  0  0  0  0  0  0  0
   -4.6511    0.3041    0.9523 H   0  0  0  0  0  0  0  0  0  0  0  0
   -3.0290   -3.0637   -0.6055 H   0  0  0  0  0  0  0  0  0  0  0  0
   -4.6948   -5.0013    0.3450 H   0  0  0  0  0  0  0  0  0  0  0  0
   -6.6611   -3.6086    1.7042 H   0  0  0  0  0  0  0  0  0  0  0  0
   -5.3712    2.9765   -1.6269 H   0  0  0  0  0  0  0  0  0  0  0  0
   -4.2533    5.1518   -1.8405 H   0  0  0  0  0  0  0  0  0  0  0  0
   -1.7806    5.2908   -1.8257 H   0  0  0  0  0  0  0  0  0  0  0  0
   -0.4277    3.2696   -1.5724 H   0  0  0  0  0  0  0  0  0  0  0  0
    0.9257   -1.2172   -0.9002 H   0  0  0  0  0  0  0  0  0  0  0  0
    2.2848   -2.8065    0.0323 H   0  0  0  0  0  0  0  0  0  0  0  0
    4.3113   -3.3978    1.3050 H   0  0  0  0  0  0  0  0  0  0  0  0
    3.5083    1.3463    0.0447 H   0  0  0  0  0  0  0  0  0  0  0  0
    7.2641    1.3715    2.5805 H   0  0  0  0  0  0  0  0  0  0  0  0
    5.9377    0.5378    3.4221 H   0  0  0  0  0  0  0  0  0  0  0  0
    7.8690   -1.0203    2.8995 H   0  0  0  0  0  0  0  0  0  0  0  0
    7.6570   -0.6999    1.1620 H   0  0  0  0  0  0  0  0  0  0  0  0
  1  2  2  0
  2  3  1  0
  3  4  1  0
  4  5  1  0
  5  6  2  0
  5  7  1  0
  7  8  1  0
  8  9  1  0
  9 10  2  0
 10 11  1  0
 11 12  2  0
 12 13  1  0
  8 14  1  0
 14 15  1  0
 15 16  2  0
 16 17  1  0
 17 18  2  0
 18 19  1  0
 19 20  2  0
  2 21  1  0
 21 22  1  0
 22 23  2  0
 23 24  1  0
 24 25  2  0
 25 26  1  0
 26 27  2  0
 26 28  1  0
 28 29  1  0
 29 30  1  0
 30 31  1  0
 20  4  1  0
 27 22  1  0
 13  9  1  0
 20 15  1  0
 31 25  1  0
  3 32  1  0
  3 33  1  0
  7 34  1  0
  7 35  1  0
  8 36  1  0
 10 37  1  0
 11 38  1  0
 12 39  1  0
 16 40  1  0
 17 41  1  0
 18 42  1  0
 19 43  1  0
 21 44  1  0
 23 45  1  0
 24 46  1  0
 27 47  1  0
 29 48  1  0
 29 49  1  0
 30 50  1  0
 30 51  1  0
M  END
$$$$
