
     RDKit          3D

 54 57  0  0  0  0  0  0  0  0999 V2000
   -5.7771   -0.1530   -2.6842 C   0  0  0  0  0  0  0  0  0  0  0  0
   -5.6376    1.0373   -1.9206 O   0  0  0  0  0  0  0  0  0  0  0  0
   -4.4925    1.1776   -1.1796 C   0  0  0  0  0  0  0  0  0  0  0  0
   -3.3754    0.3424   -1.2704 C   0  0  0  0  0  0  0  0  0  0  0  0
   -2.2276    0.5469   -0.4756 C   0  0  0  0  0  0  0  0  0  0  0  0
   -1.0635   -0.3587   -0.6030 C   0  0  0  0  0  0  0  0  0  0  0  0
    0.2410    0.0431   -0.3779 C   0  0  0  0  0  0  0  0  0  0  0  0
    1.2625   -0.8987   -0.5149 C   0  0  0  0  0  0  0  0  0  0  0  0
    2.6295   -0.4270   -0.1947 C   0  0  0  0  0  0  0  0  0  0  0  0
    3.0579    0.5433   -0.8037 O   0  0  0  0  0  0  0  0  0  0  0  0
    3.2396   -1.1281    0.8275 N   0  0  0  0  0  0  0  0  0  0  0  0
    4.5319   -0.9233    1.3523 C   0  0  0  0  0  0  0  0  0  0  0  0
    4.9257   -1.7422    2.4207 C   0  0  0  0  0  0  0  0  0  0  0  0
    6.1931   -1.6082    2.9965 C   0  0  0  0  0  0  0  0  0  0  0  0
    7.0693   -0.6519    2.4991 C   0  0  0  0  0  0  0  0  0  0  0  0
    8.3143   -0.4835    3.0263 O   0  0  0  0  0  0  0  0  0  0  0  0
    6.6965    0.1658    1.4408 C   0  0  0  0  0  0  0  0  0  0  0  0
    5.4284    0.0304    0.8665 C   0  0  0  0  0  0  0  0  0  0  0  0
    0.9919   -2.2205   -0.9272 C   0  0  0  0  0  0  0  0  0  0  0  0
    1.9704   -3.2202   -1.1681 C   0  0  0  0  0  0  0  0  0  0  0  0
    1.6031   -4.5045   -1.5643 C   0  0  0  0  0  0  0  0  0  0  0  0
    0.2603   -4.8072   -1.7343 C   0  0  0  0  0  0  0  0  0  0  0  0
   -0.7038   -3.8199   -1.5189 C   0  0  0  0  0  0  0  0  0  0  0  0
   -0.3640   -2.5315   -1.1280 C   0  0  0  0  0  0  0  0  0  0  0  0
   -1.3515   -1.6350   -0.9619 N   0  0  0  0  0  0  0  0  0  0  0  0
   -2.2416    1.6228    0.4360 C   0  0  0  0  0  0  0  0  0  0  0  0
   -3.3447    2.4772    0.5424 C   0  0  0  0  0  0  0  0  0  0  0  0
   -3.4305    3.5445    1.3990 O   0  0  0  0  0  0  0  0  0  0  0  0
   -2.3805    3.7242    2.3383 C   0  0  0  0  0  0  0  0  0  0  0  0
   -4.4561    2.2570   -0.2854 C   0  0  0  0  0  0  0  0  0  0  0  0
   -5.5621    3.0691   -0.1572 O   0  0  0  0  0  0  0  0  0  0  0  0
   -5.4717    4.1548   -1.0780 C   0  0  0  0  0  0  0  0  0  0  0  0
   -5.0529   -0.1790   -3.5048 H   0  0  0  0  0  0  0  0  0  0  0  0
   -6.7784   -0.1509   -3.1258 H   0  0  0  0  0  0  0  0  0  0  0  0
   -5.6942   -1.0443   -2.0533 H   0  0  0  0  0  0  0  0  0  0  0  0
   -3.3657   -0.4899   -1.9697 H   0  0  0  0  0  0  0  0  0  0  0  0
    0.4841    1.0664   -0.1094 H   0  0  0  0  0  0  0  0  0  0  0  0
    2.6938   -1.8585    1.2696 H   0  0  0  0  0  0  0  0  0  0  0  0
    4.2521   -2.4953    2.8215 H   0  0  0  0  0  0  0  0  0  0  0  0
    6.4737   -2.2534    3.8228 H   0  0  0  0  0  0  0  0  0  0  0  0
    8.4316   -1.1088    3.7595 H   0  0  0  0  0  0  0  0  0  0  0  0
    7.3886    0.9109    1.0578 H   0  0  0  0  0  0  0  0  0  0  0  0
    5.1755    0.6860    0.0391 H   0  0  0  0  0  0  0  0  0  0  0  0
    3.0323   -2.9998   -1.0709 H   0  0  0  0  0  0  0  0  0  0  0  0
    2.3632   -5.2598   -1.7490 H   0  0  0  0  0  0  0  0  0  0  0  0
   -0.0432   -5.8034   -2.0464 H   0  0  0  0  0  0  0  0  0  0  0  0
   -1.7542   -4.0623   -1.6679 H   0  0  0  0  0  0  0  0  0  0  0  0
   -1.3787    1.7754    1.0754 H   0  0  0  0  0  0  0  0  0  0  0  0
   -1.4387    3.9631    1.8338 H   0  0  0  0  0  0  0  0  0  0  0  0
   -2.2722    2.8478    2.9860 H   0  0  0  0  0  0  0  0  0  0  0  0
   -2.6419    4.5762    2.9733 H   0  0  0  0  0  0  0  0  0  0  0  0
   -4.5835    4.7677   -0.8879 H   0  0  0  0  0  0  0  0  0  0  0  0
   -5.4731    3.8012   -2.1149 H   0  0  0  0  0  0  0  0  0  0  0  0
   -6.3536    4.7870   -0.9368 H   0  0  0  0  0  0  0  0  0  0  0  0
  1  2  1  0
  2  3  1  0
  3  4  2  0
  4  5  1  0
  5  6  1  0
  6  7  2  0
  7  8  1  0
  8  9  1  0
  9 10  2  0
  9 11  1  0
 11 12  1  0
 12 13  2  0
 13 14  1  0
 14 15  2  0
 15 16  1  0
 15 17  1  0
 17 18  2  0
  8 19  2  0
 19 20  1  0
 20 21  2  0
 21 22  1  0
 22 23  2  0
 23 24  1  0
 24 25  2  0
  5 26  2  0
 26 27  1  0
 27 28  1  0
 28 29  1  0
 27 30  2  0
 30 31  1  0
 31 32  1  0
 30  3  1  0
 25  6  1  0
 18 12  1  0
 24 19  1  0
  1 33  1  0
  1 34  1  0
  1 35  1  0
  4 36  1  0
  7 37  1  0
 11 38  1  0
 13 39  1  0
 14 40  1  0
 16 41  1  0
 17 42  1  0
 18 43  1  0
 20 44  1  0
 21 45  1  0
 22 46  1  0
 23 47  1  0
 26 48  1  0
 29 49  1  0
 29 50  1  0
 29 51  1  0
 32 52  1  0
 32 53  1  0
 32 54  1  0
M  END
$$$$
