
     RDKit          3D

 59 62  0  0  0  0  0  0  0  0999 V2000
   -7.1450    3.8317   -2.4583 C   0  0  0  0  0  0  0  0  0  0  0  0
   -6.8025    3.2965   -1.1841 O   0  0  0  0  0  0  0  0  0  0  0  0
   -5.6585    2.5498   -1.1199 C   0  0  0  0  0  0  0  0  0  0  0  0
   -5.2345    2.2335    0.1728 C   0  0  0  0  0  0  0  0  0  0  0  0
   -4.0750    1.4779    0.3815 C   0  0  0  0  0  0  0  0  0  0  0  0
   -3.3320    1.0155   -0.7090 C   0  0  0  0  0  0  0  0  0  0  0  0
   -2.1195    0.2277   -0.5210 C   0  0  0  0  0  0  0  0  0  0  0  0
   -0.8243    0.5035   -0.9170 C   0  0  0  0  0  0  0  0  0  0  0  0
    0.0259   -0.5215   -0.6066 N   0  0  0  0  0  0  0  0  0  0  0  0
   -0.7265   -1.4267   -0.0342 C   0  0  0  0  0  0  0  0  0  0  0  0
   -0.1102   -2.9398    0.5365 S   0  0  0  0  0  0  0  0  0  0  0  0
    0.5437   -3.6209   -1.0139 C   0  0  0  0  0  0  0  0  0  0  0  0
    1.7316   -2.8835   -1.6200 C   0  0  0  0  0  0  0  0  0  0  0  0
    1.9350   -2.9964   -2.8289 O   0  0  0  0  0  0  0  0  0  0  0  0
    2.5403   -2.2419   -0.7157 N   0  0  0  0  0  0  0  0  0  0  0  0
    3.6660   -1.5057   -0.9729 C   0  0  0  0  0  0  0  0  0  0  0  0
    4.3232   -0.9131   -0.0012 N   0  0  0  0  0  0  0  0  0  0  0  0
    5.4203   -0.2262   -0.5088 C   0  0  0  0  0  0  0  0  0  0  0  0
    6.3326    0.5387    0.4406 C   0  0  0  0  0  0  0  0  0  0  0  0
    7.7852    0.0361    0.3020 C   0  0  0  0  0  0  0  0  0  0  0  0
    5.9047    0.3494    1.9108 C   0  0  0  0  0  0  0  0  0  0  0  0
    6.2864    2.0464    0.1181 C   0  0  0  0  0  0  0  0  0  0  0  0
    5.5537   -0.3214   -1.8860 C   0  0  0  0  0  0  0  0  0  0  0  0
    4.3088   -1.2957   -2.5355 S   0  0  0  0  0  0  0  0  0  0  0  0
   -2.0366   -1.0290    0.0603 N   0  0  0  0  0  0  0  0  0  0  0  0
   -3.1531   -1.8195    0.5583 C   0  0  0  0  0  0  0  0  0  0  0  0
   -3.3829   -1.6185    2.0118 C   0  0  0  0  0  0  0  0  0  0  0  0
   -2.5830   -1.2868    3.0911 C   0  0  0  0  0  0  0  0  0  0  0  0
   -3.4272   -1.2714    4.2287 C   0  0  0  0  0  0  0  0  0  0  0  0
   -4.6833   -1.6018    3.7796 C   0  0  0  0  0  0  0  0  0  0  0  0
   -4.6662   -1.8135    2.4377 O   0  0  0  0  0  0  0  0  0  0  0  0
   -3.7602    1.3307   -2.0050 C   0  0  0  0  0  0  0  0  0  0  0  0
   -4.9176    2.0924   -2.2112 C   0  0  0  0  0  0  0  0  0  0  0  0
   -7.4031    3.0352   -3.1644 H   0  0  0  0  0  0  0  0  0  0  0  0
   -8.0331    4.4625   -2.3310 H   0  0  0  0  0  0  0  0  0  0  0  0
   -6.3390    4.4634   -2.8472 H   0  0  0  0  0  0  0  0  0  0  0  0
   -5.8053    2.5855    1.0305 H   0  0  0  0  0  0  0  0  0  0  0  0
   -3.7592    1.2714    1.4012 H   0  0  0  0  0  0  0  0  0  0  0  0
   -0.4671    1.3937   -1.4184 H   0  0  0  0  0  0  0  0  0  0  0  0
    0.8591   -4.6517   -0.8253 H   0  0  0  0  0  0  0  0  0  0  0  0
   -0.2646   -3.6429   -1.7536 H   0  0  0  0  0  0  0  0  0  0  0  0
    2.2258   -2.1662    0.2454 H   0  0  0  0  0  0  0  0  0  0  0  0
    8.1759    0.2055   -0.7076 H   0  0  0  0  0  0  0  0  0  0  0  0
    7.8525   -1.0421    0.5030 H   0  0  0  0  0  0  0  0  0  0  0  0
    8.4526    0.5494    1.0062 H   0  0  0  0  0  0  0  0  0  0  0  0
    6.5758    0.8862    2.5911 H   0  0  0  0  0  0  0  0  0  0  0  0
    4.8900    0.7264    2.0831 H   0  0  0  0  0  0  0  0  0  0  0  0
    5.9204   -0.7094    2.1999 H   0  0  0  0  0  0  0  0  0  0  0  0
    6.6370    2.2519   -0.8989 H   0  0  0  0  0  0  0  0  0  0  0  0
    6.9192    2.6181    0.8062 H   0  0  0  0  0  0  0  0  0  0  0  0
    5.2645    2.4371    0.1953 H   0  0  0  0  0  0  0  0  0  0  0  0
    6.3074    0.1183   -2.5238 H   0  0  0  0  0  0  0  0  0  0  0  0
   -4.0426   -1.5470   -0.0184 H   0  0  0  0  0  0  0  0  0  0  0  0
   -2.9601   -2.8739    0.3450 H   0  0  0  0  0  0  0  0  0  0  0  0
   -1.5203   -1.0793    3.0645 H   0  0  0  0  0  0  0  0  0  0  0  0
   -3.1498   -1.0519    5.2509 H   0  0  0  0  0  0  0  0  0  0  0  0
   -5.6446   -1.7216    4.2616 H   0  0  0  0  0  0  0  0  0  0  0  0
   -3.1974    0.9831   -2.8707 H   0  0  0  0  0  0  0  0  0  0  0  0
   -5.2132    2.3016   -3.2349 H   0  0  0  0  0  0  0  0  0  0  0  0
  1  2  1  0
  2  3  1  0
  3  4  2  0
  4  5  1  0
  5  6  2  0
  6  7  1  0
  7  8  2  0
  8  9  1  0
  9 10  2  0
 10 11  1  0
 11 12  1  0
 12 13  1  0
 13 14  2  0
 13 15  1  0
 15 16  1  0
 16 17  2  0
 17 18  1  0
 18 19  1  0
 19 20  1  0
 19 21  1  0
 19 22  1  0
 18 23  2  0
 23 24  1  0
 10 25  1  0
 25 26  1  0
 26 27  1  0
 27 28  2  0
 28 29  1  0
 29 30  2  0
 30 31  1  0
  6 32  1  0
 32 33  2  0
 33  3  1  0
 25  7  1  0
 31 27  1  0
 24 16  1  0
  1 34  1  0
  1 35  1  0
  1 36  1  0
  4 37  1  0
  5 38  1  0
  8 39  1  0
 12 40  1  0
 12 41  1  0
 15 42  1  0
 20 43  1  0
 20 44  1  0
 20 45  1  0
 21 46  1  0
 21 47  1  0
 21 48  1  0
 22 49  1  0
 22 50  1  0
 22 51  1  0
 23 52  1  0
 26 53  1  0
 26 54  1  0
 28 55  1  0
 29 56  1  0
 30 57  1  0
 32 58  1  0
 33 59  1  0
M  END
$$$$
