
     RDKit          3D

 25 26  0  0  0  0  0  0  0  0999 V2000
   -4.7188    0.9291   -0.1092 O   0  0  0  0  0  0  0  0  0  0  0  0
   -3.5441    0.6226   -0.2196 C   0  0  0  0  0  0  0  0  0  0  0  0
   -2.9493   -0.2791   -1.2590 C   0  0  0  0  0  0  0  0  0  0  0  0
   -1.5410   -0.5094   -0.7210 C   0  0  0  0  0  0  0  0  0  0  0  0
   -1.2546    0.6959    0.0767 N   0  0  0  0  0  0  0  0  0  0  0  0
   -0.2941    0.4303    1.1608 C   0  0  0  0  0  0  0  0  0  0  0  0
    1.0949    0.1059    0.6509 C   0  0  0  0  0  0  0  0  0  0  0  0
    1.8169    1.0521   -0.0943 C   0  0  0  0  0  0  0  0  0  0  0  0
    3.0981    0.7573   -0.5652 C   0  0  0  0  0  0  0  0  0  0  0  0
    3.6658   -0.4847   -0.2921 C   0  0  0  0  0  0  0  0  0  0  0  0
    5.2440   -0.8499   -0.8722 Cl  0  0  0  0  0  0  0  0  0  0  0  0
    2.9638   -1.4342    0.4475 C   0  0  0  0  0  0  0  0  0  0  0  0
    1.6817   -1.1400    0.9185 C   0  0  0  0  0  0  0  0  0  0  0  0
   -2.5065    1.0837    0.5643 N   0  0  0  0  0  0  0  0  0  0  0  0
   -2.9362    0.2475   -2.2182 H   0  0  0  0  0  0  0  0  0  0  0  0
   -3.5136   -1.2114   -1.3356 H   0  0  0  0  0  0  0  0  0  0  0  0
   -1.5435   -1.4161   -0.1011 H   0  0  0  0  0  0  0  0  0  0  0  0
   -0.8199   -0.6464   -1.5330 H   0  0  0  0  0  0  0  0  0  0  0  0
   -0.6585   -0.3699    1.8192 H   0  0  0  0  0  0  0  0  0  0  0  0
   -0.2044    1.3241    1.7931 H   0  0  0  0  0  0  0  0  0  0  0  0
    1.3763    2.0226   -0.3159 H   0  0  0  0  0  0  0  0  0  0  0  0
    3.6436    1.4982   -1.1433 H   0  0  0  0  0  0  0  0  0  0  0  0
    3.4079   -2.4029    0.6605 H   0  0  0  0  0  0  0  0  0  0  0  0
    1.1453   -1.8911    1.4945 H   0  0  0  0  0  0  0  0  0  0  0  0
   -2.6537    1.8660    1.1938 H   0  0  0  0  0  0  0  0  0  0  0  0
  1  2  2  0
  2  3  1  0
  3  4  1  0
  4  5  1  0
  5  6  1  0
  6  7  1  0
  7  8  2  0
  8  9  1  0
  9 10  2  0
 10 11  1  0
 10 12  1  0
 12 13  2  0
  5 14  1  0
 14  2  1  0
 13  7  1  0
  3 15  1  0
  3 16  1  0
  4 17  1  0
  4 18  1  0
  6 19  1  0
  6 20  1  0
  8 21  1  0
  9 22  1  0
 12 23  1  0
 13 24  1  0
 14 25  1  0
M  END
$$$$
