
     RDKit          3D

 29 30  0  0  0  0  0  0  0  0999 V2000
   -3.2998   -0.3846    1.1715 C   0  0  0  0  0  0  0  0  0  0  0  0
   -2.2219   -0.1226    0.1579 C   0  0  0  0  0  0  0  0  0  0  0  0
   -1.0763   -0.8195    0.0169 C   0  0  0  0  0  0  0  0  0  0  0  0
   -0.7276   -2.0484    0.8152 C   0  0  0  0  0  0  0  0  0  0  0  0
   -0.0302   -0.4131   -1.0048 C   0  0  0  0  0  0  0  0  0  0  0  0
    1.2808    0.0347   -0.3779 C   0  0  0  0  0  0  0  0  0  0  0  0
    1.3510    1.1956    0.4108 C   0  0  0  0  0  0  0  0  0  0  0  0
    2.5589    1.5962    0.9838 C   0  0  0  0  0  0  0  0  0  0  0  0
    3.7122    0.8427    0.7774 C   0  0  0  0  0  0  0  0  0  0  0  0
    3.6596   -0.3112   -0.0018 C   0  0  0  0  0  0  0  0  0  0  0  0
    2.4524   -0.7138   -0.5766 C   0  0  0  0  0  0  0  0  0  0  0  0
   -0.5251    0.6085   -1.9040 N   0  0  0  0  0  0  0  0  0  0  0  0
   -1.6470    1.3332   -1.6944 C   0  0  0  0  0  0  0  0  0  0  0  0
   -2.0329    2.6262   -2.6640 S   0  0  0  0  0  0  0  0  0  0  0  0
   -2.4531    0.9500   -0.6710 N   0  0  0  0  0  0  0  0  0  0  0  0
   -4.1620   -0.8584    0.6913 H   0  0  0  0  0  0  0  0  0  0  0  0
   -3.6347    0.5553    1.6251 H   0  0  0  0  0  0  0  0  0  0  0  0
   -2.9690   -1.0220    1.9951 H   0  0  0  0  0  0  0  0  0  0  0  0
   -0.3212   -2.8252    0.1580 H   0  0  0  0  0  0  0  0  0  0  0  0
    0.0234   -1.8121    1.5754 H   0  0  0  0  0  0  0  0  0  0  0  0
   -1.5908   -2.4944    1.3154 H   0  0  0  0  0  0  0  0  0  0  0  0
    0.1615   -1.2751   -1.6570 H   0  0  0  0  0  0  0  0  0  0  0  0
    0.4582    1.7950    0.5797 H   0  0  0  0  0  0  0  0  0  0  0  0
    2.5982    2.4976    1.5898 H   0  0  0  0  0  0  0  0  0  0  0  0
    4.6526    1.1560    1.2233 H   0  0  0  0  0  0  0  0  0  0  0  0
    4.5605   -0.8978   -0.1629 H   0  0  0  0  0  0  0  0  0  0  0  0
    2.4338   -1.6177   -1.1815 H   0  0  0  0  0  0  0  0  0  0  0  0
    0.0935    0.9357   -2.6335 H   0  0  0  0  0  0  0  0  0  0  0  0
   -3.3049    1.4893   -0.5569 H   0  0  0  0  0  0  0  0  0  0  0  0
  1  2  1  0
  2  3  2  0
  3  4  1  0
  3  5  1  0
  5  6  1  0
  6  7  2  0
  7  8  1  0
  8  9  2  0
  9 10  1  0
 10 11  2  0
  5 12  1  0
 12 13  1  0
 13 14  2  0
 13 15  1  0
 15  2  1  0
 11  6  1  0
  1 16  1  0
  1 17  1  0
  1 18  1  0
  4 19  1  0
  4 20  1  0
  4 21  1  0
  5 22  1  0
  7 23  1  0
  8 24  1  0
  9 25  1  0
 10 26  1  0
 11 27  1  0
 12 28  1  0
 15 29  1  0
M  END
$$$$
