
     RDKit          3D

 53 55  0  0  0  0  0  0  0  0999 V2000
   -6.6232   -0.2378   -2.1300 C   0  0  0  0  0  0  0  0  0  0  0  0
   -5.8495   -1.1320   -1.3401 O   0  0  0  0  0  0  0  0  0  0  0  0
   -5.7637   -0.8734    0.0034 C   0  0  0  0  0  0  0  0  0  0  0  0
   -6.3827    0.2028    0.6486 C   0  0  0  0  0  0  0  0  0  0  0  0
   -6.2214    0.3942    2.0235 C   0  0  0  0  0  0  0  0  0  0  0  0
   -5.4371   -0.4835    2.7647 C   0  0  0  0  0  0  0  0  0  0  0  0
   -4.8181   -1.5596    2.1331 C   0  0  0  0  0  0  0  0  0  0  0  0
   -4.9834   -1.7736    0.7534 C   0  0  0  0  0  0  0  0  0  0  0  0
   -4.2796   -2.9396    0.1038 C   0  0  0  0  0  0  0  0  0  0  0  0
   -2.9976   -2.5435   -0.4201 N   0  0  0  0  0  0  0  0  0  0  0  0
   -1.8368   -2.6621    0.3028 C   0  0  0  0  0  0  0  0  0  0  0  0
   -1.7007   -3.2366    1.3749 O   0  0  0  0  0  0  0  0  0  0  0  0
   -0.6223   -1.9704   -0.3585 C   0  0  0  0  0  0  0  0  0  0  0  0
   -0.7626   -1.3299   -1.3910 O   0  0  0  0  0  0  0  0  0  0  0  0
    0.5560   -2.1650    0.3272 N   0  0  0  0  0  0  0  0  0  0  0  0
    1.7735   -1.4450   -0.0066 C   0  0  0  0  0  0  0  0  0  0  0  0
    1.9141   -0.0994    0.7586 C   0  0  0  0  0  0  0  0  0  0  0  0
    0.7684    0.7394    0.5222 O   0  0  0  0  0  0  0  0  0  0  0  0
    1.0743    1.4909   -0.6557 C   0  0  0  0  0  0  0  0  0  0  0  0
    2.5623    1.7638   -0.5624 C   0  0  0  0  0  0  0  0  0  0  0  0
    3.0624    0.7348    0.3636 N   0  0  0  0  0  0  0  0  0  0  0  0
    4.5193   -0.0199    0.0490 S   0  0  0  0  0  6  0  0  0  0  0  0
    4.4707   -0.5123   -1.3106 O   0  0  0  0  0  0  0  0  0  0  0  0
    4.8100   -0.9043    1.1560 O   0  0  0  0  0  0  0  0  0  0  0  0
    5.6721    1.3277    0.1212 C   0  0  0  0  0  0  0  0  0  0  0  0
    5.9402    1.9243    1.3580 C   0  0  0  0  0  0  0  0  0  0  0  0
    6.8482    2.9821    1.4285 C   0  0  0  0  0  0  0  0  0  0  0  0
    7.4820    3.4284    0.2678 C   0  0  0  0  0  0  0  0  0  0  0  0
    8.7110    4.8617    0.3654 Br  0  0  0  0  0  0  0  0  0  0  0  0
    7.2201    2.8263   -0.9646 C   0  0  0  0  0  0  0  0  0  0  0  0
    6.3128    1.7677   -1.0409 C   0  0  0  0  0  0  0  0  0  0  0  0
   -7.6729   -0.2435   -1.8189 H   0  0  0  0  0  0  0  0  0  0  0  0
   -6.5821   -0.5873   -3.1661 H   0  0  0  0  0  0  0  0  0  0  0  0
   -6.2061    0.7742   -2.1041 H   0  0  0  0  0  0  0  0  0  0  0  0
   -6.9964    0.9171    0.1103 H   0  0  0  0  0  0  0  0  0  0  0  0
   -6.7044    1.2353    2.5143 H   0  0  0  0  0  0  0  0  0  0  0  0
   -5.3029   -0.3292    3.8321 H   0  0  0  0  0  0  0  0  0  0  0  0
   -4.1953   -2.2346    2.7186 H   0  0  0  0  0  0  0  0  0  0  0  0
   -4.1512   -3.7555    0.8249 H   0  0  0  0  0  0  0  0  0  0  0  0
   -4.8709   -3.3446   -0.7242 H   0  0  0  0  0  0  0  0  0  0  0  0
   -2.9731   -1.9180   -1.2202 H   0  0  0  0  0  0  0  0  0  0  0  0
    0.4775   -2.6551    1.2153 H   0  0  0  0  0  0  0  0  0  0  0  0
    2.6002   -2.1188    0.2353 H   0  0  0  0  0  0  0  0  0  0  0  0
    1.7806   -1.2741   -1.0887 H   0  0  0  0  0  0  0  0  0  0  0  0
    1.9512   -0.2907    1.8364 H   0  0  0  0  0  0  0  0  0  0  0  0
    0.8302    0.8925   -1.5393 H   0  0  0  0  0  0  0  0  0  0  0  0
    0.4783    2.4072   -0.6814 H   0  0  0  0  0  0  0  0  0  0  0  0
    2.7453    2.7464   -0.1149 H   0  0  0  0  0  0  0  0  0  0  0  0
    3.0288    1.7413   -1.5506 H   0  0  0  0  0  0  0  0  0  0  0  0
    5.4484    1.5692    2.2615 H   0  0  0  0  0  0  0  0  0  0  0  0
    7.0572    3.4473    2.3888 H   0  0  0  0  0  0  0  0  0  0  0  0
    7.7208    3.1704   -1.8664 H   0  0  0  0  0  0  0  0  0  0  0  0
    6.1178    1.2945   -2.0010 H   0  0  0  0  0  0  0  0  0  0  0  0
  1  2  1  0
  2  3  1  0
  3  4  2  0
  4  5  1  0
  5  6  2  0
  6  7  1  0
  7  8  2  0
  8  9  1  0
  9 10  1  0
 10 11  1  0
 11 12  2  0
 11 13  1  0
 13 14  2  0
 13 15  1  0
 15 16  1  0
 16 17  1  0
 17 18  1  0
 18 19  1  0
 19 20  1  0
 20 21  1  0
 21 22  1  0
 22 23  2  0
 22 24  2  0
 22 25  1  0
 25 26  2  0
 26 27  1  0
 27 28  2  0
 28 29  1  0
 28 30  1  0
 30 31  2  0
  8  3  1  0
 21 17  1  0
 31 25  1  0
  1 32  1  0
  1 33  1  0
  1 34  1  0
  4 35  1  0
  5 36  1  0
  6 37  1  0
  7 38  1  0
  9 39  1  0
  9 40  1  0
 10 41  1  0
 15 42  1  0
 16 43  1  0
 16 44  1  0
 17 45  1  0
 19 46  1  0
 19 47  1  0
 20 48  1  0
 20 49  1  0
 26 50  1  0
 27 51  1  0
 30 52  1  0
 31 53  1  0
M  END
$$$$
