
     RDKit          3D

 39 40  0  0  0  0  0  0  0  0999 V2000
   -1.3309   -0.4106    2.3518 O   0  0  0  0  0  0  0  0  0  0  0  0
   -1.1190   -1.2293    1.4591 C   0  0  0  0  0  0  0  0  0  0  0  0
   -2.1887   -2.1631    1.0263 C   0  0  0  0  0  0  0  0  0  0  0  0
   -3.2235   -1.7791    0.2650 C   0  0  0  0  0  0  0  0  0  0  0  0
   -3.4447   -0.4264   -0.2514 C   0  0  0  0  0  0  0  0  0  0  0  0
   -3.3215   -0.1873   -1.6248 C   0  0  0  0  0  0  0  0  0  0  0  0
   -3.5283    1.0954   -2.1360 C   0  0  0  0  0  0  0  0  0  0  0  0
   -3.8606    2.1344   -1.2751 C   0  0  0  0  0  0  0  0  0  0  0  0
   -4.0463    3.3726   -1.8144 O   0  0  0  0  0  0  0  0  0  0  0  0
   -3.9918    1.9135    0.0916 C   0  0  0  0  0  0  0  0  0  0  0  0
   -3.7849    0.6295    0.6020 C   0  0  0  0  0  0  0  0  0  0  0  0
    0.2164   -1.3539    0.7834 C   0  0  0  0  0  0  0  0  0  0  0  0
    0.2071   -0.7675   -0.6022 C   0  0  0  0  0  0  0  0  0  0  0  0
   -0.0669   -1.4397   -1.5960 O   0  0  0  0  0  0  0  0  0  0  0  0
    0.4454    0.6890   -0.7562 C   0  0  0  0  0  0  0  0  0  0  0  0
    1.6274    1.2810   -0.5277 C   0  0  0  0  0  0  0  0  0  0  0  0
    2.8629    0.6037   -0.1246 C   0  0  0  0  0  0  0  0  0  0  0  0
    3.4297   -0.4050   -0.9163 C   0  0  0  0  0  0  0  0  0  0  0  0
    4.6082   -1.0397   -0.5164 C   0  0  0  0  0  0  0  0  0  0  0  0
    5.2206   -0.6567    0.6721 C   0  0  0  0  0  0  0  0  0  0  0  0
    6.3716   -1.2488    1.1008 O   0  0  0  0  0  0  0  0  0  0  0  0
    4.6765    0.3488    1.4628 C   0  0  0  0  0  0  0  0  0  0  0  0
    3.5001    0.9845    1.0617 C   0  0  0  0  0  0  0  0  0  0  0  0
   -2.0688   -3.1957    1.3318 H   0  0  0  0  0  0  0  0  0  0  0  0
   -3.9561   -2.5177   -0.0523 H   0  0  0  0  0  0  0  0  0  0  0  0
   -3.0468   -0.9916   -2.3039 H   0  0  0  0  0  0  0  0  0  0  0  0
   -3.4270    1.2816   -3.2013 H   0  0  0  0  0  0  0  0  0  0  0  0
   -4.2954    3.9856   -1.1026 H   0  0  0  0  0  0  0  0  0  0  0  0
   -4.2511    2.7169    0.7726 H   0  0  0  0  0  0  0  0  0  0  0  0
   -3.8805    0.4604    1.6730 H   0  0  0  0  0  0  0  0  0  0  0  0
    0.5063   -2.4087    0.7238 H   0  0  0  0  0  0  0  0  0  0  0  0
    0.9724   -0.8721    1.4106 H   0  0  0  0  0  0  0  0  0  0  0  0
   -0.4079    1.2592   -1.1096 H   0  0  0  0  0  0  0  0  0  0  0  0
    1.7112    2.3583   -0.6582 H   0  0  0  0  0  0  0  0  0  0  0  0
    2.9589   -0.7018   -1.8524 H   0  0  0  0  0  0  0  0  0  0  0  0
    5.0288   -1.8199   -1.1432 H   0  0  0  0  0  0  0  0  0  0  0  0
    6.6489   -1.9041    0.4388 H   0  0  0  0  0  0  0  0  0  0  0  0
    5.1674    0.6381    2.3880 H   0  0  0  0  0  0  0  0  0  0  0  0
    3.0807    1.7662    1.6918 H   0  0  0  0  0  0  0  0  0  0  0  0
  1  2  2  0
  2  3  1  0
  3  4  2  3
  4  5  1  0
  5  6  2  0
  6  7  1  0
  7  8  2  0
  8  9  1  0
  8 10  1  0
 10 11  2  0
  2 12  1  0
 12 13  1  0
 13 14  2  0
 13 15  1  0
 15 16  2  3
 16 17  1  0
 17 18  2  0
 18 19  1  0
 19 20  2  0
 20 21  1  0
 20 22  1  0
 22 23  2  0
 11  5  1  0
 23 17  1  0
  3 24  1  0
  4 25  1  0
  6 26  1  0
  7 27  1  0
  9 28  1  0
 10 29  1  0
 11 30  1  0
 12 31  1  0
 12 32  1  0
 15 33  1  0
 16 34  1  0
 18 35  1  0
 19 36  1  0
 21 37  1  0
 22 38  1  0
 23 39  1  0
M  END
$$$$
