
     RDKit          3D

 57 60  0  0  0  0  0  0  0  0999 V2000
    0.1408    2.5865    5.7142 C   0  0  0  0  0  0  0  0  0  0  0  0
   -0.5884    2.1432    4.5777 O   0  0  0  0  0  0  0  0  0  0  0  0
    0.0008    1.2387    3.7426 C   0  0  0  0  0  0  0  0  0  0  0  0
    1.3466    0.8572    3.8286 C   0  0  0  0  0  0  0  0  0  0  0  0
    1.8991   -0.0408    2.9065 C   0  0  0  0  0  0  0  0  0  0  0  0
    1.1115   -0.5580    1.8750 C   0  0  0  0  0  0  0  0  0  0  0  0
    1.6541   -1.5209    0.8842 C   0  0  0  0  0  0  0  0  0  0  0  0
    0.9381   -2.4154    0.4516 O   0  0  0  0  0  0  0  0  0  0  0  0
    2.9557   -1.3072    0.4884 N   0  0  0  0  0  0  0  0  0  0  0  0
    3.5277   -2.0432   -0.6185 C   0  0  0  0  0  0  0  0  0  0  0  0
    3.4708   -1.2243   -1.8844 C   0  0  0  0  0  0  0  0  0  0  0  0
    2.2509   -1.0994   -2.5915 C   0  0  0  0  0  0  0  0  0  0  0  0
    2.1629   -0.3176   -3.7474 C   0  0  0  0  0  0  0  0  0  0  0  0
    3.3036    0.3269   -4.1712 C   0  0  0  0  0  0  0  0  0  0  0  0
    4.4933    0.2141   -3.4913 C   0  0  0  0  0  0  0  0  0  0  0  0
    4.6112   -0.5485   -2.3479 C   0  0  0  0  0  0  0  0  0  0  0  0
    5.4930    0.9313   -4.0716 O   0  0  0  0  0  0  0  0  0  0  0  0
    4.7931    1.5142   -5.1907 C   0  0  0  0  0  0  0  0  0  0  0  0
    3.4045    1.1305   -5.2633 O   0  0  0  0  0  0  0  0  0  0  0  0
   -0.2309   -0.1915    1.7787 C   0  0  0  0  0  0  0  0  0  0  0  0
   -0.7841    0.6942    2.7166 C   0  0  0  0  0  0  0  0  0  0  0  0
   -2.5059    1.1173    2.5675 S   0  0  0  0  0  6  0  0  0  0  0  0
   -3.1167    1.1696    3.8804 O   0  0  0  0  0  0  0  0  0  0  0  0
   -2.5741    2.2350    1.6492 O   0  0  0  0  0  0  0  0  0  0  0  0
   -3.1840   -0.2513    1.8044 N   0  0  0  0  0  0  0  0  0  0  0  0
   -3.3101   -1.4557    2.6507 C   0  0  0  0  0  0  0  0  0  0  0  0
   -4.3954    0.0223    0.9990 C   0  0  0  0  0  0  0  0  0  0  0  0
   -4.1009   -0.0906   -0.4785 C   0  0  0  0  0  0  0  0  0  0  0  0
   -4.0005   -1.3482   -1.0928 C   0  0  0  0  0  0  0  0  0  0  0  0
   -3.7023   -1.4519   -2.4526 C   0  0  0  0  0  0  0  0  0  0  0  0
   -3.4972   -0.3004   -3.2116 C   0  0  0  0  0  0  0  0  0  0  0  0
   -3.5825    0.9544   -2.6103 C   0  0  0  0  0  0  0  0  0  0  0  0
   -3.8779    1.0591   -1.2500 C   0  0  0  0  0  0  0  0  0  0  0  0
    1.0085    3.1828    5.4144 H   0  0  0  0  0  0  0  0  0  0  0  0
    0.4381    1.7442    6.3481 H   0  0  0  0  0  0  0  0  0  0  0  0
   -0.5178    3.2314    6.3045 H   0  0  0  0  0  0  0  0  0  0  0  0
    1.9997    1.2465    4.6043 H   0  0  0  0  0  0  0  0  0  0  0  0
    2.9384   -0.3402    3.0166 H   0  0  0  0  0  0  0  0  0  0  0  0
    3.3895   -0.4228    0.7144 H   0  0  0  0  0  0  0  0  0  0  0  0
    3.0139   -3.0000   -0.7634 H   0  0  0  0  0  0  0  0  0  0  0  0
    4.5672   -2.2668   -0.3530 H   0  0  0  0  0  0  0  0  0  0  0  0
    1.3601   -1.6123   -2.2283 H   0  0  0  0  0  0  0  0  0  0  0  0
    1.2280   -0.2171   -4.2865 H   0  0  0  0  0  0  0  0  0  0  0  0
    5.5629   -0.6143   -1.8327 H   0  0  0  0  0  0  0  0  0  0  0  0
    4.8519    2.6054   -5.1089 H   0  0  0  0  0  0  0  0  0  0  0  0
    5.2920    1.2041   -6.1162 H   0  0  0  0  0  0  0  0  0  0  0  0
   -0.8360   -0.5910    0.9657 H   0  0  0  0  0  0  0  0  0  0  0  0
   -4.1564   -1.3642    3.3393 H   0  0  0  0  0  0  0  0  0  0  0  0
   -2.3989   -1.6365    3.2272 H   0  0  0  0  0  0  0  0  0  0  0  0
   -3.4674   -2.3347    2.0172 H   0  0  0  0  0  0  0  0  0  0  0  0
   -5.1990   -0.6811    1.2515 H   0  0  0  0  0  0  0  0  0  0  0  0
   -4.8174    1.0080    1.2268 H   0  0  0  0  0  0  0  0  0  0  0  0
   -4.1433   -2.2561   -0.5116 H   0  0  0  0  0  0  0  0  0  0  0  0
   -3.6236   -2.4318   -2.9184 H   0  0  0  0  0  0  0  0  0  0  0  0
   -3.2624   -0.3816   -4.2695 H   0  0  0  0  0  0  0  0  0  0  0  0
   -3.4132    1.8533   -3.1971 H   0  0  0  0  0  0  0  0  0  0  0  0
   -3.9218    2.0451   -0.7906 H   0  0  0  0  0  0  0  0  0  0  0  0
  1  2  1  0
  2  3  1  0
  3  4  2  0
  4  5  1  0
  5  6  2  0
  6  7  1  0
  7  8  2  0
  7  9  1  0
  9 10  1  0
 10 11  1  0
 11 12  2  0
 12 13  1  0
 13 14  2  0
 14 15  1  0
 15 16  2  0
 15 17  1  0
 17 18  1  0
 18 19  1  0
  6 20  1  0
 20 21  2  0
 21 22  1  0
 22 23  2  0
 22 24  2  0
 22 25  1  0
 25 26  1  0
 25 27  1  0
 27 28  1  0
 28 29  2  0
 29 30  1  0
 30 31  2  0
 31 32  1  0
 32 33  2  0
 21  3  1  0
 33 28  1  0
 16 11  1  0
 19 14  1  0
  1 34  1  0
  1 35  1  0
  1 36  1  0
  4 37  1  0
  5 38  1  0
  9 39  1  0
 10 40  1  0
 10 41  1  0
 12 42  1  0
 13 43  1  0
 16 44  1  0
 18 45  1  0
 18 46  1  0
 20 47  1  0
 26 48  1  0
 26 49  1  0
 26 50  1  0
 27 51  1  0
 27 52  1  0
 29 53  1  0
 30 54  1  0
 31 55  1  0
 32 56  1  0
 33 57  1  0
M  END
$$$$
