
     RDKit          3D

 61 63  0  0  0  0  0  0  0  0999 V2000
   -9.5718    2.3526    0.0827 C   0  0  0  0  0  0  0  0  0  0  0  0
   -9.2047    1.5867    1.2235 O   0  0  0  0  0  0  0  0  0  0  0  0
   -8.3379    0.5502    1.0183 C   0  0  0  0  0  0  0  0  0  0  0  0
   -7.9625   -0.1353    2.1765 C   0  0  0  0  0  0  0  0  0  0  0  0
   -7.0776   -1.2134    2.1138 C   0  0  0  0  0  0  0  0  0  0  0  0
   -6.5599   -1.6291    0.8820 C   0  0  0  0  0  0  0  0  0  0  0  0
   -5.5790   -2.7691    0.7988 C   0  0  0  0  0  0  0  0  0  0  0  0
   -4.2352   -2.3127    1.0375 N   0  0  0  0  0  0  0  0  0  0  0  0
   -3.4464   -1.7934    0.0373 C   0  0  0  0  0  0  0  0  0  0  0  0
   -3.7008   -1.7815   -1.1596 O   0  0  0  0  0  0  0  0  0  0  0  0
   -2.1364   -1.1560    0.5551 C   0  0  0  0  0  0  0  0  0  0  0  0
   -1.8143   -1.2822    1.7292 O   0  0  0  0  0  0  0  0  0  0  0  0
   -1.4480   -0.4599   -0.4131 N   0  0  0  0  0  0  0  0  0  0  0  0
   -0.1211    0.0865   -0.1826 C   0  0  0  0  0  0  0  0  0  0  0  0
    1.0135   -0.8986   -0.5770 C   0  0  0  0  0  0  0  0  0  0  0  0
    0.8746   -2.1350    0.1506 O   0  0  0  0  0  0  0  0  0  0  0  0
    1.6172   -1.9574    1.3588 C   0  0  0  0  0  0  0  0  0  0  0  0
    2.8269   -1.1500    0.9368 C   0  0  0  0  0  0  0  0  0  0  0  0
    2.3845   -0.4455   -0.2780 N   0  0  0  0  0  0  0  0  0  0  0  0
    2.7478    1.1740   -0.4637 S   0  0  0  0  0  6  0  0  0  0  0  0
    2.3098    1.8574    0.7339 O   0  0  0  0  0  0  0  0  0  0  0  0
    2.2873    1.5885   -1.7719 O   0  0  0  0  0  0  0  0  0  0  0  0
    4.5188    1.1745   -0.4959 C   0  0  0  0  0  0  0  0  0  0  0  0
    5.2417    1.7281    0.5650 C   0  0  0  0  0  0  0  0  0  0  0  0
    6.6406    1.7228    0.5276 C   0  0  0  0  0  0  0  0  0  0  0  0
    7.3169    1.1736   -0.5673 C   0  0  0  0  0  0  0  0  0  0  0  0
    8.6787    1.1210   -0.7035 O   0  0  0  0  0  0  0  0  0  0  0  0
    9.4561    1.3790    0.4606 C   0  0  0  0  0  0  0  0  0  0  0  0
    6.5675    0.6501   -1.6353 C   0  0  0  0  0  0  0  0  0  0  0  0
    7.2079    0.0648   -2.6971 O   0  0  0  0  0  0  0  0  0  0  0  0
    7.2344    0.9598   -3.8092 C   0  0  0  0  0  0  0  0  0  0  0  0
    5.1740    0.6329   -1.6016 C   0  0  0  0  0  0  0  0  0  0  0  0
   -6.9330   -0.9328   -0.2764 C   0  0  0  0  0  0  0  0  0  0  0  0
   -7.8199    0.1456   -0.2101 C   0  0  0  0  0  0  0  0  0  0  0  0
  -10.1201    1.7428   -0.6424 H   0  0  0  0  0  0  0  0  0  0  0  0
  -10.2418    3.1505    0.4185 H   0  0  0  0  0  0  0  0  0  0  0  0
   -8.6965    2.8238   -0.3751 H   0  0  0  0  0  0  0  0  0  0  0  0
   -8.3607    0.1806    3.1373 H   0  0  0  0  0  0  0  0  0  0  0  0
   -6.7963   -1.7229    3.0321 H   0  0  0  0  0  0  0  0  0  0  0  0
   -5.8144   -3.5272    1.5547 H   0  0  0  0  0  0  0  0  0  0  0  0
   -5.6386   -3.2583   -0.1800 H   0  0  0  0  0  0  0  0  0  0  0  0
   -3.9271   -2.1339    1.9872 H   0  0  0  0  0  0  0  0  0  0  0  0
   -1.8204   -0.5153   -1.3561 H   0  0  0  0  0  0  0  0  0  0  0  0
   -0.0684    1.0070   -0.7699 H   0  0  0  0  0  0  0  0  0  0  0  0
   -0.0430    0.3539    0.8754 H   0  0  0  0  0  0  0  0  0  0  0  0
    0.9328   -1.1466   -1.6408 H   0  0  0  0  0  0  0  0  0  0  0  0
    1.8841   -2.9277    1.7824 H   0  0  0  0  0  0  0  0  0  0  0  0
    1.0022   -1.4165    2.0842 H   0  0  0  0  0  0  0  0  0  0  0  0
    3.6553   -1.8114    0.6601 H   0  0  0  0  0  0  0  0  0  0  0  0
    3.1657   -0.4902    1.7406 H   0  0  0  0  0  0  0  0  0  0  0  0
    4.7308    2.1614    1.4230 H   0  0  0  0  0  0  0  0  0  0  0  0
    7.1758    2.1627    1.3616 H   0  0  0  0  0  0  0  0  0  0  0  0
   10.4979    1.1592    0.2184 H   0  0  0  0  0  0  0  0  0  0  0  0
    9.1639    0.7275    1.2907 H   0  0  0  0  0  0  0  0  0  0  0  0
    9.3958    2.4339    0.7456 H   0  0  0  0  0  0  0  0  0  0  0  0
    7.5489    1.9699   -3.5184 H   0  0  0  0  0  0  0  0  0  0  0  0
    6.2523    0.9928   -4.2990 H   0  0  0  0  0  0  0  0  0  0  0  0
    7.9596    0.5730   -4.5304 H   0  0  0  0  0  0  0  0  0  0  0  0
    4.6113    0.1911   -2.4200 H   0  0  0  0  0  0  0  0  0  0  0  0
   -6.5217   -1.2252   -1.2419 H   0  0  0  0  0  0  0  0  0  0  0  0
   -8.0773    0.6491   -1.1359 H   0  0  0  0  0  0  0  0  0  0  0  0
  1  2  1  0
  2  3  1  0
  3  4  2  0
  4  5  1  0
  5  6  2  0
  6  7  1  0
  7  8  1  0
  8  9  1  0
  9 10  2  0
  9 11  1  0
 11 12  2  0
 11 13  1  0
 13 14  1  0
 14 15  1  0
 15 16  1  0
 16 17  1  0
 17 18  1  0
 18 19  1  0
 19 20  1  0
 20 21  2  0
 20 22  2  0
 20 23  1  0
 23 24  2  0
 24 25  1  0
 25 26  2  0
 26 27  1  0
 27 28  1  0
 26 29  1  0
 29 30  1  0
 30 31  1  0
 29 32  2  0
  6 33  1  0
 33 34  2  0
 34  3  1  0
 19 15  1  0
 32 23  1  0
  1 35  1  0
  1 36  1  0
  1 37  1  0
  4 38  1  0
  5 39  1  0
  7 40  1  0
  7 41  1  0
  8 42  1  0
 13 43  1  0
 14 44  1  0
 14 45  1  0
 15 46  1  0
 17 47  1  0
 17 48  1  0
 18 49  1  0
 18 50  1  0
 24 51  1  0
 25 52  1  0
 28 53  1  0
 28 54  1  0
 28 55  1  0
 31 56  1  0
 31 57  1  0
 31 58  1  0
 32 59  1  0
 33 60  1  0
 34 61  1  0
M  END
$$$$
