
     RDKit          3D

 55 60  0  0  0  0  0  0  0  0999 V2000
   -5.0121    0.3509   -0.9333 O   0  0  0  0  0  0  0  0  0  0  0  0
   -4.2078    0.5873   -0.0344 C   0  0  0  0  0  0  0  0  0  0  0  0
   -4.4301    1.7201    0.8518 C   0  0  0  0  0  0  0  0  0  0  0  0
   -4.3551    1.8287    2.2710 C   0  0  0  0  0  0  0  0  0  0  0  0
   -4.7137    3.1165    2.5883 C   0  0  0  0  0  0  0  0  0  0  0  0
   -5.0250    3.8090    1.4648 O   0  0  0  0  0  0  0  0  0  0  0  0
   -4.8722    2.9557    0.4212 C   0  0  0  0  0  0  0  0  0  0  0  0
   -3.0641   -0.2042    0.1674 N   0  0  0  0  0  0  0  0  0  0  0  0
   -2.8434   -1.3309   -0.7351 C   0  0  0  0  0  0  0  0  0  0  0  0
   -1.5603   -1.1191   -1.5318 C   0  0  0  0  0  0  0  0  0  0  0  0
   -0.2986   -1.0965   -0.6090 C   0  0  0  0  0  0  0  0  0  0  0  0
   -0.7284   -0.7131    0.8383 C   0  0  0  0  0  0  0  0  0  0  0  0
   -1.8879    0.2773    0.8936 C   0  0  0  0  0  0  0  0  0  0  0  0
    0.2141   -2.4520   -0.4715 O   0  0  0  0  0  0  0  0  0  0  0  0
    0.8747   -2.9627   -1.5551 C   0  0  0  0  0  0  0  0  0  0  0  0
    1.0511   -4.3464   -1.5713 C   0  0  0  0  0  0  0  0  0  0  0  0
    1.6901   -4.9532   -2.6541 C   0  0  0  0  0  0  0  0  0  0  0  0
    2.1505   -4.1719   -3.7094 C   0  0  0  0  0  0  0  0  0  0  0  0
    2.7617   -4.7610   -4.7447 F   0  0  0  0  0  0  0  0  0  0  0  0
    1.9950   -2.7924   -3.7009 C   0  0  0  0  0  0  0  0  0  0  0  0
    1.3633   -2.1903   -2.6101 C   0  0  0  0  0  0  0  0  0  0  0  0
    1.2299   -0.7229   -2.5386 C   0  0  0  0  0  0  0  0  0  0  0  0
    1.5011   -0.0390   -3.5199 O   0  0  0  0  0  0  0  0  0  0  0  0
    0.8196   -0.1723   -1.1765 C   0  0  0  0  0  0  0  0  0  0  0  0
    2.0907   -0.0594   -0.3380 C   0  0  0  0  0  0  0  0  0  0  0  0
    1.8923    1.3058    0.2227 C   0  0  0  0  0  0  0  0  0  0  0  0
    2.7496    1.8413    1.3052 C   0  0  0  0  0  0  0  0  0  0  0  0
    3.8572    1.1295    1.7809 C   0  0  0  0  0  0  0  0  0  0  0  0
    4.6394    1.6602    2.8100 C   0  0  0  0  0  0  0  0  0  0  0  0
    4.3215    2.8998    3.3639 C   0  0  0  0  0  0  0  0  0  0  0  0
    3.2222    3.6141    2.8906 C   0  0  0  0  0  0  0  0  0  0  0  0
    2.4377    3.0876    1.8631 C   0  0  0  0  0  0  0  0  0  0  0  0
    0.9121    1.9706   -0.3001 N   0  0  0  0  0  0  0  0  0  0  0  0
    0.3428    1.1682   -1.3148 O   0  0  0  0  0  0  0  0  0  0  0  0
   -4.0983    1.0548    2.9796 H   0  0  0  0  0  0  0  0  0  0  0  0
   -4.8093    3.6623    3.5163 H   0  0  0  0  0  0  0  0  0  0  0  0
   -5.1090    3.3583   -0.5543 H   0  0  0  0  0  0  0  0  0  0  0  0
   -2.7813   -2.2412   -0.1275 H   0  0  0  0  0  0  0  0  0  0  0  0
   -3.6856   -1.4662   -1.4202 H   0  0  0  0  0  0  0  0  0  0  0  0
   -1.6541   -0.1719   -2.0765 H   0  0  0  0  0  0  0  0  0  0  0  0
   -1.4916   -1.9146   -2.2811 H   0  0  0  0  0  0  0  0  0  0  0  0
   -1.0334   -1.6244    1.3743 H   0  0  0  0  0  0  0  0  0  0  0  0
    0.1112   -0.3308    1.4263 H   0  0  0  0  0  0  0  0  0  0  0  0
   -2.1567    0.4279    1.9422 H   0  0  0  0  0  0  0  0  0  0  0  0
   -1.6064    1.2509    0.4797 H   0  0  0  0  0  0  0  0  0  0  0  0
    0.6806   -4.9548   -0.7501 H   0  0  0  0  0  0  0  0  0  0  0  0
    1.8278   -6.0298   -2.6850 H   0  0  0  0  0  0  0  0  0  0  0  0
    2.3722   -2.2026   -4.5316 H   0  0  0  0  0  0  0  0  0  0  0  0
    3.0091   -0.0609   -0.9388 H   0  0  0  0  0  0  0  0  0  0  0  0
    2.1692   -0.8233    0.4415 H   0  0  0  0  0  0  0  0  0  0  0  0
    4.1397    0.1671    1.3640 H   0  0  0  0  0  0  0  0  0  0  0  0
    5.5018    1.1090    3.1778 H   0  0  0  0  0  0  0  0  0  0  0  0
    4.9338    3.3127    4.1620 H   0  0  0  0  0  0  0  0  0  0  0  0
    2.9762    4.5833    3.3178 H   0  0  0  0  0  0  0  0  0  0  0  0
    1.5864    3.6590    1.4994 H   0  0  0  0  0  0  0  0  0  0  0  0
  1  2  2  0
  2  3  1  0
  3  4  1  0
  4  5  2  0
  5  6  1  0
  6  7  1  0
  2  8  1  0
  8  9  1  0
  9 10  1  0
 10 11  1  0
 11 12  1  0
 12 13  1  0
 11 14  1  0
 14 15  1  0
 15 16  2  0
 16 17  1  0
 17 18  2  0
 18 19  1  0
 18 20  1  0
 20 21  2  0
 21 22  1  0
 22 23  2  0
 22 24  1  0
 24 25  1  0
 25 26  1  0
 26 27  1  0
 27 28  2  0
 28 29  1  0
 29 30  2  0
 30 31  1  0
 31 32  2  0
 26 33  2  0
 33 34  1  0
  7  3  2  0
 13  8  1  0
 21 15  1  0
 34 24  1  0
 24 11  1  0
 32 27  1  0
  4 35  1  0
  5 36  1  0
  7 37  1  0
  9 38  1  0
  9 39  1  0
 10 40  1  0
 10 41  1  0
 12 42  1  0
 12 43  1  0
 13 44  1  0
 13 45  1  0
 16 46  1  0
 17 47  1  0
 20 48  1  0
 25 49  1  0
 25 50  1  0
 28 51  1  0
 29 52  1  0
 30 53  1  0
 31 54  1  0
 32 55  1  0
M  END
$$$$
