
     RDKit          3D

 30 31  0  0  0  0  0  0  0  0999 V2000
    5.0467   -2.3546   -1.6087 C   0  0  0  0  0  0  0  0  0  0  0  0
    3.7634   -2.9568   -1.4967 O   0  0  0  0  0  0  0  0  0  0  0  0
    2.7065   -2.1225   -1.2600 C   0  0  0  0  0  0  0  0  0  0  0  0
    2.7760   -0.7427   -1.0692 C   0  0  0  0  0  0  0  0  0  0  0  0
    1.6095   -0.0053   -0.8318 C   0  0  0  0  0  0  0  0  0  0  0  0
    0.3600   -0.6396   -0.7823 C   0  0  0  0  0  0  0  0  0  0  0  0
   -0.8703    0.1378   -0.5256 C   0  0  0  0  0  0  0  0  0  0  0  0
   -1.8187    0.2585   -1.5911 C   0  0  0  0  0  0  0  0  0  0  0  0
   -2.5452    0.2999   -2.4970 N   0  0  0  0  0  0  0  0  0  0  0  0
   -1.0330    0.6519    0.7114 C   0  0  0  0  0  0  0  0  0  0  0  0
   -2.1507    1.4565    1.2279 C   0  0  0  0  0  0  0  0  0  0  0  0
   -2.2359    1.7446    2.5878 C   0  0  0  0  0  0  0  0  0  0  0  0
   -3.2998    2.5179    3.0491 C   0  0  0  0  0  0  0  0  0  0  0  0
   -4.2446    2.9835    2.1443 C   0  0  0  0  0  0  0  0  0  0  0  0
   -4.0822    2.6558    0.8106 C   0  0  0  0  0  0  0  0  0  0  0  0
   -3.0579    1.9103    0.3410 N   0  0  0  0  0  0  0  0  0  0  0  0
    0.2954   -2.0241   -0.9772 C   0  0  0  0  0  0  0  0  0  0  0  0
    1.4625   -2.7562   -1.2119 C   0  0  0  0  0  0  0  0  0  0  0  0
    5.7709   -3.1476   -1.8191 H   0  0  0  0  0  0  0  0  0  0  0  0
    5.3407   -1.8762   -0.6686 H   0  0  0  0  0  0  0  0  0  0  0  0
    5.0791   -1.6444   -2.4415 H   0  0  0  0  0  0  0  0  0  0  0  0
    3.7193   -0.2078   -1.1013 H   0  0  0  0  0  0  0  0  0  0  0  0
    1.6856    1.0719   -0.6951 H   0  0  0  0  0  0  0  0  0  0  0  0
   -0.2587    0.4619    1.4528 H   0  0  0  0  0  0  0  0  0  0  0  0
   -1.4955    1.3759    3.2900 H   0  0  0  0  0  0  0  0  0  0  0  0
   -3.3897    2.7528    4.1059 H   0  0  0  0  0  0  0  0  0  0  0  0
   -5.0858    3.5856    2.4684 H   0  0  0  0  0  0  0  0  0  0  0  0
   -4.7903    2.9917    0.0579 H   0  0  0  0  0  0  0  0  0  0  0  0
   -0.6586   -2.5469   -0.9486 H   0  0  0  0  0  0  0  0  0  0  0  0
    1.4010   -3.8316   -1.3630 H   0  0  0  0  0  0  0  0  0  0  0  0
  1  2  1  0
  2  3  1  0
  3  4  2  0
  4  5  1  0
  5  6  2  0
  6  7  1  0
  7  8  1  0
  8  9  3  0
  7 10  2  3
 10 11  1  0
 11 12  2  0
 12 13  1  0
 13 14  2  0
 14 15  1  0
 15 16  2  0
  6 17  1  0
 17 18  2  0
 18  3  1  0
 16 11  1  0
  1 19  1  0
  1 20  1  0
  1 21  1  0
  4 22  1  0
  5 23  1  0
 10 24  1  0
 12 25  1  0
 13 26  1  0
 14 27  1  0
 15 28  1  0
 17 29  1  0
 18 30  1  0
M  END
$$$$
