
     RDKit          3D

 51 53  0  0  0  0  0  0  0  0999 V2000
    4.2662   -4.6011    0.6614 C   0  0  0  0  0  0  0  0  0  0  0  0
    4.1576   -3.1967    0.4569 O   0  0  0  0  0  0  0  0  0  0  0  0
    2.9046   -2.6450    0.5203 C   0  0  0  0  0  0  0  0  0  0  0  0
    1.7450   -3.3512    0.8660 C   0  0  0  0  0  0  0  0  0  0  0  0
    0.4996   -2.7160    0.8769 C   0  0  0  0  0  0  0  0  0  0  0  0
    0.4053   -1.3684    0.5367 C   0  0  0  0  0  0  0  0  0  0  0  0
   -0.8974   -0.6746    0.5001 C   0  0  0  0  0  0  0  0  0  0  0  0
   -2.0005   -1.2635    0.8452 N   0  0  0  0  0  0  0  0  0  0  0  0
   -3.1576   -0.5389    0.6894 N   0  0  0  0  0  0  0  0  0  0  0  0
   -3.4656    0.2172   -0.4384 C   0  0  0  0  0  0  0  0  0  0  0  0
   -2.6718    0.4690   -1.3449 O   0  0  0  0  0  0  0  0  0  0  0  0
   -4.8675    0.7548   -0.5331 C   0  0  0  0  0  0  0  0  0  0  0  0
   -5.1101    1.6588   -1.5841 C   0  0  0  0  0  0  0  0  0  0  0  0
   -6.3668    2.2323   -1.7666 C   0  0  0  0  0  0  0  0  0  0  0  0
   -7.4018    1.9078   -0.8998 C   0  0  0  0  0  0  0  0  0  0  0  0
   -7.1835    1.0091    0.1464 C   0  0  0  0  0  0  0  0  0  0  0  0
   -5.9249    0.4191    0.3403 C   0  0  0  0  0  0  0  0  0  0  0  0
   -5.6675   -0.4863    1.3416 O   0  0  0  0  0  0  0  0  0  0  0  0
   -6.7435   -0.8625    2.1934 C   0  0  0  0  0  0  0  0  0  0  0  0
    1.5549   -0.6516    0.1991 C   0  0  0  0  0  0  0  0  0  0  0  0
    2.8186   -1.2745    0.2061 C   0  0  0  0  0  0  0  0  0  0  0  0
    4.0450   -0.4848   -0.2081 C   0  0  0  0  0  0  0  0  0  0  0  0
    3.9370    0.8494    0.3041 O   0  0  0  0  0  0  0  0  0  0  0  0
    4.8018    1.7926   -0.1722 C   0  0  0  0  0  0  0  0  0  0  0  0
    4.5064    3.1103    0.2044 C   0  0  0  0  0  0  0  0  0  0  0  0
    3.4348    3.3629    0.9775 F   0  0  0  0  0  0  0  0  0  0  0  0
    5.3011    4.1719   -0.2122 C   0  0  0  0  0  0  0  0  0  0  0  0
    4.9931    5.4246    0.1586 F   0  0  0  0  0  0  0  0  0  0  0  0
    6.4098    3.9318   -1.0097 C   0  0  0  0  0  0  0  0  0  0  0  0
    7.1785    4.9510   -1.4164 F   0  0  0  0  0  0  0  0  0  0  0  0
    6.7235    2.6324   -1.3853 C   0  0  0  0  0  0  0  0  0  0  0  0
    7.7988    2.3986   -2.1581 F   0  0  0  0  0  0  0  0  0  0  0  0
    5.9282    1.5672   -0.9652 C   0  0  0  0  0  0  0  0  0  0  0  0
    6.2802    0.3281   -1.3386 F   0  0  0  0  0  0  0  0  0  0  0  0
    3.9888   -4.8727    1.6859 H   0  0  0  0  0  0  0  0  0  0  0  0
    3.6723   -5.1578   -0.0721 H   0  0  0  0  0  0  0  0  0  0  0  0
    5.3144   -4.8781    0.5174 H   0  0  0  0  0  0  0  0  0  0  0  0
    1.7713   -4.4040    1.1273 H   0  0  0  0  0  0  0  0  0  0  0  0
   -0.3925   -3.2807    1.1386 H   0  0  0  0  0  0  0  0  0  0  0  0
   -0.8701    0.3832    0.1825 H   0  0  0  0  0  0  0  0  0  0  0  0
   -3.9467   -0.8966    1.2249 H   0  0  0  0  0  0  0  0  0  0  0  0
   -4.3102    1.9230   -2.2733 H   0  0  0  0  0  0  0  0  0  0  0  0
   -6.5317    2.9308   -2.5842 H   0  0  0  0  0  0  0  0  0  0  0  0
   -8.3840    2.3537   -1.0368 H   0  0  0  0  0  0  0  0  0  0  0  0
   -8.0277    0.7898    0.7928 H   0  0  0  0  0  0  0  0  0  0  0  0
   -7.0960   -0.0085    2.7843 H   0  0  0  0  0  0  0  0  0  0  0  0
   -7.5570   -1.3167    1.6235 H   0  0  0  0  0  0  0  0  0  0  0  0
   -6.3692   -1.6211    2.8849 H   0  0  0  0  0  0  0  0  0  0  0  0
    1.4728    0.3991   -0.0752 H   0  0  0  0  0  0  0  0  0  0  0  0
    4.0788   -0.4817   -1.3061 H   0  0  0  0  0  0  0  0  0  0  0  0
    4.9555   -0.9356    0.2029 H   0  0  0  0  0  0  0  0  0  0  0  0
  1  2  1  0
  2  3  1  0
  3  4  2  0
  4  5  1  0
  5  6  2  0
  6  7  1  0
  7  8  2  3
  8  9  1  0
  9 10  1  0
 10 11  2  0
 10 12  1  0
 12 13  2  0
 13 14  1  0
 14 15  2  0
 15 16  1  0
 16 17  2  0
 17 18  1  0
 18 19  1  0
  6 20  1  0
 20 21  2  0
 21 22  1  0
 22 23  1  0
 23 24  1  0
 24 25  2  0
 25 26  1  0
 25 27  1  0
 27 28  1  0
 27 29  2  0
 29 30  1  0
 29 31  1  0
 31 32  1  0
 31 33  2  0
 33 34  1  0
 21  3  1  0
 33 24  1  0
 17 12  1  0
  1 35  1  0
  1 36  1  0
  1 37  1  0
  4 38  1  0
  5 39  1  0
  7 40  1  0
  9 41  1  0
 13 42  1  0
 14 43  1  0
 15 44  1  0
 16 45  1  0
 19 46  1  0
 19 47  1  0
 19 48  1  0
 20 49  1  0
 22 50  1  0
 22 51  1  0
M  END
$$$$
