
     RDKit          3D

 69 71  0  0  0  0  0  0  0  0999 V2000
   -6.3866   -1.3001   -3.2346 C   0  0  0  0  0  0  0  0  0  0  0  0
   -5.4739   -0.6661   -2.3463 O   0  0  0  0  0  0  0  0  0  0  0  0
   -4.2085   -1.1901   -2.2513 C   0  0  0  0  0  0  0  0  0  0  0  0
   -3.7317   -2.2141   -3.0760 C   0  0  0  0  0  0  0  0  0  0  0  0
   -2.4535   -2.7360   -2.8881 C   0  0  0  0  0  0  0  0  0  0  0  0
   -1.6504   -2.2492   -1.8606 C   0  0  0  0  0  0  0  0  0  0  0  0
   -2.0941   -1.2149   -1.0113 C   0  0  0  0  0  0  0  0  0  0  0  0
   -1.1265   -0.7708    0.0877 C   0  0  0  0  0  0  0  0  0  0  0  0
   -1.7150   -0.0547    1.3400 C   0  0  0  0  0  0  0  0  0  0  0  0
   -1.3693    1.0705    1.7025 O   0  0  0  0  0  0  0  0  0  0  0  0
   -2.6212   -0.8263    2.0626 N   0  0  0  0  0  0  0  0  0  0  0  0
   -3.3487   -0.3621    3.2540 C   0  0  0  0  0  0  0  0  0  0  0  0
   -4.2904    0.8028    2.9086 C   0  0  0  0  0  0  0  0  0  0  0  0
   -2.3831    0.0549    4.3774 C   0  0  0  0  0  0  0  0  0  0  0  0
   -4.1969   -1.5402    3.7725 C   0  0  0  0  0  0  0  0  0  0  0  0
    0.0868   -0.0925   -0.4452 N   0  0  0  0  0  0  0  0  0  0  0  0
    1.3181   -0.6228   -0.0439 C   0  0  0  0  0  0  0  0  0  0  0  0
    1.4218   -1.7442    0.4594 O   0  0  0  0  0  0  0  0  0  0  0  0
    2.5534    0.2325   -0.2735 C   0  0  0  0  0  0  0  0  0  0  0  0
    3.7932   -0.4423    0.3041 C   0  0  0  0  0  0  0  0  0  0  0  0
    5.0502    0.3759    0.0940 C   0  0  0  0  0  0  0  0  0  0  0  0
    5.0246    1.5524   -0.2545 O   0  0  0  0  0  0  0  0  0  0  0  0
    6.1820   -0.3601    0.3604 N   0  0  0  0  0  0  0  0  0  0  0  0
    7.4750    0.1077    0.3076 C   0  0  0  0  0  0  0  0  0  0  0  0
    7.9550    1.4128    0.0527 C   0  0  0  0  0  0  0  0  0  0  0  0
    9.3185    1.3031    0.1528 C   0  0  0  0  0  0  0  0  0  0  0  0
   10.4376    2.2523    0.0202 C   0  0  0  0  0  0  0  0  0  0  0  0
    9.6419    0.0101    0.4252 O   0  0  0  0  0  0  0  0  0  0  0  0
    8.4862   -0.7386    0.5347 N   0  0  0  0  0  0  0  0  0  0  0  0
   -0.0464    1.2577   -0.9552 C   0  0  0  0  0  0  0  0  0  0  0  0
    0.5755    1.6809   -2.2686 C   0  0  0  0  0  0  0  0  0  0  0  0
   -0.9100    1.6175   -2.1385 C   0  0  0  0  0  0  0  0  0  0  0  0
   -3.3697   -0.6650   -1.2417 C   0  0  0  0  0  0  0  0  0  0  0  0
   -3.7744    0.3351   -0.3966 O   0  0  0  0  0  0  0  0  0  0  0  0
   -4.3047    1.4905   -1.0400 C   0  0  0  0  0  0  0  0  0  0  0  0
   -6.0830   -1.1559   -4.2771 H   0  0  0  0  0  0  0  0  0  0  0  0
   -7.3669   -0.8272   -3.1049 H   0  0  0  0  0  0  0  0  0  0  0  0
   -6.4970   -2.3652   -2.9988 H   0  0  0  0  0  0  0  0  0  0  0  0
   -4.3320   -2.6327   -3.8782 H   0  0  0  0  0  0  0  0  0  0  0  0
   -2.0872   -3.5323   -3.5331 H   0  0  0  0  0  0  0  0  0  0  0  0
   -0.6575   -2.6795   -1.7209 H   0  0  0  0  0  0  0  0  0  0  0  0
   -0.7993   -1.7250    0.5302 H   0  0  0  0  0  0  0  0  0  0  0  0
   -3.0641   -1.5704    1.5334 H   0  0  0  0  0  0  0  0  0  0  0  0
   -4.8844    1.1024    3.7795 H   0  0  0  0  0  0  0  0  0  0  0  0
   -4.9847    0.5186    2.1094 H   0  0  0  0  0  0  0  0  0  0  0  0
   -3.7408    1.6863    2.5683 H   0  0  0  0  0  0  0  0  0  0  0  0
   -1.6697   -0.7469    4.6021 H   0  0  0  0  0  0  0  0  0  0  0  0
   -2.9288    0.2871    5.3002 H   0  0  0  0  0  0  0  0  0  0  0  0
   -1.8059    0.9469    4.1157 H   0  0  0  0  0  0  0  0  0  0  0  0
   -4.7667   -1.2618    4.6659 H   0  0  0  0  0  0  0  0  0  0  0  0
   -3.5633   -2.3982    4.0294 H   0  0  0  0  0  0  0  0  0  0  0  0
   -4.9098   -1.8798    3.0104 H   0  0  0  0  0  0  0  0  0  0  0  0
    2.6970    0.3695   -1.3497 H   0  0  0  0  0  0  0  0  0  0  0  0
    2.4092    1.2116    0.1954 H   0  0  0  0  0  0  0  0  0  0  0  0
    3.6694   -0.5930    1.3834 H   0  0  0  0  0  0  0  0  0  0  0  0
    3.9291   -1.4246   -0.1639 H   0  0  0  0  0  0  0  0  0  0  0  0
    6.1138   -1.3370    0.6170 H   0  0  0  0  0  0  0  0  0  0  0  0
    7.3889    2.3108   -0.1496 H   0  0  0  0  0  0  0  0  0  0  0  0
   11.3088    1.9212    0.5968 H   0  0  0  0  0  0  0  0  0  0  0  0
   10.7340    2.3393   -1.0283 H   0  0  0  0  0  0  0  0  0  0  0  0
   10.1509    3.2439    0.3830 H   0  0  0  0  0  0  0  0  0  0  0  0
   -0.0086    1.9985   -0.1548 H   0  0  0  0  0  0  0  0  0  0  0  0
    1.0424    2.6575   -2.2997 H   0  0  0  0  0  0  0  0  0  0  0  0
    1.0382    0.9323   -2.9044 H   0  0  0  0  0  0  0  0  0  0  0  0
   -1.4637    2.5462   -2.0892 H   0  0  0  0  0  0  0  0  0  0  0  0
   -1.4051    0.8467   -2.7165 H   0  0  0  0  0  0  0  0  0  0  0  0
   -3.9599    2.3659   -0.4800 H   0  0  0  0  0  0  0  0  0  0  0  0
   -3.9680    1.6043   -2.0775 H   0  0  0  0  0  0  0  0  0  0  0  0
   -5.3999    1.4742   -0.9841 H   0  0  0  0  0  0  0  0  0  0  0  0
  1  2  1  0
  2  3  1  0
  3  4  2  0
  4  5  1  0
  5  6  2  0
  6  7  1  0
  7  8  1  0
  8  9  1  0
  9 10  2  0
  9 11  1  0
 11 12  1  0
 12 13  1  0
 12 14  1  0
 12 15  1  0
  8 16  1  0
 16 17  1  0
 17 18  2  0
 17 19  1  0
 19 20  1  0
 20 21  1  0
 21 22  2  0
 21 23  1  0
 23 24  1  0
 24 25  1  0
 25 26  2  0
 26 27  1  0
 26 28  1  0
 28 29  1  0
 16 30  1  0
 30 31  1  0
 31 32  1  0
  7 33  2  0
 33 34  1  0
 34 35  1  0
 33  3  1  0
 29 24  2  0
 32 30  1  0
  1 36  1  0
  1 37  1  0
  1 38  1  0
  4 39  1  0
  5 40  1  0
  6 41  1  0
  8 42  1  0
 11 43  1  0
 13 44  1  0
 13 45  1  0
 13 46  1  0
 14 47  1  0
 14 48  1  0
 14 49  1  0
 15 50  1  0
 15 51  1  0
 15 52  1  0
 19 53  1  0
 19 54  1  0
 20 55  1  0
 20 56  1  0
 23 57  1  0
 25 58  1  0
 27 59  1  0
 27 60  1  0
 27 61  1  0
 30 62  1  0
 31 63  1  0
 31 64  1  0
 32 65  1  0
 32 66  1  0
 35 67  1  0
 35 68  1  0
 35 69  1  0
M  END
$$$$
