
     RDKit          3D

 35 37  0  0  0  0  0  0  0  0999 V2000
    0.0461    1.7862    4.5614 C   0  0  0  0  0  0  0  0  0  0  0  0
   -1.1735    1.4421    3.9163 O   0  0  0  0  0  0  0  0  0  0  0  0
   -1.1630    1.4199    2.5492 C   0  0  0  0  0  0  0  0  0  0  0  0
   -0.0853    1.7534    1.7301 C   0  0  0  0  0  0  0  0  0  0  0  0
   -0.2113    1.6863    0.3367 C   0  0  0  0  0  0  0  0  0  0  0  0
   -1.4093    1.2697   -0.2539 C   0  0  0  0  0  0  0  0  0  0  0  0
   -1.5853    1.2046   -1.7122 C   0  0  0  0  0  0  0  0  0  0  0  0
   -0.7773    0.6146   -2.6194 C   0  0  0  0  0  0  0  0  0  0  0  0
   -1.1477    0.7075   -4.0023 C   0  0  0  0  0  0  0  0  0  0  0  0
   -1.4644    0.8038   -5.1156 N   0  0  0  0  0  0  0  0  0  0  0  0
    0.4248   -0.1126   -2.3301 C   0  0  0  0  0  0  0  0  0  0  0  0
    1.6636    0.1964   -2.8555 C   0  0  0  0  0  0  0  0  0  0  0  0
    2.5670   -0.7093   -2.3660 N   0  0  0  0  0  0  0  0  0  0  0  0
    1.9390   -1.6092   -1.5358 C   0  0  0  0  0  0  0  0  0  0  0  0
    2.4660   -2.6961   -0.8273 C   0  0  0  0  0  0  0  0  0  0  0  0
    1.5837   -3.4585   -0.0572 C   0  0  0  0  0  0  0  0  0  0  0  0
    0.2281   -3.1475   -0.0028 C   0  0  0  0  0  0  0  0  0  0  0  0
   -0.2832   -2.0595   -0.7193 C   0  0  0  0  0  0  0  0  0  0  0  0
    0.5854   -1.2650   -1.4979 C   0  0  0  0  0  0  0  0  0  0  0  0
   -2.4941    0.9576    0.5720 C   0  0  0  0  0  0  0  0  0  0  0  0
   -2.3672    1.0279    1.9621 C   0  0  0  0  0  0  0  0  0  0  0  0
    0.3432    2.8123    4.3208 H   0  0  0  0  0  0  0  0  0  0  0  0
   -0.1206    1.7329    5.6416 H   0  0  0  0  0  0  0  0  0  0  0  0
    0.8405    1.0749    4.3117 H   0  0  0  0  0  0  0  0  0  0  0  0
    0.8679    2.0713    2.1385 H   0  0  0  0  0  0  0  0  0  0  0  0
    0.6429    1.9613   -0.2776 H   0  0  0  0  0  0  0  0  0  0  0  0
   -2.4909    1.7040   -2.0588 H   0  0  0  0  0  0  0  0  0  0  0  0
    1.9843    0.9780   -3.5325 H   0  0  0  0  0  0  0  0  0  0  0  0
    3.5535   -0.7270   -2.5860 H   0  0  0  0  0  0  0  0  0  0  0  0
    3.5212   -2.9455   -0.8712 H   0  0  0  0  0  0  0  0  0  0  0  0
    1.9621   -4.3088    0.5057 H   0  0  0  0  0  0  0  0  0  0  0  0
   -0.4425   -3.7534    0.6015 H   0  0  0  0  0  0  0  0  0  0  0  0
   -1.3436   -1.8315   -0.6664 H   0  0  0  0  0  0  0  0  0  0  0  0
   -3.4453    0.6463    0.1465 H   0  0  0  0  0  0  0  0  0  0  0  0
   -3.2149    0.7729    2.5935 H   0  0  0  0  0  0  0  0  0  0  0  0
  1  2  1  0
  2  3  1  0
  3  4  2  0
  4  5  1  0
  5  6  2  0
  6  7  1  0
  7  8  2  3
  8  9  1  0
  9 10  3  0
  8 11  1  0
 11 12  2  0
 12 13  1  0
 13 14  1  0
 14 15  2  0
 15 16  1  0
 16 17  2  0
 17 18  1  0
 18 19  2  0
  6 20  1  0
 20 21  2  0
 21  3  1  0
 19 11  1  0
 19 14  1  0
  1 22  1  0
  1 23  1  0
  1 24  1  0
  4 25  1  0
  5 26  1  0
  7 27  1  0
 12 28  1  0
 13 29  1  0
 15 30  1  0
 16 31  1  0
 17 32  1  0
 18 33  1  0
 20 34  1  0
 21 35  1  0
M  END
$$$$
