
     RDKit          3D

 58 61  0  0  0  0  0  0  0  0999 V2000
   -4.2978    5.3636   -0.3668 C   0  0  0  0  0  0  0  0  0  0  0  0
   -4.2725    3.9708   -0.6517 O   0  0  0  0  0  0  0  0  0  0  0  0
   -3.5748    3.1747    0.2153 C   0  0  0  0  0  0  0  0  0  0  0  0
   -2.8741    3.6065    1.3415 C   0  0  0  0  0  0  0  0  0  0  0  0
   -2.1967    2.6836    2.1421 C   0  0  0  0  0  0  0  0  0  0  0  0
   -2.2173    1.3261    1.8208 C   0  0  0  0  0  0  0  0  0  0  0  0
   -2.9167    0.8764    0.6949 C   0  0  0  0  0  0  0  0  0  0  0  0
   -2.9199   -0.5499    0.3451 C   0  0  0  0  0  0  0  0  0  0  0  0
   -4.4104   -1.3904    0.3753 S   0  0  0  0  0  0  0  0  0  0  0  0
   -3.6855   -2.8797   -0.0737 C   0  0  0  0  0  0  0  0  0  0  0  0
   -4.3378   -4.1137   -0.2608 C   0  0  0  0  0  0  0  0  0  0  0  0
   -3.5885   -5.2351   -0.6344 C   0  0  0  0  0  0  0  0  0  0  0  0
   -2.2169   -5.1379   -0.8231 C   0  0  0  0  0  0  0  0  0  0  0  0
   -1.3804   -6.1568   -1.1893 O   0  0  0  0  0  0  0  0  0  0  0  0
   -1.9733   -7.4302   -1.4106 C   0  0  0  0  0  0  0  0  0  0  0  0
   -1.5812   -3.9050   -0.6333 C   0  0  0  0  0  0  0  0  0  0  0  0
   -2.3079   -2.7473   -0.2479 C   0  0  0  0  0  0  0  0  0  0  0  0
   -1.8702   -1.3901    0.0026 C   0  0  0  0  0  0  0  0  0  0  0  0
   -0.4940   -0.9086   -0.0838 C   0  0  0  0  0  0  0  0  0  0  0  0
    0.4698   -1.3819    0.8112 C   0  0  0  0  0  0  0  0  0  0  0  0
    1.7853   -0.9189    0.7306 C   0  0  0  0  0  0  0  0  0  0  0  0
    2.1544    0.0165   -0.2396 C   0  0  0  0  0  0  0  0  0  0  0  0
    3.4707    0.3844   -0.2036 O   0  0  0  0  0  0  0  0  0  0  0  0
    3.9019    1.3586   -1.1582 C   0  0  0  0  0  0  0  0  0  0  0  0
    5.4000    1.6530   -0.9482 C   0  0  0  0  0  0  0  0  0  0  0  0
    5.6941    2.6949    0.0618 N   0  0  0  0  0  0  0  0  0  0  0  0
    5.2366    2.3053    1.3978 C   0  0  0  0  0  0  0  0  0  0  0  0
    7.1337    2.9662    0.0908 C   0  0  0  0  0  0  0  0  0  0  0  0
    1.1944    0.4847   -1.1368 C   0  0  0  0  0  0  0  0  0  0  0  0
   -0.1244    0.0221   -1.0609 C   0  0  0  0  0  0  0  0  0  0  0  0
   -3.5917    1.8125   -0.1017 C   0  0  0  0  0  0  0  0  0  0  0  0
   -4.7768    5.5610    0.5979 H   0  0  0  0  0  0  0  0  0  0  0  0
   -3.2910    5.7924   -0.4044 H   0  0  0  0  0  0  0  0  0  0  0  0
   -4.8965    5.8523   -1.1415 H   0  0  0  0  0  0  0  0  0  0  0  0
   -2.8321    4.6530    1.6239 H   0  0  0  0  0  0  0  0  0  0  0  0
   -1.6485    3.0230    3.0173 H   0  0  0  0  0  0  0  0  0  0  0  0
   -1.6828    0.6213    2.4537 H   0  0  0  0  0  0  0  0  0  0  0  0
   -5.4119   -4.1960   -0.1182 H   0  0  0  0  0  0  0  0  0  0  0  0
   -4.1194   -6.1717   -0.7708 H   0  0  0  0  0  0  0  0  0  0  0  0
   -2.4343   -7.8152   -0.4950 H   0  0  0  0  0  0  0  0  0  0  0  0
   -1.1776   -8.1236   -1.6994 H   0  0  0  0  0  0  0  0  0  0  0  0
   -2.6961   -7.3919   -2.2323 H   0  0  0  0  0  0  0  0  0  0  0  0
   -0.5067   -3.8365   -0.7896 H   0  0  0  0  0  0  0  0  0  0  0  0
    0.2052   -2.1068    1.5772 H   0  0  0  0  0  0  0  0  0  0  0  0
    2.5292   -1.2897    1.4314 H   0  0  0  0  0  0  0  0  0  0  0  0
    3.3201    2.2843   -1.0682 H   0  0  0  0  0  0  0  0  0  0  0  0
    3.7750    0.9464   -2.1670 H   0  0  0  0  0  0  0  0  0  0  0  0
    5.7863    2.0129   -1.9104 H   0  0  0  0  0  0  0  0  0  0  0  0
    5.9300    0.7231   -0.7037 H   0  0  0  0  0  0  0  0  0  0  0  0
    5.5242    3.0609    2.1381 H   0  0  0  0  0  0  0  0  0  0  0  0
    4.1445    2.2498    1.4400 H   0  0  0  0  0  0  0  0  0  0  0  0
    5.6532    1.3423    1.7141 H   0  0  0  0  0  0  0  0  0  0  0  0
    7.4826    3.3045   -0.8913 H   0  0  0  0  0  0  0  0  0  0  0  0
    7.7157    2.0832    0.3793 H   0  0  0  0  0  0  0  0  0  0  0  0
    7.3594    3.7741    0.7958 H   0  0  0  0  0  0  0  0  0  0  0  0
    1.4336    1.2098   -1.9073 H   0  0  0  0  0  0  0  0  0  0  0  0
   -0.8602    0.3972   -1.7690 H   0  0  0  0  0  0  0  0  0  0  0  0
   -4.1340    1.4856   -0.9864 H   0  0  0  0  0  0  0  0  0  0  0  0
  1  2  1  0
  2  3  1  0
  3  4  2  0
  4  5  1  0
  5  6  2  0
  6  7  1  0
  7  8  1  0
  8  9  1  0
  9 10  1  0
 10 11  2  0
 11 12  1  0
 12 13  2  0
 13 14  1  0
 14 15  1  0
 13 16  1  0
 16 17  2  0
 17 18  1  0
 18 19  1  0
 19 20  2  0
 20 21  1  0
 21 22  2  0
 22 23  1  0
 23 24  1  0
 24 25  1  0
 25 26  1  0
 26 27  1  0
 26 28  1  0
 22 29  1  0
 29 30  2  0
  7 31  2  0
 31  3  1  0
 18  8  2  0
 30 19  1  0
 17 10  1  0
  1 32  1  0
  1 33  1  0
  1 34  1  0
  4 35  1  0
  5 36  1  0
  6 37  1  0
 11 38  1  0
 12 39  1  0
 15 40  1  0
 15 41  1  0
 15 42  1  0
 16 43  1  0
 20 44  1  0
 21 45  1  0
 24 46  1  0
 24 47  1  0
 25 48  1  0
 25 49  1  0
 27 50  1  0
 27 51  1  0
 27 52  1  0
 28 53  1  0
 28 54  1  0
 28 55  1  0
 29 56  1  0
 30 57  1  0
 31 58  1  0
M  END
$$$$
