
     RDKit          3D

 51 54  0  0  0  0  0  0  0  0999 V2000
   -6.6657   -0.4406   -2.1507 C   0  0  0  0  0  0  0  0  0  0  0  0
   -6.5275    0.5837   -1.0334 C   0  0  0  0  0  0  0  0  0  0  0  0
   -5.6667    0.0764    0.0450 N   0  0  0  0  0  0  0  0  0  0  0  0
   -6.3598   -0.6209    1.1369 C   0  0  0  0  0  0  0  0  0  0  0  0
   -6.7207    0.3431    2.2577 C   0  0  0  0  0  0  0  0  0  0  0  0
   -4.2860    0.2445    0.0288 C   0  0  0  0  0  0  0  0  0  0  0  0
   -3.4703   -0.1249    1.1176 C   0  0  0  0  0  0  0  0  0  0  0  0
   -2.0739    0.0389    1.1155 C   0  0  0  0  0  0  0  0  0  0  0  0
   -1.4399    0.5839    0.0078 C   0  0  0  0  0  0  0  0  0  0  0  0
   -0.0043    0.7870   -0.0542 C   0  0  0  0  0  0  0  0  0  0  0  0
    0.5683    1.3207   -1.1471 C   0  0  0  0  0  0  0  0  0  0  0  0
    1.9873    1.4943   -1.1434 C   0  0  0  0  0  0  0  0  0  0  0  0
    2.8612    0.6399   -0.6359 N   0  0  0  0  0  0  0  0  0  0  0  0
    4.1659    1.1033   -0.7564 C   0  0  0  0  0  0  0  0  0  0  0  0
    5.2938    0.2937   -0.2916 C   0  0  0  0  0  0  0  0  0  0  0  0
    6.6269    0.7019   -0.4298 C   0  0  0  0  0  0  0  0  0  0  0  0
    7.6724   -0.1087    0.0297 C   0  0  0  0  0  0  0  0  0  0  0  0
    7.4125   -1.3401    0.6332 C   0  0  0  0  0  0  0  0  0  0  0  0
    8.5239   -2.0277    1.0337 O   0  0  0  0  0  0  0  0  0  0  0  0
    8.3104   -3.3027    1.6266 C   0  0  0  0  0  0  0  0  0  0  0  0
    6.0915   -1.7576    0.7761 C   0  0  0  0  0  0  0  0  0  0  0  0
    5.0446   -0.9468    0.3169 C   0  0  0  0  0  0  0  0  0  0  0  0
    4.2669    2.3553   -1.3258 C   0  0  0  0  0  0  0  0  0  0  0  0
    2.7144    2.9606   -1.7147 S   0  0  0  0  0  0  0  0  0  0  0  0
   -0.2486    1.6695   -2.3412 C   0  0  0  0  0  0  0  0  0  0  0  0
    0.2362    2.0765   -3.3917 O   0  0  0  0  0  0  0  0  0  0  0  0
   -1.6286    1.5021   -2.2258 O   0  0  0  0  0  0  0  0  0  0  0  0
   -2.2195    0.9536   -1.0724 C   0  0  0  0  0  0  0  0  0  0  0  0
   -3.6091    0.7935   -1.0731 C   0  0  0  0  0  0  0  0  0  0  0  0
   -7.0932   -1.3764   -1.7754 H   0  0  0  0  0  0  0  0  0  0  0  0
   -5.6997   -0.6774   -2.6067 H   0  0  0  0  0  0  0  0  0  0  0  0
   -7.3257   -0.0570   -2.9349 H   0  0  0  0  0  0  0  0  0  0  0  0
   -7.5279    0.7984   -0.6359 H   0  0  0  0  0  0  0  0  0  0  0  0
   -6.1707    1.5439   -1.4226 H   0  0  0  0  0  0  0  0  0  0  0  0
   -7.2858   -1.0719    0.7576 H   0  0  0  0  0  0  0  0  0  0  0  0
   -5.7750   -1.4654    1.5179 H   0  0  0  0  0  0  0  0  0  0  0  0
   -7.2543   -0.1855    3.0536 H   0  0  0  0  0  0  0  0  0  0  0  0
   -7.3680    1.1467    1.8917 H   0  0  0  0  0  0  0  0  0  0  0  0
   -5.8320    0.8075    2.6955 H   0  0  0  0  0  0  0  0  0  0  0  0
   -3.9034   -0.5474    2.0196 H   0  0  0  0  0  0  0  0  0  0  0  0
   -1.5063   -0.2648    1.9917 H   0  0  0  0  0  0  0  0  0  0  0  0
    0.5869    0.5031    0.8127 H   0  0  0  0  0  0  0  0  0  0  0  0
    6.8885    1.6472   -0.8958 H   0  0  0  0  0  0  0  0  0  0  0  0
    8.7015    0.2245   -0.0876 H   0  0  0  0  0  0  0  0  0  0  0  0
    7.7384   -3.2147    2.5565 H   0  0  0  0  0  0  0  0  0  0  0  0
    9.2893   -3.7229    1.8766 H   0  0  0  0  0  0  0  0  0  0  0  0
    7.8230   -3.9882    0.9251 H   0  0  0  0  0  0  0  0  0  0  0  0
    5.8344   -2.7053    1.2375 H   0  0  0  0  0  0  0  0  0  0  0  0
    4.0210   -1.2987    0.4387 H   0  0  0  0  0  0  0  0  0  0  0  0
    5.1427    2.9519   -1.5306 H   0  0  0  0  0  0  0  0  0  0  0  0
   -4.1394    1.0999   -1.9681 H   0  0  0  0  0  0  0  0  0  0  0  0
  1  2  1  0
  2  3  1  0
  3  4  1  0
  4  5  1  0
  3  6  1  0
  6  7  2  0
  7  8  1  0
  8  9  2  0
  9 10  1  0
 10 11  2  0
 11 12  1  0
 12 13  2  0
 13 14  1  0
 14 15  1  0
 15 16  2  0
 16 17  1  0
 17 18  2  0
 18 19  1  0
 19 20  1  0
 18 21  1  0
 21 22  2  0
 14 23  2  0
 23 24  1  0
 11 25  1  0
 25 26  2  0
 25 27  1  0
 27 28  1  0
 28 29  2  0
 29  6  1  0
 28  9  1  0
 24 12  1  0
 22 15  1  0
  1 30  1  0
  1 31  1  0
  1 32  1  0
  2 33  1  0
  2 34  1  0
  4 35  1  0
  4 36  1  0
  5 37  1  0
  5 38  1  0
  5 39  1  0
  7 40  1  0
  8 41  1  0
 10 42  1  0
 16 43  1  0
 17 44  1  0
 20 45  1  0
 20 46  1  0
 20 47  1  0
 21 48  1  0
 22 49  1  0
 23 50  1  0
 29 51  1  0
M  END
$$$$
