
     RDKit          3D

 28 29  0  0  0  0  0  0  0  0999 V2000
    4.6521   -1.5733    1.2486 C   0  0  0  0  0  0  0  0  0  0  0  0
    4.1263   -0.1701    1.4857 C   0  0  0  0  0  0  0  0  0  0  0  0
    2.8207   -0.0264    0.9080 O   0  0  0  0  0  0  0  0  0  0  0  0
    2.7950    0.3337   -0.4075 C   0  0  0  0  0  0  0  0  0  0  0  0
    3.7807    0.5308   -1.1041 O   0  0  0  0  0  0  0  0  0  0  0  0
    1.4246    0.4414   -0.8460 C   0  0  0  0  0  0  0  0  0  0  0  0
    0.9412    0.7798   -2.0987 C   0  0  0  0  0  0  0  0  0  0  0  0
   -0.4748    0.7522   -2.0467 C   0  0  0  0  0  0  0  0  0  0  0  0
   -0.8362    0.3971   -0.7635 C   0  0  0  0  0  0  0  0  0  0  0  0
   -2.1226    0.2216   -0.1682 C   0  0  0  0  0  0  0  0  0  0  0  0
   -3.3750    0.3625   -0.7266 C   0  0  0  0  0  0  0  0  0  0  0  0
   -4.2805    0.0681    0.3161 C   0  0  0  0  0  0  0  0  0  0  0  0
   -5.7592    0.0639    0.2793 C   0  0  0  0  0  0  0  0  0  0  0  0
   -3.6337   -0.2351    1.4457 N   0  0  0  0  0  0  0  0  0  0  0  0
   -2.2891   -0.1391    1.1427 O   0  0  0  0  0  0  0  0  0  0  0  0
    0.3226    0.2129   -0.0507 N   0  0  0  0  0  0  0  0  0  0  0  0
    3.9500   -2.3177    1.6384 H   0  0  0  0  0  0  0  0  0  0  0  0
    4.7677   -1.7744    0.1789 H   0  0  0  0  0  0  0  0  0  0  0  0
    5.6209   -1.7121    1.7366 H   0  0  0  0  0  0  0  0  0  0  0  0
    4.8187    0.5888    1.1036 H   0  0  0  0  0  0  0  0  0  0  0  0
    4.0204    0.0055    2.5613 H   0  0  0  0  0  0  0  0  0  0  0  0
    1.5551    1.0211   -2.9587 H   0  0  0  0  0  0  0  0  0  0  0  0
   -1.1497    0.9697   -2.8645 H   0  0  0  0  0  0  0  0  0  0  0  0
   -3.6028    0.6392   -1.7447 H   0  0  0  0  0  0  0  0  0  0  0  0
   -6.1643    0.7844    0.9971 H   0  0  0  0  0  0  0  0  0  0  0  0
   -6.1478   -0.9289    0.5278 H   0  0  0  0  0  0  0  0  0  0  0  0
   -6.1301    0.3327   -0.7150 H   0  0  0  0  0  0  0  0  0  0  0  0
    0.3699   -0.0542    0.9251 H   0  0  0  0  0  0  0  0  0  0  0  0
  1  2  1  0
  2  3  1  0
  3  4  1  0
  4  5  2  0
  4  6  1  0
  6  7  2  0
  7  8  1  0
  8  9  2  0
  9 10  1  0
 10 11  2  0
 11 12  1  0
 12 13  1  0
 12 14  2  0
 14 15  1  0
  9 16  1  0
 16  6  1  0
 15 10  1  0
  1 17  1  0
  1 18  1  0
  1 19  1  0
  2 20  1  0
  2 21  1  0
  7 22  1  0
  8 23  1  0
 11 24  1  0
 13 25  1  0
 13 26  1  0
 13 27  1  0
 16 28  1  0
M  END
$$$$
