
     RDKit          3D

 54 57  0  0  0  0  0  0  0  0999 V2000
    5.9290    0.2416    3.6140 C   0  0  0  0  0  0  0  0  0  0  0  0
    6.5776    0.0434    2.2416 C   0  0  0  0  0  0  0  0  0  0  0  0
    7.5146    1.2071    1.9083 C   0  0  0  0  0  0  0  0  0  0  0  0
    5.5359   -0.1619    1.1568 C   0  0  0  0  0  0  0  0  0  0  0  0
    5.5011   -1.3662    0.4413 C   0  0  0  0  0  0  0  0  0  0  0  0
    4.5501   -1.5814   -0.5642 C   0  0  0  0  0  0  0  0  0  0  0  0
    3.6141   -0.5968   -0.8740 C   0  0  0  0  0  0  0  0  0  0  0  0
    2.6266   -0.7296   -1.8689 N   0  0  0  0  0  0  0  0  0  0  0  0
    2.3546   -1.8336   -2.6573 C   0  0  0  0  0  0  0  0  0  0  0  0
    2.9325   -2.9167   -2.6256 O   0  0  0  0  0  0  0  0  0  0  0  0
    1.2093   -1.5896   -3.6478 C   0  0  0  0  0  0  0  0  0  0  0  0
   -0.0893   -1.6155   -3.0510 O   0  0  0  0  0  0  0  0  0  0  0  0
   -0.4599   -0.4792   -2.4175 C   0  0  0  0  0  0  0  0  0  0  0  0
    0.2293    0.5234   -2.3041 O   0  0  0  0  0  0  0  0  0  0  0  0
   -1.8310   -0.6043   -1.8547 C   0  0  0  0  0  0  0  0  0  0  0  0
   -2.5763   -1.7855   -1.9430 C   0  0  0  0  0  0  0  0  0  0  0  0
   -3.8634   -1.8497   -1.3933 C   0  0  0  0  0  0  0  0  0  0  0  0
   -4.4302   -0.7394   -0.7460 C   0  0  0  0  0  0  0  0  0  0  0  0
   -3.6797    0.4242   -0.6662 C   0  0  0  0  0  0  0  0  0  0  0  0
   -2.3883    0.5053   -1.2106 C   0  0  0  0  0  0  0  0  0  0  0  0
   -4.3271    1.8447    0.1217 S   0  0  0  0  0  6  0  0  0  0  0  0
   -3.4773    2.0919    1.2690 O   0  0  0  0  0  0  0  0  0  0  0  0
   -4.5143    2.8333   -0.9208 O   0  0  0  0  0  0  0  0  0  0  0  0
   -5.9150    1.4722    0.7479 C   0  0  0  0  0  0  0  0  0  0  0  0
   -6.5977    2.4740    1.4519 C   0  0  0  0  0  0  0  0  0  0  0  0
   -7.8667    2.2148    1.9636 C   0  0  0  0  0  0  0  0  0  0  0  0
   -8.4465    0.9631    1.7715 C   0  0  0  0  0  0  0  0  0  0  0  0
   -7.7560   -0.0285    1.0683 C   0  0  0  0  0  0  0  0  0  0  0  0
   -6.4752    0.2181    0.5474 C   0  0  0  0  0  0  0  0  0  0  0  0
   -5.7959   -0.8752   -0.1868 C   0  0  0  0  0  0  0  0  0  0  0  0
   -6.3860   -1.9417   -0.3381 O   0  0  0  0  0  0  0  0  0  0  0  0
    3.6449    0.6087   -0.1647 C   0  0  0  0  0  0  0  0  0  0  0  0
    4.5939    0.8247    0.8399 C   0  0  0  0  0  0  0  0  0  0  0  0
    6.6940    0.3033    4.3956 H   0  0  0  0  0  0  0  0  0  0  0  0
    5.3347    1.1609    3.6576 H   0  0  0  0  0  0  0  0  0  0  0  0
    5.2665   -0.5962    3.8586 H   0  0  0  0  0  0  0  0  0  0  0  0
    7.1975   -0.8608    2.3060 H   0  0  0  0  0  0  0  0  0  0  0  0
    7.9888    1.0606    0.9314 H   0  0  0  0  0  0  0  0  0  0  0  0
    8.3095    1.2880    2.6578 H   0  0  0  0  0  0  0  0  0  0  0  0
    6.9847    2.1655    1.8815 H   0  0  0  0  0  0  0  0  0  0  0  0
    6.2168   -2.1569    0.6572 H   0  0  0  0  0  0  0  0  0  0  0  0
    4.5728   -2.5323   -1.0868 H   0  0  0  0  0  0  0  0  0  0  0  0
    1.9994    0.0681   -1.9824 H   0  0  0  0  0  0  0  0  0  0  0  0
    1.3776   -0.6532   -4.1944 H   0  0  0  0  0  0  0  0  0  0  0  0
    1.2373   -2.3897   -4.3959 H   0  0  0  0  0  0  0  0  0  0  0  0
   -2.1730   -2.6701   -2.4329 H   0  0  0  0  0  0  0  0  0  0  0  0
   -4.4220   -2.7829   -1.4751 H   0  0  0  0  0  0  0  0  0  0  0  0
   -1.8233    1.4346   -1.1307 H   0  0  0  0  0  0  0  0  0  0  0  0
   -6.1440    3.4527    1.6012 H   0  0  0  0  0  0  0  0  0  0  0  0
   -8.4037    2.9866    2.5109 H   0  0  0  0  0  0  0  0  0  0  0  0
   -9.4379    0.7550    2.1687 H   0  0  0  0  0  0  0  0  0  0  0  0
   -8.2294   -1.0006    0.9307 H   0  0  0  0  0  0  0  0  0  0  0  0
    2.9290    1.3982   -0.3811 H   0  0  0  0  0  0  0  0  0  0  0  0
    4.5870    1.7733    1.3717 H   0  0  0  0  0  0  0  0  0  0  0  0
  1  2  1  0
  2  3  1  0
  2  4  1  0
  4  5  2  0
  5  6  1  0
  6  7  2  0
  7  8  1  0
  8  9  1  0
  9 10  2  0
  9 11  1  0
 11 12  1  0
 12 13  1  0
 13 14  2  0
 13 15  1  0
 15 16  2  0
 16 17  1  0
 17 18  2  0
 18 19  1  0
 19 20  2  0
 19 21  1  0
 21 22  2  0
 21 23  2  0
 21 24  1  0
 24 25  2  0
 25 26  1  0
 26 27  2  0
 27 28  1  0
 28 29  2  0
 29 30  1  0
 30 31  2  0
  7 32  1  0
 32 33  2  0
 33  4  1  0
 20 15  1  0
 29 24  1  0
 30 18  1  0
  1 34  1  0
  1 35  1  0
  1 36  1  0
  2 37  1  0
  3 38  1  0
  3 39  1  0
  3 40  1  0
  5 41  1  0
  6 42  1  0
  8 43  1  0
 11 44  1  0
 11 45  1  0
 16 46  1  0
 17 47  1  0
 20 48  1  0
 25 49  1  0
 26 50  1  0
 27 51  1  0
 28 52  1  0
 32 53  1  0
 33 54  1  0
M  END
$$$$
