
     RDKit          3D

 41 42  0  0  0  0  0  0  0  0999 V2000
    7.0359    0.9390    1.2390 C   0  0  0  0  0  0  0  0  0  0  0  0
    5.7326    0.4271    0.9585 O   0  0  0  0  0  0  0  0  0  0  0  0
    5.2074    0.8641   -0.2192 C   0  0  0  0  0  0  0  0  0  0  0  0
    5.7772    1.6339   -0.9825 O   0  0  0  0  0  0  0  0  0  0  0  0
    3.8685    0.3383   -0.4226 C   0  0  0  0  0  0  0  0  0  0  0  0
    2.9591    0.8247   -1.3509 C   0  0  0  0  0  0  0  0  0  0  0  0
    1.7529    0.1148   -1.2079 C   0  0  0  0  0  0  0  0  0  0  0  0
    1.9169   -0.8162   -0.1954 C   0  0  0  0  0  0  0  0  0  0  0  0
    0.7591   -1.9713    0.4989 S   0  0  0  0  0  6  0  0  0  0  0  0
    1.0461   -3.2218   -0.1622 O   0  0  0  0  0  0  0  0  0  0  0  0
    0.8730   -1.8100    1.9301 O   0  0  0  0  0  0  0  0  0  0  0  0
   -0.7770   -1.4937    0.0281 N   0  0  0  0  0  0  0  0  0  0  0  0
   -1.3446   -0.3507    0.7549 C   0  0  0  0  0  0  0  0  0  0  0  0
   -2.6770    0.0513    0.1692 C   0  0  0  0  0  0  0  0  0  0  0  0
   -3.8554   -0.0580    0.9196 C   0  0  0  0  0  0  0  0  0  0  0  0
   -5.0893    0.3150    0.3727 C   0  0  0  0  0  0  0  0  0  0  0  0
   -5.1614    0.8006   -0.9325 C   0  0  0  0  0  0  0  0  0  0  0  0
   -6.2967    1.1973   -1.5833 O   0  0  0  0  0  0  0  0  0  0  0  0
   -7.5179    1.1055   -0.8608 C   0  0  0  0  0  0  0  0  0  0  0  0
   -3.9898    0.9087   -1.6841 C   0  0  0  0  0  0  0  0  0  0  0  0
   -2.7573    0.5380   -1.1416 C   0  0  0  0  0  0  0  0  0  0  0  0
    3.2396   -0.7244    0.2152 N   0  0  0  0  0  0  0  0  0  0  0  0
    3.8781   -1.6390    1.1442 C   0  0  0  0  0  0  0  0  0  0  0  0
    7.0095    2.0298    1.3253 H   0  0  0  0  0  0  0  0  0  0  0  0
    7.3627    0.5246    2.1968 H   0  0  0  0  0  0  0  0  0  0  0  0
    7.7459    0.6263    0.4670 H   0  0  0  0  0  0  0  0  0  0  0  0
    3.1552    1.6380   -2.0410 H   0  0  0  0  0  0  0  0  0  0  0  0
    0.8395    0.2668   -1.7689 H   0  0  0  0  0  0  0  0  0  0  0  0
   -1.4010   -2.2993   -0.0147 H   0  0  0  0  0  0  0  0  0  0  0  0
   -0.6710    0.5121    0.7116 H   0  0  0  0  0  0  0  0  0  0  0  0
   -1.4794   -0.6219    1.8083 H   0  0  0  0  0  0  0  0  0  0  0  0
   -3.8265   -0.4345    1.9403 H   0  0  0  0  0  0  0  0  0  0  0  0
   -5.9732    0.2130    0.9935 H   0  0  0  0  0  0  0  0  0  0  0  0
   -8.3210    1.4569   -1.5158 H   0  0  0  0  0  0  0  0  0  0  0  0
   -7.7393    0.0679   -0.5899 H   0  0  0  0  0  0  0  0  0  0  0  0
   -7.5030    1.7511    0.0235 H   0  0  0  0  0  0  0  0  0  0  0  0
   -4.0379    1.2837   -2.7037 H   0  0  0  0  0  0  0  0  0  0  0  0
   -1.8607    0.6261   -1.7509 H   0  0  0  0  0  0  0  0  0  0  0  0
    3.3394   -2.5865    1.1808 H   0  0  0  0  0  0  0  0  0  0  0  0
    3.8914   -1.1704    2.1309 H   0  0  0  0  0  0  0  0  0  0  0  0
    4.8892   -1.8572    0.7918 H   0  0  0  0  0  0  0  0  0  0  0  0
  1  2  1  0
  2  3  1  0
  3  4  2  0
  3  5  1  0
  5  6  2  0
  6  7  1  0
  7  8  2  0
  8  9  1  0
  9 10  2  0
  9 11  2  0
  9 12  1  0
 12 13  1  0
 13 14  1  0
 14 15  2  0
 15 16  1  0
 16 17  2  0
 17 18  1  0
 18 19  1  0
 17 20  1  0
 20 21  2  0
  8 22  1  0
 22 23  1  0
 22  5  1  0
 21 14  1  0
  1 24  1  0
  1 25  1  0
  1 26  1  0
  6 27  1  0
  7 28  1  0
 12 29  1  0
 13 30  1  0
 13 31  1  0
 15 32  1  0
 16 33  1  0
 19 34  1  0
 19 35  1  0
 19 36  1  0
 20 37  1  0
 21 38  1  0
 23 39  1  0
 23 40  1  0
 23 41  1  0
M  END
$$$$
