
     RDKit          3D

 47 48  0  0  0  0  0  0  0  0999 V2000
    4.7501    3.0784   -2.6388 C   0  0  0  0  0  0  0  0  0  0  0  0
    5.8608    2.4091   -2.0509 O   0  0  0  0  0  0  0  0  0  0  0  0
    5.5778    1.3976   -1.1684 C   0  0  0  0  0  0  0  0  0  0  0  0
    4.3054    0.9601   -0.7939 C   0  0  0  0  0  0  0  0  0  0  0  0
    4.1618   -0.0976    0.1208 C   0  0  0  0  0  0  0  0  0  0  0  0
    2.8424   -0.5782    0.5471 C   0  0  0  0  0  0  0  0  0  0  0  0
    1.8632   -0.8918   -0.3162 C   0  0  0  0  0  0  0  0  0  0  0  0
    0.5627   -1.4270    0.1892 C   0  0  0  0  0  0  0  0  0  0  0  0
    0.3369   -1.4866    1.3952 O   0  0  0  0  0  0  0  0  0  0  0  0
   -0.3952   -1.9425   -0.8552 C   0  0  0  0  0  0  0  0  0  0  0  0
   -1.8449   -1.9598   -0.4464 C   0  0  0  0  0  0  0  0  0  0  0  0
   -2.7052   -1.4080   -1.1314 O   0  0  0  0  0  0  0  0  0  0  0  0
   -2.2227   -2.7722    0.7417 C   0  0  0  0  0  0  0  0  0  0  0  0
   -3.0201   -2.3329    1.7267 C   0  0  0  0  0  0  0  0  0  0  0  0
   -3.6104   -0.9958    1.8149 C   0  0  0  0  0  0  0  0  0  0  0  0
   -2.9435    0.0047    2.5320 C   0  0  0  0  0  0  0  0  0  0  0  0
   -3.5107    1.2725    2.6538 C   0  0  0  0  0  0  0  0  0  0  0  0
   -4.7403    1.5275    2.0532 C   0  0  0  0  0  0  0  0  0  0  0  0
   -5.2848    2.7770    2.1978 O   0  0  0  0  0  0  0  0  0  0  0  0
   -5.4185    0.5463    1.3210 C   0  0  0  0  0  0  0  0  0  0  0  0
   -6.6231    0.9425    0.7931 O   0  0  0  0  0  0  0  0  0  0  0  0
   -7.3101   -0.0198   -0.0017 C   0  0  0  0  0  0  0  0  0  0  0  0
   -4.8427   -0.7207    1.2026 C   0  0  0  0  0  0  0  0  0  0  0  0
    5.3025   -0.6935    0.6766 C   0  0  0  0  0  0  0  0  0  0  0  0
    6.5750   -0.2616    0.3066 C   0  0  0  0  0  0  0  0  0  0  0  0
    6.6989    0.7725   -0.6101 C   0  0  0  0  0  0  0  0  0  0  0  0
    7.9586    1.1738   -0.9578 O   0  0  0  0  0  0  0  0  0  0  0  0
    4.1592    3.6019   -1.8806 H   0  0  0  0  0  0  0  0  0  0  0  0
    5.1443    3.8281   -3.3329 H   0  0  0  0  0  0  0  0  0  0  0  0
    4.1298    2.3852   -3.2170 H   0  0  0  0  0  0  0  0  0  0  0  0
    3.4127    1.4336   -1.1895 H   0  0  0  0  0  0  0  0  0  0  0  0
    2.7065   -0.7088    1.6196 H   0  0  0  0  0  0  0  0  0  0  0  0
    1.9864   -0.8068   -1.3896 H   0  0  0  0  0  0  0  0  0  0  0  0
   -0.0987   -2.9600   -1.1326 H   0  0  0  0  0  0  0  0  0  0  0  0
   -0.3168   -1.3125   -1.7484 H   0  0  0  0  0  0  0  0  0  0  0  0
   -1.7610   -3.7501    0.8130 H   0  0  0  0  0  0  0  0  0  0  0  0
   -3.2197   -2.9744    2.5813 H   0  0  0  0  0  0  0  0  0  0  0  0
   -1.9820   -0.1987    2.9976 H   0  0  0  0  0  0  0  0  0  0  0  0
   -3.0028    2.0535    3.2125 H   0  0  0  0  0  0  0  0  0  0  0  0
   -6.1162    2.7482    1.6871 H   0  0  0  0  0  0  0  0  0  0  0  0
   -7.5697   -0.9043    0.5890 H   0  0  0  0  0  0  0  0  0  0  0  0
   -8.2440    0.4362   -0.3468 H   0  0  0  0  0  0  0  0  0  0  0  0
   -6.7236   -0.2914   -0.8851 H   0  0  0  0  0  0  0  0  0  0  0  0
   -5.3243   -1.5126    0.6399 H   0  0  0  0  0  0  0  0  0  0  0  0
    5.2095   -1.5078    1.3952 H   0  0  0  0  0  0  0  0  0  0  0  0
    7.4609   -0.7259    0.7294 H   0  0  0  0  0  0  0  0  0  0  0  0
    7.8259    1.8926   -1.6060 H   0  0  0  0  0  0  0  0  0  0  0  0
  1  2  1  0
  2  3  1  0
  3  4  2  0
  4  5  1  0
  5  6  1  0
  6  7  2  3
  7  8  1  0
  8  9  2  0
  8 10  1  0
 10 11  1  0
 11 12  2  0
 11 13  1  0
 13 14  2  3
 14 15  1  0
 15 16  2  0
 16 17  1  0
 17 18  2  0
 18 19  1  0
 18 20  1  0
 20 21  1  0
 21 22  1  0
 20 23  2  0
  5 24  2  0
 24 25  1  0
 25 26  2  0
 26 27  1  0
 26  3  1  0
 23 15  1  0
  1 28  1  0
  1 29  1  0
  1 30  1  0
  4 31  1  0
  6 32  1  0
  7 33  1  0
 10 34  1  0
 10 35  1  0
 13 36  1  0
 14 37  1  0
 16 38  1  0
 17 39  1  0
 19 40  1  0
 22 41  1  0
 22 42  1  0
 22 43  1  0
 23 44  1  0
 24 45  1  0
 25 46  1  0
 27 47  1  0
M  END
$$$$
