
     RDKit          3D

 28 28  0  0  0  0  0  0  0  0999 V2000
   -3.0657   -0.1870    0.1681 C   0  0  0  0  0  0  0  0  0  0  0  0
   -2.0569   -1.3060    0.4603 C   0  0  0  0  0  0  0  0  0  0  0  0
   -2.7933   -2.4637    1.1597 C   0  0  0  0  0  0  0  0  0  0  0  0
   -1.4603   -1.8382   -0.8487 C   0  0  0  0  0  0  0  0  0  0  0  0
   -0.9594   -0.7563    1.3986 C   0  0  0  0  0  0  0  0  0  0  0  0
   -0.9064   -1.0933    2.5865 O   0  0  0  0  0  0  0  0  0  0  0  0
    0.0380    0.2480    0.8498 C   0  0  0  0  0  0  0  0  0  0  0  0
    1.6165   -0.5802    0.5181 S   0  0  0  0  0  0  0  0  0  0  0  0
    2.5850    0.8163    0.0112 C   0  0  0  0  0  0  0  0  0  0  0  0
    1.9622    1.9767   -0.2624 N   0  0  0  0  0  0  0  0  0  0  0  0
    2.7477    2.9986   -0.6523 C   0  0  0  0  0  0  0  0  0  0  0  0
    4.1120    2.9023   -0.7817 C   0  0  0  0  0  0  0  0  0  0  0  0
    4.6468    1.6727   -0.4849 C   0  0  0  0  0  0  0  0  0  0  0  0
    3.9097    0.6186   -0.0913 N   0  0  0  0  0  0  0  0  0  0  0  0
   -3.9092   -0.5584   -0.4247 H   0  0  0  0  0  0  0  0  0  0  0  0
   -3.4663    0.2347    1.0972 H   0  0  0  0  0  0  0  0  0  0  0  0
   -2.6093    0.6368   -0.3906 H   0  0  0  0  0  0  0  0  0  0  0  0
   -3.5775   -2.8825    0.5189 H   0  0  0  0  0  0  0  0  0  0  0  0
   -2.1014   -3.2743    1.4164 H   0  0  0  0  0  0  0  0  0  0  0  0
   -3.2689   -2.1315    2.0900 H   0  0  0  0  0  0  0  0  0  0  0  0
   -0.6956   -2.5984   -0.6536 H   0  0  0  0  0  0  0  0  0  0  0  0
   -2.2327   -2.2956   -1.4776 H   0  0  0  0  0  0  0  0  0  0  0  0
   -0.9934   -1.0436   -1.4399 H   0  0  0  0  0  0  0  0  0  0  0  0
   -0.3549    0.7162   -0.0557 H   0  0  0  0  0  0  0  0  0  0  0  0
    0.1661    1.0325    1.6038 H   0  0  0  0  0  0  0  0  0  0  0  0
    2.2287    3.9290   -0.8649 H   0  0  0  0  0  0  0  0  0  0  0  0
    4.7233    3.7364   -1.0961 H   0  0  0  0  0  0  0  0  0  0  0  0
    5.7152    1.4901   -0.5561 H   0  0  0  0  0  0  0  0  0  0  0  0
  1  2  1  0
  2  3  1  0
  2  4  1  0
  2  5  1  0
  5  6  2  0
  5  7  1  0
  7  8  1  0
  8  9  1  0
  9 10  2  0
 10 11  1  0
 11 12  2  0
 12 13  1  0
 13 14  2  0
 14  9  1  0
  1 15  1  0
  1 16  1  0
  1 17  1  0
  3 18  1  0
  3 19  1  0
  3 20  1  0
  4 21  1  0
  4 22  1  0
  4 23  1  0
  7 24  1  0
  7 25  1  0
 11 26  1  0
 12 27  1  0
 13 28  1  0
M  END
$$$$
