
     RDKit          3D

 48 50  0  0  0  0  0  0  0  0999 V2000
    9.1094    1.3429    0.2455 C   0  0  0  0  0  0  0  0  0  0  0  0
    8.6227    0.0232    0.4631 O   0  0  0  0  0  0  0  0  0  0  0  0
    7.2699   -0.1605    0.3850 C   0  0  0  0  0  0  0  0  0  0  0  0
    6.8474   -1.4745    0.6003 C   0  0  0  0  0  0  0  0  0  0  0  0
    5.4902   -1.8132    0.5558 C   0  0  0  0  0  0  0  0  0  0  0  0
    4.5330   -0.8333    0.2883 C   0  0  0  0  0  0  0  0  0  0  0  0
    3.1839   -1.0588    0.2326 O   0  0  0  0  0  0  0  0  0  0  0  0
    2.7366   -2.4125    0.1967 C   0  0  0  0  0  0  0  0  0  0  0  0
    1.2713   -2.3735   -0.0158 C   0  0  0  0  0  0  0  0  0  0  0  0
    0.3670   -1.4016   -0.3722 C   0  0  0  0  0  0  0  0  0  0  0  0
   -0.8917   -2.0625   -0.3968 C   0  0  0  0  0  0  0  0  0  0  0  0
   -2.2185   -1.5148   -0.7111 C   0  0  0  0  0  0  0  0  0  0  0  0
   -3.2078   -2.2150   -0.9171 O   0  0  0  0  0  0  0  0  0  0  0  0
   -2.2893   -0.1286   -0.7402 N   0  0  0  0  0  0  0  0  0  0  0  0
   -3.5669    0.5587   -0.9336 C   0  0  0  0  0  0  0  0  0  0  0  0
   -3.2996    1.9762   -1.4415 C   0  0  0  0  0  0  0  0  0  0  0  0
   -4.3933    0.5500    0.3665 C   0  0  0  0  0  0  0  0  0  0  0  0
   -5.8209    0.9788    0.1493 C   0  0  0  0  0  0  0  0  0  0  0  0
   -6.7600    0.0743   -0.3420 C   0  0  0  0  0  0  0  0  0  0  0  0
   -8.0659    0.5083   -0.5490 C   0  0  0  0  0  0  0  0  0  0  0  0
   -8.3973    1.8271   -0.2640 C   0  0  0  0  0  0  0  0  0  0  0  0
   -7.4025    2.6616    0.2175 C   0  0  0  0  0  0  0  0  0  0  0  0
   -6.1261    2.2698    0.4264 N   0  0  0  0  0  0  0  0  0  0  0  0
   -0.7350   -3.3601   -0.0800 N   0  0  0  0  0  0  0  0  0  0  0  0
    0.6106   -3.5466    0.1593 O   0  0  0  0  0  0  0  0  0  0  0  0
    4.9624    0.4879    0.0794 C   0  0  0  0  0  0  0  0  0  0  0  0
    3.8266    1.7527   -0.2572 Cl  0  0  0  0  0  0  0  0  0  0  0  0
    6.3209    0.8244    0.1257 C   0  0  0  0  0  0  0  0  0  0  0  0
    8.7213    2.0357    0.9996 H   0  0  0  0  0  0  0  0  0  0  0  0
   10.1990    1.3181    0.3466 H   0  0  0  0  0  0  0  0  0  0  0  0
    8.8755    1.6871   -0.7672 H   0  0  0  0  0  0  0  0  0  0  0  0
    7.5863   -2.2466    0.8096 H   0  0  0  0  0  0  0  0  0  0  0  0
    5.2238   -2.8488    0.7434 H   0  0  0  0  0  0  0  0  0  0  0  0
    3.2060   -2.9510   -0.6352 H   0  0  0  0  0  0  0  0  0  0  0  0
    2.9555   -2.9099    1.1481 H   0  0  0  0  0  0  0  0  0  0  0  0
    0.5967   -0.3699   -0.5914 H   0  0  0  0  0  0  0  0  0  0  0  0
   -1.5260    0.4031   -0.3442 H   0  0  0  0  0  0  0  0  0  0  0  0
   -4.1096    0.0124   -1.7163 H   0  0  0  0  0  0  0  0  0  0  0  0
   -4.2291    2.4929   -1.6989 H   0  0  0  0  0  0  0  0  0  0  0  0
   -2.6742    1.9518   -2.3413 H   0  0  0  0  0  0  0  0  0  0  0  0
   -2.7693    2.5741   -0.6917 H   0  0  0  0  0  0  0  0  0  0  0  0
   -4.4003   -0.4520    0.8154 H   0  0  0  0  0  0  0  0  0  0  0  0
   -3.9235    1.2019    1.1158 H   0  0  0  0  0  0  0  0  0  0  0  0
   -6.4812   -0.9529   -0.5622 H   0  0  0  0  0  0  0  0  0  0  0  0
   -8.8171   -0.1788   -0.9289 H   0  0  0  0  0  0  0  0  0  0  0  0
   -9.4057    2.1956   -0.4131 H   0  0  0  0  0  0  0  0  0  0  0  0
   -7.6113    3.7004    0.4545 H   0  0  0  0  0  0  0  0  0  0  0  0
    6.6066    1.8564   -0.0448 H   0  0  0  0  0  0  0  0  0  0  0  0
  1  2  1  0
  2  3  1  0
  3  4  2  0
  4  5  1  0
  5  6  2  0
  6  7  1  0
  7  8  1  0
  8  9  1  0
  9 10  2  0
 10 11  1  0
 11 12  1  0
 12 13  2  0
 12 14  1  0
 14 15  1  0
 15 16  1  0
 15 17  1  0
 17 18  1  0
 18 19  2  0
 19 20  1  0
 20 21  2  0
 21 22  1  0
 22 23  2  0
 11 24  2  0
 24 25  1  0
  6 26  1  0
 26 27  1  0
 26 28  2  0
 28  3  1  0
 25  9  1  0
 23 18  1  0
  1 29  1  0
  1 30  1  0
  1 31  1  0
  4 32  1  0
  5 33  1  0
  8 34  1  0
  8 35  1  0
 10 36  1  0
 14 37  1  0
 15 38  1  0
 16 39  1  0
 16 40  1  0
 16 41  1  0
 17 42  1  0
 17 43  1  0
 19 44  1  0
 20 45  1  0
 21 46  1  0
 22 47  1  0
 28 48  1  0
M  END
$$$$
