
     RDKit          3D

 44 46  0  0  0  0  0  0  0  0999 V2000
   -7.1473   -0.5846   -0.2890 C   0  0  0  0  0  0  0  0  0  0  0  0
   -5.7021   -0.1806   -0.2526 C   0  0  0  0  0  0  0  0  0  0  0  0
   -5.2701    0.9531   -0.9524 C   0  0  0  0  0  0  0  0  0  0  0  0
   -3.9198    1.3307   -0.9546 C   0  0  0  0  0  0  0  0  0  0  0  0
   -3.4977    2.5622   -1.7024 C   0  0  0  0  0  0  0  0  0  0  0  0
   -2.9948    0.5212   -0.2783 C   0  0  0  0  0  0  0  0  0  0  0  0
   -1.6647    0.8609   -0.2712 O   0  0  0  0  0  0  0  0  0  0  0  0
   -0.9974    0.2941   -1.4061 C   0  0  0  0  0  0  0  0  0  0  0  0
    0.4903    0.0868   -1.1135 C   0  0  0  0  0  0  0  0  0  0  0  0
    1.2317   -0.3879   -1.9696 O   0  0  0  0  0  0  0  0  0  0  0  0
    0.8375    0.4835    0.1587 N   0  0  0  0  0  0  0  0  0  0  0  0
    2.1078    0.4005    0.6439 C   0  0  0  0  0  0  0  0  0  0  0  0
    3.1906   -0.0308    0.0553 N   0  0  0  0  0  0  0  0  0  0  0  0
    4.2684    0.0755    0.9266 C   0  0  0  0  0  0  0  0  0  0  0  0
    5.6185   -0.3231    0.5367 C   0  0  0  0  0  0  0  0  0  0  0  0
    5.8684   -0.7900   -0.7510 C   0  0  0  0  0  0  0  0  0  0  0  0
    7.1698   -1.1446   -1.0959 C   0  0  0  0  0  0  0  0  0  0  0  0
    8.1804   -1.0298   -0.1487 C   0  0  0  0  0  0  0  0  0  0  0  0
    7.8457   -0.5637    1.1109 C   0  0  0  0  0  0  0  0  0  0  0  0
    6.5945   -0.2059    1.4762 N   0  0  0  0  0  0  0  0  0  0  0  0
    3.9538    0.5910    2.1726 C   0  0  0  0  0  0  0  0  0  0  0  0
    2.2773    0.9483    2.2517 S   0  0  0  0  0  0  0  0  0  0  0  0
   -3.4069   -0.6031    0.4547 C   0  0  0  0  0  0  0  0  0  0  0  0
   -2.4232   -1.4419    1.2213 C   0  0  0  0  0  0  0  0  0  0  0  0
   -4.7639   -0.9550    0.4416 C   0  0  0  0  0  0  0  0  0  0  0  0
   -7.7957    0.2963   -0.2467 H   0  0  0  0  0  0  0  0  0  0  0  0
   -7.3576   -1.1402   -1.2081 H   0  0  0  0  0  0  0  0  0  0  0  0
   -7.4021   -1.2169    0.5679 H   0  0  0  0  0  0  0  0  0  0  0  0
   -5.9985    1.5527   -1.4966 H   0  0  0  0  0  0  0  0  0  0  0  0
   -3.0887    2.2887   -2.6798 H   0  0  0  0  0  0  0  0  0  0  0  0
   -2.7463    3.1243   -1.1371 H   0  0  0  0  0  0  0  0  0  0  0  0
   -4.3464    3.2376   -1.8625 H   0  0  0  0  0  0  0  0  0  0  0  0
   -1.4147   -0.6813   -1.6909 H   0  0  0  0  0  0  0  0  0  0  0  0
   -1.0723    0.9902   -2.2490 H   0  0  0  0  0  0  0  0  0  0  0  0
    0.1176    0.8577    0.7642 H   0  0  0  0  0  0  0  0  0  0  0  0
    5.0626   -0.8704   -1.4763 H   0  0  0  0  0  0  0  0  0  0  0  0
    7.3873   -1.5053   -2.0964 H   0  0  0  0  0  0  0  0  0  0  0  0
    9.2040   -1.2978   -0.3864 H   0  0  0  0  0  0  0  0  0  0  0  0
    8.6013   -0.4594    1.8849 H   0  0  0  0  0  0  0  0  0  0  0  0
    4.6118    0.7703    3.0120 H   0  0  0  0  0  0  0  0  0  0  0  0
   -1.7912   -0.8088    1.8532 H   0  0  0  0  0  0  0  0  0  0  0  0
   -2.9318   -2.1530    1.8810 H   0  0  0  0  0  0  0  0  0  0  0  0
   -1.7912   -2.0116    0.5318 H   0  0  0  0  0  0  0  0  0  0  0  0
   -5.0949   -1.8397    0.9814 H   0  0  0  0  0  0  0  0  0  0  0  0
  1  2  1  0
  2  3  2  0
  3  4  1  0
  4  5  1  0
  4  6  2  0
  6  7  1  0
  7  8  1  0
  8  9  1  0
  9 10  2  0
  9 11  1  0
 11 12  1  0
 12 13  2  0
 13 14  1  0
 14 15  1  0
 15 16  2  0
 16 17  1  0
 17 18  2  0
 18 19  1  0
 19 20  2  0
 14 21  2  0
 21 22  1  0
  6 23  1  0
 23 24  1  0
 23 25  2  0
 25  2  1  0
 22 12  1  0
 20 15  1  0
  1 26  1  0
  1 27  1  0
  1 28  1  0
  3 29  1  0
  5 30  1  0
  5 31  1  0
  5 32  1  0
  8 33  1  0
  8 34  1  0
 11 35  1  0
 16 36  1  0
 17 37  1  0
 18 38  1  0
 19 39  1  0
 21 40  1  0
 24 41  1  0
 24 42  1  0
 24 43  1  0
 25 44  1  0
M  END
$$$$
