
     RDKit          3D

 33 34  0  0  0  0  0  0  0  0999 V2000
   -2.5926    1.2856   -1.6463 N   0  0  0  0  0  0  0  0  0  0  0  0
   -2.4364    0.3640   -0.7430 C   0  0  0  0  0  0  0  0  0  0  0  0
   -1.3775   -0.5187   -0.7599 N   0  0  0  0  0  0  0  0  0  0  0  0
   -0.2876   -0.0411   -1.5113 O   0  0  0  0  0  0  0  0  0  0  0  0
    0.9128   -0.3140   -0.9044 C   0  0  0  0  0  0  0  0  0  0  0  0
    1.0116   -0.9269    0.1526 O   0  0  0  0  0  0  0  0  0  0  0  0
    2.0315    0.2577   -1.7432 C   0  0  0  0  0  0  0  0  0  0  0  0
    3.4099    0.0244   -1.1729 C   0  0  0  0  0  0  0  0  0  0  0  0
    4.1508   -1.1075   -1.5409 C   0  0  0  0  0  0  0  0  0  0  0  0
    5.4206   -1.3262   -1.0042 C   0  0  0  0  0  0  0  0  0  0  0  0
    5.9591   -0.4207   -0.0921 C   0  0  0  0  0  0  0  0  0  0  0  0
    5.2275    0.7030    0.2872 C   0  0  0  0  0  0  0  0  0  0  0  0
    3.9576    0.9245   -0.2479 C   0  0  0  0  0  0  0  0  0  0  0  0
   -3.4616    0.2129    0.3287 C   0  0  0  0  0  0  0  0  0  0  0  0
   -4.7935    0.0349   -0.0750 C   0  0  0  0  0  0  0  0  0  0  0  0
   -5.7994   -0.1227    0.8789 C   0  0  0  0  0  0  0  0  0  0  0  0
   -5.4806   -0.1021    2.2357 C   0  0  0  0  0  0  0  0  0  0  0  0
   -4.1561    0.0772    2.6412 C   0  0  0  0  0  0  0  0  0  0  0  0
   -3.1423    0.2355    1.6907 C   0  0  0  0  0  0  0  0  0  0  0  0
   -1.5358    0.4892    2.2669 Cl  0  0  0  0  0  0  0  0  0  0  0  0
   -3.4300    1.8473   -1.4665 H   0  0  0  0  0  0  0  0  0  0  0  0
   -1.0862   -0.9112    0.1403 H   0  0  0  0  0  0  0  0  0  0  0  0
    1.8667    1.3365   -1.8521 H   0  0  0  0  0  0  0  0  0  0  0  0
    1.9745   -0.1864   -2.7443 H   0  0  0  0  0  0  0  0  0  0  0  0
    3.7439   -1.8296   -2.2453 H   0  0  0  0  0  0  0  0  0  0  0  0
    5.9881   -2.2066   -1.2942 H   0  0  0  0  0  0  0  0  0  0  0  0
    6.9462   -0.5939    0.3279 H   0  0  0  0  0  0  0  0  0  0  0  0
    5.6438    1.4050    1.0049 H   0  0  0  0  0  0  0  0  0  0  0  0
    3.3974    1.8023    0.0669 H   0  0  0  0  0  0  0  0  0  0  0  0
   -5.0461    0.0013   -1.1333 H   0  0  0  0  0  0  0  0  0  0  0  0
   -6.8307   -0.2662    0.5637 H   0  0  0  0  0  0  0  0  0  0  0  0
   -6.2642   -0.2250    2.9804 H   0  0  0  0  0  0  0  0  0  0  0  0
   -3.9217    0.0973    3.7033 H   0  0  0  0  0  0  0  0  0  0  0  0
  1  2  2  3
  2  3  1  0
  3  4  1  0
  4  5  1  0
  5  6  2  0
  5  7  1  0
  7  8  1  0
  8  9  2  0
  9 10  1  0
 10 11  2  0
 11 12  1  0
 12 13  2  0
  2 14  1  0
 14 15  2  0
 15 16  1  0
 16 17  2  0
 17 18  1  0
 18 19  2  0
 19 20  1  0
 13  8  1  0
 19 14  1  0
  1 21  1  0
  3 22  1  0
  7 23  1  0
  7 24  1  0
  9 25  1  0
 10 26  1  0
 11 27  1  0
 12 28  1  0
 13 29  1  0
 15 30  1  0
 16 31  1  0
 17 32  1  0
 18 33  1  0
M  END
$$$$
