
     RDKit          3D

 51 53  0  0  0  0  0  0  0  0999 V2000
    5.2315   -1.4823    1.7322 C   0  0  0  0  0  0  0  0  0  0  0  0
    4.6649   -0.2822    1.2182 O   0  0  0  0  0  0  0  0  0  0  0  0
    3.2982   -0.1929    1.1810 C   0  0  0  0  0  0  0  0  0  0  0  0
    2.4256   -1.2141    1.5728 C   0  0  0  0  0  0  0  0  0  0  0  0
    1.0413   -1.0426    1.4740 C   0  0  0  0  0  0  0  0  0  0  0  0
    0.5194    0.1500    0.9744 C   0  0  0  0  0  0  0  0  0  0  0  0
   -0.9391    0.3512    0.8468 C   0  0  0  0  0  0  0  0  0  0  0  0
   -1.7847   -0.5492    1.2381 N   0  0  0  0  0  0  0  0  0  0  0  0
   -3.1205   -0.3052    1.0398 N   0  0  0  0  0  0  0  0  0  0  0  0
   -3.6783    0.3336   -0.0611 C   0  0  0  0  0  0  0  0  0  0  0  0
   -3.0335    0.8987   -0.9432 O   0  0  0  0  0  0  0  0  0  0  0  0
   -5.1812    0.3200   -0.1606 C   0  0  0  0  0  0  0  0  0  0  0  0
   -5.7393    1.1071   -1.1881 C   0  0  0  0  0  0  0  0  0  0  0  0
   -7.1189    1.1795   -1.3736 C   0  0  0  0  0  0  0  0  0  0  0  0
   -7.9627    0.4642   -0.5343 C   0  0  0  0  0  0  0  0  0  0  0  0
   -7.4299   -0.3263    0.4873 C   0  0  0  0  0  0  0  0  0  0  0  0
   -6.0427   -0.4094    0.6880 C   0  0  0  0  0  0  0  0  0  0  0  0
   -5.4722   -1.1838    1.6677 O   0  0  0  0  0  0  0  0  0  0  0  0
   -6.3373   -1.8674    2.5695 C   0  0  0  0  0  0  0  0  0  0  0  0
    1.3792    1.1763    0.5802 C   0  0  0  0  0  0  0  0  0  0  0  0
    2.7731    1.0201    0.6933 C   0  0  0  0  0  0  0  0  0  0  0  0
    3.6713    2.1526    0.2438 C   0  0  0  0  0  0  0  0  0  0  0  0
    3.7297    2.2330   -1.1893 O   0  0  0  0  0  0  0  0  0  0  0  0
    4.5818    1.3107   -1.7374 C   0  0  0  0  0  0  0  0  0  0  0  0
    5.9602    1.3477   -1.5236 C   0  0  0  0  0  0  0  0  0  0  0  0
    6.5017    2.3076   -0.7587 F   0  0  0  0  0  0  0  0  0  0  0  0
    6.7864    0.3964   -2.1123 C   0  0  0  0  0  0  0  0  0  0  0  0
    8.1084    0.4306   -1.8931 F   0  0  0  0  0  0  0  0  0  0  0  0
    6.2443   -0.5849   -2.9319 C   0  0  0  0  0  0  0  0  0  0  0  0
    7.0429   -1.5020   -3.4970 F   0  0  0  0  0  0  0  0  0  0  0  0
    4.8772   -0.6115   -3.1732 C   0  0  0  0  0  0  0  0  0  0  0  0
    4.3578   -1.5523   -3.9743 F   0  0  0  0  0  0  0  0  0  0  0  0
    4.0493    0.3385   -2.5855 C   0  0  0  0  0  0  0  0  0  0  0  0
    2.7308    0.3069   -2.8285 F   0  0  0  0  0  0  0  0  0  0  0  0
    6.3203   -1.3756    1.7039 H   0  0  0  0  0  0  0  0  0  0  0  0
    4.9666   -2.3409    1.1067 H   0  0  0  0  0  0  0  0  0  0  0  0
    4.9397   -1.6435    2.7752 H   0  0  0  0  0  0  0  0  0  0  0  0
    2.7860   -2.1636    1.9556 H   0  0  0  0  0  0  0  0  0  0  0  0
    0.3763   -1.8474    1.7790 H   0  0  0  0  0  0  0  0  0  0  0  0
   -1.2519    1.3248    0.4334 H   0  0  0  0  0  0  0  0  0  0  0  0
   -3.7337   -0.9218    1.5693 H   0  0  0  0  0  0  0  0  0  0  0  0
   -5.0921    1.6750   -1.8554 H   0  0  0  0  0  0  0  0  0  0  0  0
   -7.5285    1.7934   -2.1717 H   0  0  0  0  0  0  0  0  0  0  0  0
   -9.0398    0.5153   -0.6765 H   0  0  0  0  0  0  0  0  0  0  0  0
   -8.1341   -0.8707    1.1093 H   0  0  0  0  0  0  0  0  0  0  0  0
   -6.9681   -1.1630    3.1221 H   0  0  0  0  0  0  0  0  0  0  0  0
   -5.7107   -2.3928    3.2968 H   0  0  0  0  0  0  0  0  0  0  0  0
   -6.9391   -2.6178    2.0457 H   0  0  0  0  0  0  0  0  0  0  0  0
    0.9734    2.1007    0.1727 H   0  0  0  0  0  0  0  0  0  0  0  0
    4.6637    2.1120    0.7067 H   0  0  0  0  0  0  0  0  0  0  0  0
    3.2375    3.0975    0.5945 H   0  0  0  0  0  0  0  0  0  0  0  0
  1  2  1  0
  2  3  1  0
  3  4  2  0
  4  5  1  0
  5  6  2  0
  6  7  1  0
  7  8  2  3
  8  9  1  0
  9 10  1  0
 10 11  2  0
 10 12  1  0
 12 13  2  0
 13 14  1  0
 14 15  2  0
 15 16  1  0
 16 17  2  0
 17 18  1  0
 18 19  1  0
  6 20  1  0
 20 21  2  0
 21 22  1  0
 22 23  1  0
 23 24  1  0
 24 25  2  0
 25 26  1  0
 25 27  1  0
 27 28  1  0
 27 29  2  0
 29 30  1  0
 29 31  1  0
 31 32  1  0
 31 33  2  0
 33 34  1  0
 21  3  1  0
 33 24  1  0
 17 12  1  0
  1 35  1  0
  1 36  1  0
  1 37  1  0
  4 38  1  0
  5 39  1  0
  7 40  1  0
  9 41  1  0
 13 42  1  0
 14 43  1  0
 15 44  1  0
 16 45  1  0
 19 46  1  0
 19 47  1  0
 19 48  1  0
 20 49  1  0
 22 50  1  0
 22 51  1  0
M  END
$$$$
