
     RDKit          3D

 38 38  0  0  0  0  0  0  0  0999 V2000
    5.1495   -1.7112   -2.9678 C   0  0  0  0  0  0  0  0  0  0  0  0
    3.7695   -1.0864   -2.8762 C   0  0  0  0  0  0  0  0  0  0  0  0
    3.6625   -0.4051   -1.6207 O   0  0  0  0  0  0  0  0  0  0  0  0
    2.4741    0.2466   -1.4416 C   0  0  0  0  0  0  0  0  0  0  0  0
    1.5548    0.2586   -2.2502 O   0  0  0  0  0  0  0  0  0  0  0  0
    2.4651    0.9321   -0.1026 C   0  0  0  0  0  0  0  0  0  0  0  0
    1.2081    1.7323    0.1316 C   0  0  0  0  0  0  0  0  0  0  0  0
    1.2169    2.9647    0.1149 O   0  0  0  0  0  0  0  0  0  0  0  0
   -0.0790    1.0222    0.3825 C   0  0  0  0  0  0  0  0  0  0  0  0
   -1.2478    1.5810   -0.1572 C   0  0  0  0  0  0  0  0  0  0  0  0
   -2.4822    0.9817    0.0732 C   0  0  0  0  0  0  0  0  0  0  0  0
   -3.6768    1.4371   -0.4220 O   0  0  0  0  0  0  0  0  0  0  0  0
   -3.6306    2.5024   -1.3736 C   0  0  0  0  0  0  0  0  0  0  0  0
   -2.5360   -0.1704    0.8837 C   0  0  0  0  0  0  0  0  0  0  0  0
   -3.7479   -0.7907    1.1150 O   0  0  0  0  0  0  0  0  0  0  0  0
   -4.3843   -0.1936    2.2454 C   0  0  0  0  0  0  0  0  0  0  0  0
   -1.3694   -0.7451    1.4227 C   0  0  0  0  0  0  0  0  0  0  0  0
   -1.5469   -1.8643    2.1969 O   0  0  0  0  0  0  0  0  0  0  0  0
   -0.3845   -2.5224    2.6788 C   0  0  0  0  0  0  0  0  0  0  0  0
   -0.1369   -0.1362    1.1691 C   0  0  0  0  0  0  0  0  0  0  0  0
    5.3315   -2.3776   -2.1127 H   0  0  0  0  0  0  0  0  0  0  0  0
    5.9215   -0.9364   -2.9398 H   0  0  0  0  0  0  0  0  0  0  0  0
    5.2531   -2.2874   -3.8954 H   0  0  0  0  0  0  0  0  0  0  0  0
    3.0057   -1.8693   -2.9353 H   0  0  0  0  0  0  0  0  0  0  0  0
    3.6320   -0.3720   -3.6955 H   0  0  0  0  0  0  0  0  0  0  0  0
    3.3147    1.6313   -0.0601 H   0  0  0  0  0  0  0  0  0  0  0  0
    2.6096    0.1922    0.6991 H   0  0  0  0  0  0  0  0  0  0  0  0
   -1.1592    2.4865   -0.7533 H   0  0  0  0  0  0  0  0  0  0  0  0
   -3.2937    3.4342   -0.9021 H   0  0  0  0  0  0  0  0  0  0  0  0
   -3.0042    2.2440   -2.2376 H   0  0  0  0  0  0  0  0  0  0  0  0
   -4.6477    2.6652   -1.7460 H   0  0  0  0  0  0  0  0  0  0  0  0
   -4.7108    0.8316    2.0243 H   0  0  0  0  0  0  0  0  0  0  0  0
   -3.7319   -0.2027    3.1261 H   0  0  0  0  0  0  0  0  0  0  0  0
   -5.2754   -0.7874    2.4855 H   0  0  0  0  0  0  0  0  0  0  0  0
    0.2564   -2.8533    1.8574 H   0  0  0  0  0  0  0  0  0  0  0  0
   -0.7112   -3.4123    3.2239 H   0  0  0  0  0  0  0  0  0  0  0  0
    0.1638   -1.8857    3.3850 H   0  0  0  0  0  0  0  0  0  0  0  0
    0.7676   -0.5346    1.6097 H   0  0  0  0  0  0  0  0  0  0  0  0
  1  2  1  0
  2  3  1  0
  3  4  1  0
  4  5  2  0
  4  6  1  0
  6  7  1  0
  7  8  2  0
  7  9  1  0
  9 10  2  0
 10 11  1  0
 11 12  1  0
 12 13  1  0
 11 14  2  0
 14 15  1  0
 15 16  1  0
 14 17  1  0
 17 18  1  0
 18 19  1  0
 17 20  2  0
 20  9  1  0
  1 21  1  0
  1 22  1  0
  1 23  1  0
  2 24  1  0
  2 25  1  0
  6 26  1  0
  6 27  1  0
 10 28  1  0
 13 29  1  0
 13 30  1  0
 13 31  1  0
 16 32  1  0
 16 33  1  0
 16 34  1  0
 19 35  1  0
 19 36  1  0
 19 37  1  0
 20 38  1  0
M  END
$$$$
