
     RDKit          3D

 42 41  0  0  0  0  0  0  0  0999 V2000
   -4.2962   -2.4578    1.7982 C   0  0  0  0  0  0  0  0  0  0  0  0
   -3.7015   -1.1929    2.3521 C   0  0  0  0  0  0  0  0  0  0  0  0
   -4.6377   -0.3931    3.2194 C   0  0  0  0  0  0  0  0  0  0  0  0
   -2.4484   -0.7598    2.1128 C   0  0  0  0  0  0  0  0  0  0  0  0
   -1.3792   -1.4432    1.3031 C   0  0  0  0  0  0  0  0  0  0  0  0
   -1.2803   -0.9425   -0.1451 C   0  0  0  0  0  0  0  0  0  0  0  0
   -0.7628    0.4753   -0.2920 C   0  0  0  0  0  0  0  0  0  0  0  0
   -1.8196    1.5404   -0.4356 C   0  0  0  0  0  0  0  0  0  0  0  0
    0.5446    0.7999   -0.3520 C   0  0  0  0  0  0  0  0  0  0  0  0
    1.7260   -0.1298   -0.2390 C   0  0  0  0  0  0  0  0  0  0  0  0
    2.4490   -0.3492   -1.5766 C   0  0  0  0  0  0  0  0  0  0  0  0
    3.1185    0.8842   -2.1563 C   0  0  0  0  0  0  0  0  0  0  0  0
    2.4535    1.4309   -3.3956 C   0  0  0  0  0  0  0  0  0  0  0  0
    4.2037    1.5011   -1.6417 C   0  0  0  0  0  0  0  0  0  0  0  0
    5.0352    1.1554   -0.4419 C   0  0  0  0  0  0  0  0  0  0  0  0
    5.1020   -0.2393   -0.2152 O   0  0  0  0  0  0  0  0  0  0  0  0
   -3.6490   -2.9596    1.0750 H   0  0  0  0  0  0  0  0  0  0  0  0
   -4.5055   -3.1623    2.6096 H   0  0  0  0  0  0  0  0  0  0  0  0
   -5.2369   -2.2365    1.2826 H   0  0  0  0  0  0  0  0  0  0  0  0
   -4.1694    0.5175    3.6077 H   0  0  0  0  0  0  0  0  0  0  0  0
   -5.5223   -0.0938    2.6476 H   0  0  0  0  0  0  0  0  0  0  0  0
   -4.9628   -0.9911    4.0770 H   0  0  0  0  0  0  0  0  0  0  0  0
   -2.1293    0.1836    2.5561 H   0  0  0  0  0  0  0  0  0  0  0  0
   -0.4204   -1.3042    1.8181 H   0  0  0  0  0  0  0  0  0  0  0  0
   -1.5424   -2.5265    1.2913 H   0  0  0  0  0  0  0  0  0  0  0  0
   -2.2570   -1.0311   -0.6388 H   0  0  0  0  0  0  0  0  0  0  0  0
   -0.6246   -1.6237   -0.7026 H   0  0  0  0  0  0  0  0  0  0  0  0
   -1.3862    2.5347   -0.5886 H   0  0  0  0  0  0  0  0  0  0  0  0
   -2.4472    1.5911    0.4583 H   0  0  0  0  0  0  0  0  0  0  0  0
   -2.4591    1.3254   -1.2981 H   0  0  0  0  0  0  0  0  0  0  0  0
    0.8164    1.8474   -0.4818 H   0  0  0  0  0  0  0  0  0  0  0  0
    1.4192   -1.1067    0.1494 H   0  0  0  0  0  0  0  0  0  0  0  0
    2.4130    0.2805    0.5099 H   0  0  0  0  0  0  0  0  0  0  0  0
    1.7296   -0.7490   -2.3046 H   0  0  0  0  0  0  0  0  0  0  0  0
    3.1898   -1.1482   -1.4628 H   0  0  0  0  0  0  0  0  0  0  0  0
    2.9508    2.3305   -3.7733 H   0  0  0  0  0  0  0  0  0  0  0  0
    1.4111    1.6926   -3.1876 H   0  0  0  0  0  0  0  0  0  0  0  0
    2.4724    0.6828   -4.1950 H   0  0  0  0  0  0  0  0  0  0  0  0
    4.5491    2.4088   -2.1374 H   0  0  0  0  0  0  0  0  0  0  0  0
    4.6396    1.6486    0.4509 H   0  0  0  0  0  0  0  0  0  0  0  0
    6.0596    1.5110   -0.5942 H   0  0  0  0  0  0  0  0  0  0  0  0
    5.3548   -0.6419   -1.0633 H   0  0  0  0  0  0  0  0  0  0  0  0
  1  2  1  0
  2  3  1  0
  2  4  2  3
  4  5  1  0
  5  6  1  0
  6  7  1  0
  7  8  1  0
  7  9  2  3
  9 10  1  0
 10 11  1  0
 11 12  1  0
 12 13  1  0
 12 14  2  3
 14 15  1  0
 15 16  1  0
  1 17  1  0
  1 18  1  0
  1 19  1  0
  3 20  1  0
  3 21  1  0
  3 22  1  0
  4 23  1  0
  5 24  1  0
  5 25  1  0
  6 26  1  0
  6 27  1  0
  8 28  1  0
  8 29  1  0
  8 30  1  0
  9 31  1  0
 10 32  1  0
 10 33  1  0
 11 34  1  0
 11 35  1  0
 13 36  1  0
 13 37  1  0
 13 38  1  0
 14 39  1  0
 15 40  1  0
 15 41  1  0
 16 42  1  0
M  END
$$$$
