
     RDKit          3D

 48 49  0  0  0  0  0  0  0  0999 V2000
   -7.2321   -0.4401    2.8099 C   0  0  0  0  0  0  0  0  0  0  0  0
   -6.8043   -0.2113    1.3900 C   0  0  0  0  0  0  0  0  0  0  0  0
   -7.7521   -0.0887    0.3749 C   0  0  0  0  0  0  0  0  0  0  0  0
   -7.3432    0.0928   -0.9449 C   0  0  0  0  0  0  0  0  0  0  0  0
   -5.9787    0.1455   -1.2788 C   0  0  0  0  0  0  0  0  0  0  0  0
   -5.6097    0.3448   -2.7249 C   0  0  0  0  0  0  0  0  0  0  0  0
   -5.0104    0.0067   -0.2601 C   0  0  0  0  0  0  0  0  0  0  0  0
   -3.6404    0.0540   -0.6132 N   0  0  0  0  0  0  0  0  0  0  0  0
   -2.5367   -0.0568    0.2164 C   0  0  0  0  0  0  0  0  0  0  0  0
   -2.5354   -0.2202    1.4310 O   0  0  0  0  0  0  0  0  0  0  0  0
   -1.2442    0.0498   -0.5709 C   0  0  0  0  0  0  0  0  0  0  0  0
   -0.0245   -0.0673    0.3344 C   0  0  0  0  0  0  0  0  0  0  0  0
    1.2625    0.0411   -0.4517 C   0  0  0  0  0  0  0  0  0  0  0  0
    1.2926    0.1991   -1.6686 O   0  0  0  0  0  0  0  0  0  0  0  0
    2.3807   -0.0598    0.3649 N   0  0  0  0  0  0  0  0  0  0  0  0
    3.6196    0.0186   -0.1889 N   0  0  0  0  0  0  0  0  0  0  0  0
    4.6162   -0.0820    0.6303 C   0  0  0  0  0  0  0  0  0  0  0  0
    6.0056   -0.0101    0.1338 C   0  0  0  0  0  0  0  0  0  0  0  0
    7.0430   -0.1248    1.0654 C   0  0  0  0  0  0  0  0  0  0  0  0
    8.3731   -0.0601    0.6214 C   0  0  0  0  0  0  0  0  0  0  0  0
    9.4667   -0.1797    1.5944 N   0  0  0  0  0  4  0  0  0  0  0  0
    9.1580   -0.3327    2.7849 O   0  0  0  0  0  0  0  0  0  0  0  0
   10.6283   -0.1210    1.1694 O   0  0  0  0  0  1  0  0  0  0  0  0
    8.6696    0.1172   -0.7368 C   0  0  0  0  0  0  0  0  0  0  0  0
    7.6263    0.2304   -1.6574 C   0  0  0  0  0  0  0  0  0  0  0  0
    6.3021    0.1672   -1.2248 C   0  0  0  0  0  0  0  0  0  0  0  0
    5.3466    0.2874   -2.1952 O   0  0  0  0  0  0  0  0  0  0  0  0
   -5.4402   -0.1752    1.0611 C   0  0  0  0  0  0  0  0  0  0  0  0
   -7.2714   -1.5132    3.0203 H   0  0  0  0  0  0  0  0  0  0  0  0
   -6.5343    0.0341    3.5081 H   0  0  0  0  0  0  0  0  0  0  0  0
   -8.2207   -0.0076    2.9963 H   0  0  0  0  0  0  0  0  0  0  0  0
   -8.8144   -0.1326    0.6038 H   0  0  0  0  0  0  0  0  0  0  0  0
   -8.1034    0.1914   -1.7173 H   0  0  0  0  0  0  0  0  0  0  0  0
   -5.0245    1.2623   -2.8448 H   0  0  0  0  0  0  0  0  0  0  0  0
   -6.4968    0.4384   -3.3604 H   0  0  0  0  0  0  0  0  0  0  0  0
   -5.0337   -0.5110   -3.0912 H   0  0  0  0  0  0  0  0  0  0  0  0
   -3.4399    0.1870   -1.5954 H   0  0  0  0  0  0  0  0  0  0  0  0
   -1.2342    1.0141   -1.0935 H   0  0  0  0  0  0  0  0  0  0  0  0
   -1.2308   -0.7458   -1.3258 H   0  0  0  0  0  0  0  0  0  0  0  0
   -0.0317   -1.0320    0.8558 H   0  0  0  0  0  0  0  0  0  0  0  0
   -0.0369    0.7272    1.0903 H   0  0  0  0  0  0  0  0  0  0  0  0
    2.2773   -0.1902    1.3662 H   0  0  0  0  0  0  0  0  0  0  0  0
    4.4702   -0.2234    1.7164 H   0  0  0  0  0  0  0  0  0  0  0  0
    6.8180   -0.2626    2.1207 H   0  0  0  0  0  0  0  0  0  0  0  0
    9.6967    0.1689   -1.0933 H   0  0  0  0  0  0  0  0  0  0  0  0
    7.8414    0.3683   -2.7150 H   0  0  0  0  0  0  0  0  0  0  0  0
    4.4559    0.2285   -1.7771 H   0  0  0  0  0  0  0  0  0  0  0  0
   -4.7260   -0.2935    1.8701 H   0  0  0  0  0  0  0  0  0  0  0  0
  1  2  1  0
  2  3  2  0
  3  4  1  0
  4  5  2  0
  5  6  1  0
  5  7  1  0
  7  8  1  0
  8  9  1  0
  9 10  2  0
  9 11  1  0
 11 12  1  0
 12 13  1  0
 13 14  2  0
 13 15  1  0
 15 16  1  0
 16 17  2  3
 17 18  1  0
 18 19  2  0
 19 20  1  0
 20 21  1  0
 21 22  2  0
 21 23  1  0
 20 24  2  0
 24 25  1  0
 25 26  2  0
 26 27  1  0
  7 28  2  0
 28  2  1  0
 26 18  1  0
  1 29  1  0
  1 30  1  0
  1 31  1  0
  3 32  1  0
  4 33  1  0
  6 34  1  0
  6 35  1  0
  6 36  1  0
  8 37  1  0
 11 38  1  0
 11 39  1  0
 12 40  1  0
 12 41  1  0
 15 42  1  0
 17 43  1  0
 19 44  1  0
 24 45  1  0
 25 46  1  0
 27 47  1  0
 28 48  1  0
M  CHG  2  21   1  23  -1
M  END
$$$$
