
     RDKit          3D

 40 41  0  0  0  0  0  0  0  0999 V2000
    7.7226   -0.6043    0.1021 C   0  0  0  0  0  0  0  0  0  0  0  0
    6.7425   -1.1480    0.9774 O   0  0  0  0  0  0  0  0  0  0  0  0
    5.4529   -0.7323    0.7970 C   0  0  0  0  0  0  0  0  0  0  0  0
    5.0022    0.1460   -0.1867 C   0  0  0  0  0  0  0  0  0  0  0  0
    3.6451    0.4869   -0.2585 C   0  0  0  0  0  0  0  0  0  0  0  0
    2.7231   -0.0351    0.6570 C   0  0  0  0  0  0  0  0  0  0  0  0
    1.3049    0.3243    0.5226 C   0  0  0  0  0  0  0  0  0  0  0  0
    0.4871    0.5159    1.5699 C   0  0  0  0  0  0  0  0  0  0  0  0
   -0.9353    0.9252    1.4249 C   0  0  0  0  0  0  0  0  0  0  0  0
   -1.3983    1.7320    2.2196 O   0  0  0  0  0  0  0  0  0  0  0  0
   -1.6060    0.2660    0.4150 N   0  0  0  0  0  0  0  0  0  0  0  0
   -2.9184    0.4181   -0.0001 C   0  0  0  0  0  0  0  0  0  0  0  0
   -3.7217    1.3554    0.5153 C   0  0  0  0  0  0  0  0  0  0  0  0
   -5.1052    1.5091    0.0539 C   0  0  0  0  0  0  0  0  0  0  0  0
   -5.7844    2.4294    0.5024 O   0  0  0  0  0  0  0  0  0  0  0  0
   -5.5403    0.5924   -0.8725 N   0  0  0  0  0  0  0  0  0  0  0  0
   -6.9058    0.6940   -1.3513 C   0  0  0  0  0  0  0  0  0  0  0  0
   -4.7198   -0.3497   -1.4709 C   0  0  0  0  0  0  0  0  0  0  0  0
   -5.1339   -1.0784   -2.3761 O   0  0  0  0  0  0  0  0  0  0  0  0
   -3.4040   -0.4218   -0.9993 N   0  0  0  0  0  0  0  0  0  0  0  0
   -2.5502   -1.4358   -1.6119 C   0  0  0  0  0  0  0  0  0  0  0  0
    3.1799   -0.9275    1.6327 C   0  0  0  0  0  0  0  0  0  0  0  0
    4.5346   -1.2676    1.7017 C   0  0  0  0  0  0  0  0  0  0  0  0
    7.5282   -0.8942   -0.9358 H   0  0  0  0  0  0  0  0  0  0  0  0
    8.6935   -1.0205    0.3876 H   0  0  0  0  0  0  0  0  0  0  0  0
    7.7837    0.4843    0.2044 H   0  0  0  0  0  0  0  0  0  0  0  0
    5.6768    0.5846   -0.9145 H   0  0  0  0  0  0  0  0  0  0  0  0
    3.3215    1.1771   -1.0351 H   0  0  0  0  0  0  0  0  0  0  0  0
    0.9572    0.4777   -0.4961 H   0  0  0  0  0  0  0  0  0  0  0  0
    0.8355    0.4751    2.5970 H   0  0  0  0  0  0  0  0  0  0  0  0
   -1.0764   -0.4594   -0.0422 H   0  0  0  0  0  0  0  0  0  0  0  0
   -3.4296    2.0642    1.2780 H   0  0  0  0  0  0  0  0  0  0  0  0
   -7.3351   -0.3050   -1.4782 H   0  0  0  0  0  0  0  0  0  0  0  0
   -7.5376    1.2630   -0.6638 H   0  0  0  0  0  0  0  0  0  0  0  0
   -6.8942    1.1957   -2.3243 H   0  0  0  0  0  0  0  0  0  0  0  0
   -3.0639   -2.0159   -2.3832 H   0  0  0  0  0  0  0  0  0  0  0  0
   -2.2132   -2.1364   -0.8408 H   0  0  0  0  0  0  0  0  0  0  0  0
   -1.6905   -0.9470   -2.0821 H   0  0  0  0  0  0  0  0  0  0  0  0
    2.4955   -1.3780    2.3471 H   0  0  0  0  0  0  0  0  0  0  0  0
    4.8769   -1.9594    2.4680 H   0  0  0  0  0  0  0  0  0  0  0  0
  1  2  1  0
  2  3  1  0
  3  4  2  0
  4  5  1  0
  5  6  2  0
  6  7  1  0
  7  8  2  3
  8  9  1  0
  9 10  2  0
  9 11  1  0
 11 12  1  0
 12 13  2  0
 13 14  1  0
 14 15  2  0
 14 16  1  0
 16 17  1  0
 16 18  1  0
 18 19  2  0
 18 20  1  0
 20 21  1  0
  6 22  1  0
 22 23  2  0
 23  3  1  0
 20 12  1  0
  1 24  1  0
  1 25  1  0
  1 26  1  0
  4 27  1  0
  5 28  1  0
  7 29  1  0
  8 30  1  0
 11 31  1  0
 13 32  1  0
 17 33  1  0
 17 34  1  0
 17 35  1  0
 21 36  1  0
 21 37  1  0
 21 38  1  0
 22 39  1  0
 23 40  1  0
M  END
$$$$
