
     RDKit          3D

 37 38  0  0  0  0  0  0  0  0999 V2000
    5.3886   -0.2551    2.2343 C   0  0  0  0  0  0  0  0  0  0  0  0
    3.9061   -0.4321    2.5090 C   0  0  0  0  0  0  0  0  0  0  0  0
    3.1070   -0.2942    1.3072 N   0  0  0  0  0  0  0  0  0  0  0  0
    2.4525    0.8246    0.8846 C   0  0  0  0  0  0  0  0  0  0  0  0
    1.8344    0.4887   -0.3043 C   0  0  0  0  0  0  0  0  0  0  0  0
    0.9956    1.3547   -1.1727 C   0  0  0  0  0  0  0  0  0  0  0  0
   -0.3872    1.1511   -0.8033 N   0  0  0  0  0  0  0  0  0  0  0  0
   -1.2431    0.4240   -1.5999 C   0  0  0  0  0  0  0  0  0  0  0  0
   -0.9397   -0.0157   -2.7027 O   0  0  0  0  0  0  0  0  0  0  0  0
   -2.5961    0.1482   -1.0417 C   0  0  0  0  0  0  0  0  0  0  0  0
   -3.2755   -0.9964   -1.4850 C   0  0  0  0  0  0  0  0  0  0  0  0
   -4.5488   -1.3014   -0.9981 C   0  0  0  0  0  0  0  0  0  0  0  0
   -5.1588   -0.4601   -0.0681 C   0  0  0  0  0  0  0  0  0  0  0  0
   -4.4868    0.6914    0.3641 C   0  0  0  0  0  0  0  0  0  0  0  0
   -5.1293    1.5835    1.3371 N   0  0  0  0  0  4  0  0  0  0  0  0
   -4.4537    2.5192    1.7889 O   0  0  0  0  0  0  0  0  0  0  0  0
   -6.3034    1.3460    1.6518 O   0  0  0  0  0  1  0  0  0  0  0  0
   -3.2083    1.0058   -0.1205 C   0  0  0  0  0  0  0  0  0  0  0  0
    2.1815   -0.8775   -0.5042 C   0  0  0  0  0  0  0  0  0  0  0  0
    1.7842   -1.7703   -1.6225 C   0  0  0  0  0  0  0  0  0  0  0  0
    2.9482   -1.3461    0.4886 N   0  0  0  0  0  0  0  0  0  0  0  0
    5.7516   -1.0048    1.5233 H   0  0  0  0  0  0  0  0  0  0  0  0
    5.9618   -0.3576    3.1608 H   0  0  0  0  0  0  0  0  0  0  0  0
    5.5956    0.7336    1.8111 H   0  0  0  0  0  0  0  0  0  0  0  0
    3.5582    0.3169    3.2287 H   0  0  0  0  0  0  0  0  0  0  0  0
    3.7031   -1.4225    2.9311 H   0  0  0  0  0  0  0  0  0  0  0  0
    2.4850    1.7486    1.4446 H   0  0  0  0  0  0  0  0  0  0  0  0
    1.2245    2.4111   -0.9968 H   0  0  0  0  0  0  0  0  0  0  0  0
    1.1621    1.1425   -2.2330 H   0  0  0  0  0  0  0  0  0  0  0  0
   -0.6126    1.2995    0.1697 H   0  0  0  0  0  0  0  0  0  0  0  0
   -2.8085   -1.6577   -2.2145 H   0  0  0  0  0  0  0  0  0  0  0  0
   -5.0629   -2.1944   -1.3478 H   0  0  0  0  0  0  0  0  0  0  0  0
   -6.1513   -0.7104    0.3026 H   0  0  0  0  0  0  0  0  0  0  0  0
   -2.7120    1.9196    0.1949 H   0  0  0  0  0  0  0  0  0  0  0  0
    0.7527   -2.1099   -1.4871 H   0  0  0  0  0  0  0  0  0  0  0  0
    1.8565   -1.2490   -2.5819 H   0  0  0  0  0  0  0  0  0  0  0  0
    2.4290   -2.6539   -1.6752 H   0  0  0  0  0  0  0  0  0  0  0  0
  1  2  1  0
  2  3  1  0
  3  4  1  0
  4  5  2  0
  5  6  1  0
  6  7  1  0
  7  8  1  0
  8  9  2  0
  8 10  1  0
 10 11  2  0
 11 12  1  0
 12 13  2  0
 13 14  1  0
 14 15  1  0
 15 16  2  0
 15 17  1  0
 14 18  2  0
  5 19  1  0
 19 20  1  0
 19 21  2  0
 21  3  1  0
 18 10  1  0
  1 22  1  0
  1 23  1  0
  1 24  1  0
  2 25  1  0
  2 26  1  0
  4 27  1  0
  6 28  1  0
  6 29  1  0
  7 30  1  0
 11 31  1  0
 12 32  1  0
 13 33  1  0
 18 34  1  0
 20 35  1  0
 20 36  1  0
 20 37  1  0
M  CHG  2  15   1  17  -1
M  END
$$$$
