
     RDKit          3D

 45 47  0  0  0  0  0  0  0  0999 V2000
   -3.6692    2.2835    0.7461 O   0  0  0  0  0  0  0  0  0  0  0  0
   -3.3296    1.1852    0.3080 C   0  0  0  0  0  0  0  0  0  0  0  0
   -4.3246    0.1894   -0.2766 C   0  0  0  0  0  0  0  0  0  0  0  0
   -5.7586    0.6679   -0.2868 C   0  0  0  0  0  0  0  0  0  0  0  0
   -6.2619    1.3806   -1.3852 C   0  0  0  0  0  0  0  0  0  0  0  0
   -7.5836    1.8324   -1.3895 C   0  0  0  0  0  0  0  0  0  0  0  0
   -8.4058    1.5790   -0.2941 C   0  0  0  0  0  0  0  0  0  0  0  0
  -10.0344    2.1347   -0.3006 Cl  0  0  0  0  0  0  0  0  0  0  0  0
   -7.9173    0.8804    0.8075 C   0  0  0  0  0  0  0  0  0  0  0  0
   -6.5957    0.4281    0.8129 C   0  0  0  0  0  0  0  0  0  0  0  0
   -1.9182    0.7805    0.3342 C   0  0  0  0  0  0  0  0  0  0  0  0
   -0.8836    1.5662    0.8073 C   0  0  0  0  0  0  0  0  0  0  0  0
    0.2917    0.8809    0.6656 N   0  0  0  0  0  0  0  0  0  0  0  0
    0.0529   -0.3661    0.1328 C   0  0  0  0  0  0  0  0  0  0  0  0
    1.0457   -1.3773   -0.1672 C   0  0  0  0  0  0  0  0  0  0  0  0
    0.8324   -2.3120   -0.9315 O   0  0  0  0  0  0  0  0  0  0  0  0
    2.2504   -1.2228    0.4954 N   0  0  0  0  0  0  0  0  0  0  0  0
    3.2606   -2.2625    0.4207 C   0  0  0  0  0  0  0  0  0  0  0  0
    4.6656   -1.6970    0.5822 C   0  0  0  0  0  0  0  0  0  0  0  0
    5.0869   -0.8806   -0.6390 C   0  0  0  0  0  0  0  0  0  0  0  0
    6.4240   -0.3419   -0.4902 N   0  0  0  0  0  0  0  0  0  0  0  0
    7.5897   -0.9588   -0.8452 C   0  0  0  0  0  0  0  0  0  0  0  0
    8.5782   -0.0625   -0.5107 C   0  0  0  0  0  0  0  0  0  0  0  0
    8.0394    1.0763    0.0312 N   0  0  0  0  0  0  0  0  0  0  0  0
    6.7401    0.8825    0.0232 C   0  0  0  0  0  0  0  0  0  0  0  0
   -1.3134   -0.4332   -0.1007 C   0  0  0  0  0  0  0  0  0  0  0  0
   -4.2648   -0.7427    0.2990 H   0  0  0  0  0  0  0  0  0  0  0  0
   -4.0213   -0.0455   -1.3043 H   0  0  0  0  0  0  0  0  0  0  0  0
   -5.6271    1.5958   -2.2421 H   0  0  0  0  0  0  0  0  0  0  0  0
   -7.9618    2.3847   -2.2453 H   0  0  0  0  0  0  0  0  0  0  0  0
   -8.5559    0.6902    1.6657 H   0  0  0  0  0  0  0  0  0  0  0  0
   -6.2235   -0.1055    1.6848 H   0  0  0  0  0  0  0  0  0  0  0  0
   -0.8971    2.5685    1.2190 H   0  0  0  0  0  0  0  0  0  0  0  0
    1.2050    1.2547    0.8867 H   0  0  0  0  0  0  0  0  0  0  0  0
    2.2191   -0.6900    1.3532 H   0  0  0  0  0  0  0  0  0  0  0  0
    3.1751   -2.8127   -0.5227 H   0  0  0  0  0  0  0  0  0  0  0  0
    3.0465   -2.9659    1.2331 H   0  0  0  0  0  0  0  0  0  0  0  0
    5.3679   -2.5281    0.7225 H   0  0  0  0  0  0  0  0  0  0  0  0
    4.7230   -1.0793    1.4873 H   0  0  0  0  0  0  0  0  0  0  0  0
    4.4105   -0.0348   -0.8070 H   0  0  0  0  0  0  0  0  0  0  0  0
    5.0801   -1.4972   -1.5453 H   0  0  0  0  0  0  0  0  0  0  0  0
    7.6246   -1.9444   -1.2876 H   0  0  0  0  0  0  0  0  0  0  0  0
    9.6479   -0.1757   -0.6318 H   0  0  0  0  0  0  0  0  0  0  0  0
    5.9983    1.5869    0.3756 H   0  0  0  0  0  0  0  0  0  0  0  0
   -1.8084   -1.2915   -0.5411 H   0  0  0  0  0  0  0  0  0  0  0  0
  1  2  2  0
  2  3  1  0
  3  4  1  0
  4  5  2  0
  5  6  1  0
  6  7  2  0
  7  8  1  0
  7  9  1  0
  9 10  2  0
  2 11  1  0
 11 12  2  0
 12 13  1  0
 13 14  1  0
 14 15  1  0
 15 16  2  0
 15 17  1  0
 17 18  1  0
 18 19  1  0
 19 20  1  0
 20 21  1  0
 21 22  1  0
 22 23  2  0
 23 24  1  0
 24 25  2  0
 14 26  2  0
 10  4  1  0
 26 11  1  0
 25 21  1  0
  3 27  1  0
  3 28  1  0
  5 29  1  0
  6 30  1  0
  9 31  1  0
 10 32  1  0
 12 33  1  0
 13 34  1  0
 17 35  1  0
 18 36  1  0
 18 37  1  0
 19 38  1  0
 19 39  1  0
 20 40  1  0
 20 41  1  0
 22 42  1  0
 23 43  1  0
 25 44  1  0
 26 45  1  0
M  END
$$$$
