
     RDKit          3D

 64 67  0  0  0  0  0  0  0  0999 V2000
    7.6705    0.7286   -1.6255 C   0  0  0  0  0  0  0  0  0  0  0  0
    7.3397   -0.4611   -0.9201 O   0  0  0  0  0  0  0  0  0  0  0  0
    6.1479   -0.4800   -0.2544 C   0  0  0  0  0  0  0  0  0  0  0  0
    5.9775   -1.5736    0.5990 C   0  0  0  0  0  0  0  0  0  0  0  0
    4.8130   -1.7160    1.3561 C   0  0  0  0  0  0  0  0  0  0  0  0
    3.7984   -0.7612    1.2636 C   0  0  0  0  0  0  0  0  0  0  0  0
    2.6108   -0.8116    2.0227 N   0  0  0  0  0  0  0  0  0  0  0  0
    2.2120   -1.7444    2.9547 C   0  0  0  0  0  0  0  0  0  0  0  0
    2.8676   -2.7226    3.3034 O   0  0  0  0  0  0  0  0  0  0  0  0
    0.8942   -1.4354    3.6594 C   0  0  0  0  0  0  0  0  0  0  0  0
   -0.1856   -0.2634    2.7754 S   0  0  0  0  0  0  0  0  0  0  0  0
   -0.8178   -1.2804    1.5287 C   0  0  0  0  0  0  0  0  0  0  0  0
   -0.5840   -2.5620    1.3879 N   0  0  0  0  0  0  0  0  0  0  0  0
   -1.2886   -2.9980    0.2964 N   0  0  0  0  0  0  0  0  0  0  0  0
   -1.9501   -1.9723   -0.2063 C   0  0  0  0  0  0  0  0  0  0  0  0
   -2.8835   -2.0296   -1.3691 C   0  0  0  0  0  0  0  0  0  0  0  0
   -4.3286   -2.0015   -0.9586 C   0  0  0  0  0  0  0  0  0  0  0  0
   -5.2977   -1.0493   -1.2326 C   0  0  0  0  0  0  0  0  0  0  0  0
   -6.5011   -1.4617   -0.6160 C   0  0  0  0  0  0  0  0  0  0  0  0
   -6.2481   -2.6573    0.0134 C   0  0  0  0  0  0  0  0  0  0  0  0
   -4.9354   -2.9902   -0.2106 N   0  0  0  0  0  0  0  0  0  0  0  0
   -4.3139   -4.2003    0.2908 C   0  0  0  0  0  0  0  0  0  0  0  0
   -1.6449   -0.8480    0.5286 N   0  0  0  0  0  0  0  0  0  0  0  0
   -2.0910    0.5051    0.2752 C   0  0  0  0  0  0  0  0  0  0  0  0
   -1.0913    1.2782   -0.5791 C   0  0  0  0  0  0  0  0  0  0  0  0
   -1.5936    2.6647   -0.8824 C   0  0  0  0  0  0  0  0  0  0  0  0
   -1.3140    3.7264   -0.0131 C   0  0  0  0  0  0  0  0  0  0  0  0
   -1.8123    5.0018   -0.2765 C   0  0  0  0  0  0  0  0  0  0  0  0
   -2.5915    5.2278   -1.4112 C   0  0  0  0  0  0  0  0  0  0  0  0
   -2.8739    4.1776   -2.2835 C   0  0  0  0  0  0  0  0  0  0  0  0
   -2.3815    2.8994   -2.0173 C   0  0  0  0  0  0  0  0  0  0  0  0
    3.9505    0.3309    0.3793 C   0  0  0  0  0  0  0  0  0  0  0  0
    2.8822    1.2023    0.3336 O   0  0  0  0  0  0  0  0  0  0  0  0
    2.9890    2.3106   -0.5495 C   0  0  0  0  0  0  0  0  0  0  0  0
    5.1256    0.4659   -0.3727 C   0  0  0  0  0  0  0  0  0  0  0  0
    8.6834    0.6148   -2.0118 H   0  0  0  0  0  0  0  0  0  0  0  0
    7.6641    1.5954   -0.9651 H   0  0  0  0  0  0  0  0  0  0  0  0
    7.0047    0.8806   -2.4773 H   0  0  0  0  0  0  0  0  0  0  0  0
    6.7658   -2.3186    0.6868 H   0  0  0  0  0  0  0  0  0  0  0  0
    4.7307   -2.5786    2.0115 H   0  0  0  0  0  0  0  0  0  0  0  0
    1.9662   -0.0498    1.8302 H   0  0  0  0  0  0  0  0  0  0  0  0
    0.3585   -2.3731    3.8442 H   0  0  0  0  0  0  0  0  0  0  0  0
    1.1407   -0.9932    4.6309 H   0  0  0  0  0  0  0  0  0  0  0  0
   -2.6727   -1.1959   -2.0505 H   0  0  0  0  0  0  0  0  0  0  0  0
   -2.6933   -2.9428   -1.9441 H   0  0  0  0  0  0  0  0  0  0  0  0
   -5.1533   -0.1466   -1.8123 H   0  0  0  0  0  0  0  0  0  0  0  0
   -7.4507   -0.9438   -0.6280 H   0  0  0  0  0  0  0  0  0  0  0  0
   -6.8959   -3.3008    0.5963 H   0  0  0  0  0  0  0  0  0  0  0  0
   -5.0870   -4.9497    0.4873 H   0  0  0  0  0  0  0  0  0  0  0  0
   -3.7892   -3.9525    1.2212 H   0  0  0  0  0  0  0  0  0  0  0  0
   -3.6227   -4.5869   -0.4646 H   0  0  0  0  0  0  0  0  0  0  0  0
   -2.2618    1.0019    1.2364 H   0  0  0  0  0  0  0  0  0  0  0  0
   -3.0661    0.4605   -0.2133 H   0  0  0  0  0  0  0  0  0  0  0  0
   -0.1205    1.3441   -0.0751 H   0  0  0  0  0  0  0  0  0  0  0  0
   -0.8935    0.7446   -1.5183 H   0  0  0  0  0  0  0  0  0  0  0  0
   -0.7079    3.5685    0.8755 H   0  0  0  0  0  0  0  0  0  0  0  0
   -1.5960    5.8209    0.4046 H   0  0  0  0  0  0  0  0  0  0  0  0
   -2.9783    6.2232   -1.6150 H   0  0  0  0  0  0  0  0  0  0  0  0
   -3.4797    4.3562   -3.1710 H   0  0  0  0  0  0  0  0  0  0  0  0
   -2.6168    2.0886   -2.7020 H   0  0  0  0  0  0  0  0  0  0  0  0
    2.0657    2.8891   -0.4662 H   0  0  0  0  0  0  0  0  0  0  0  0
    3.0831    1.9822   -1.5875 H   0  0  0  0  0  0  0  0  0  0  0  0
    3.8212    2.9586   -0.2647 H   0  0  0  0  0  0  0  0  0  0  0  0
    5.2504    1.3041   -1.0478 H   0  0  0  0  0  0  0  0  0  0  0  0
  1  2  1  0
  2  3  1  0
  3  4  2  0
  4  5  1  0
  5  6  2  0
  6  7  1  0
  7  8  1  0
  8  9  2  0
  8 10  1  0
 10 11  1  0
 11 12  1  0
 12 13  2  0
 13 14  1  0
 14 15  2  0
 15 16  1  0
 16 17  1  0
 17 18  2  0
 18 19  1  0
 19 20  2  0
 20 21  1  0
 21 22  1  0
 15 23  1  0
 23 24  1  0
 24 25  1  0
 25 26  1  0
 26 27  2  0
 27 28  1  0
 28 29  2  0
 29 30  1  0
 30 31  2  0
  6 32  1  0
 32 33  1  0
 33 34  1  0
 32 35  2  0
 35  3  1  0
 23 12  1  0
 31 26  1  0
 21 17  1  0
  1 36  1  0
  1 37  1  0
  1 38  1  0
  4 39  1  0
  5 40  1  0
  7 41  1  0
 10 42  1  0
 10 43  1  0
 16 44  1  0
 16 45  1  0
 18 46  1  0
 19 47  1  0
 20 48  1  0
 22 49  1  0
 22 50  1  0
 22 51  1  0
 24 52  1  0
 24 53  1  0
 25 54  1  0
 25 55  1  0
 27 56  1  0
 28 57  1  0
 29 58  1  0
 30 59  1  0
 31 60  1  0
 34 61  1  0
 34 62  1  0
 34 63  1  0
 35 64  1  0
M  END
$$$$
