
     RDKit          3D

 57 62  0  0  0  0  0  0  0  0999 V2000
    6.1550   -1.4463    1.3354 C   0  0  0  0  0  0  0  0  0  0  0  0
    4.7770   -1.1130    1.4360 O   0  0  0  0  0  0  0  0  0  0  0  0
    3.9877   -1.3959    0.3533 C   0  0  0  0  0  0  0  0  0  0  0  0
    4.4229   -1.9958   -0.8445 C   0  0  0  0  0  0  0  0  0  0  0  0
    3.5271   -2.2464   -1.8918 C   0  0  0  0  0  0  0  0  0  0  0  0
    2.2112   -1.8806   -1.7075 C   0  0  0  0  0  0  0  0  0  0  0  0
    1.7603   -1.2767   -0.5322 C   0  0  0  0  0  0  0  0  0  0  0  0
    2.6431   -1.0368    0.5102 C   0  0  0  0  0  0  0  0  0  0  0  0
    0.2922   -1.0090   -0.6593 C   0  0  0  0  0  0  0  0  0  0  0  0
   -0.5472   -1.6227    0.4184 N   0  0  0  0  0  0  0  0  0  0  0  0
   -1.5578   -0.6172    0.8944 C   0  0  2  0  0  0  0  0  0  0  0  0
   -2.9875   -0.8870    0.3773 C   0  0  0  0  0  0  0  0  0  0  0  0
   -3.5550   -2.2227    0.7976 C   0  0  0  0  0  0  0  0  0  0  0  0
   -3.7557   -3.2327   -0.1542 C   0  0  0  0  0  0  0  0  0  0  0  0
   -4.2710   -4.4718    0.2275 C   0  0  0  0  0  0  0  0  0  0  0  0
   -4.5918   -4.7131    1.5618 C   0  0  0  0  0  0  0  0  0  0  0  0
   -4.3988   -3.7152    2.5153 C   0  0  0  0  0  0  0  0  0  0  0  0
   -3.8836   -2.4745    2.1363 C   0  0  0  0  0  0  0  0  0  0  0  0
   -1.0150    0.6574    0.3665 C   0  0  0  0  0  0  0  0  0  0  0  0
    0.0324    0.4299   -0.5226 C   0  0  0  0  0  0  0  0  0  0  0  0
    0.4249    1.6273   -1.0557 C   0  0  0  0  0  0  0  0  0  0  0  0
    1.2660    1.8386   -2.0675 O   0  0  0  0  0  0  0  0  0  0  0  0
   -0.2847    2.6368   -0.3728 N   0  0  0  0  0  0  0  0  0  0  0  0
   -0.0600    4.0451   -0.4933 C   0  0  0  0  0  0  0  0  0  0  0  0
    1.2323    4.5312   -0.7477 C   0  0  0  0  0  0  0  0  0  0  0  0
    1.4585    5.9043   -0.8706 C   0  0  0  0  0  0  0  0  0  0  0  0
    0.4014    6.8011   -0.7357 C   0  0  0  0  0  0  0  0  0  0  0  0
   -0.8815    6.3276   -0.4686 C   0  0  0  0  0  0  0  0  0  0  0  0
   -1.1132    4.9551   -0.3416 C   0  0  0  0  0  0  0  0  0  0  0  0
   -1.2325    2.0076    0.4589 C   0  0  0  0  0  0  0  0  0  0  0  0
   -2.0966    2.6837    1.2114 O   0  0  0  0  0  0  0  0  0  0  0  0
   -0.0396   -1.5870   -2.0640 C   0  0  0  0  0  0  0  0  0  0  0  0
   -1.1341   -1.6790   -2.6024 O   0  0  0  0  0  0  0  0  0  0  0  0
    1.1610   -2.0571   -2.6002 N   0  0  0  0  0  0  0  0  0  0  0  0
    6.6378   -0.8904    0.5249 H   0  0  0  0  0  0  0  0  0  0  0  0
    6.2922   -2.5256    1.2124 H   0  0  0  0  0  0  0  0  0  0  0  0
    6.6388   -1.1545    2.2725 H   0  0  0  0  0  0  0  0  0  0  0  0
    5.4598   -2.2823   -0.9878 H   0  0  0  0  0  0  0  0  0  0  0  0
    3.8652   -2.7134   -2.8094 H   0  0  0  0  0  0  0  0  0  0  0  0
    2.2974   -0.5764    1.4309 H   0  0  0  0  0  0  0  0  0  0  0  0
   -1.0307   -2.4316    0.0314 H   0  0  0  0  0  0  0  0  0  0  0  0
   -1.5398   -0.6139    1.9901 H   0  0  0  0  0  0  0  0  0  0  0  0
   -3.6638   -0.1006    0.7400 H   0  0  0  0  0  0  0  0  0  0  0  0
   -3.0171   -0.8033   -0.7176 H   0  0  0  0  0  0  0  0  0  0  0  0
   -3.5095   -3.0604   -1.2013 H   0  0  0  0  0  0  0  0  0  0  0  0
   -4.4222   -5.2485   -0.5176 H   0  0  0  0  0  0  0  0  0  0  0  0
   -4.9927   -5.6786    1.8583 H   0  0  0  0  0  0  0  0  0  0  0  0
   -4.6496   -3.9040    3.5559 H   0  0  0  0  0  0  0  0  0  0  0  0
   -3.7408   -1.7086    2.8946 H   0  0  0  0  0  0  0  0  0  0  0  0
    1.0771    2.7145   -2.4503 H   0  0  0  0  0  0  0  0  0  0  0  0
    2.0901    3.8632   -0.7997 H   0  0  0  0  0  0  0  0  0  0  0  0
    2.4640    6.2744   -1.0549 H   0  0  0  0  0  0  0  0  0  0  0  0
    0.5782    7.8697   -0.8277 H   0  0  0  0  0  0  0  0  0  0  0  0
   -1.7068    7.0266   -0.3585 H   0  0  0  0  0  0  0  0  0  0  0  0
   -2.1305    4.6216   -0.1561 H   0  0  0  0  0  0  0  0  0  0  0  0
   -2.5693    2.0437    1.7709 H   0  0  0  0  0  0  0  0  0  0  0  0
    1.2245   -2.4866   -3.5097 H   0  0  0  0  0  0  0  0  0  0  0  0
  1  2  1  0
  2  3  1  0
  3  4  2  0
  4  5  1  0
  5  6  2  0
  6  7  1  0
  7  8  2  0
  7  9  1  0
  9 10  1  0
 10 11  1  0
 11 12  1  0
 12 13  1  0
 13 14  2  0
 14 15  1  0
 15 16  2  0
 16 17  1  0
 17 18  2  0
 11 19  1  0
 19 20  1  0
 20 21  2  0
 21 22  1  0
 21 23  1  0
 23 24  1  0
 24 25  2  0
 25 26  1  0
 26 27  2  0
 27 28  1  0
 28 29  2  0
 23 30  1  0
 30 31  1  0
  9 32  1  0
 32 33  2  0
 32 34  1  0
  8  3  1  0
 20  9  1  0
 29 24  1  0
 34  6  1  0
 18 13  1  0
 30 19  2  0
  1 35  1  0
  1 36  1  0
  1 37  1  0
  4 38  1  0
  5 39  1  0
  8 40  1  0
 10 41  1  0
 11 42  1  1
 12 43  1  0
 12 44  1  0
 14 45  1  0
 15 46  1  0
 16 47  1  0
 17 48  1  0
 18 49  1  0
 22 50  1  0
 25 51  1  0
 26 52  1  0
 27 53  1  0
 28 54  1  0
 29 55  1  0
 31 56  1  0
 34 57  1  0
M  END
$$$$
