
     RDKit          3D

 55 60  0  0  0  0  0  0  0  0999 V2000
   -4.6869    0.5775    1.9193 O   0  0  0  0  0  0  0  0  0  0  0  0
   -4.1107    0.9442    0.8964 C   0  0  0  0  0  0  0  0  0  0  0  0
   -4.6753    2.0161    0.0871 C   0  0  0  0  0  0  0  0  0  0  0  0
   -4.6740    2.2418   -1.3216 C   0  0  0  0  0  0  0  0  0  0  0  0
   -5.3907    3.3954   -1.5385 C   0  0  0  0  0  0  0  0  0  0  0  0
   -5.8553    3.8902   -0.3648 O   0  0  0  0  0  0  0  0  0  0  0  0
   -5.4392    3.0429    0.6096 C   0  0  0  0  0  0  0  0  0  0  0  0
   -2.9192    0.3436    0.4753 N   0  0  0  0  0  0  0  0  0  0  0  0
   -1.9542    0.9773   -0.4208 C   0  0  0  0  0  0  0  0  0  0  0  0
   -0.5179    0.6152   -0.0458 C   0  0  0  0  0  0  0  0  0  0  0  0
   -0.2671   -0.9153   -0.1392 C   0  0  0  0  0  0  0  0  0  0  0  0
   -1.5334   -1.6826    0.3560 C   0  0  0  0  0  0  0  0  0  0  0  0
   -2.4534   -0.8242    1.2157 C   0  0  0  0  0  0  0  0  0  0  0  0
   -0.1007   -1.1625   -1.5626 O   0  0  0  0  0  0  0  0  0  0  0  0
    0.3631   -2.4007   -1.9072 C   0  0  0  0  0  0  0  0  0  0  0  0
    0.1517   -2.7891   -3.2311 C   0  0  0  0  0  0  0  0  0  0  0  0
    0.5773   -4.0457   -3.6643 C   0  0  0  0  0  0  0  0  0  0  0  0
    1.2158   -4.9015   -2.7721 C   0  0  0  0  0  0  0  0  0  0  0  0
    1.6219   -6.1056   -3.1931 F   0  0  0  0  0  0  0  0  0  0  0  0
    1.4467   -4.5224   -1.4562 C   0  0  0  0  0  0  0  0  0  0  0  0
    1.0244   -3.2602   -1.0305 C   0  0  0  0  0  0  0  0  0  0  0  0
    1.2983   -2.8069    0.3452 C   0  0  0  0  0  0  0  0  0  0  0  0
    1.7660   -3.5962    1.1594 O   0  0  0  0  0  0  0  0  0  0  0  0
    1.0215   -1.3329    0.6255 C   0  0  0  0  0  0  0  0  0  0  0  0
    2.2862   -0.5564    0.2785 C   0  0  0  0  0  0  0  0  0  0  0  0
    2.3931    0.2919    1.4970 C   0  0  0  0  0  0  0  0  0  0  0  0
    3.3509    1.4185    1.5864 C   0  0  0  0  0  0  0  0  0  0  0  0
    3.3183    2.2477    2.7146 C   0  0  0  0  0  0  0  0  0  0  0  0
    4.2036    3.3215    2.8242 C   0  0  0  0  0  0  0  0  0  0  0  0
    5.1259    3.5704    1.8096 C   0  0  0  0  0  0  0  0  0  0  0  0
    5.1664    2.7458    0.6860 C   0  0  0  0  0  0  0  0  0  0  0  0
    4.2818    1.6699    0.5719 C   0  0  0  0  0  0  0  0  0  0  0  0
    1.5873   -0.0311    2.4567 N   0  0  0  0  0  0  0  0  0  0  0  0
    0.8391   -1.1523    2.0338 O   0  0  0  0  0  0  0  0  0  0  0  0
   -4.2262    1.6292   -2.0901 H   0  0  0  0  0  0  0  0  0  0  0  0
   -5.6612    3.9570   -2.4220 H   0  0  0  0  0  0  0  0  0  0  0  0
   -5.7543    3.2920    1.6143 H   0  0  0  0  0  0  0  0  0  0  0  0
   -2.0669    2.0652   -0.3824 H   0  0  0  0  0  0  0  0  0  0  0  0
   -2.1760    0.6404   -1.4391 H   0  0  0  0  0  0  0  0  0  0  0  0
   -0.3363    0.9846    0.9692 H   0  0  0  0  0  0  0  0  0  0  0  0
    0.1575    1.1566   -0.7189 H   0  0  0  0  0  0  0  0  0  0  0  0
   -1.2598   -2.5761    0.9284 H   0  0  0  0  0  0  0  0  0  0  0  0
   -2.1088   -2.0436   -0.5073 H   0  0  0  0  0  0  0  0  0  0  0  0
   -3.3152   -1.4198    1.5381 H   0  0  0  0  0  0  0  0  0  0  0  0
   -1.9431   -0.4740    2.1206 H   0  0  0  0  0  0  0  0  0  0  0  0
   -0.3549   -2.1208   -3.9234 H   0  0  0  0  0  0  0  0  0  0  0  0
    0.4124   -4.3651   -4.6892 H   0  0  0  0  0  0  0  0  0  0  0  0
    1.9573   -5.2046   -0.7820 H   0  0  0  0  0  0  0  0  0  0  0  0
    2.2003    0.0343   -0.6362 H   0  0  0  0  0  0  0  0  0  0  0  0
    3.1782   -1.1896    0.2137 H   0  0  0  0  0  0  0  0  0  0  0  0
    2.6057    2.0631    3.5165 H   0  0  0  0  0  0  0  0  0  0  0  0
    4.1739    3.9605    3.7035 H   0  0  0  0  0  0  0  0  0  0  0  0
    5.8170    4.4055    1.8976 H   0  0  0  0  0  0  0  0  0  0  0  0
    5.8922    2.9397   -0.1004 H   0  0  0  0  0  0  0  0  0  0  0  0
    4.3469    1.0416   -0.3110 H   0  0  0  0  0  0  0  0  0  0  0  0
  1  2  2  0
  2  3  1  0
  3  4  1  0
  4  5  2  0
  5  6  1  0
  6  7  1  0
  2  8  1  0
  8  9  1  0
  9 10  1  0
 10 11  1  0
 11 12  1  0
 12 13  1  0
 11 14  1  0
 14 15  1  0
 15 16  2  0
 16 17  1  0
 17 18  2  0
 18 19  1  0
 18 20  1  0
 20 21  2  0
 21 22  1  0
 22 23  2  0
 22 24  1  0
 24 25  1  0
 25 26  1  0
 26 27  1  0
 27 28  2  0
 28 29  1  0
 29 30  2  0
 30 31  1  0
 31 32  2  0
 26 33  2  0
 33 34  1  0
  7  3  2  0
 13  8  1  0
 21 15  1  0
 34 24  1  0
 24 11  1  0
 32 27  1  0
  4 35  1  0
  5 36  1  0
  7 37  1  0
  9 38  1  0
  9 39  1  0
 10 40  1  0
 10 41  1  0
 12 42  1  0
 12 43  1  0
 13 44  1  0
 13 45  1  0
 16 46  1  0
 17 47  1  0
 20 48  1  0
 25 49  1  0
 25 50  1  0
 28 51  1  0
 29 52  1  0
 30 53  1  0
 31 54  1  0
 32 55  1  0
M  END
$$$$
