
     RDKit          3D

 60 63  0  0  0  0  0  0  0  0999 V2000
    7.5782    0.7261   -3.3975 C   0  0  0  0  0  0  0  0  0  0  0  0
    6.5200   -0.2243   -3.4415 O   0  0  0  0  0  0  0  0  0  0  0  0
    5.8930   -0.5037   -2.2571 C   0  0  0  0  0  0  0  0  0  0  0  0
    6.1705    0.0845   -1.0231 C   0  0  0  0  0  0  0  0  0  0  0  0
    5.4525   -0.3002    0.1154 C   0  0  0  0  0  0  0  0  0  0  0  0
    4.4519   -1.2810    0.0377 C   0  0  0  0  0  0  0  0  0  0  0  0
    3.6839   -1.6804    1.2710 C   0  0  0  0  0  0  0  0  0  0  0  0
    2.6918   -0.6833    1.5990 N   0  0  0  0  0  0  0  0  0  0  0  0
    2.7582    0.0966    2.7351 C   0  0  0  0  0  0  0  0  0  0  0  0
    3.7083    0.0379    3.5153 O   0  0  0  0  0  0  0  0  0  0  0  0
    1.6513    1.1648    2.8551 C   0  0  0  0  0  0  0  0  0  0  0  0
    1.4873    1.6490    4.2951 C   0  0  0  0  0  0  0  0  0  0  0  0
    0.3680    0.6996    2.2985 N   0  0  0  0  0  0  0  0  0  0  0  0
   -0.1962   -0.4305    2.9113 N   0  0  0  0  0  0  0  0  0  0  0  0
   -1.3472   -0.9089    2.5300 C   0  0  0  0  0  0  0  0  0  0  0  0
   -1.8782   -2.1287    3.2281 C   0  0  0  0  0  0  0  0  0  0  0  0
   -2.0623   -0.2575    1.4604 C   0  0  0  0  0  0  0  0  0  0  0  0
   -3.2963   -0.4556    0.8621 C   0  0  0  0  0  0  0  0  0  0  0  0
   -4.3972   -1.3822    1.2346 C   0  0  0  0  0  0  0  0  0  0  0  0
   -3.3575    0.4761   -0.1842 N   0  0  0  0  0  0  0  0  0  0  0  0
   -4.3013    0.6229   -1.2491 C   0  0  0  0  0  0  0  0  0  0  0  0
   -5.1594   -0.4091   -1.6424 C   0  0  0  0  0  0  0  0  0  0  0  0
   -6.0676   -0.2150   -2.6925 C   0  0  0  0  0  0  0  0  0  0  0  0
   -6.1328    1.0092   -3.3665 C   0  0  0  0  0  0  0  0  0  0  0  0
   -7.0862    1.2030   -4.5085 C   0  0  0  0  0  0  0  0  0  0  0  0
   -5.2467    2.0265   -3.0046 C   0  0  0  0  0  0  0  0  0  0  0  0
   -4.3384    1.8362   -1.9583 C   0  0  0  0  0  0  0  0  0  0  0  0
   -2.3169    1.3513   -0.1144 N   0  0  0  0  0  0  0  0  0  0  0  0
   -1.5155    0.8692    0.8374 C   0  0  0  0  0  0  0  0  0  0  0  0
   -0.2296    1.4236    1.2444 C   0  0  0  0  0  0  0  0  0  0  0  0
    0.2816    2.4099    0.7194 O   0  0  0  0  0  0  0  0  0  0  0  0
    4.1694   -1.8571   -1.2056 C   0  0  0  0  0  0  0  0  0  0  0  0
    4.8884   -1.4712   -2.3408 C   0  0  0  0  0  0  0  0  0  0  0  0
    7.9830    0.8262   -4.4108 H   0  0  0  0  0  0  0  0  0  0  0  0
    7.2095    1.7088   -3.0878 H   0  0  0  0  0  0  0  0  0  0  0  0
    8.3903    0.3819   -2.7480 H   0  0  0  0  0  0  0  0  0  0  0  0
    6.9352    0.8463   -0.9087 H   0  0  0  0  0  0  0  0  0  0  0  0
    5.6758    0.1710    1.0721 H   0  0  0  0  0  0  0  0  0  0  0  0
    4.3740   -1.8476    2.1062 H   0  0  0  0  0  0  0  0  0  0  0  0
    3.1489   -2.6213    1.1034 H   0  0  0  0  0  0  0  0  0  0  0  0
    1.9112   -0.5557    0.9701 H   0  0  0  0  0  0  0  0  0  0  0  0
    2.0100    2.0155    2.2609 H   0  0  0  0  0  0  0  0  0  0  0  0
    1.2080    0.8285    4.9650 H   0  0  0  0  0  0  0  0  0  0  0  0
    2.4205    2.0777    4.6726 H   0  0  0  0  0  0  0  0  0  0  0  0
    0.7094    2.4182    4.3626 H   0  0  0  0  0  0  0  0  0  0  0  0
   -2.7249   -1.8491    3.8588 H   0  0  0  0  0  0  0  0  0  0  0  0
   -1.1051   -2.5710    3.8638 H   0  0  0  0  0  0  0  0  0  0  0  0
   -2.1935   -2.8749    2.4955 H   0  0  0  0  0  0  0  0  0  0  0  0
   -5.3817   -0.9506    1.0326 H   0  0  0  0  0  0  0  0  0  0  0  0
   -4.2966   -2.3343    0.7062 H   0  0  0  0  0  0  0  0  0  0  0  0
   -4.3886   -1.5932    2.3071 H   0  0  0  0  0  0  0  0  0  0  0  0
   -5.1257   -1.3961   -1.1968 H   0  0  0  0  0  0  0  0  0  0  0  0
   -6.7197   -1.0346   -2.9883 H   0  0  0  0  0  0  0  0  0  0  0  0
   -7.9957    0.6102   -4.3624 H   0  0  0  0  0  0  0  0  0  0  0  0
   -6.6121    0.9012   -5.4478 H   0  0  0  0  0  0  0  0  0  0  0  0
   -7.3921    2.2525   -4.5881 H   0  0  0  0  0  0  0  0  0  0  0  0
   -5.2537    2.9783   -3.5326 H   0  0  0  0  0  0  0  0  0  0  0  0
   -3.6682    2.6558   -1.7017 H   0  0  0  0  0  0  0  0  0  0  0  0
    3.3921   -2.6116   -1.3035 H   0  0  0  0  0  0  0  0  0  0  0  0
    4.6645   -1.9297   -3.3013 H   0  0  0  0  0  0  0  0  0  0  0  0
  1  2  1  0
  2  3  1  0
  3  4  2  0
  4  5  1  0
  5  6  2  0
  6  7  1  0
  7  8  1  0
  8  9  1  0
  9 10  2  0
  9 11  1  0
 11 12  1  0
 11 13  1  0
 13 14  1  0
 14 15  2  0
 15 16  1  0
 15 17  1  0
 17 18  2  0
 18 19  1  0
 18 20  1  0
 20 21  1  0
 21 22  2  0
 22 23  1  0
 23 24  2  0
 24 25  1  0
 24 26  1  0
 26 27  2  0
 20 28  1  0
 28 29  2  0
 29 30  1  0
 30 31  2  0
  6 32  1  0
 32 33  2  0
 33  3  1  0
 30 13  1  0
 29 17  1  0
 27 21  1  0
  1 34  1  0
  1 35  1  0
  1 36  1  0
  4 37  1  0
  5 38  1  0
  7 39  1  0
  7 40  1  0
  8 41  1  0
 11 42  1  0
 12 43  1  0
 12 44  1  0
 12 45  1  0
 16 46  1  0
 16 47  1  0
 16 48  1  0
 19 49  1  0
 19 50  1  0
 19 51  1  0
 22 52  1  0
 23 53  1  0
 25 54  1  0
 25 55  1  0
 25 56  1  0
 26 57  1  0
 27 58  1  0
 32 59  1  0
 33 60  1  0
M  END
$$$$
