
     RDKit          3D

 37 39  0  0  0  0  0  0  0  0999 V2000
    5.9906    1.0962   -0.5221 C   0  0  0  0  0  0  0  0  0  0  0  0
    4.5929    1.3038   -0.6942 O   0  0  0  0  0  0  0  0  0  0  0  0
    3.7506    0.4713   -0.0079 C   0  0  0  0  0  0  0  0  0  0  0  0
    4.1427   -0.5903    0.8186 C   0  0  0  0  0  0  0  0  0  0  0  0
    3.1842   -1.3786    1.4621 C   0  0  0  0  0  0  0  0  0  0  0  0
    1.8428   -1.0877    1.2667 C   0  0  0  0  0  0  0  0  0  0  0  0
    1.4254   -0.0198    0.4483 C   0  0  0  0  0  0  0  0  0  0  0  0
    2.3890    0.7530   -0.1932 C   0  0  0  0  0  0  0  0  0  0  0  0
    0.0059    0.1331    0.3479 N   0  0  0  0  0  0  0  0  0  0  0  0
   -0.4070    1.5405    0.3458 C   0  0  0  0  0  0  0  0  0  0  0  0
   -0.6329   -0.8621    1.1050 C   0  0  0  0  0  0  0  0  0  0  0  0
   -1.9403   -1.1774    1.1467 C   0  0  0  0  0  0  0  0  0  0  0  0
   -2.9934   -0.5658    0.3381 C   0  0  0  0  0  0  0  0  0  0  0  0
   -4.0133    0.1434    0.9864 C   0  0  0  0  0  0  0  0  0  0  0  0
   -5.0173    0.7540    0.2468 C   0  0  0  0  0  0  0  0  0  0  0  0
   -4.9962    0.6482   -1.1342 C   0  0  0  0  0  0  0  0  0  0  0  0
   -3.9820   -0.0760   -1.7472 C   0  0  0  0  0  0  0  0  0  0  0  0
   -3.0116   -0.6816   -1.0203 N   0  0  0  0  0  4  0  0  0  0  0  0
   -1.9939   -1.4723   -1.7478 C   0  0  0  0  0  0  0  0  0  0  0  0
    0.4653   -1.9437    2.0030 S   0  0  0  0  0  0  0  0  0  0  0  0
    6.2900    0.1095   -0.8903 H   0  0  0  0  0  0  0  0  0  0  0  0
    6.2843    1.2353    0.5236 H   0  0  0  0  0  0  0  0  0  0  0  0
    6.5158    1.8482   -1.1188 H   0  0  0  0  0  0  0  0  0  0  0  0
    5.1894   -0.8300    0.9808 H   0  0  0  0  0  0  0  0  0  0  0  0
    3.4909   -2.1989    2.1045 H   0  0  0  0  0  0  0  0  0  0  0  0
    2.1164    1.5698   -0.8532 H   0  0  0  0  0  0  0  0  0  0  0  0
   -0.0541    2.0558   -0.5538 H   0  0  0  0  0  0  0  0  0  0  0  0
   -1.4947    1.6439    0.3425 H   0  0  0  0  0  0  0  0  0  0  0  0
   -0.0322    2.0655    1.2327 H   0  0  0  0  0  0  0  0  0  0  0  0
   -2.2886   -1.9826    1.7924 H   0  0  0  0  0  0  0  0  0  0  0  0
   -4.0202    0.2330    2.0721 H   0  0  0  0  0  0  0  0  0  0  0  0
   -5.8082    1.3121    0.7463 H   0  0  0  0  0  0  0  0  0  0  0  0
   -5.7710    1.1235   -1.7327 H   0  0  0  0  0  0  0  0  0  0  0  0
   -3.9422   -0.1812   -2.8284 H   0  0  0  0  0  0  0  0  0  0  0  0
   -2.4150   -1.8043   -2.7014 H   0  0  0  0  0  0  0  0  0  0  0  0
   -1.7294   -2.3605   -1.1705 H   0  0  0  0  0  0  0  0  0  0  0  0
   -1.1326   -0.8272   -1.9308 H   0  0  0  0  0  0  0  0  0  0  0  0
  1  2  1  0
  2  3  1  0
  3  4  2  0
  4  5  1  0
  5  6  2  0
  6  7  1  0
  7  8  2  0
  7  9  1  0
  9 10  1  0
  9 11  1  0
 11 12  2  3
 12 13  1  0
 13 14  2  0
 14 15  1  0
 15 16  2  0
 16 17  1  0
 17 18  2  0
 18 19  1  0
 11 20  1  0
  8  3  1  0
 18 13  1  0
 20  6  1  0
  1 21  1  0
  1 22  1  0
  1 23  1  0
  4 24  1  0
  5 25  1  0
  8 26  1  0
 10 27  1  0
 10 28  1  0
 10 29  1  0
 12 30  1  0
 14 31  1  0
 15 32  1  0
 16 33  1  0
 17 34  1  0
 19 35  1  0
 19 36  1  0
 19 37  1  0
M  CHG  1  18   1
M  END
$$$$
