
     RDKit          3D

 57 60  0  0  0  0  0  0  0  0999 V2000
   -1.0245   -0.3788    3.4595 C   0  0  0  0  0  0  0  0  0  0  0  0
    0.4433   -0.7805    3.4348 C   0  0  0  0  0  0  0  0  0  0  0  0
    1.3146   -0.1590    2.3312 C   0  0  0  0  0  0  0  0  0  0  0  0
    1.2626   -0.9550    0.6890 S   0  0  0  0  0  0  0  0  0  0  0  0
   -0.4406   -0.9976    0.2980 C   0  0  0  0  0  0  0  0  0  0  0  0
   -0.9905    0.1726    0.1676 N   0  0  0  0  0  0  0  0  0  0  0  0
   -2.3494    0.1459   -0.1403 C   0  0  0  0  0  0  0  0  0  0  0  0
   -3.1474    1.3004   -0.2971 C   0  0  0  0  0  0  0  0  0  0  0  0
   -4.4533    0.9580   -0.5906 C   0  0  0  0  0  0  0  0  0  0  0  0
   -4.6747   -0.7477   -0.6585 S   0  0  0  0  0  0  0  0  0  0  0  0
   -3.0401   -1.0171   -0.2963 C   0  0  0  0  0  0  0  0  0  0  0  0
   -2.4304   -2.3064   -0.1587 C   0  0  0  0  0  0  0  0  0  0  0  0
   -3.0399   -3.3673   -0.2762 O   0  0  0  0  0  0  0  0  0  0  0  0
   -1.0600   -2.2373    0.1347 N   0  0  0  0  0  0  0  0  0  0  0  0
   -0.3629   -3.5239    0.2493 C   0  0  0  0  0  0  0  0  0  0  0  0
    0.3295   -3.9399   -1.0353 C   0  0  0  0  0  0  0  0  0  0  0  0
   -0.4135   -4.2538   -2.1842 C   0  0  0  0  0  0  0  0  0  0  0  0
    0.2265   -4.6372   -3.3666 C   0  0  0  0  0  0  0  0  0  0  0  0
    1.6213   -4.7227   -3.4173 C   0  0  0  0  0  0  0  0  0  0  0  0
    2.2557   -5.1332   -4.6931 C   0  0  0  0  0  0  0  0  0  0  0  0
    1.6733   -5.3785   -5.7325 O   0  0  0  0  0  0  0  0  0  0  0  0
    3.5948   -5.2187   -4.6067 O   0  0  0  0  0  0  0  0  0  0  0  0
    2.3707   -4.4259   -2.2743 C   0  0  0  0  0  0  0  0  0  0  0  0
    1.7281   -4.0412   -1.0926 C   0  0  0  0  0  0  0  0  0  0  0  0
    1.3021    1.3785    2.3500 C   0  0  0  0  0  0  0  0  0  0  0  0
    1.7150    1.9607    3.3548 O   0  0  0  0  0  0  0  0  0  0  0  0
    0.8095    2.0050    1.2283 N   0  0  0  0  0  0  0  0  0  0  0  0
    0.7370    3.3866    0.9584 C   0  0  0  0  0  0  0  0  0  0  0  0
    0.1337    3.7654   -0.2463 C   0  0  0  0  0  0  0  0  0  0  0  0
    0.0184    5.1134   -0.5988 C   0  0  0  0  0  0  0  0  0  0  0  0
    0.5083    6.1156    0.2473 C   0  0  0  0  0  0  0  0  0  0  0  0
    0.3755    7.5573   -0.1540 C   0  0  0  0  0  0  0  0  0  0  0  0
    1.1186    5.7312    1.4508 C   0  0  0  0  0  0  0  0  0  0  0  0
    1.7565    6.9078    2.5470 Cl  0  0  0  0  0  0  0  0  0  0  0  0
    1.2332    4.3796    1.8019 C   0  0  0  0  0  0  0  0  0  0  0  0
   -1.1567    0.7017    3.3578 H   0  0  0  0  0  0  0  0  0  0  0  0
   -1.5975   -0.8803    2.6794 H   0  0  0  0  0  0  0  0  0  0  0  0
   -1.4706   -0.6774    4.4144 H   0  0  0  0  0  0  0  0  0  0  0  0
    0.5209   -1.8750    3.4102 H   0  0  0  0  0  0  0  0  0  0  0  0
    0.8679   -0.4752    4.4016 H   0  0  0  0  0  0  0  0  0  0  0  0
    2.3484   -0.3899    2.6286 H   0  0  0  0  0  0  0  0  0  0  0  0
   -2.8032    2.3220   -0.1989 H   0  0  0  0  0  0  0  0  0  0  0  0
   -5.2917    1.6199   -0.7650 H   0  0  0  0  0  0  0  0  0  0  0  0
   -1.0647   -4.3194    0.5295 H   0  0  0  0  0  0  0  0  0  0  0  0
    0.3548   -3.4796    1.0757 H   0  0  0  0  0  0  0  0  0  0  0  0
   -1.5014   -4.2157   -2.1721 H   0  0  0  0  0  0  0  0  0  0  0  0
   -0.3700   -4.8745   -4.2462 H   0  0  0  0  0  0  0  0  0  0  0  0
    3.8700   -5.5018   -5.5043 H   0  0  0  0  0  0  0  0  0  0  0  0
    3.4563   -4.4903   -2.2909 H   0  0  0  0  0  0  0  0  0  0  0  0
    2.3378   -3.8214   -0.2178 H   0  0  0  0  0  0  0  0  0  0  0  0
    0.3755    1.3974    0.5354 H   0  0  0  0  0  0  0  0  0  0  0  0
   -0.2537    3.0142   -0.9309 H   0  0  0  0  0  0  0  0  0  0  0  0
   -0.4560    5.3720   -1.5430 H   0  0  0  0  0  0  0  0  0  0  0  0
   -0.1403    7.6600   -1.1152 H   0  0  0  0  0  0  0  0  0  0  0  0
   -0.2077    8.1095    0.5901 H   0  0  0  0  0  0  0  0  0  0  0  0
    1.3634    8.0157   -0.2628 H   0  0  0  0  0  0  0  0  0  0  0  0
    1.7176    4.1321    2.7410 H   0  0  0  0  0  0  0  0  0  0  0  0
  1  2  1  0
  2  3  1  0
  3  4  1  0
  4  5  1  0
  5  6  2  0
  6  7  1  0
  7  8  1  0
  8  9  2  0
  9 10  1  0
 10 11  1  0
 11 12  1  0
 12 13  2  0
 12 14  1  0
 14 15  1  0
 15 16  1  0
 16 17  2  0
 17 18  1  0
 18 19  2  0
 19 20  1  0
 20 21  2  0
 20 22  1  0
 19 23  1  0
 23 24  2  0
  3 25  1  0
 25 26  2  0
 25 27  1  0
 27 28  1  0
 28 29  2  0
 29 30  1  0
 30 31  2  0
 31 32  1  0
 31 33  1  0
 33 34  1  0
 33 35  2  0
 14  5  1  0
 24 16  1  0
 35 28  1  0
 11  7  2  0
  1 36  1  0
  1 37  1  0
  1 38  1  0
  2 39  1  0
  2 40  1  0
  3 41  1  0
  8 42  1  0
  9 43  1  0
 15 44  1  0
 15 45  1  0
 17 46  1  0
 18 47  1  0
 22 48  1  0
 23 49  1  0
 24 50  1  0
 27 51  1  0
 29 52  1  0
 30 53  1  0
 32 54  1  0
 32 55  1  0
 32 56  1  0
 35 57  1  0
M  END
$$$$
