
     RDKit          3D

 57 60  0  0  0  0  0  0  0  0999 V2000
   -7.5604    1.5467    3.3550 C   0  0  0  0  0  0  0  0  0  0  0  0
   -6.5472    2.0354    2.4847 O   0  0  0  0  0  0  0  0  0  0  0  0
   -5.6182    1.1310    2.0467 C   0  0  0  0  0  0  0  0  0  0  0  0
   -5.5838   -0.2258    2.3660 C   0  0  0  0  0  0  0  0  0  0  0  0
   -4.5774   -1.0492    1.8475 C   0  0  0  0  0  0  0  0  0  0  0  0
   -3.5990   -0.5199    1.0075 C   0  0  0  0  0  0  0  0  0  0  0  0
   -2.5496   -1.2767    0.4429 N   0  0  0  0  0  0  0  0  0  0  0  0
   -2.2327   -2.6033    0.6519 C   0  0  0  0  0  0  0  0  0  0  0  0
   -2.8598   -3.3900    1.3595 O   0  0  0  0  0  0  0  0  0  0  0  0
   -1.0364   -3.0946   -0.1463 C   0  0  0  0  0  0  0  0  0  0  0  0
    0.0965   -2.1779   -0.1254 N   0  0  0  0  0  0  0  0  0  0  0  0
    0.5413   -1.4753   -1.2135 C   0  0  0  0  0  0  0  0  0  0  0  0
    1.5761   -0.6638   -0.7948 C   0  0  0  0  0  0  0  0  0  0  0  0
    2.4805    0.4234   -1.7970 S   0  0  0  0  0  6  0  0  0  0  0  0
    2.5750    1.6345   -1.0064 O   0  0  0  0  0  0  0  0  0  0  0  0
    1.7892    0.3772   -3.0718 O   0  0  0  0  0  0  0  0  0  0  0  0
    4.0711   -0.3875   -1.9202 C   0  0  0  0  0  0  0  0  0  0  0  0
    4.9809    0.4383   -2.7907 C   0  0  0  0  0  0  0  0  0  0  0  0
    5.0351    0.2190   -4.1748 C   0  0  0  0  0  0  0  0  0  0  0  0
    5.8754    0.9886   -4.9806 C   0  0  0  0  0  0  0  0  0  0  0  0
    6.6666    1.9853   -4.4135 C   0  0  0  0  0  0  0  0  0  0  0  0
    6.6160    2.2167   -3.0406 C   0  0  0  0  0  0  0  0  0  0  0  0
    5.7768    1.4489   -2.2320 C   0  0  0  0  0  0  0  0  0  0  0  0
    1.7864   -0.8964    0.5946 C   0  0  0  0  0  0  0  0  0  0  0  0
    2.6685   -0.3796    1.5685 C   0  0  0  0  0  0  0  0  0  0  0  0
    2.6090   -0.8542    2.8827 C   0  0  0  0  0  0  0  0  0  0  0  0
    1.6851   -1.8291    3.2412 C   0  0  0  0  0  0  0  0  0  0  0  0
    0.7924   -2.3522    2.3028 C   0  0  0  0  0  0  0  0  0  0  0  0
    0.8585   -1.8710    0.9850 C   0  0  0  0  0  0  0  0  0  0  0  0
   -3.6283    0.8524    0.6848 C   0  0  0  0  0  0  0  0  0  0  0  0
   -2.6226    1.2780   -0.1531 O   0  0  0  0  0  0  0  0  0  0  0  0
   -2.4999    2.6815   -0.3533 C   0  0  0  0  0  0  0  0  0  0  0  0
   -4.6383    1.6658    1.2040 C   0  0  0  0  0  0  0  0  0  0  0  0
   -8.1760    0.7899    2.8579 H   0  0  0  0  0  0  0  0  0  0  0  0
   -8.2115    2.3870    3.6146 H   0  0  0  0  0  0  0  0  0  0  0  0
   -7.1296    1.1597    4.2845 H   0  0  0  0  0  0  0  0  0  0  0  0
   -6.3244   -0.6818    3.0150 H   0  0  0  0  0  0  0  0  0  0  0  0
   -4.5884   -2.1000    2.1181 H   0  0  0  0  0  0  0  0  0  0  0  0
   -1.9279   -0.7098   -0.1308 H   0  0  0  0  0  0  0  0  0  0  0  0
   -0.6831   -4.0476    0.2616 H   0  0  0  0  0  0  0  0  0  0  0  0
   -1.3428   -3.2520   -1.1856 H   0  0  0  0  0  0  0  0  0  0  0  0
    0.0860   -1.5837   -2.1913 H   0  0  0  0  0  0  0  0  0  0  0  0
    3.9173   -1.3835   -2.3476 H   0  0  0  0  0  0  0  0  0  0  0  0
    4.4915   -0.4963   -0.9163 H   0  0  0  0  0  0  0  0  0  0  0  0
    4.4154   -0.5455   -4.6400 H   0  0  0  0  0  0  0  0  0  0  0  0
    5.9072    0.8151   -6.0533 H   0  0  0  0  0  0  0  0  0  0  0  0
    7.3167    2.5874   -5.0429 H   0  0  0  0  0  0  0  0  0  0  0  0
    7.2256    3.0014   -2.5997 H   0  0  0  0  0  0  0  0  0  0  0  0
    5.7429    1.6552   -1.1637 H   0  0  0  0  0  0  0  0  0  0  0  0
    3.3832    0.3999    1.3164 H   0  0  0  0  0  0  0  0  0  0  0  0
    3.2845   -0.4483    3.6320 H   0  0  0  0  0  0  0  0  0  0  0  0
    1.6464   -2.1820    4.2696 H   0  0  0  0  0  0  0  0  0  0  0  0
    0.0651   -3.1017    2.6029 H   0  0  0  0  0  0  0  0  0  0  0  0
   -1.6087    2.8539   -0.9645 H   0  0  0  0  0  0  0  0  0  0  0  0
   -2.3595    3.2078    0.5966 H   0  0  0  0  0  0  0  0  0  0  0  0
   -3.3614    3.0753   -0.9022 H   0  0  0  0  0  0  0  0  0  0  0  0
   -4.6951    2.7235    0.9690 H   0  0  0  0  0  0  0  0  0  0  0  0
  1  2  1  0
  2  3  1  0
  3  4  2  0
  4  5  1  0
  5  6  2  0
  6  7  1  0
  7  8  1  0
  8  9  2  0
  8 10  1  0
 10 11  1  0
 11 12  1  0
 12 13  2  0
 13 14  1  0
 14 15  2  0
 14 16  2  0
 14 17  1  0
 17 18  1  0
 18 19  2  0
 19 20  1  0
 20 21  2  0
 21 22  1  0
 22 23  2  0
 13 24  1  0
 24 25  2  0
 25 26  1  0
 26 27  2  0
 27 28  1  0
 28 29  2  0
  6 30  1  0
 30 31  1  0
 31 32  1  0
 30 33  2  0
 33  3  1  0
 29 11  1  0
 23 18  1  0
 29 24  1  0
  1 34  1  0
  1 35  1  0
  1 36  1  0
  4 37  1  0
  5 38  1  0
  7 39  1  0
 10 40  1  0
 10 41  1  0
 12 42  1  0
 17 43  1  0
 17 44  1  0
 19 45  1  0
 20 46  1  0
 21 47  1  0
 22 48  1  0
 23 49  1  0
 25 50  1  0
 26 51  1  0
 27 52  1  0
 28 53  1  0
 32 54  1  0
 32 55  1  0
 32 56  1  0
 33 57  1  0
M  END
$$$$
