
     RDKit          3D

 30 32  0  0  0  0  0  0  0  0999 V2000
   -0.3030    2.0763   -0.1922 C   0  0  0  0  0  0  0  0  0  0  0  0
   -0.6795    0.7105    0.1081 N   0  0  0  0  0  0  0  0  0  0  0  0
    0.1935   -0.3407    0.3188 C   0  0  0  0  0  0  0  0  0  0  0  0
    1.6559   -0.2606    0.2279 C   0  0  0  0  0  0  0  0  0  0  0  0
    2.4223   -0.5810    1.3582 C   0  0  0  0  0  0  0  0  0  0  0  0
    3.8177   -0.5364    1.3119 C   0  0  0  0  0  0  0  0  0  0  0  0
    4.4650   -0.1762    0.1317 C   0  0  0  0  0  0  0  0  0  0  0  0
    3.7198    0.1378   -1.0048 C   0  0  0  0  0  0  0  0  0  0  0  0
    2.3243    0.0925   -0.9549 C   0  0  0  0  0  0  0  0  0  0  0  0
    1.6050    0.3958   -2.0803 O   0  0  0  0  0  0  0  0  0  0  0  0
   -0.5837   -1.4385    0.6489 C   0  0  0  0  0  0  0  0  0  0  0  0
   -1.9499   -1.0613    0.6010 C   0  0  0  0  0  0  0  0  0  0  0  0
   -3.1586   -1.7511    0.8208 C   0  0  0  0  0  0  0  0  0  0  0  0
   -4.3737   -1.0729    0.6816 C   0  0  0  0  0  0  0  0  0  0  0  0
   -4.3950    0.2726    0.3276 C   0  0  0  0  0  0  0  0  0  0  0  0
   -3.2075    0.9772    0.1057 C   0  0  0  0  0  0  0  0  0  0  0  0
   -1.9911    0.2885    0.2511 C   0  0  0  0  0  0  0  0  0  0  0  0
   -0.9866    2.7578    0.3208 H   0  0  0  0  0  0  0  0  0  0  0  0
    0.7087    2.2767    0.1662 H   0  0  0  0  0  0  0  0  0  0  0  0
   -0.3665    2.2181   -1.2737 H   0  0  0  0  0  0  0  0  0  0  0  0
    1.9304   -0.8636    2.2866 H   0  0  0  0  0  0  0  0  0  0  0  0
    4.3966   -0.7843    2.1980 H   0  0  0  0  0  0  0  0  0  0  0  0
    5.5509   -0.1420    0.0975 H   0  0  0  0  0  0  0  0  0  0  0  0
    4.2398    0.4176   -1.9157 H   0  0  0  0  0  0  0  0  0  0  0  0
    2.2069    0.4065   -2.8414 H   0  0  0  0  0  0  0  0  0  0  0  0
   -0.2016   -2.4238    0.8808 H   0  0  0  0  0  0  0  0  0  0  0  0
   -3.1477   -2.8021    1.0930 H   0  0  0  0  0  0  0  0  0  0  0  0
   -5.3071   -1.6038    0.8491 H   0  0  0  0  0  0  0  0  0  0  0  0
   -5.3481    0.7851    0.2202 H   0  0  0  0  0  0  0  0  0  0  0  0
   -3.2369    2.0251   -0.1735 H   0  0  0  0  0  0  0  0  0  0  0  0
  1  2  1  0
  2  3  1  0
  3  4  1  0
  4  5  2  0
  5  6  1  0
  6  7  2  0
  7  8  1  0
  8  9  2  0
  9 10  1  0
  3 11  2  0
 11 12  1  0
 12 13  2  0
 13 14  1  0
 14 15  2  0
 15 16  1  0
 16 17  2  0
 17  2  1  0
  9  4  1  0
 17 12  1  0
  1 18  1  0
  1 19  1  0
  1 20  1  0
  5 21  1  0
  6 22  1  0
  7 23  1  0
  8 24  1  0
 10 25  1  0
 11 26  1  0
 13 27  1  0
 14 28  1  0
 15 29  1  0
 16 30  1  0
M  END
$$$$
