
     RDKit          3D

 47 49  0  0  0  0  0  0  0  0999 V2000
    8.4358    0.6410    0.6387 C   0  0  0  0  0  0  0  0  0  0  0  0
    7.5049   -0.5136    0.3013 C   0  0  0  0  0  0  0  0  0  0  0  0
    6.0580   -0.0898    0.3128 C   0  0  0  0  0  0  0  0  0  0  0  0
    5.4556    0.4126   -0.8478 C   0  0  0  0  0  0  0  0  0  0  0  0
    4.1211    0.8249   -0.8295 C   0  0  0  0  0  0  0  0  0  0  0  0
    3.3693    0.7346    0.3433 C   0  0  0  0  0  0  0  0  0  0  0  0
    2.0276    1.1348    0.3562 N   0  0  0  0  0  0  0  0  0  0  0  0
    1.1167    0.2639    0.0896 C   0  0  0  0  0  0  0  0  0  0  0  0
    1.2895   -1.0482   -0.2194 N   0  0  0  0  0  0  0  0  0  0  0  0
    0.1731   -1.7900   -0.4721 C   0  0  0  0  0  0  0  0  0  0  0  0
    0.1755   -2.9763   -0.7599 O   0  0  0  0  0  0  0  0  0  0  0  0
   -1.0399   -0.9366   -0.3446 C   0  0  0  0  0  0  0  0  0  0  0  0
   -2.2710   -1.4321   -0.5292 C   0  0  0  0  0  0  0  0  0  0  0  0
   -3.5360   -0.6945   -0.4118 C   0  0  0  0  0  0  0  0  0  0  0  0
   -4.4885   -1.1320    0.5227 C   0  0  0  0  0  0  0  0  0  0  0  0
   -5.7145   -0.4748    0.6506 C   0  0  0  0  0  0  0  0  0  0  0  0
   -6.7064   -0.8188    1.5296 O   0  0  0  0  0  0  0  0  0  0  0  0
   -6.4605   -1.9091    2.4052 C   0  0  0  0  0  0  0  0  0  0  0  0
   -5.9711    0.6233   -0.1785 C   0  0  0  0  0  0  0  0  0  0  0  0
   -7.1703    1.2881   -0.0734 O   0  0  0  0  0  0  0  0  0  0  0  0
   -5.0354    1.0712   -1.1223 C   0  0  0  0  0  0  0  0  0  0  0  0
   -5.4328    2.1574   -1.8620 O   0  0  0  0  0  0  0  0  0  0  0  0
   -4.4712    2.7089   -2.7546 C   0  0  0  0  0  0  0  0  0  0  0  0
   -3.8197    0.4001   -1.2418 C   0  0  0  0  0  0  0  0  0  0  0  0
   -0.5806    0.6702    0.0828 S   0  0  0  0  0  0  0  0  0  0  0  0
    3.9744    0.2598    1.5083 C   0  0  0  0  0  0  0  0  0  0  0  0
    5.3086   -0.1536    1.4945 C   0  0  0  0  0  0  0  0  0  0  0  0
    8.3324    1.4587   -0.0826 H   0  0  0  0  0  0  0  0  0  0  0  0
    9.4772    0.3044    0.6228 H   0  0  0  0  0  0  0  0  0  0  0  0
    8.2245    1.0436    1.6352 H   0  0  0  0  0  0  0  0  0  0  0  0
    7.6549   -1.3320    1.0160 H   0  0  0  0  0  0  0  0  0  0  0  0
    7.7616   -0.9211   -0.6842 H   0  0  0  0  0  0  0  0  0  0  0  0
    6.0251    0.4956   -1.7710 H   0  0  0  0  0  0  0  0  0  0  0  0
    3.6676    1.2255   -1.7322 H   0  0  0  0  0  0  0  0  0  0  0  0
    2.2010   -1.4752   -0.2637 H   0  0  0  0  0  0  0  0  0  0  0  0
   -2.3877   -2.4892   -0.7675 H   0  0  0  0  0  0  0  0  0  0  0  0
   -4.2487   -1.9889    1.1445 H   0  0  0  0  0  0  0  0  0  0  0  0
   -7.3420   -2.0330    3.0416 H   0  0  0  0  0  0  0  0  0  0  0  0
   -6.3208   -2.8402    1.8463 H   0  0  0  0  0  0  0  0  0  0  0  0
   -5.6050   -1.7072    3.0581 H   0  0  0  0  0  0  0  0  0  0  0  0
   -7.1249    2.0035   -0.7348 H   0  0  0  0  0  0  0  0  0  0  0  0
   -4.9182    3.5912   -3.2226 H   0  0  0  0  0  0  0  0  0  0  0  0
   -3.5735    3.0347   -2.2186 H   0  0  0  0  0  0  0  0  0  0  0  0
   -4.2228    1.9996   -3.5508 H   0  0  0  0  0  0  0  0  0  0  0  0
   -3.0812    0.7060   -1.9753 H   0  0  0  0  0  0  0  0  0  0  0  0
    3.4060    0.2186    2.4338 H   0  0  0  0  0  0  0  0  0  0  0  0
    5.7623   -0.5160    2.4145 H   0  0  0  0  0  0  0  0  0  0  0  0
  1  2  1  0
  2  3  1  0
  3  4  2  0
  4  5  1  0
  5  6  2  0
  6  7  1  0
  7  8  2  3
  8  9  1  0
  9 10  1  0
 10 11  2  0
 10 12  1  0
 12 13  2  3
 13 14  1  0
 14 15  2  0
 15 16  1  0
 16 17  1  0
 17 18  1  0
 16 19  2  0
 19 20  1  0
 19 21  1  0
 21 22  1  0
 22 23  1  0
 21 24  2  0
 12 25  1  0
  6 26  1  0
 26 27  2  0
 27  3  1  0
 25  8  1  0
 24 14  1  0
  1 28  1  0
  1 29  1  0
  1 30  1  0
  2 31  1  0
  2 32  1  0
  4 33  1  0
  5 34  1  0
  9 35  1  0
 13 36  1  0
 15 37  1  0
 18 38  1  0
 18 39  1  0
 18 40  1  0
 20 41  1  0
 23 42  1  0
 23 43  1  0
 23 44  1  0
 24 45  1  0
 26 46  1  0
 27 47  1  0
M  END
$$$$
