
     RDKit          3D

 44 46  0  0  0  0  0  0  0  0999 V2000
   -5.5306   -1.0994    1.9697 C   0  0  0  0  0  0  0  0  0  0  0  0
   -4.7220   -0.8078    0.7394 C   0  0  0  0  0  0  0  0  0  0  0  0
   -5.0012    0.3242   -0.0391 C   0  0  0  0  0  0  0  0  0  0  0  0
   -4.2308    0.6157   -1.1660 C   0  0  0  0  0  0  0  0  0  0  0  0
   -3.1631   -0.2203   -1.5033 C   0  0  0  0  0  0  0  0  0  0  0  0
   -2.1814    0.1502   -2.9392 S   0  0  0  0  0  6  0  0  0  0  0  0
   -1.5167   -1.0641   -3.3598 O   0  0  0  0  0  0  0  0  0  0  0  0
   -3.0140    0.9044   -3.8535 O   0  0  0  0  0  0  0  0  0  0  0  0
   -1.0346    1.2435   -2.3462 N   0  0  0  0  0  0  0  0  0  0  0  0
   -0.2498    0.8801   -1.2160 C   0  0  0  0  0  0  0  0  0  0  0  0
   -0.4569    1.5491   -0.0090 C   0  0  0  0  0  0  0  0  0  0  0  0
    0.2617    1.1822    1.1358 C   0  0  0  0  0  0  0  0  0  0  0  0
    0.0237    1.8905    2.4387 C   0  0  0  0  0  0  0  0  0  0  0  0
    1.1954    0.1392    1.0445 C   0  0  0  0  0  0  0  0  0  0  0  0
    1.8759   -0.1840    2.1904 O   0  0  0  0  0  0  0  0  0  0  0  0
    1.4111   -0.5422   -0.1656 C   0  0  0  0  0  0  0  0  0  0  0  0
    2.5100   -1.9431   -0.3286 S   0  0  0  0  0  0  0  0  0  0  0  0
    4.0672   -1.2168   -0.0570 C   0  0  0  0  0  0  0  0  0  0  0  0
    4.4176   -0.7618    1.1528 N   0  0  0  0  0  0  0  0  0  0  0  0
    5.6653   -0.3199    0.9146 N   0  0  0  0  0  0  0  0  0  0  0  0
    6.0247   -0.5218   -0.3877 C   0  0  0  0  0  0  0  0  0  0  0  0
    7.3437   -0.1356   -0.9293 C   0  0  0  0  0  0  0  0  0  0  0  0
    5.0248   -1.0946   -1.0216 N   0  0  0  0  0  0  0  0  0  0  0  0
    0.6743   -0.1613   -1.2944 C   0  0  0  0  0  0  0  0  0  0  0  0
   -2.8774   -1.3559   -0.7413 C   0  0  0  0  0  0  0  0  0  0  0  0
   -3.6499   -1.6386    0.3857 C   0  0  0  0  0  0  0  0  0  0  0  0
   -5.0869   -0.5989    2.8359 H   0  0  0  0  0  0  0  0  0  0  0  0
   -6.5623   -0.7525    1.8500 H   0  0  0  0  0  0  0  0  0  0  0  0
   -5.5713   -2.1761    2.1647 H   0  0  0  0  0  0  0  0  0  0  0  0
   -5.8272    0.9811    0.2265 H   0  0  0  0  0  0  0  0  0  0  0  0
   -4.4700    1.4870   -1.7707 H   0  0  0  0  0  0  0  0  0  0  0  0
   -1.3670    2.2041   -2.4067 H   0  0  0  0  0  0  0  0  0  0  0  0
   -1.1917    2.3476    0.0518 H   0  0  0  0  0  0  0  0  0  0  0  0
    0.9530    2.3413    2.8019 H   0  0  0  0  0  0  0  0  0  0  0  0
   -0.7129    2.6938    2.3304 H   0  0  0  0  0  0  0  0  0  0  0  0
   -0.3571    1.1880    3.1872 H   0  0  0  0  0  0  0  0  0  0  0  0
    2.7079   -0.6353    1.9293 H   0  0  0  0  0  0  0  0  0  0  0  0
    6.2026    0.0951    1.6683 H   0  0  0  0  0  0  0  0  0  0  0  0
    7.4754    0.9499   -0.8848 H   0  0  0  0  0  0  0  0  0  0  0  0
    7.4375   -0.4477   -1.9740 H   0  0  0  0  0  0  0  0  0  0  0  0
    8.1499   -0.6083   -0.3599 H   0  0  0  0  0  0  0  0  0  0  0  0
    0.8207   -0.6800   -2.2401 H   0  0  0  0  0  0  0  0  0  0  0  0
   -2.0552   -2.0160   -1.0094 H   0  0  0  0  0  0  0  0  0  0  0  0
   -3.4122   -2.5152    0.9856 H   0  0  0  0  0  0  0  0  0  0  0  0
  1  2  1  0
  2  3  2  0
  3  4  1  0
  4  5  2  0
  5  6  1  0
  6  7  2  0
  6  8  2  0
  6  9  1  0
  9 10  1  0
 10 11  2  0
 11 12  1  0
 12 13  1  0
 12 14  2  0
 14 15  1  0
 14 16  1  0
 16 17  1  0
 17 18  1  0
 18 19  2  0
 19 20  1  0
 20 21  1  0
 21 22  1  0
 21 23  2  0
 16 24  2  0
  5 25  1  0
 25 26  2  0
 26  2  1  0
 24 10  1  0
 23 18  1  0
  1 27  1  0
  1 28  1  0
  1 29  1  0
  3 30  1  0
  4 31  1  0
  9 32  1  0
 11 33  1  0
 13 34  1  0
 13 35  1  0
 13 36  1  0
 15 37  1  0
 20 38  1  0
 22 39  1  0
 22 40  1  0
 22 41  1  0
 24 42  1  0
 25 43  1  0
 26 44  1  0
M  END
$$$$
