
     RDKit          3D

 54 57  0  0  0  0  0  0  0  0999 V2000
   -5.4945    0.1229   -3.1696 C   0  0  0  0  0  0  0  0  0  0  0  0
   -5.4209    1.2077   -2.2569 O   0  0  0  0  0  0  0  0  0  0  0  0
   -4.3329    1.2582   -1.4246 C   0  0  0  0  0  0  0  0  0  0  0  0
   -3.2657    0.3561   -1.4490 C   0  0  0  0  0  0  0  0  0  0  0  0
   -2.1734    0.4819   -0.5667 C   0  0  0  0  0  0  0  0  0  0  0  0
   -1.0548   -0.4788   -0.6288 C   0  0  0  0  0  0  0  0  0  0  0  0
    0.2660   -0.1063   -0.4606 C   0  0  0  0  0  0  0  0  0  0  0  0
    1.2417   -1.1008   -0.5136 C   0  0  0  0  0  0  0  0  0  0  0  0
    2.6334   -0.6679   -0.2819 C   0  0  0  0  0  0  0  0  0  0  0  0
    3.1632    0.0370   -1.1295 O   0  0  0  0  0  0  0  0  0  0  0  0
    3.1449   -1.0905    0.9305 N   0  0  0  0  0  0  0  0  0  0  0  0
    4.4247   -0.8205    1.4553 C   0  0  0  0  0  0  0  0  0  0  0  0
    5.4267   -0.1455    0.7527 C   0  0  0  0  0  0  0  0  0  0  0  0
    6.6746    0.0875    1.3424 C   0  0  0  0  0  0  0  0  0  0  0  0
    6.9145   -0.3534    2.6398 C   0  0  0  0  0  0  0  0  0  0  0  0
    8.1144   -0.1478    3.2511 O   0  0  0  0  0  0  0  0  0  0  0  0
    5.9316   -1.0274    3.3524 C   0  0  0  0  0  0  0  0  0  0  0  0
    4.6887   -1.2639    2.7603 C   0  0  0  0  0  0  0  0  0  0  0  0
    0.9125   -2.4473   -0.7658 C   0  0  0  0  0  0  0  0  0  0  0  0
    1.8497   -3.5060   -0.8742 C   0  0  0  0  0  0  0  0  0  0  0  0
    1.4293   -4.8112   -1.1250 C   0  0  0  0  0  0  0  0  0  0  0  0
    0.0752   -5.0749   -1.2748 C   0  0  0  0  0  0  0  0  0  0  0  0
   -0.8479   -4.0303   -1.1800 C   0  0  0  0  0  0  0  0  0  0  0  0
   -0.4559   -2.7210   -0.9323 C   0  0  0  0  0  0  0  0  0  0  0  0
   -1.4035   -1.7694   -0.8609 N   0  0  0  0  0  0  0  0  0  0  0  0
   -2.1936    1.5327    0.3722 C   0  0  0  0  0  0  0  0  0  0  0  0
   -3.2605    2.4349    0.4289 C   0  0  0  0  0  0  0  0  0  0  0  0
   -3.3457    3.4779    1.3164 O   0  0  0  0  0  0  0  0  0  0  0  0
   -2.5867    3.3584    2.5135 C   0  0  0  0  0  0  0  0  0  0  0  0
   -4.3091    2.3077   -0.4933 C   0  0  0  0  0  0  0  0  0  0  0  0
   -5.3749    3.1782   -0.4255 O   0  0  0  0  0  0  0  0  0  0  0  0
   -5.1347    4.2999   -1.2722 C   0  0  0  0  0  0  0  0  0  0  0  0
   -4.6521    0.1339   -3.8670 H   0  0  0  0  0  0  0  0  0  0  0  0
   -6.4092    0.2435   -3.7548 H   0  0  0  0  0  0  0  0  0  0  0  0
   -5.5577   -0.8322   -2.6421 H   0  0  0  0  0  0  0  0  0  0  0  0
   -3.2490   -0.4675   -2.1592 H   0  0  0  0  0  0  0  0  0  0  0  0
    0.5485    0.9303   -0.3011 H   0  0  0  0  0  0  0  0  0  0  0  0
    2.5232   -1.6196    1.5321 H   0  0  0  0  0  0  0  0  0  0  0  0
    5.2722    0.2047   -0.2653 H   0  0  0  0  0  0  0  0  0  0  0  0
    7.4362    0.6134    0.7735 H   0  0  0  0  0  0  0  0  0  0  0  0
    8.7311    0.2357    2.6042 H   0  0  0  0  0  0  0  0  0  0  0  0
    6.1319   -1.3680    4.3656 H   0  0  0  0  0  0  0  0  0  0  0  0
    3.9332   -1.7923    3.3371 H   0  0  0  0  0  0  0  0  0  0  0  0
    2.9185   -3.3183   -0.7793 H   0  0  0  0  0  0  0  0  0  0  0  0
    2.1568   -5.6150   -1.2099 H   0  0  0  0  0  0  0  0  0  0  0  0
   -0.2688   -6.0881   -1.4731 H   0  0  0  0  0  0  0  0  0  0  0  0
   -1.9073   -4.2443   -1.3070 H   0  0  0  0  0  0  0  0  0  0  0  0
   -1.3652    1.6307    1.0663 H   0  0  0  0  0  0  0  0  0  0  0  0
   -2.7435    2.3880    3.0001 H   0  0  0  0  0  0  0  0  0  0  0  0
   -1.5207    3.5322    2.3188 H   0  0  0  0  0  0  0  0  0  0  0  0
   -2.9323    4.1341    3.2016 H   0  0  0  0  0  0  0  0  0  0  0  0
   -4.2396    4.8489   -0.9633 H   0  0  0  0  0  0  0  0  0  0  0  0
   -5.9933    4.9744   -1.1850 H   0  0  0  0  0  0  0  0  0  0  0  0
   -5.0496    3.9966   -2.3229 H   0  0  0  0  0  0  0  0  0  0  0  0
  1  2  1  0
  2  3  1  0
  3  4  2  0
  4  5  1  0
  5  6  1  0
  6  7  2  0
  7  8  1  0
  8  9  1  0
  9 10  2  0
  9 11  1  0
 11 12  1  0
 12 13  2  0
 13 14  1  0
 14 15  2  0
 15 16  1  0
 15 17  1  0
 17 18  2  0
  8 19  2  0
 19 20  1  0
 20 21  2  0
 21 22  1  0
 22 23  2  0
 23 24  1  0
 24 25  2  0
  5 26  2  0
 26 27  1  0
 27 28  1  0
 28 29  1  0
 27 30  2  0
 30 31  1  0
 31 32  1  0
 30  3  1  0
 25  6  1  0
 18 12  1  0
 24 19  1  0
  1 33  1  0
  1 34  1  0
  1 35  1  0
  4 36  1  0
  7 37  1  0
 11 38  1  0
 13 39  1  0
 14 40  1  0
 16 41  1  0
 17 42  1  0
 18 43  1  0
 20 44  1  0
 21 45  1  0
 22 46  1  0
 23 47  1  0
 26 48  1  0
 29 49  1  0
 29 50  1  0
 29 51  1  0
 32 52  1  0
 32 53  1  0
 32 54  1  0
M  END
$$$$
