
     RDKit          3D

 44 45  0  0  0  0  0  0  0  0999 V2000
   -7.8527   -1.0039    1.3141 C   0  0  0  0  0  0  0  0  0  0  0  0
   -7.5148    0.4568    1.5775 C   0  0  0  0  0  0  0  0  0  0  0  0
   -6.2619    0.9058    0.8323 C   0  0  0  0  0  0  0  0  0  0  0  0
   -5.1384    0.1583    1.3159 O   0  0  0  0  0  0  0  0  0  0  0  0
   -3.9629    0.4656    0.7110 C   0  0  0  0  0  0  0  0  0  0  0  0
   -3.8144    1.2991   -0.1672 O   0  0  0  0  0  0  0  0  0  0  0  0
   -2.8575   -0.3625    1.2704 C   0  0  0  0  0  0  0  0  0  0  0  0
   -3.0808   -1.3259    2.2627 C   0  0  0  0  0  0  0  0  0  0  0  0
   -2.0168   -2.0781    2.7552 C   0  0  0  0  0  0  0  0  0  0  0  0
   -0.7285   -1.8710    2.2591 C   0  0  0  0  0  0  0  0  0  0  0  0
   -0.4856   -0.9118    1.2662 C   0  0  0  0  0  0  0  0  0  0  0  0
    0.8496   -0.7750    0.8281 N   0  0  0  0  0  0  0  0  0  0  0  0
    1.3415    0.1002   -0.1354 C   0  0  0  0  0  0  0  0  0  0  0  0
    0.6805    0.9122   -0.7723 O   0  0  0  0  0  0  0  0  0  0  0  0
    2.8571   -0.0615   -0.3263 C   0  0  0  0  0  0  0  0  0  0  0  0
    3.3565    0.8326   -1.3090 O   0  0  0  0  0  0  0  0  0  0  0  0
    4.6944    0.7952   -1.5799 C   0  0  0  0  0  0  0  0  0  0  0  0
    5.1108    1.7047   -2.5587 C   0  0  0  0  0  0  0  0  0  0  0  0
    6.4521    1.7821   -2.9420 C   0  0  0  0  0  0  0  0  0  0  0  0
    7.3854    0.9361   -2.3349 C   0  0  0  0  0  0  0  0  0  0  0  0
    8.7984    1.0058   -2.7273 N   0  0  0  0  0  4  0  0  0  0  0  0
    9.5904    0.2372   -2.1628 O   0  0  0  0  0  0  0  0  0  0  0  0
    9.1166    1.8276   -3.5983 O   0  0  0  0  0  1  0  0  0  0  0  0
    6.9805    0.0212   -1.3536 C   0  0  0  0  0  0  0  0  0  0  0  0
    5.6330   -0.0462   -0.9787 C   0  0  0  0  0  0  0  0  0  0  0  0
   -1.5572   -0.1608    0.7761 C   0  0  0  0  0  0  0  0  0  0  0  0
   -8.7708   -1.2796    1.8425 H   0  0  0  0  0  0  0  0  0  0  0  0
   -7.0535   -1.6667    1.6604 H   0  0  0  0  0  0  0  0  0  0  0  0
   -8.0093   -1.1827    0.2456 H   0  0  0  0  0  0  0  0  0  0  0  0
   -8.3611    1.0836    1.2757 H   0  0  0  0  0  0  0  0  0  0  0  0
   -7.3678    0.5897    2.6557 H   0  0  0  0  0  0  0  0  0  0  0  0
   -6.0932    1.9727    1.0191 H   0  0  0  0  0  0  0  0  0  0  0  0
   -6.3831    0.7403   -0.2448 H   0  0  0  0  0  0  0  0  0  0  0  0
   -4.0778   -1.5010    2.6601 H   0  0  0  0  0  0  0  0  0  0  0  0
   -2.1911   -2.8257    3.5255 H   0  0  0  0  0  0  0  0  0  0  0  0
    0.0813   -2.4735    2.6635 H   0  0  0  0  0  0  0  0  0  0  0  0
    1.5208   -1.3883    1.2729 H   0  0  0  0  0  0  0  0  0  0  0  0
    3.0386   -1.0980   -0.6358 H   0  0  0  0  0  0  0  0  0  0  0  0
    3.3318    0.1419    0.6414 H   0  0  0  0  0  0  0  0  0  0  0  0
    4.3779    2.3603   -3.0269 H   0  0  0  0  0  0  0  0  0  0  0  0
    6.7446    2.4994   -3.7057 H   0  0  0  0  0  0  0  0  0  0  0  0
    7.6969   -0.6428   -0.8736 H   0  0  0  0  0  0  0  0  0  0  0  0
    5.3539   -0.7657   -0.2160 H   0  0  0  0  0  0  0  0  0  0  0  0
   -1.4132    0.5925    0.0059 H   0  0  0  0  0  0  0  0  0  0  0  0
  1  2  1  0
  2  3  1  0
  3  4  1  0
  4  5  1  0
  5  6  2  0
  5  7  1  0
  7  8  2  0
  8  9  1  0
  9 10  2  0
 10 11  1  0
 11 12  1  0
 12 13  1  0
 13 14  2  0
 13 15  1  0
 15 16  1  0
 16 17  1  0
 17 18  2  0
 18 19  1  0
 19 20  2  0
 20 21  1  0
 21 22  2  0
 21 23  1  0
 20 24  1  0
 24 25  2  0
 11 26  2  0
 26  7  1  0
 25 17  1  0
  1 27  1  0
  1 28  1  0
  1 29  1  0
  2 30  1  0
  2 31  1  0
  3 32  1  0
  3 33  1  0
  8 34  1  0
  9 35  1  0
 10 36  1  0
 12 37  1  0
 15 38  1  0
 15 39  1  0
 18 40  1  0
 19 41  1  0
 24 42  1  0
 25 43  1  0
 26 44  1  0
M  CHG  2  21   1  23  -1
M  END
$$$$
