
     RDKit          3D

 53 56  0  0  0  0  0  0  0  0999 V2000
   -7.2218   -2.0878    0.9091 C   0  0  0  0  0  0  0  0  0  0  0  0
   -7.7412   -0.8115    1.2612 O   0  0  0  0  0  0  0  0  0  0  0  0
   -7.0614    0.2898    0.8181 C   0  0  0  0  0  0  0  0  0  0  0  0
   -7.6531    1.5087    1.1596 C   0  0  0  0  0  0  0  0  0  0  0  0
   -7.0709    2.7140    0.7733 C   0  0  0  0  0  0  0  0  0  0  0  0
   -5.8852    2.7052    0.0414 C   0  0  0  0  0  0  0  0  0  0  0  0
   -5.2753    1.4913   -0.3072 C   0  0  0  0  0  0  0  0  0  0  0  0
   -3.9987    1.5459   -1.0879 C   0  0  0  0  0  0  0  0  0  0  0  0
   -3.5496    2.6429   -1.4170 O   0  0  0  0  0  0  0  0  0  0  0  0
   -3.2943    0.2294   -1.4242 C   0  0  0  0  0  0  0  0  0  0  0  0
   -2.1230    0.3456   -2.2210 O   0  0  0  0  0  0  0  0  0  0  0  0
   -0.9330    0.5218   -1.5751 C   0  0  0  0  0  0  0  0  0  0  0  0
   -0.7666    1.0647   -0.3036 C   0  0  0  0  0  0  0  0  0  0  0  0
    0.5182    1.2091    0.2444 C   0  0  0  0  0  0  0  0  0  0  0  0
    1.6627    0.8201   -0.4664 C   0  0  0  0  0  0  0  0  0  0  0  0
    3.0402    0.9348    0.0571 C   0  0  0  0  0  0  0  0  0  0  0  0
    3.1911    1.5065    1.4443 C   0  0  0  0  0  0  0  0  0  0  0  0
    4.0729    0.5171   -0.7117 C   0  0  0  0  0  0  0  0  0  0  0  0
    5.5363    0.5555   -0.3156 C   0  0  0  0  0  0  0  0  0  0  0  0
    6.0404   -0.7573    0.2494 C   0  0  0  0  0  0  0  0  0  0  0  0
    6.6093   -1.7225   -0.5950 C   0  0  0  0  0  0  0  0  0  0  0  0
    7.0646   -2.9393   -0.0830 C   0  0  0  0  0  0  0  0  0  0  0  0
    6.9550   -3.2076    1.2793 C   0  0  0  0  0  0  0  0  0  0  0  0
    6.3915   -2.2587    2.1302 C   0  0  0  0  0  0  0  0  0  0  0  0
    5.9363   -1.0409    1.6190 C   0  0  0  0  0  0  0  0  0  0  0  0
    3.8504    0.0146   -2.1003 C   0  0  0  0  0  0  0  0  0  0  0  0
    4.7806   -0.2684   -2.8496 O   0  0  0  0  0  0  0  0  0  0  0  0
    2.5429   -0.1122   -2.5333 O   0  0  0  0  0  0  0  0  0  0  0  0
    1.4648    0.2944   -1.7375 C   0  0  0  0  0  0  0  0  0  0  0  0
    0.1946    0.1480   -2.3000 C   0  0  0  0  0  0  0  0  0  0  0  0
   -5.8707    0.2813    0.0850 C   0  0  0  0  0  0  0  0  0  0  0  0
   -7.8908   -2.8485    1.3236 H   0  0  0  0  0  0  0  0  0  0  0  0
   -6.2294   -2.2424    1.3451 H   0  0  0  0  0  0  0  0  0  0  0  0
   -7.2005   -2.2189   -0.1778 H   0  0  0  0  0  0  0  0  0  0  0  0
   -8.5796    1.5176    1.7304 H   0  0  0  0  0  0  0  0  0  0  0  0
   -7.5406    3.6573    1.0408 H   0  0  0  0  0  0  0  0  0  0  0  0
   -5.4396    3.6534   -0.2566 H   0  0  0  0  0  0  0  0  0  0  0  0
   -3.0877   -0.3346   -0.5061 H   0  0  0  0  0  0  0  0  0  0  0  0
   -3.9947   -0.3627   -2.0244 H   0  0  0  0  0  0  0  0  0  0  0  0
   -1.6099    1.4170    0.2810 H   0  0  0  0  0  0  0  0  0  0  0  0
    0.5907    1.6450    1.2377 H   0  0  0  0  0  0  0  0  0  0  0  0
    2.6654    0.8842    2.1768 H   0  0  0  0  0  0  0  0  0  0  0  0
    4.2242    1.5809    1.7853 H   0  0  0  0  0  0  0  0  0  0  0  0
    2.7844    2.5232    1.4856 H   0  0  0  0  0  0  0  0  0  0  0  0
    5.7369    1.3534    0.4084 H   0  0  0  0  0  0  0  0  0  0  0  0
    6.1610    0.8463   -1.1712 H   0  0  0  0  0  0  0  0  0  0  0  0
    6.7019   -1.5333   -1.6637 H   0  0  0  0  0  0  0  0  0  0  0  0
    7.5029   -3.6769   -0.7510 H   0  0  0  0  0  0  0  0  0  0  0  0
    7.3088   -4.1552    1.6772 H   0  0  0  0  0  0  0  0  0  0  0  0
    6.3073   -2.4665    3.1936 H   0  0  0  0  0  0  0  0  0  0  0  0
    5.5055   -0.3156    2.3035 H   0  0  0  0  0  0  0  0  0  0  0  0
    0.0883   -0.2585   -3.3019 H   0  0  0  0  0  0  0  0  0  0  0  0
   -5.4115   -0.6628   -0.1792 H   0  0  0  0  0  0  0  0  0  0  0  0
  1  2  1  0
  2  3  1  0
  3  4  2  0
  4  5  1  0
  5  6  2  0
  6  7  1  0
  7  8  1  0
  8  9  2  0
  8 10  1  0
 10 11  1  0
 11 12  1  0
 12 13  2  0
 13 14  1  0
 14 15  2  0
 15 16  1  0
 16 17  1  0
 16 18  2  0
 18 19  1  0
 19 20  1  0
 20 21  2  0
 21 22  1  0
 22 23  2  0
 23 24  1  0
 24 25  2  0
 18 26  1  0
 26 27  2  0
 26 28  1  0
 28 29  1  0
 29 30  2  0
  7 31  2  0
 31  3  1  0
 30 12  1  0
 29 15  1  0
 25 20  1  0
  1 32  1  0
  1 33  1  0
  1 34  1  0
  4 35  1  0
  5 36  1  0
  6 37  1  0
 10 38  1  0
 10 39  1  0
 13 40  1  0
 14 41  1  0
 17 42  1  0
 17 43  1  0
 17 44  1  0
 19 45  1  0
 19 46  1  0
 21 47  1  0
 22 48  1  0
 23 49  1  0
 24 50  1  0
 25 51  1  0
 30 52  1  0
 31 53  1  0
M  END
$$$$
