
     RDKit          3D

 61 65  0  0  0  0  0  0  0  0999 V2000
   -8.7750    1.8159   -4.0980 C   0  0  0  0  0  0  0  0  0  0  0  0
   -7.7435    1.1399   -3.2454 C   0  0  0  0  0  0  0  0  0  0  0  0
   -6.3979    1.5065   -3.3334 C   0  0  0  0  0  0  0  0  0  0  0  0
   -5.4383    0.8979   -2.5164 C   0  0  0  0  0  0  0  0  0  0  0  0
   -5.7891   -0.1011   -1.5870 C   0  0  0  0  0  0  0  0  0  0  0  0
   -4.7904   -0.7627   -0.7186 C   0  0  0  0  0  0  0  0  0  0  0  0
   -3.4648   -0.9273   -1.0775 C   0  0  0  0  0  0  0  0  0  0  0  0
   -2.6003   -1.5567   -0.1778 C   0  0  0  0  0  0  0  0  0  0  0  0
   -1.1847   -1.6557   -0.6073 C   0  0  0  0  0  0  0  0  0  0  0  0
   -0.9531   -2.1499   -1.7033 O   0  0  0  0  0  0  0  0  0  0  0  0
   -0.2783   -1.1061    0.2796 N   0  0  0  0  0  0  0  0  0  0  0  0
    1.1251   -1.0604    0.1486 C   0  0  0  0  0  0  0  0  0  0  0  0
    1.8442   -0.4723    1.1983 C   0  0  0  0  0  0  0  0  0  0  0  0
    3.2394   -0.3988    1.1550 C   0  0  0  0  0  0  0  0  0  0  0  0
    3.9218   -0.9016    0.0464 C   0  0  0  0  0  0  0  0  0  0  0  0
    5.6959   -0.8267    0.0088 S   0  0  0  0  0  6  0  0  0  0  0  0
    6.1934   -1.2200    1.3091 O   0  0  0  0  0  0  0  0  0  0  0  0
    6.1429   -1.4930   -1.1966 O   0  0  0  0  0  0  0  0  0  0  0  0
    5.9639    0.8175   -0.2826 N   0  0  0  0  0  0  0  0  0  0  0  0
    6.5448    1.5390    0.8339 C   0  0  0  0  0  0  0  0  0  0  0  0
    6.0182    1.5765    2.0882 O   0  0  0  0  0  0  0  0  0  0  0  0
    6.8079    2.3598    2.8998 N   0  0  0  0  0  0  0  0  0  0  0  0
    7.8101    2.7930    2.1265 C   0  0  0  0  0  0  0  0  0  0  0  0
    8.8596    3.6566    2.7197 C   0  0  0  0  0  0  0  0  0  0  0  0
    7.6748    2.3250    0.7842 C   0  0  0  0  0  0  0  0  0  0  0  0
    8.5497    2.5981   -0.3786 C   0  0  0  0  0  0  0  0  0  0  0  0
    3.2211   -1.4973   -1.0016 C   0  0  0  0  0  0  0  0  0  0  0  0
    1.8243   -1.5744   -0.9472 C   0  0  0  0  0  0  0  0  0  0  0  0
   -3.0668   -2.0598    1.0569 C   0  0  0  0  0  0  0  0  0  0  0  0
   -2.2865   -2.7720    2.0047 C   0  0  0  0  0  0  0  0  0  0  0  0
   -2.8383   -3.2119    3.2072 C   0  0  0  0  0  0  0  0  0  0  0  0
   -4.1759   -2.9637    3.4756 C   0  0  0  0  0  0  0  0  0  0  0  0
   -4.9538   -2.2892    2.5346 C   0  0  0  0  0  0  0  0  0  0  0  0
   -4.4280   -1.8392    1.3306 C   0  0  0  0  0  0  0  0  0  0  0  0
   -5.2523   -1.2124    0.4773 N   0  0  0  0  0  0  0  0  0  0  0  0
   -7.1505   -0.4458   -1.5036 C   0  0  0  0  0  0  0  0  0  0  0  0
   -8.1160    0.1704   -2.3134 C   0  0  0  0  0  0  0  0  0  0  0  0
   -9.0767    2.7618   -3.6400 H   0  0  0  0  0  0  0  0  0  0  0  0
   -9.6620    1.1843   -4.2158 H   0  0  0  0  0  0  0  0  0  0  0  0
   -8.3810    2.0129   -5.1017 H   0  0  0  0  0  0  0  0  0  0  0  0
   -6.0853    2.2721   -4.0364 H   0  0  0  0  0  0  0  0  0  0  0  0
   -4.4080    1.2366   -2.6093 H   0  0  0  0  0  0  0  0  0  0  0  0
   -3.0917   -0.5887   -2.0397 H   0  0  0  0  0  0  0  0  0  0  0  0
   -0.6613   -0.6749    1.1125 H   0  0  0  0  0  0  0  0  0  0  0  0
    1.3322   -0.0745    2.0717 H   0  0  0  0  0  0  0  0  0  0  0  0
    3.7832    0.0385    1.9893 H   0  0  0  0  0  0  0  0  0  0  0  0
    6.4310    0.9315   -1.1805 H   0  0  0  0  0  0  0  0  0  0  0  0
    9.1592    3.2825    3.7037 H   0  0  0  0  0  0  0  0  0  0  0  0
    8.4907    4.6782    2.8390 H   0  0  0  0  0  0  0  0  0  0  0  0
    9.7561    3.6884    2.0960 H   0  0  0  0  0  0  0  0  0  0  0  0
    7.9559    2.9111   -1.2421 H   0  0  0  0  0  0  0  0  0  0  0  0
    9.2644    3.4029   -0.1691 H   0  0  0  0  0  0  0  0  0  0  0  0
    9.1174    1.7031   -0.6547 H   0  0  0  0  0  0  0  0  0  0  0  0
    3.7429   -1.9109   -1.8620 H   0  0  0  0  0  0  0  0  0  0  0  0
    1.3117   -2.0474   -1.7789 H   0  0  0  0  0  0  0  0  0  0  0  0
   -1.2434   -3.0109    1.8055 H   0  0  0  0  0  0  0  0  0  0  0  0
   -2.2292   -3.7507    3.9268 H   0  0  0  0  0  0  0  0  0  0  0  0
   -4.6219   -3.3023    4.4077 H   0  0  0  0  0  0  0  0  0  0  0  0
   -6.0070   -2.1131    2.7450 H   0  0  0  0  0  0  0  0  0  0  0  0
   -7.4721   -1.2089   -0.7935 H   0  0  0  0  0  0  0  0  0  0  0  0
   -9.1589   -0.1194   -2.2072 H   0  0  0  0  0  0  0  0  0  0  0  0
  1  2  1  0
  2  3  2  0
  3  4  1  0
  4  5  2  0
  5  6  1  0
  6  7  2  0
  7  8  1  0
  8  9  1  0
  9 10  2  0
  9 11  1  0
 11 12  1  0
 12 13  2  0
 13 14  1  0
 14 15  2  0
 15 16  1  0
 16 17  2  0
 16 18  2  0
 16 19  1  0
 19 20  1  0
 20 21  1  0
 21 22  1  0
 22 23  2  0
 23 24  1  0
 23 25  1  0
 25 26  1  0
 15 27  1  0
 27 28  2  0
  8 29  2  0
 29 30  1  0
 30 31  2  0
 31 32  1  0
 32 33  2  0
 33 34  1  0
 34 35  2  0
  5 36  1  0
 36 37  2  0
 37  2  1  0
 35  6  1  0
 28 12  1  0
 34 29  1  0
 25 20  2  0
  1 38  1  0
  1 39  1  0
  1 40  1  0
  3 41  1  0
  4 42  1  0
  7 43  1  0
 11 44  1  0
 13 45  1  0
 14 46  1  0
 19 47  1  0
 24 48  1  0
 24 49  1  0
 24 50  1  0
 26 51  1  0
 26 52  1  0
 26 53  1  0
 27 54  1  0
 28 55  1  0
 30 56  1  0
 31 57  1  0
 32 58  1  0
 33 59  1  0
 36 60  1  0
 37 61  1  0
M  END
$$$$
