
     RDKit          3D

 45 47  0  0  0  0  0  0  0  0999 V2000
   -3.2039   -0.6669   -0.8789 O   0  0  0  0  0  0  0  0  0  0  0  0
   -3.0310    0.3377   -0.1903 C   0  0  0  0  0  0  0  0  0  0  0  0
   -4.1505    0.9855    0.6160 C   0  0  0  0  0  0  0  0  0  0  0  0
   -5.4898    0.2945    0.4961 C   0  0  0  0  0  0  0  0  0  0  0  0
   -5.8382   -0.7381    1.3793 C   0  0  0  0  0  0  0  0  0  0  0  0
   -7.0711   -1.3840    1.2609 C   0  0  0  0  0  0  0  0  0  0  0  0
   -7.9581   -1.0047    0.2561 C   0  0  0  0  0  0  0  0  0  0  0  0
   -9.4772   -1.8000    0.1116 Cl  0  0  0  0  0  0  0  0  0  0  0  0
   -7.6221    0.0128   -0.6338 C   0  0  0  0  0  0  0  0  0  0  0  0
   -6.3895    0.6594   -0.5164 C   0  0  0  0  0  0  0  0  0  0  0  0
   -1.7009    0.9553   -0.1264 C   0  0  0  0  0  0  0  0  0  0  0  0
   -1.3234    2.0750    0.5905 C   0  0  0  0  0  0  0  0  0  0  0  0
    0.0091    2.3030    0.3652 N   0  0  0  0  0  0  0  0  0  0  0  0
    0.5240    1.3521   -0.4897 C   0  0  0  0  0  0  0  0  0  0  0  0
    1.9155    1.3740   -0.8825 C   0  0  0  0  0  0  0  0  0  0  0  0
    2.6980    2.2214   -0.4621 O   0  0  0  0  0  0  0  0  0  0  0  0
    2.3058    0.3742   -1.7420 N   0  0  0  0  0  0  0  0  0  0  0  0
    3.6537    0.2736   -2.2597 C   0  0  0  0  0  0  0  0  0  0  0  0
    4.5352   -0.6596   -1.4352 C   0  0  0  0  0  0  0  0  0  0  0  0
    4.8683   -0.0959   -0.0548 C   0  0  0  0  0  0  0  0  0  0  0  0
    5.8116   -0.9387    0.6550 N   0  0  0  0  0  0  0  0  0  0  0  0
    5.5047   -2.0191    1.4332 C   0  0  0  0  0  0  0  0  0  0  0  0
    6.7180   -2.4837    1.8847 C   0  0  0  0  0  0  0  0  0  0  0  0
    7.7445   -1.7115    1.4044 N   0  0  0  0  0  0  0  0  0  0  0  0
    7.1677   -0.7846    0.6729 C   0  0  0  0  0  0  0  0  0  0  0  0
   -0.5264    0.5069   -0.8055 C   0  0  0  0  0  0  0  0  0  0  0  0
   -4.2586    2.0276    0.2903 H   0  0  0  0  0  0  0  0  0  0  0  0
   -3.8545    1.0055    1.6722 H   0  0  0  0  0  0  0  0  0  0  0  0
   -5.1501   -1.0527    2.1611 H   0  0  0  0  0  0  0  0  0  0  0  0
   -7.3294   -2.1835    1.9498 H   0  0  0  0  0  0  0  0  0  0  0  0
   -8.3103    0.3029   -1.4230 H   0  0  0  0  0  0  0  0  0  0  0  0
   -6.1351    1.4441   -1.2257 H   0  0  0  0  0  0  0  0  0  0  0  0
   -1.8788    2.7358    1.2435 H   0  0  0  0  0  0  0  0  0  0  0  0
    0.5618    3.0569    0.7582 H   0  0  0  0  0  0  0  0  0  0  0  0
    1.6205   -0.2993   -2.0546 H   0  0  0  0  0  0  0  0  0  0  0  0
    3.5645   -0.1188   -3.2785 H   0  0  0  0  0  0  0  0  0  0  0  0
    4.1020    1.2710   -2.3263 H   0  0  0  0  0  0  0  0  0  0  0  0
    4.0480   -1.6372   -1.3296 H   0  0  0  0  0  0  0  0  0  0  0  0
    5.4668   -0.8331   -1.9888 H   0  0  0  0  0  0  0  0  0  0  0  0
    5.3134    0.9026   -0.1325 H   0  0  0  0  0  0  0  0  0  0  0  0
    3.9745   -0.0206    0.5736 H   0  0  0  0  0  0  0  0  0  0  0  0
    4.4915   -2.3579    1.5960 H   0  0  0  0  0  0  0  0  0  0  0  0
    6.9074   -3.3314    2.5303 H   0  0  0  0  0  0  0  0  0  0  0  0
    7.6798    0.0072    0.1416 H   0  0  0  0  0  0  0  0  0  0  0  0
   -0.4874   -0.3577   -1.4569 H   0  0  0  0  0  0  0  0  0  0  0  0
  1  2  2  0
  2  3  1  0
  3  4  1  0
  4  5  2  0
  5  6  1  0
  6  7  2  0
  7  8  1  0
  7  9  1  0
  9 10  2  0
  2 11  1  0
 11 12  2  0
 12 13  1  0
 13 14  1  0
 14 15  1  0
 15 16  2  0
 15 17  1  0
 17 18  1  0
 18 19  1  0
 19 20  1  0
 20 21  1  0
 21 22  1  0
 22 23  2  0
 23 24  1  0
 24 25  2  0
 14 26  2  0
 10  4  1  0
 26 11  1  0
 25 21  1  0
  3 27  1  0
  3 28  1  0
  5 29  1  0
  6 30  1  0
  9 31  1  0
 10 32  1  0
 12 33  1  0
 13 34  1  0
 17 35  1  0
 18 36  1  0
 18 37  1  0
 19 38  1  0
 19 39  1  0
 20 40  1  0
 20 41  1  0
 22 42  1  0
 23 43  1  0
 25 44  1  0
 26 45  1  0
M  END
$$$$
