
     RDKit          3D

 44 46  0  0  0  0  0  0  0  0999 V2000
    5.5342   -1.4368    3.1487 C   0  0  0  0  0  0  0  0  0  0  0  0
    4.9386   -1.0577    1.8227 C   0  0  0  0  0  0  0  0  0  0  0  0
    3.7961   -1.7143    1.3463 C   0  0  0  0  0  0  0  0  0  0  0  0
    3.2596   -1.3894    0.0936 C   0  0  0  0  0  0  0  0  0  0  0  0
    3.8658   -0.4036   -0.6960 C   0  0  0  0  0  0  0  0  0  0  0  0
    3.3376   -0.0354   -2.0409 C   0  0  0  0  0  0  0  0  0  0  0  0
    4.0749    0.4567   -2.8922 O   0  0  0  0  0  0  0  0  0  0  0  0
    1.9933   -0.2506   -2.2493 N   0  0  0  0  0  0  0  0  0  0  0  0
    1.3692    0.1730   -3.4968 C   0  0  0  0  0  0  0  0  0  0  0  0
   -0.0772   -0.2863   -3.6401 C   0  0  0  0  0  0  0  0  0  0  0  0
   -0.7381   -0.1418   -4.6594 O   0  0  0  0  0  0  0  0  0  0  0  0
   -0.5423   -0.8324   -2.4816 O   0  0  0  0  0  0  0  0  0  0  0  0
   -1.9342   -1.1794   -2.4947 C   0  0  0  0  0  0  0  0  0  0  0  0
   -2.4940   -1.0932   -1.1099 C   0  0  0  0  0  0  0  0  0  0  0  0
   -2.3892   -2.0404   -0.1105 C   0  0  0  0  0  0  0  0  0  0  0  0
   -3.1584   -1.4821    1.3111 S   0  0  0  0  0  0  0  0  0  0  0  0
   -3.5950   -0.0168    0.5112 C   0  0  0  0  0  0  0  0  0  0  0  0
   -4.3714    1.0512    1.1758 C   0  0  0  0  0  0  0  0  0  0  0  0
   -4.6849    1.0494    2.5455 C   0  0  0  0  0  0  0  0  0  0  0  0
   -5.4249    2.0928    3.1160 C   0  0  0  0  0  0  0  0  0  0  0  0
   -5.8624    3.1588    2.3289 C   0  0  0  0  0  0  0  0  0  0  0  0
   -5.5582    3.1845    0.9713 C   0  0  0  0  0  0  0  0  0  0  0  0
   -4.8198    2.1414    0.4031 C   0  0  0  0  0  0  0  0  0  0  0  0
   -3.1807    0.0533   -0.7423 N   0  0  0  0  0  0  0  0  0  0  0  0
    5.0231    0.2344   -0.2326 C   0  0  0  0  0  0  0  0  0  0  0  0
    5.5557   -0.0911    1.0175 C   0  0  0  0  0  0  0  0  0  0  0  0
    4.7492   -1.7045    3.8665 H   0  0  0  0  0  0  0  0  0  0  0  0
    6.2113   -2.2900    3.0268 H   0  0  0  0  0  0  0  0  0  0  0  0
    6.0944   -0.5998    3.5799 H   0  0  0  0  0  0  0  0  0  0  0  0
    3.3223   -2.4928    1.9473 H   0  0  0  0  0  0  0  0  0  0  0  0
    2.3897   -1.9357   -0.2603 H   0  0  0  0  0  0  0  0  0  0  0  0
    1.3819   -0.3342   -1.4445 H   0  0  0  0  0  0  0  0  0  0  0  0
    1.9528   -0.2274   -4.3346 H   0  0  0  0  0  0  0  0  0  0  0  0
    1.3885    1.2701   -3.5210 H   0  0  0  0  0  0  0  0  0  0  0  0
   -2.0287   -2.2012   -2.8733 H   0  0  0  0  0  0  0  0  0  0  0  0
   -2.5110   -0.5119   -3.1419 H   0  0  0  0  0  0  0  0  0  0  0  0
   -1.9052   -3.0055   -0.1472 H   0  0  0  0  0  0  0  0  0  0  0  0
   -4.3585    0.2458    3.2000 H   0  0  0  0  0  0  0  0  0  0  0  0
   -5.6563    2.0745    4.1789 H   0  0  0  0  0  0  0  0  0  0  0  0
   -6.4366    3.9700    2.7740 H   0  0  0  0  0  0  0  0  0  0  0  0
   -5.8909    4.0160    0.3518 H   0  0  0  0  0  0  0  0  0  0  0  0
   -4.5927    2.1829   -0.6620 H   0  0  0  0  0  0  0  0  0  0  0  0
    5.5135    0.9870   -0.8452 H   0  0  0  0  0  0  0  0  0  0  0  0
    6.4589    0.4127    1.3593 H   0  0  0  0  0  0  0  0  0  0  0  0
  1  2  1  0
  2  3  2  0
  3  4  1  0
  4  5  2  0
  5  6  1  0
  6  7  2  0
  6  8  1  0
  8  9  1  0
  9 10  1  0
 10 11  2  0
 10 12  1  0
 12 13  1  0
 13 14  1  0
 14 15  2  0
 15 16  1  0
 16 17  1  0
 17 18  1  0
 18 19  2  0
 19 20  1  0
 20 21  2  0
 21 22  1  0
 22 23  2  0
 17 24  2  0
  5 25  1  0
 25 26  2  0
 26  2  1  0
 24 14  1  0
 23 18  1  0
  1 27  1  0
  1 28  1  0
  1 29  1  0
  3 30  1  0
  4 31  1  0
  8 32  1  0
  9 33  1  0
  9 34  1  0
 13 35  1  0
 13 36  1  0
 15 37  1  0
 19 38  1  0
 20 39  1  0
 21 40  1  0
 22 41  1  0
 23 42  1  0
 25 43  1  0
 26 44  1  0
M  END
$$$$
