
     RDKit          3D

 57 59  0  0  0  0  0  0  0  0999 V2000
    6.2112   -1.8908    3.2900 C   0  0  0  0  0  0  0  0  0  0  0  0
    5.4726   -0.9254    2.3702 C   0  0  0  0  0  0  0  0  0  0  0  0
    5.4149    0.7412    3.1468 S   0  0  0  0  0  0  0  0  0  0  0  0
    6.9586    1.4455    2.4823 C   0  0  0  0  0  0  0  0  0  0  0  0
    6.8107    1.8782    1.0443 C   0  0  0  0  0  0  0  0  0  0  0  0
    6.0165    2.9848    0.7077 C   0  0  0  0  0  0  0  0  0  0  0  0
    5.8571    3.3657   -0.6259 C   0  0  0  0  0  0  0  0  0  0  0  0
    6.4938    2.6479   -1.6350 C   0  0  0  0  0  0  0  0  0  0  0  0
    7.2934    1.5543   -1.3140 C   0  0  0  0  0  0  0  0  0  0  0  0
    7.4541    1.1730    0.0183 C   0  0  0  0  0  0  0  0  0  0  0  0
    4.0532   -1.4111    2.0537 C   0  0  0  0  0  0  0  0  0  0  0  0
    3.6481   -2.5242    2.3764 O   0  0  0  0  0  0  0  0  0  0  0  0
    3.3405   -0.5027    1.2767 N   0  0  0  0  0  0  0  0  0  0  0  0
    2.0716   -0.7895    0.8793 N   0  0  0  0  0  0  0  0  0  0  0  0
    1.5080    0.0962    0.1226 C   0  0  0  0  0  0  0  0  0  0  0  0
    0.1267   -0.0810   -0.3687 C   0  0  0  0  0  0  0  0  0  0  0  0
   -0.6556   -1.1517    0.0786 C   0  0  0  0  0  0  0  0  0  0  0  0
   -1.9634   -1.3100   -0.3913 C   0  0  0  0  0  0  0  0  0  0  0  0
   -2.4909   -0.4032   -1.3123 C   0  0  0  0  0  0  0  0  0  0  0  0
   -3.7459   -0.4451   -1.8533 O   0  0  0  0  0  0  0  0  0  0  0  0
   -4.6303   -1.4365   -1.3527 C   0  0  0  0  0  0  0  0  0  0  0  0
   -6.0005   -1.3545   -2.0321 C   0  0  0  0  0  0  0  0  0  0  0  0
   -6.2009   -0.7890   -3.1037 O   0  0  0  0  0  0  0  0  0  0  0  0
   -6.9992   -2.0096   -1.3320 N   0  0  0  0  0  0  0  0  0  0  0  0
   -8.3817   -1.9089   -1.7471 C   0  0  0  0  0  0  0  0  0  0  0  0
   -8.9853   -0.7304   -1.0801 C   0  0  0  0  0  0  0  0  0  0  0  0
   -9.1771    0.5799   -1.4653 C   0  0  0  0  0  0  0  0  0  0  0  0
   -9.7945    1.2296   -0.3716 C   0  0  0  0  0  0  0  0  0  0  0  0
   -9.9358    0.2779    0.6111 C   0  0  0  0  0  0  0  0  0  0  0  0
   -9.4438   -0.9156    0.1932 O   0  0  0  0  0  0  0  0  0  0  0  0
   -1.6993    0.6625   -1.7578 C   0  0  0  0  0  0  0  0  0  0  0  0
   -0.3935    0.8296   -1.2875 C   0  0  0  0  0  0  0  0  0  0  0  0
    6.2614   -2.8842    2.8309 H   0  0  0  0  0  0  0  0  0  0  0  0
    5.7042   -2.0069    4.2532 H   0  0  0  0  0  0  0  0  0  0  0  0
    7.2403   -1.5642    3.4740 H   0  0  0  0  0  0  0  0  0  0  0  0
    5.9991   -0.8772    1.4102 H   0  0  0  0  0  0  0  0  0  0  0  0
    7.7724    0.7232    2.6004 H   0  0  0  0  0  0  0  0  0  0  0  0
    7.2306    2.3138    3.0926 H   0  0  0  0  0  0  0  0  0  0  0  0
    5.5138    3.5543    1.4867 H   0  0  0  0  0  0  0  0  0  0  0  0
    5.2389    4.2228   -0.8757 H   0  0  0  0  0  0  0  0  0  0  0  0
    6.3698    2.9405   -2.6741 H   0  0  0  0  0  0  0  0  0  0  0  0
    7.7947    0.9982   -2.1021 H   0  0  0  0  0  0  0  0  0  0  0  0
    8.0846    0.3158    0.2487 H   0  0  0  0  0  0  0  0  0  0  0  0
    3.7328    0.4204    1.1021 H   0  0  0  0  0  0  0  0  0  0  0  0
    2.0372    1.0140   -0.1950 H   0  0  0  0  0  0  0  0  0  0  0  0
   -0.2521   -1.8660    0.7955 H   0  0  0  0  0  0  0  0  0  0  0  0
   -2.5329   -2.1557   -0.0182 H   0  0  0  0  0  0  0  0  0  0  0  0
   -4.7744   -1.2973   -0.2744 H   0  0  0  0  0  0  0  0  0  0  0  0
   -4.2363   -2.4388   -1.5606 H   0  0  0  0  0  0  0  0  0  0  0  0
   -6.8454   -2.2367   -0.3585 H   0  0  0  0  0  0  0  0  0  0  0  0
   -8.4541   -1.8331   -2.8383 H   0  0  0  0  0  0  0  0  0  0  0  0
   -8.8856   -2.8281   -1.4296 H   0  0  0  0  0  0  0  0  0  0  0  0
   -8.8906    1.0084   -2.4176 H   0  0  0  0  0  0  0  0  0  0  0  0
  -10.0943    2.2667   -0.3047 H   0  0  0  0  0  0  0  0  0  0  0  0
  -10.3408    0.2920    1.6118 H   0  0  0  0  0  0  0  0  0  0  0  0
   -2.1073    1.3685   -2.4812 H   0  0  0  0  0  0  0  0  0  0  0  0
    0.2006    1.6626   -1.6518 H   0  0  0  0  0  0  0  0  0  0  0  0
  1  2  1  0
  2  3  1  0
  3  4  1  0
  4  5  1  0
  5  6  2  0
  6  7  1  0
  7  8  2  0
  8  9  1  0
  9 10  2  0
  2 11  1  0
 11 12  2  0
 11 13  1  0
 13 14  1  0
 14 15  2  3
 15 16  1  0
 16 17  2  0
 17 18  1  0
 18 19  2  0
 19 20  1  0
 20 21  1  0
 21 22  1  0
 22 23  2  0
 22 24  1  0
 24 25  1  0
 25 26  1  0
 26 27  2  0
 27 28  1  0
 28 29  2  0
 29 30  1  0
 19 31  1  0
 31 32  2  0
 10  5  1  0
 32 16  1  0
 30 26  1  0
  1 33  1  0
  1 34  1  0
  1 35  1  0
  2 36  1  0
  4 37  1  0
  4 38  1  0
  6 39  1  0
  7 40  1  0
  8 41  1  0
  9 42  1  0
 10 43  1  0
 13 44  1  0
 15 45  1  0
 17 46  1  0
 18 47  1  0
 21 48  1  0
 21 49  1  0
 24 50  1  0
 25 51  1  0
 25 52  1  0
 27 53  1  0
 28 54  1  0
 29 55  1  0
 31 56  1  0
 32 57  1  0
M  END
$$$$
