
     RDKit          3D

 54 57  0  0  0  0  0  0  0  0999 V2000
   -5.7741   -0.1476   -2.6954 C   0  0  0  0  0  0  0  0  0  0  0  0
   -5.6265    1.0487   -1.9424 O   0  0  0  0  0  0  0  0  0  0  0  0
   -4.4874    1.1792   -1.1904 C   0  0  0  0  0  0  0  0  0  0  0  0
   -3.3706    0.3440   -1.2828 C   0  0  0  0  0  0  0  0  0  0  0  0
   -2.2280    0.5402   -0.4790 C   0  0  0  0  0  0  0  0  0  0  0  0
   -1.0630   -0.3633   -0.6092 C   0  0  0  0  0  0  0  0  0  0  0  0
    0.2407    0.0408   -0.3845 C   0  0  0  0  0  0  0  0  0  0  0  0
    1.2635   -0.8988   -0.5245 C   0  0  0  0  0  0  0  0  0  0  0  0
    2.6300   -0.4256   -0.2056 C   0  0  0  0  0  0  0  0  0  0  0  0
    3.0594    0.5404   -0.8205 O   0  0  0  0  0  0  0  0  0  0  0  0
    3.2382   -1.1208    0.8217 N   0  0  0  0  0  0  0  0  0  0  0  0
    4.5295   -0.9127    1.3476 C   0  0  0  0  0  0  0  0  0  0  0  0
    4.9214   -1.7249    2.4217 C   0  0  0  0  0  0  0  0  0  0  0  0
    6.1875   -1.5866    2.9993 C   0  0  0  0  0  0  0  0  0  0  0  0
    7.0642   -0.6328    2.4981 C   0  0  0  0  0  0  0  0  0  0  0  0
    8.3080   -0.4603    3.0267 O   0  0  0  0  0  0  0  0  0  0  0  0
    6.6934    0.1779    1.4338 C   0  0  0  0  0  0  0  0  0  0  0  0
    5.4266    0.0383    0.8577 C   0  0  0  0  0  0  0  0  0  0  0  0
    0.9951   -2.2204   -0.9385 C   0  0  0  0  0  0  0  0  0  0  0  0
    1.9757   -3.2175   -1.1811 C   0  0  0  0  0  0  0  0  0  0  0  0
    1.6108   -4.5018   -1.5794 C   0  0  0  0  0  0  0  0  0  0  0  0
    0.2685   -4.8071   -1.7490 C   0  0  0  0  0  0  0  0  0  0  0  0
   -0.6976   -3.8221   -1.5313 C   0  0  0  0  0  0  0  0  0  0  0  0
   -0.3603   -2.5337   -1.1387 C   0  0  0  0  0  0  0  0  0  0  0  0
   -1.3494   -1.6393   -0.9704 N   0  0  0  0  0  0  0  0  0  0  0  0
   -2.2468    1.6064    0.4436 C   0  0  0  0  0  0  0  0  0  0  0  0
   -3.3502    2.4600    0.5524 C   0  0  0  0  0  0  0  0  0  0  0  0
   -3.4407    3.5179    1.4202 O   0  0  0  0  0  0  0  0  0  0  0  0
   -2.4024    3.6786    2.3760 C   0  0  0  0  0  0  0  0  0  0  0  0
   -4.4560    2.2496   -0.2852 C   0  0  0  0  0  0  0  0  0  0  0  0
   -5.5634    3.0598   -0.1576 O   0  0  0  0  0  0  0  0  0  0  0  0
   -5.4557    4.1664   -1.0513 C   0  0  0  0  0  0  0  0  0  0  0  0
   -5.0502   -0.1852   -3.5159 H   0  0  0  0  0  0  0  0  0  0  0  0
   -6.7753   -0.1430   -3.1369 H   0  0  0  0  0  0  0  0  0  0  0  0
   -5.6966   -1.0341   -2.0570 H   0  0  0  0  0  0  0  0  0  0  0  0
   -3.3564   -0.4800   -1.9915 H   0  0  0  0  0  0  0  0  0  0  0  0
    0.4817    1.0642   -0.1140 H   0  0  0  0  0  0  0  0  0  0  0  0
    2.6918   -1.8491    1.2665 H   0  0  0  0  0  0  0  0  0  0  0  0
    4.2473   -2.4757    2.8258 H   0  0  0  0  0  0  0  0  0  0  0  0
    6.4665   -2.2262    3.8304 H   0  0  0  0  0  0  0  0  0  0  0  0
    8.4270   -1.0865    3.7593 H   0  0  0  0  0  0  0  0  0  0  0  0
    7.3860    0.9207    1.0475 H   0  0  0  0  0  0  0  0  0  0  0  0
    5.1751    0.6883    0.0256 H   0  0  0  0  0  0  0  0  0  0  0  0
    3.0370   -2.9949   -1.0835 H   0  0  0  0  0  0  0  0  0  0  0  0
    2.3724   -5.2553   -1.7657 H   0  0  0  0  0  0  0  0  0  0  0  0
   -0.0331   -5.8034   -2.0623 H   0  0  0  0  0  0  0  0  0  0  0  0
   -1.7475   -4.0665   -1.6797 H   0  0  0  0  0  0  0  0  0  0  0  0
   -1.3873    1.7521    1.0890 H   0  0  0  0  0  0  0  0  0  0  0  0
   -2.3052    2.7912    3.0101 H   0  0  0  0  0  0  0  0  0  0  0  0
   -2.6697    4.5206    3.0214 H   0  0  0  0  0  0  0  0  0  0  0  0
   -1.4535    3.9226    1.8875 H   0  0  0  0  0  0  0  0  0  0  0  0
   -5.4127    3.8366   -2.0948 H   0  0  0  0  0  0  0  0  0  0  0  0
   -4.5857    4.7877   -0.8135 H   0  0  0  0  0  0  0  0  0  0  0  0
   -6.3519    4.7821   -0.9302 H   0  0  0  0  0  0  0  0  0  0  0  0
  1  2  1  0
  2  3  1  0
  3  4  2  0
  4  5  1  0
  5  6  1  0
  6  7  2  0
  7  8  1  0
  8  9  1  0
  9 10  2  0
  9 11  1  0
 11 12  1  0
 12 13  2  0
 13 14  1  0
 14 15  2  0
 15 16  1  0
 15 17  1  0
 17 18  2  0
  8 19  2  0
 19 20  1  0
 20 21  2  0
 21 22  1  0
 22 23  2  0
 23 24  1  0
 24 25  2  0
  5 26  2  0
 26 27  1  0
 27 28  1  0
 28 29  1  0
 27 30  2  0
 30 31  1  0
 31 32  1  0
 30  3  1  0
 25  6  1  0
 18 12  1  0
 24 19  1  0
  1 33  1  0
  1 34  1  0
  1 35  1  0
  4 36  1  0
  7 37  1  0
 11 38  1  0
 13 39  1  0
 14 40  1  0
 16 41  1  0
 17 42  1  0
 18 43  1  0
 20 44  1  0
 21 45  1  0
 22 46  1  0
 23 47  1  0
 26 48  1  0
 29 49  1  0
 29 50  1  0
 29 51  1  0
 32 52  1  0
 32 53  1  0
 32 54  1  0
M  END
$$$$
