
     RDKit          3D

 53 55  0  0  0  0  0  0  0  0999 V2000
   -6.8290    0.5285   -1.5815 C   0  0  0  0  0  0  0  0  0  0  0  0
   -6.0604   -0.4992   -0.9688 O   0  0  0  0  0  0  0  0  0  0  0  0
   -6.4955   -0.9775    0.2397 C   0  0  0  0  0  0  0  0  0  0  0  0
   -7.6674   -0.5668    0.8839 C   0  0  0  0  0  0  0  0  0  0  0  0
   -8.0186   -1.1023    2.1258 C   0  0  0  0  0  0  0  0  0  0  0  0
   -7.2014   -2.0484    2.7360 C   0  0  0  0  0  0  0  0  0  0  0  0
   -6.0333   -2.4664    2.1019 C   0  0  0  0  0  0  0  0  0  0  0  0
   -5.6743   -1.9472    0.8461 C   0  0  0  0  0  0  0  0  0  0  0  0
   -4.3942   -2.4098    0.1990 C   0  0  0  0  0  0  0  0  0  0  0  0
   -3.3176   -1.4906    0.4618 N   0  0  0  0  0  0  0  0  0  0  0  0
   -2.0109   -1.8314    0.2139 C   0  0  0  0  0  0  0  0  0  0  0  0
   -1.5917   -2.9490   -0.0537 O   0  0  0  0  0  0  0  0  0  0  0  0
   -1.0352   -0.6339    0.2787 C   0  0  0  0  0  0  0  0  0  0  0  0
   -1.4656    0.5066    0.3682 O   0  0  0  0  0  0  0  0  0  0  0  0
    0.2887   -0.9983    0.2068 N   0  0  0  0  0  0  0  0  0  0  0  0
    1.3462   -0.0199    0.0066 C   0  0  0  0  0  0  0  0  0  0  0  0
    2.7389   -0.5994    0.3371 C   0  0  0  0  0  0  0  0  0  0  0  0
    2.8966   -1.8078   -0.4533 O   0  0  0  0  0  0  0  0  0  0  0  0
    4.1198   -1.6926   -1.1874 C   0  0  0  0  0  0  0  0  0  0  0  0
    4.3760   -0.2071   -1.2978 C   0  0  0  0  0  0  0  0  0  0  0  0
    3.8953    0.2571    0.0040 N   0  0  0  0  0  0  0  0  0  0  0  0
    3.7571    1.9024    0.2833 S   0  0  0  0  0  6  0  0  0  0  0  0
    3.3179    2.0854    1.6484 O   0  0  0  0  0  0  0  0  0  0  0  0
    3.0307    2.4748   -0.8292 O   0  0  0  0  0  0  0  0  0  0  0  0
    5.4446    2.4473    0.1895 C   0  0  0  0  0  0  0  0  0  0  0  0
    5.8682    3.2422   -0.8799 C   0  0  0  0  0  0  0  0  0  0  0  0
    7.1982    3.6637   -0.9358 C   0  0  0  0  0  0  0  0  0  0  0  0
    8.0866    3.2937    0.0759 C   0  0  0  0  0  0  0  0  0  0  0  0
    9.8866    3.8660   -0.0054 Br  0  0  0  0  0  0  0  0  0  0  0  0
    7.6596    2.5084    1.1481 C   0  0  0  0  0  0  0  0  0  0  0  0
    6.3312    2.0843    1.2091 C   0  0  0  0  0  0  0  0  0  0  0  0
   -6.3280    0.8094   -2.5128 H   0  0  0  0  0  0  0  0  0  0  0  0
   -7.8314    0.1705   -1.8382 H   0  0  0  0  0  0  0  0  0  0  0  0
   -6.8754    1.4198   -0.9471 H   0  0  0  0  0  0  0  0  0  0  0  0
   -8.3313    0.1723    0.4483 H   0  0  0  0  0  0  0  0  0  0  0  0
   -8.9301   -0.7745    2.6191 H   0  0  0  0  0  0  0  0  0  0  0  0
   -7.4709   -2.4583    3.7059 H   0  0  0  0  0  0  0  0  0  0  0  0
   -5.3966   -3.2001    2.5923 H   0  0  0  0  0  0  0  0  0  0  0  0
   -4.1124   -3.4056    0.5625 H   0  0  0  0  0  0  0  0  0  0  0  0
   -4.5117   -2.5051   -0.8867 H   0  0  0  0  0  0  0  0  0  0  0  0
   -3.5223   -0.4948    0.4813 H   0  0  0  0  0  0  0  0  0  0  0  0
    0.4692   -1.9662   -0.0578 H   0  0  0  0  0  0  0  0  0  0  0  0
    1.1194    0.8624    0.6127 H   0  0  0  0  0  0  0  0  0  0  0  0
    1.2928    0.2707   -1.0490 H   0  0  0  0  0  0  0  0  0  0  0  0
    2.7923   -0.8957    1.3903 H   0  0  0  0  0  0  0  0  0  0  0  0
    4.9067   -2.1938   -0.6127 H   0  0  0  0  0  0  0  0  0  0  0  0
    4.0233   -2.1827   -2.1597 H   0  0  0  0  0  0  0  0  0  0  0  0
    5.4343    0.0053   -1.4630 H   0  0  0  0  0  0  0  0  0  0  0  0
    3.7765    0.2235   -2.1068 H   0  0  0  0  0  0  0  0  0  0  0  0
    5.1758    3.5402   -1.6645 H   0  0  0  0  0  0  0  0  0  0  0  0
    7.5306    4.2831   -1.7655 H   0  0  0  0  0  0  0  0  0  0  0  0
    8.3500    2.2279    1.9398 H   0  0  0  0  0  0  0  0  0  0  0  0
    5.9919    1.4790    2.0474 H   0  0  0  0  0  0  0  0  0  0  0  0
  1  2  1  0
  2  3  1  0
  3  4  2  0
  4  5  1  0
  5  6  2  0
  6  7  1  0
  7  8  2  0
  8  9  1  0
  9 10  1  0
 10 11  1  0
 11 12  2  0
 11 13  1  0
 13 14  2  0
 13 15  1  0
 15 16  1  0
 16 17  1  0
 17 18  1  0
 18 19  1  0
 19 20  1  0
 20 21  1  0
 21 22  1  0
 22 23  2  0
 22 24  2  0
 22 25  1  0
 25 26  2  0
 26 27  1  0
 27 28  2  0
 28 29  1  0
 28 30  1  0
 30 31  2  0
  8  3  1  0
 21 17  1  0
 31 25  1  0
  1 32  1  0
  1 33  1  0
  1 34  1  0
  4 35  1  0
  5 36  1  0
  6 37  1  0
  7 38  1  0
  9 39  1  0
  9 40  1  0
 10 41  1  0
 15 42  1  0
 16 43  1  0
 16 44  1  0
 17 45  1  0
 19 46  1  0
 19 47  1  0
 20 48  1  0
 20 49  1  0
 26 50  1  0
 27 51  1  0
 30 52  1  0
 31 53  1  0
M  END
$$$$
