
     RDKit          3D

 56 59  0  0  0  0  0  0  0  0999 V2000
    4.9212    4.7077   -2.1348 C   0  0  0  0  0  0  0  0  0  0  0  0
    5.9136    3.6227   -1.7542 C   0  0  0  0  0  0  0  0  0  0  0  0
    5.6037    3.0766   -0.4737 O   0  0  0  0  0  0  0  0  0  0  0  0
    4.7429    2.0183   -0.3978 C   0  0  0  0  0  0  0  0  0  0  0  0
    4.5858    1.4930    0.8873 C   0  0  0  0  0  0  0  0  0  0  0  0
    3.7342    0.4099    1.1196 C   0  0  0  0  0  0  0  0  0  0  0  0
    3.0298   -0.1676    0.0594 C   0  0  0  0  0  0  0  0  0  0  0  0
    2.1387   -1.2969    0.2936 C   0  0  0  0  0  0  0  0  0  0  0  0
    0.7533   -1.3379    0.3874 C   0  0  0  0  0  0  0  0  0  0  0  0
   -0.2098   -0.2470    0.2495 C   0  0  0  0  0  0  0  0  0  0  0  0
    0.1192    0.9037   -0.0199 O   0  0  0  0  0  0  0  0  0  0  0  0
   -1.5139   -0.6769    0.4567 N   0  0  0  0  0  0  0  0  0  0  0  0
   -2.5616    0.1798    0.3104 N   0  0  0  0  0  0  0  0  0  0  0  0
   -3.7650   -0.2512    0.5620 C   0  0  0  0  0  0  0  0  0  0  0  0
   -4.0821   -1.6381    1.0808 C   0  0  0  0  0  0  0  0  0  0  0  0
   -4.9017    0.6949    0.3661 C   0  0  0  0  0  0  0  0  0  0  0  0
   -4.7324    2.0062    0.8365 C   0  0  0  0  0  0  0  0  0  0  0  0
   -5.7576    2.9385    0.6975 C   0  0  0  0  0  0  0  0  0  0  0  0
   -6.9495    2.5662    0.0829 C   0  0  0  0  0  0  0  0  0  0  0  0
   -7.1160    1.2661   -0.4067 C   0  0  0  0  0  0  0  0  0  0  0  0
   -6.0922    0.3186   -0.2815 C   0  0  0  0  0  0  0  0  0  0  0  0
   -6.1613   -0.9587   -0.7727 O   0  0  0  0  0  0  0  0  0  0  0  0
   -7.3064   -1.3107   -1.5388 C   0  0  0  0  0  0  0  0  0  0  0  0
    0.3540   -2.6229    0.6565 N   0  0  0  0  0  0  0  0  0  0  0  0
    1.4284   -3.3859    0.7270 N   0  0  0  0  0  0  0  0  0  0  0  0
    2.5379   -2.6228    0.4864 N   0  0  0  0  0  0  0  0  0  0  0  0
    3.8317   -3.2028    0.4369 C   0  0  0  0  0  0  0  0  0  0  0  0
    4.9051   -2.4816    0.1133 N   0  0  0  0  0  0  0  0  0  0  0  0
    5.9558   -3.3951    0.1526 O   0  0  0  0  0  0  0  0  0  0  0  0
    5.5061   -4.6668    0.4929 N   0  0  0  0  0  0  0  0  0  0  0  0
    4.1921   -4.5431    0.6742 C   0  0  0  0  0  0  0  0  0  0  0  0
    3.3777   -5.5559    1.0282 N   0  0  0  0  0  0  0  0  0  0  0  0
    3.1745    0.3660   -1.2252 C   0  0  0  0  0  0  0  0  0  0  0  0
    4.0275    1.4534   -1.4525 C   0  0  0  0  0  0  0  0  0  0  0  0
    4.8793    5.4782   -1.3577 H   0  0  0  0  0  0  0  0  0  0  0  0
    3.9088    4.3066   -2.2386 H   0  0  0  0  0  0  0  0  0  0  0  0
    5.2075    5.1774   -3.0801 H   0  0  0  0  0  0  0  0  0  0  0  0
    6.9052    4.0805   -1.6622 H   0  0  0  0  0  0  0  0  0  0  0  0
    6.0112    2.8534   -2.5281 H   0  0  0  0  0  0  0  0  0  0  0  0
    5.1315    1.9346    1.7176 H   0  0  0  0  0  0  0  0  0  0  0  0
    3.6309    0.0294    2.1323 H   0  0  0  0  0  0  0  0  0  0  0  0
   -1.6744   -1.6597    0.6491 H   0  0  0  0  0  0  0  0  0  0  0  0
   -3.9159   -2.3723    0.2875 H   0  0  0  0  0  0  0  0  0  0  0  0
   -5.1134   -1.7143    1.4353 H   0  0  0  0  0  0  0  0  0  0  0  0
   -3.4349   -1.8701    1.9321 H   0  0  0  0  0  0  0  0  0  0  0  0
   -3.7982    2.3016    1.3111 H   0  0  0  0  0  0  0  0  0  0  0  0
   -5.6230    3.9528    1.0646 H   0  0  0  0  0  0  0  0  0  0  0  0
   -7.7510    3.2933   -0.0272 H   0  0  0  0  0  0  0  0  0  0  0  0
   -8.0592    1.0301   -0.8887 H   0  0  0  0  0  0  0  0  0  0  0  0
   -8.2123   -1.2884   -0.9243 H   0  0  0  0  0  0  0  0  0  0  0  0
   -7.4072   -0.6687   -2.4201 H   0  0  0  0  0  0  0  0  0  0  0  0
   -7.1690   -2.3379   -1.8903 H   0  0  0  0  0  0  0  0  0  0  0  0
    2.3656   -5.4685    0.9550 H   0  0  0  0  0  0  0  0  0  0  0  0
    3.7241   -6.5076    0.9659 H   0  0  0  0  0  0  0  0  0  0  0  0
    2.6170   -0.0488   -2.0617 H   0  0  0  0  0  0  0  0  0  0  0  0
    4.0940    1.8387   -2.4635 H   0  0  0  0  0  0  0  0  0  0  0  0
  1  2  1  0
  2  3  1  0
  3  4  1  0
  4  5  2  0
  5  6  1  0
  6  7  2  0
  7  8  1  0
  8  9  2  0
  9 10  1  0
 10 11  2  0
 10 12  1  0
 12 13  1  0
 13 14  2  3
 14 15  1  0
 14 16  1  0
 16 17  2  0
 17 18  1  0
 18 19  2  0
 19 20  1  0
 20 21  2  0
 21 22  1  0
 22 23  1  0
  9 24  1  0
 24 25  2  0
 25 26  1  0
 26 27  1  0
 27 28  2  0
 28 29  1  0
 29 30  1  0
 30 31  2  0
 31 32  1  0
  7 33  1  0
 33 34  2  0
 34  4  1  0
 26  8  1  0
 31 27  1  0
 21 16  1  0
  1 35  1  0
  1 36  1  0
  1 37  1  0
  2 38  1  0
  2 39  1  0
  5 40  1  0
  6 41  1  0
 12 42  1  0
 15 43  1  0
 15 44  1  0
 15 45  1  0
 17 46  1  0
 18 47  1  0
 19 48  1  0
 20 49  1  0
 23 50  1  0
 23 51  1  0
 23 52  1  0
 32 53  1  0
 32 54  1  0
 33 55  1  0
 34 56  1  0
M  END
$$$$
