
     RDKit          3D

 46 48  0  0  0  0  0  0  0  0999 V2000
   -1.5147   -1.6872    0.4449 C   0  0  0  0  0  0  0  0  0  0  0  0
   -2.5009   -1.0442   -0.5171 C   0  0  0  0  0  0  0  0  0  0  0  0
   -2.9674    0.2714   -0.0484 N   0  0  0  0  0  4  0  0  0  0  0  0
   -2.5587    1.4165   -0.5801 C   0  0  0  0  0  0  0  0  0  0  0  0
   -1.6768    1.5926   -1.6714 C   0  0  0  0  0  0  0  0  0  0  0  0
   -0.3403    1.5692   -1.5595 C   0  0  0  0  0  0  0  0  0  0  0  0
    0.4338    1.4583   -0.3428 C   0  0  0  0  0  0  0  0  0  0  0  0
    1.6199    0.8457   -0.1909 C   0  0  0  0  0  0  0  0  0  0  0  0
    2.3150    0.0144   -1.0796 N   0  0  0  0  0  0  0  0  0  0  0  0
    1.6280   -0.7613   -2.0361 C   0  0  0  0  0  0  0  0  0  0  0  0
    2.3779   -1.0851   -3.3132 C   0  0  0  0  0  0  0  0  0  0  0  0
    0.4547   -1.1347   -1.9182 O   0  0  0  0  0  0  0  0  0  0  0  0
    3.7197   -0.2209   -0.8335 C   0  0  0  0  0  0  0  0  0  0  0  0
    4.5486    0.8350   -0.4183 C   0  0  0  0  0  0  0  0  0  0  0  0
    5.9067    0.6239   -0.1656 C   0  0  0  0  0  0  0  0  0  0  0  0
    6.4537   -0.6475   -0.3121 C   0  0  0  0  0  0  0  0  0  0  0  0
    5.6436   -1.7088   -0.7062 C   0  0  0  0  0  0  0  0  0  0  0  0
    4.2853   -1.4987   -0.9620 C   0  0  0  0  0  0  0  0  0  0  0  0
   -3.3085    2.7567    0.1818 S   0  0  0  0  0  0  0  0  0  0  0  0
   -4.2071    1.7403    1.2380 C   0  0  0  0  0  0  0  0  0  0  0  0
   -5.1248    2.1065    2.2350 C   0  0  0  0  0  0  0  0  0  0  0  0
   -5.7521    1.0897    2.9586 C   0  0  0  0  0  0  0  0  0  0  0  0
   -5.4771   -0.2481    2.6955 C   0  0  0  0  0  0  0  0  0  0  0  0
   -4.5593   -0.6072    1.7008 C   0  0  0  0  0  0  0  0  0  0  0  0
   -3.9093    0.4067    0.9667 C   0  0  0  0  0  0  0  0  0  0  0  0
   -1.9770   -1.9007    1.4125 H   0  0  0  0  0  0  0  0  0  0  0  0
   -1.1460   -2.6324    0.0349 H   0  0  0  0  0  0  0  0  0  0  0  0
   -0.6597   -1.0348    0.6340 H   0  0  0  0  0  0  0  0  0  0  0  0
   -3.3752   -1.6944   -0.6436 H   0  0  0  0  0  0  0  0  0  0  0  0
   -2.0600   -0.9605   -1.5141 H   0  0  0  0  0  0  0  0  0  0  0  0
   -2.1168    1.7143   -2.6593 H   0  0  0  0  0  0  0  0  0  0  0  0
    0.2435    1.6526   -2.4777 H   0  0  0  0  0  0  0  0  0  0  0  0
    0.0598    2.0220    0.5120 H   0  0  0  0  0  0  0  0  0  0  0  0
    2.1330    1.0037    0.7589 H   0  0  0  0  0  0  0  0  0  0  0  0
    2.6786   -2.1352   -3.3151 H   0  0  0  0  0  0  0  0  0  0  0  0
    1.7051   -0.9107   -4.1593 H   0  0  0  0  0  0  0  0  0  0  0  0
    3.2477   -0.4402   -3.4597 H   0  0  0  0  0  0  0  0  0  0  0  0
    4.1599    1.8457   -0.3190 H   0  0  0  0  0  0  0  0  0  0  0  0
    6.5396    1.4538    0.1407 H   0  0  0  0  0  0  0  0  0  0  0  0
    7.5106   -0.8124   -0.1144 H   0  0  0  0  0  0  0  0  0  0  0  0
    6.0685   -2.7055   -0.8045 H   0  0  0  0  0  0  0  0  0  0  0  0
    3.6796   -2.3635   -1.2185 H   0  0  0  0  0  0  0  0  0  0  0  0
   -5.3506    3.1506    2.4407 H   0  0  0  0  0  0  0  0  0  0  0  0
   -6.4701    1.3501    3.7367 H   0  0  0  0  0  0  0  0  0  0  0  0
   -5.9840   -1.0225    3.2714 H   0  0  0  0  0  0  0  0  0  0  0  0
   -4.3763   -1.6633    1.5246 H   0  0  0  0  0  0  0  0  0  0  0  0
  1  2  1  0
  2  3  1  0
  3  4  2  0
  4  5  1  0
  5  6  2  3
  6  7  1  0
  7  8  2  3
  8  9  1  0
  9 10  1  0
 10 11  1  0
 10 12  2  0
  9 13  1  0
 13 14  2  0
 14 15  1  0
 15 16  2  0
 16 17  1  0
 17 18  2  0
  4 19  1  0
 19 20  1  0
 20 21  2  0
 21 22  1  0
 22 23  2  0
 23 24  1  0
 24 25  2  0
 25  3  1  0
 18 13  1  0
 25 20  1  0
  1 26  1  0
  1 27  1  0
  1 28  1  0
  2 29  1  0
  2 30  1  0
  5 31  1  0
  6 32  1  0
  7 33  1  0
  8 34  1  0
 11 35  1  0
 11 36  1  0
 11 37  1  0
 14 38  1  0
 15 39  1  0
 16 40  1  0
 17 41  1  0
 18 42  1  0
 21 43  1  0
 22 44  1  0
 23 45  1  0
 24 46  1  0
M  CHG  1   3   1
M  END
$$$$
