
     RDKit          3D

 35 35  0  0  0  0  0  0  0  0999 V2000
   -4.0411   -0.5317    0.8167 C   0  0  0  0  0  0  0  0  0  0  0  0
   -3.4587    0.7662    0.2441 C   0  0  0  0  0  0  0  0  0  0  0  0
   -4.5821    1.6378   -0.3339 C   0  0  0  0  0  0  0  0  0  0  0  0
   -2.3699    0.5898   -0.7435 N   0  0  0  0  0  0  0  0  0  0  0  0
   -2.7238   -0.2818   -1.8654 C   0  0  0  0  0  0  0  0  0  0  0  0
   -1.1163    0.1582   -0.0949 C   0  0  0  0  0  0  0  0  0  0  0  0
    0.1356    0.2970   -0.9753 C   0  0  0  0  0  0  0  0  0  0  0  0
    1.2863   -0.0200   -0.1728 O   0  0  0  0  0  0  0  0  0  0  0  0
    2.4620    0.0498   -0.8453 C   0  0  0  0  0  0  0  0  0  0  0  0
    2.6166    0.3151   -2.0235 O   0  0  0  0  0  0  0  0  0  0  0  0
    3.5531   -0.2611    0.0977 C   0  0  0  0  0  0  0  0  0  0  0  0
    3.5025   -1.4797    0.7941 C   0  0  0  0  0  0  0  0  0  0  0  0
    4.5276   -1.8279    1.6741 C   0  0  0  0  0  0  0  0  0  0  0  0
    5.6054   -0.9645    1.8608 C   0  0  0  0  0  0  0  0  0  0  0  0
    5.6591    0.2491    1.1714 C   0  0  0  0  0  0  0  0  0  0  0  0
    4.6344    0.6057    0.2870 C   0  0  0  0  0  0  0  0  0  0  0  0
    4.7677    2.2970   -0.5641 Br  0  0  0  0  0  0  0  0  0  0  0  0
   -3.2661   -1.1531    1.2757 H   0  0  0  0  0  0  0  0  0  0  0  0
   -4.7773   -0.3046    1.5961 H   0  0  0  0  0  0  0  0  0  0  0  0
   -4.5502   -1.1256    0.0507 H   0  0  0  0  0  0  0  0  0  0  0  0
   -3.0546    1.3428    1.0874 H   0  0  0  0  0  0  0  0  0  0  0  0
   -5.2892    1.9177    0.4552 H   0  0  0  0  0  0  0  0  0  0  0  0
   -4.1808    2.5653   -0.7572 H   0  0  0  0  0  0  0  0  0  0  0  0
   -5.1509    1.1217   -1.1136 H   0  0  0  0  0  0  0  0  0  0  0  0
   -1.9725   -0.2173   -2.6591 H   0  0  0  0  0  0  0  0  0  0  0  0
   -3.6646    0.0217   -2.3343 H   0  0  0  0  0  0  0  0  0  0  0  0
   -2.8112   -1.3320   -1.5667 H   0  0  0  0  0  0  0  0  0  0  0  0
   -0.9383    0.7676    0.8015 H   0  0  0  0  0  0  0  0  0  0  0  0
   -1.1880   -0.8768    0.2637 H   0  0  0  0  0  0  0  0  0  0  0  0
    0.2251    1.3264   -1.3423 H   0  0  0  0  0  0  0  0  0  0  0  0
    0.0933   -0.3966   -1.8219 H   0  0  0  0  0  0  0  0  0  0  0  0
    2.6684   -2.1623    0.6466 H   0  0  0  0  0  0  0  0  0  0  0  0
    4.4876   -2.7728    2.2110 H   0  0  0  0  0  0  0  0  0  0  0  0
    6.4061   -1.2344    2.5459 H   0  0  0  0  0  0  0  0  0  0  0  0
    6.5050    0.9135    1.3342 H   0  0  0  0  0  0  0  0  0  0  0  0
  1  2  1  0
  2  3  1  0
  2  4  1  0
  4  5  1  0
  4  6  1  0
  6  7  1  0
  7  8  1  0
  8  9  1  0
  9 10  2  0
  9 11  1  0
 11 12  2  0
 12 13  1  0
 13 14  2  0
 14 15  1  0
 15 16  2  0
 16 17  1  0
 16 11  1  0
  1 18  1  0
  1 19  1  0
  1 20  1  0
  2 21  1  0
  3 22  1  0
  3 23  1  0
  3 24  1  0
  5 25  1  0
  5 26  1  0
  5 27  1  0
  6 28  1  0
  6 29  1  0
  7 30  1  0
  7 31  1  0
 12 32  1  0
 13 33  1  0
 14 34  1  0
 15 35  1  0
M  END
$$$$
