
     RDKit          3D

 38 40  0  0  0  0  0  0  0  0999 V2000
   -0.4002    2.4406   -1.4981 C   0  0  0  0  0  0  0  0  0  0  0  0
   -0.5724    1.3638   -0.4633 C   0  0  0  0  0  0  0  0  0  0  0  0
   -0.7345    1.7312    0.8823 C   0  0  0  0  0  0  0  0  0  0  0  0
   -0.9052    0.7563    1.8672 C   0  0  0  0  0  0  0  0  0  0  0  0
   -1.0426    1.1370    3.1747 O   0  0  0  0  0  0  0  0  0  0  0  0
   -0.9336   -0.6014    1.5310 C   0  0  0  0  0  0  0  0  0  0  0  0
   -1.1482   -1.8807    2.7564 S   0  0  0  0  0  0  0  0  0  0  0  0
   -2.8837   -1.9108    2.9422 C   0  0  0  0  0  0  0  0  0  0  0  0
   -3.7655   -1.2521    2.1210 N   0  0  0  0  0  0  0  0  0  0  0  0
   -4.9354   -1.5788    2.6152 C   0  0  0  0  0  0  0  0  0  0  0  0
   -4.7620   -2.4032    3.6794 N   0  0  0  0  0  0  0  0  0  0  0  0
   -3.4623   -2.6387    3.9058 N   0  0  0  0  0  0  0  0  0  0  0  0
   -0.7685   -0.9700    0.1907 C   0  0  0  0  0  0  0  0  0  0  0  0
   -0.5809   -0.0010   -0.8000 C   0  0  0  0  0  0  0  0  0  0  0  0
   -0.3818   -0.4034   -2.1529 N   0  0  0  0  0  0  0  0  0  0  0  0
    0.9443   -1.3539   -2.5783 S   0  0  0  0  0  6  0  0  0  0  0  0
    1.0293   -1.2907   -4.0228 O   0  0  0  0  0  0  0  0  0  0  0  0
    0.8809   -2.6233   -1.8884 O   0  0  0  0  0  0  0  0  0  0  0  0
    2.3284   -0.4427   -1.9248 C   0  0  0  0  0  0  0  0  0  0  0  0
    2.9525    0.5271   -2.7171 C   0  0  0  0  0  0  0  0  0  0  0  0
    4.0438    1.2332   -2.2063 C   0  0  0  0  0  0  0  0  0  0  0  0
    4.5089    0.9580   -0.9191 C   0  0  0  0  0  0  0  0  0  0  0  0
    5.8489    1.8363   -0.2926 Cl  0  0  0  0  0  0  0  0  0  0  0  0
    3.8997   -0.0251   -0.1386 C   0  0  0  0  0  0  0  0  0  0  0  0
    2.8099   -0.7366   -0.6442 C   0  0  0  0  0  0  0  0  0  0  0  0
   -0.3691    3.4364   -1.0431 H   0  0  0  0  0  0  0  0  0  0  0  0
    0.5374    2.3035   -2.0444 H   0  0  0  0  0  0  0  0  0  0  0  0
   -1.2382    2.4251   -2.2022 H   0  0  0  0  0  0  0  0  0  0  0  0
   -0.7220    2.7829    1.1564 H   0  0  0  0  0  0  0  0  0  0  0  0
   -1.0893    2.1044    3.2279 H   0  0  0  0  0  0  0  0  0  0  0  0
   -5.9039   -1.2626    2.2559 H   0  0  0  0  0  0  0  0  0  0  0  0
   -5.4569   -2.8345    4.2782 H   0  0  0  0  0  0  0  0  0  0  0  0
   -0.8047   -2.0231   -0.0807 H   0  0  0  0  0  0  0  0  0  0  0  0
   -0.6675    0.2258   -2.8997 H   0  0  0  0  0  0  0  0  0  0  0  0
    2.6005    0.7355   -3.7251 H   0  0  0  0  0  0  0  0  0  0  0  0
    4.5307    1.9902   -2.8160 H   0  0  0  0  0  0  0  0  0  0  0  0
    4.2698   -0.2450    0.8599 H   0  0  0  0  0  0  0  0  0  0  0  0
    2.3435   -1.5097   -0.0362 H   0  0  0  0  0  0  0  0  0  0  0  0
  1  2  1  0
  2  3  2  0
  3  4  1  0
  4  5  1  0
  4  6  2  0
  6  7  1  0
  7  8  1  0
  8  9  1  0
  9 10  2  0
 10 11  1  0
 11 12  1  0
  6 13  1  0
 13 14  2  0
 14 15  1  0
 15 16  1  0
 16 17  2  0
 16 18  2  0
 16 19  1  0
 19 20  2  0
 20 21  1  0
 21 22  2  0
 22 23  1  0
 22 24  1  0
 24 25  2  0
 14  2  1  0
 25 19  1  0
 12  8  2  0
  1 26  1  0
  1 27  1  0
  1 28  1  0
  3 29  1  0
  5 30  1  0
 10 31  1  0
 11 32  1  0
 13 33  1  0
 15 34  1  0
 20 35  1  0
 21 36  1  0
 24 37  1  0
 25 38  1  0
M  END
$$$$
