
     RDKit          3D

 52 54  0  0  0  0  0  0  0  0999 V2000
    7.7659    0.8034   -2.9596 C   0  0  0  0  0  0  0  0  0  0  0  0
    6.8589   -0.2544   -2.4048 C   0  0  0  0  0  0  0  0  0  0  0  0
    6.4239   -0.1884   -1.0767 C   0  0  0  0  0  0  0  0  0  0  0  0
    5.5526   -1.1542   -0.5681 C   0  0  0  0  0  0  0  0  0  0  0  0
    5.0974   -2.2018   -1.3797 C   0  0  0  0  0  0  0  0  0  0  0  0
    4.1371   -3.2250   -0.8333 C   0  0  0  0  0  0  0  0  0  0  0  0
    2.7774   -2.7688   -0.9543 N   0  0  0  0  0  0  0  0  0  0  0  0
    2.1186   -2.1379    0.0732 C   0  0  0  0  0  0  0  0  0  0  0  0
    2.5130   -2.0152    1.2243 O   0  0  0  0  0  0  0  0  0  0  0  0
    0.7526   -1.5460   -0.3443 C   0  0  0  0  0  0  0  0  0  0  0  0
    0.3136   -1.7471   -1.4677 O   0  0  0  0  0  0  0  0  0  0  0  0
    0.1348   -0.8273    0.6514 N   0  0  0  0  0  0  0  0  0  0  0  0
   -1.2429   -0.3822    0.5318 C   0  0  0  0  0  0  0  0  0  0  0  0
   -1.6135    0.6716    1.5920 C   0  0  0  0  0  0  0  0  0  0  0  0
   -1.3792    0.1072    2.9054 O   0  0  0  0  0  0  0  0  0  0  0  0
   -2.6582   -0.1127    3.5049 C   0  0  0  0  0  0  0  0  0  0  0  0
   -3.5404    0.9581    2.9084 C   0  0  0  0  0  0  0  0  0  0  0  0
   -3.0523    1.0089    1.5230 N   0  0  0  0  0  0  0  0  0  0  0  0
   -3.3822    2.4011    0.6285 S   0  0  0  0  0  6  0  0  0  0  0  0
   -2.8536    2.2107   -0.7035 O   0  0  0  0  0  0  0  0  0  0  0  0
   -3.0011    3.5431    1.4309 O   0  0  0  0  0  0  0  0  0  0  0  0
   -5.1535    2.3604    0.5115 C   0  0  0  0  0  0  0  0  0  0  0  0
   -5.9257    3.2840    1.2225 C   0  0  0  0  0  0  0  0  0  0  0  0
   -7.3172    3.2403    1.1156 C   0  0  0  0  0  0  0  0  0  0  0  0
   -7.9206    2.2828    0.2979 C   0  0  0  0  0  0  0  0  0  0  0  0
   -9.8051    2.2274    0.1579 Br  0  0  0  0  0  0  0  0  0  0  0  0
   -7.1477    1.3682   -0.4196 C   0  0  0  0  0  0  0  0  0  0  0  0
   -5.7563    1.4072   -0.3165 C   0  0  0  0  0  0  0  0  0  0  0  0
    5.5141   -2.2521   -2.7163 C   0  0  0  0  0  0  0  0  0  0  0  0
    6.3862   -1.2857   -3.2241 C   0  0  0  0  0  0  0  0  0  0  0  0
    7.1737    1.6345   -3.3550 H   0  0  0  0  0  0  0  0  0  0  0  0
    8.3913    0.4003   -3.7633 H   0  0  0  0  0  0  0  0  0  0  0  0
    8.4395    1.1851   -2.1847 H   0  0  0  0  0  0  0  0  0  0  0  0
    6.7578    0.6185   -0.4281 H   0  0  0  0  0  0  0  0  0  0  0  0
    5.2221   -1.0815    0.4670 H   0  0  0  0  0  0  0  0  0  0  0  0
    4.2206   -4.1636   -1.3922 H   0  0  0  0  0  0  0  0  0  0  0  0
    4.3737   -3.4479    0.2135 H   0  0  0  0  0  0  0  0  0  0  0  0
    2.3592   -2.6802   -1.8759 H   0  0  0  0  0  0  0  0  0  0  0  0
    0.5443   -0.9103    1.5812 H   0  0  0  0  0  0  0  0  0  0  0  0
   -1.8656   -1.2771    0.6522 H   0  0  0  0  0  0  0  0  0  0  0  0
   -1.4056   -0.0032   -0.4822 H   0  0  0  0  0  0  0  0  0  0  0  0
   -0.9679    1.5529    1.5113 H   0  0  0  0  0  0  0  0  0  0  0  0
   -2.9986   -1.1175    3.2304 H   0  0  0  0  0  0  0  0  0  0  0  0
   -2.5818   -0.0468    4.5934 H   0  0  0  0  0  0  0  0  0  0  0  0
   -3.3674    1.9105    3.4203 H   0  0  0  0  0  0  0  0  0  0  0  0
   -4.5978    0.6910    2.9679 H   0  0  0  0  0  0  0  0  0  0  0  0
   -5.4576    4.0378    1.8521 H   0  0  0  0  0  0  0  0  0  0  0  0
   -7.9208    3.9580    1.6663 H   0  0  0  0  0  0  0  0  0  0  0  0
   -7.6181    0.6285   -1.0630 H   0  0  0  0  0  0  0  0  0  0  0  0
   -5.1500    0.7015   -0.8814 H   0  0  0  0  0  0  0  0  0  0  0  0
    5.1600   -3.0424   -3.3742 H   0  0  0  0  0  0  0  0  0  0  0  0
    6.6926   -1.3416   -4.2663 H   0  0  0  0  0  0  0  0  0  0  0  0
  1  2  1  0
  2  3  2  0
  3  4  1  0
  4  5  2  0
  5  6  1  0
  6  7  1  0
  7  8  1  0
  8  9  2  0
  8 10  1  0
 10 11  2  0
 10 12  1  0
 12 13  1  0
 13 14  1  0
 14 15  1  0
 15 16  1  0
 16 17  1  0
 17 18  1  0
 18 19  1  0
 19 20  2  0
 19 21  2  0
 19 22  1  0
 22 23  2  0
 23 24  1  0
 24 25  2  0
 25 26  1  0
 25 27  1  0
 27 28  2  0
  5 29  1  0
 29 30  2  0
 30  2  1  0
 18 14  1  0
 28 22  1  0
  1 31  1  0
  1 32  1  0
  1 33  1  0
  3 34  1  0
  4 35  1  0
  6 36  1  0
  6 37  1  0
  7 38  1  0
 12 39  1  0
 13 40  1  0
 13 41  1  0
 14 42  1  0
 16 43  1  0
 16 44  1  0
 17 45  1  0
 17 46  1  0
 23 47  1  0
 24 48  1  0
 27 49  1  0
 28 50  1  0
 29 51  1  0
 30 52  1  0
M  END
$$$$
