
     RDKit          3D

 47 49  0  0  0  0  0  0  0  0999 V2000
    8.4224    0.5119    0.9058 C   0  0  0  0  0  0  0  0  0  0  0  0
    7.5188   -0.4212    0.1145 C   0  0  0  0  0  0  0  0  0  0  0  0
    6.0622   -0.0731    0.2887 C   0  0  0  0  0  0  0  0  0  0  0  0
    5.3160   -0.6397    1.3300 C   0  0  0  0  0  0  0  0  0  0  0  0
    3.9724   -0.2993    1.5030 C   0  0  0  0  0  0  0  0  0  0  0  0
    3.3546    0.6039    0.6361 C   0  0  0  0  0  0  0  0  0  0  0  0
    2.0039    0.9325    0.8028 N   0  0  0  0  0  0  0  0  0  0  0  0
    1.1137    0.2351    0.1859 C   0  0  0  0  0  0  0  0  0  0  0  0
    1.3177   -0.8226   -0.6429 N   0  0  0  0  0  0  0  0  0  0  0  0
    0.2191   -1.4164   -1.1914 C   0  0  0  0  0  0  0  0  0  0  0  0
    0.2489   -2.3772   -1.9438 O   0  0  0  0  0  0  0  0  0  0  0  0
   -1.0135   -0.7198   -0.7322 C   0  0  0  0  0  0  0  0  0  0  0  0
   -2.2324   -1.1168   -1.1213 C   0  0  0  0  0  0  0  0  0  0  0  0
   -3.5113   -0.5166   -0.7202 C   0  0  0  0  0  0  0  0  0  0  0  0
   -4.4404   -1.3050   -0.0256 C   0  0  0  0  0  0  0  0  0  0  0  0
   -5.6722   -0.7691    0.3460 C   0  0  0  0  0  0  0  0  0  0  0  0
   -6.6657   -1.4265    1.0281 O   0  0  0  0  0  0  0  0  0  0  0  0
   -6.4026   -2.7736    1.4036 C   0  0  0  0  0  0  0  0  0  0  0  0
   -5.9658    0.5607    0.0099 C   0  0  0  0  0  0  0  0  0  0  0  0
   -7.1839    1.0802    0.3804 O   0  0  0  0  0  0  0  0  0  0  0  0
   -5.0550    1.3635   -0.6865 C   0  0  0  0  0  0  0  0  0  0  0  0
   -5.4567    2.6430   -0.9630 O   0  0  0  0  0  0  0  0  0  0  0  0
   -4.4937    3.5243   -1.5222 C   0  0  0  0  0  0  0  0  0  0  0  0
   -3.8277    0.8093   -1.0574 C   0  0  0  0  0  0  0  0  0  0  0  0
   -0.5929    0.5697    0.3333 S   0  0  0  0  0  0  0  0  0  0  0  0
    4.1026    1.1910   -0.3861 C   0  0  0  0  0  0  0  0  0  0  0  0
    5.4465    0.8534   -0.5626 C   0  0  0  0  0  0  0  0  0  0  0  0
    8.2035    0.4625    1.9778 H   0  0  0  0  0  0  0  0  0  0  0  0
    8.2981    1.5518    0.5853 H   0  0  0  0  0  0  0  0  0  0  0  0
    9.4716    0.2355    0.7609 H   0  0  0  0  0  0  0  0  0  0  0  0
    7.6901   -1.4580    0.4289 H   0  0  0  0  0  0  0  0  0  0  0  0
    7.7828   -0.3796   -0.9493 H   0  0  0  0  0  0  0  0  0  0  0  0
    5.7794   -1.3419    2.0197 H   0  0  0  0  0  0  0  0  0  0  0  0
    3.4063   -0.7344    2.3224 H   0  0  0  0  0  0  0  0  0  0  0  0
    2.2391   -1.1726   -0.8515 H   0  0  0  0  0  0  0  0  0  0  0  0
   -2.3264   -1.9774   -1.7831 H   0  0  0  0  0  0  0  0  0  0  0  0
   -4.1773   -2.3300    0.2152 H   0  0  0  0  0  0  0  0  0  0  0  0
   -7.2798   -3.1478    1.9401 H   0  0  0  0  0  0  0  0  0  0  0  0
   -5.5459   -2.8339    2.0828 H   0  0  0  0  0  0  0  0  0  0  0  0
   -6.2561   -3.4067    0.5223 H   0  0  0  0  0  0  0  0  0  0  0  0
   -7.6406    0.3554    0.8465 H   0  0  0  0  0  0  0  0  0  0  0  0
   -4.9514    4.5152   -1.5992 H   0  0  0  0  0  0  0  0  0  0  0  0
   -3.6132    3.6139   -0.8771 H   0  0  0  0  0  0  0  0  0  0  0  0
   -4.2134    3.2088   -2.5325 H   0  0  0  0  0  0  0  0  0  0  0  0
   -3.1029    1.3908   -1.6180 H   0  0  0  0  0  0  0  0  0  0  0  0
    3.6385    1.9210   -1.0439 H   0  0  0  0  0  0  0  0  0  0  0  0
    6.0127    1.3260   -1.3624 H   0  0  0  0  0  0  0  0  0  0  0  0
  1  2  1  0
  2  3  1  0
  3  4  2  0
  4  5  1  0
  5  6  2  0
  6  7  1  0
  7  8  2  3
  8  9  1  0
  9 10  1  0
 10 11  2  0
 10 12  1  0
 12 13  2  3
 13 14  1  0
 14 15  2  0
 15 16  1  0
 16 17  1  0
 17 18  1  0
 16 19  2  0
 19 20  1  0
 19 21  1  0
 21 22  1  0
 22 23  1  0
 21 24  2  0
 12 25  1  0
  6 26  1  0
 26 27  2  0
 27  3  1  0
 25  8  1  0
 24 14  1  0
  1 28  1  0
  1 29  1  0
  1 30  1  0
  2 31  1  0
  2 32  1  0
  4 33  1  0
  5 34  1  0
  9 35  1  0
 13 36  1  0
 15 37  1  0
 18 38  1  0
 18 39  1  0
 18 40  1  0
 20 41  1  0
 23 42  1  0
 23 43  1  0
 23 44  1  0
 24 45  1  0
 26 46  1  0
 27 47  1  0
M  END
$$$$
