
     RDKit          3D

 31 31  0  0  0  0  0  0  0  0999 V2000
    5.3767    0.1897    1.2826 C   0  0  0  0  0  0  0  0  0  0  0  0
    4.3066    0.3194    0.3586 O   0  0  0  0  0  0  0  0  0  0  0  0
    3.0896   -0.1953    0.8933 C   0  0  0  0  0  0  0  0  0  0  0  0
    2.0500   -0.0462   -0.0757 O   0  0  0  0  0  0  0  0  0  0  0  0
    0.8225   -0.4366    0.4032 C   0  0  0  0  0  0  0  0  0  0  0  0
   -0.3250   -0.0446   -0.1731 C   0  0  0  0  0  0  0  0  0  0  0  0
   -0.2752    0.7800   -1.2749 N   0  0  0  0  0  0  0  0  0  0  0  0
   -1.3259    1.3007   -2.0043 C   0  0  0  0  0  0  0  0  0  0  0  0
   -0.8583    2.1619   -3.1506 C   0  0  0  0  0  0  0  0  0  0  0  0
   -2.5215    1.1448   -1.7835 O   0  0  0  0  0  0  0  0  0  0  0  0
   -1.5899   -0.5201    0.4026 C   0  0  0  0  0  0  0  0  0  0  0  0
   -2.2327    0.2171    1.4059 C   0  0  0  0  0  0  0  0  0  0  0  0
   -3.4110   -0.2588    1.9846 C   0  0  0  0  0  0  0  0  0  0  0  0
   -3.9514   -1.4750    1.5682 C   0  0  0  0  0  0  0  0  0  0  0  0
   -3.3175   -2.2157    0.5711 C   0  0  0  0  0  0  0  0  0  0  0  0
   -2.1393   -1.7416   -0.0092 C   0  0  0  0  0  0  0  0  0  0  0  0
    5.1653    0.7528    2.1968 H   0  0  0  0  0  0  0  0  0  0  0  0
    6.2806    0.5984    0.8229 H   0  0  0  0  0  0  0  0  0  0  0  0
    5.5527   -0.8637    1.5212 H   0  0  0  0  0  0  0  0  0  0  0  0
    3.2202   -1.2592    1.1270 H   0  0  0  0  0  0  0  0  0  0  0  0
    2.8312    0.3650    1.8008 H   0  0  0  0  0  0  0  0  0  0  0  0
    0.8501   -1.0948    1.2629 H   0  0  0  0  0  0  0  0  0  0  0  0
    0.6674    1.0203   -1.5684 H   0  0  0  0  0  0  0  0  0  0  0  0
   -0.7219    3.1878   -2.7989 H   0  0  0  0  0  0  0  0  0  0  0  0
    0.0820    1.7892   -3.5669 H   0  0  0  0  0  0  0  0  0  0  0  0
   -1.6095    2.1452   -3.9455 H   0  0  0  0  0  0  0  0  0  0  0  0
   -1.8261    1.1722    1.7281 H   0  0  0  0  0  0  0  0  0  0  0  0
   -3.9124    0.3248    2.7518 H   0  0  0  0  0  0  0  0  0  0  0  0
   -4.8738   -1.8398    2.0122 H   0  0  0  0  0  0  0  0  0  0  0  0
   -3.7453   -3.1572    0.2378 H   0  0  0  0  0  0  0  0  0  0  0  0
   -1.6580   -2.3209   -0.7931 H   0  0  0  0  0  0  0  0  0  0  0  0
  1  2  1  0
  2  3  1  0
  3  4  1  0
  4  5  1  0
  5  6  2  3
  6  7  1  0
  7  8  1  0
  8  9  1  0
  8 10  2  0
  6 11  1  0
 11 12  2  0
 12 13  1  0
 13 14  2  0
 14 15  1  0
 15 16  2  0
 16 11  1  0
  1 17  1  0
  1 18  1  0
  1 19  1  0
  3 20  1  0
  3 21  1  0
  5 22  1  0
  7 23  1  0
  9 24  1  0
  9 25  1  0
  9 26  1  0
 12 27  1  0
 13 28  1  0
 14 29  1  0
 15 30  1  0
 16 31  1  0
M  END
$$$$
