
     RDKit          3D

 60 63  0  0  0  0  0  0  0  0999 V2000
    6.5270   -1.1186    5.1977 C   0  0  0  0  0  0  0  0  0  0  0  0
    5.3007   -1.4727    4.5691 O   0  0  0  0  0  0  0  0  0  0  0  0
    5.2737   -1.4329    3.2021 C   0  0  0  0  0  0  0  0  0  0  0  0
    6.3614   -1.1732    2.3679 C   0  0  0  0  0  0  0  0  0  0  0  0
    6.1976   -1.1608    0.9769 C   0  0  0  0  0  0  0  0  0  0  0  0
    4.9444   -1.4146    0.4023 C   0  0  0  0  0  0  0  0  0  0  0  0
    4.7563   -1.3798   -1.0929 C   0  0  0  0  0  0  0  0  0  0  0  0
    4.0800   -0.1652   -1.4943 N   0  0  0  0  0  0  0  0  0  0  0  0
    2.7320   -0.1615   -1.8137 C   0  0  0  0  0  0  0  0  0  0  0  0
    2.0760   -1.1973   -1.9132 O   0  0  0  0  0  0  0  0  0  0  0  0
    2.1559    1.2486   -2.0675 C   0  0  0  0  0  0  0  0  0  0  0  0
    2.7233    1.8303   -3.3618 C   0  0  0  0  0  0  0  0  0  0  0  0
    0.6924    1.1866   -2.0424 N   0  0  0  0  0  0  0  0  0  0  0  0
    0.0299    1.0260   -3.2687 N   0  0  0  0  0  0  0  0  0  0  0  0
   -1.2598    0.8421   -3.3189 C   0  0  0  0  0  0  0  0  0  0  0  0
   -1.8998    0.6657   -4.6652 C   0  0  0  0  0  0  0  0  0  0  0  0
   -2.0235    0.8278   -2.0953 C   0  0  0  0  0  0  0  0  0  0  0  0
   -3.3751    0.7513   -1.8004 C   0  0  0  0  0  0  0  0  0  0  0  0
   -4.5529    0.7888   -2.7075 C   0  0  0  0  0  0  0  0  0  0  0  0
   -3.4471    0.6984   -0.4023 N   0  0  0  0  0  0  0  0  0  0  0  0
   -4.5492    0.4143    0.4645 C   0  0  0  0  0  0  0  0  0  0  0  0
   -4.4467    0.7522    1.8246 C   0  0  0  0  0  0  0  0  0  0  0  0
   -5.5000    0.4936    2.7069 C   0  0  0  0  0  0  0  0  0  0  0  0
   -6.6696   -0.1218    2.2515 C   0  0  0  0  0  0  0  0  0  0  0  0
   -7.7876   -0.4038    3.2104 C   0  0  0  0  0  0  0  0  0  0  0  0
   -6.7612   -0.4890    0.9055 C   0  0  0  0  0  0  0  0  0  0  0  0
   -5.7080   -0.2305    0.0189 C   0  0  0  0  0  0  0  0  0  0  0  0
   -2.2371    0.9740    0.1549 N   0  0  0  0  0  0  0  0  0  0  0  0
   -1.3762    0.9720   -0.8653 C   0  0  0  0  0  0  0  0  0  0  0  0
    0.0673    1.1444   -0.7772 C   0  0  0  0  0  0  0  0  0  0  0  0
    0.6809    1.2604    0.2828 O   0  0  0  0  0  0  0  0  0  0  0  0
    3.8564   -1.6748    1.2463 C   0  0  0  0  0  0  0  0  0  0  0  0
    4.0226   -1.6846    2.6336 C   0  0  0  0  0  0  0  0  0  0  0  0
    6.3643   -1.1336    6.2796 H   0  0  0  0  0  0  0  0  0  0  0  0
    6.8363   -0.1039    4.9258 H   0  0  0  0  0  0  0  0  0  0  0  0
    7.3102   -1.8455    4.9658 H   0  0  0  0  0  0  0  0  0  0  0  0
    7.3527   -0.9789    2.7655 H   0  0  0  0  0  0  0  0  0  0  0  0
    7.0611   -0.9543    0.3464 H   0  0  0  0  0  0  0  0  0  0  0  0
    5.7272   -1.3837   -1.6007 H   0  0  0  0  0  0  0  0  0  0  0  0
    4.2115   -2.2692   -1.4273 H   0  0  0  0  0  0  0  0  0  0  0  0
    4.5059    0.7050   -1.2041 H   0  0  0  0  0  0  0  0  0  0  0  0
    2.4774    1.8881   -1.2352 H   0  0  0  0  0  0  0  0  0  0  0  0
    3.8084    1.9577   -3.2928 H   0  0  0  0  0  0  0  0  0  0  0  0
    2.2818    2.8093   -3.5769 H   0  0  0  0  0  0  0  0  0  0  0  0
    2.5303    1.1744   -4.2178 H   0  0  0  0  0  0  0  0  0  0  0  0
   -2.5920   -0.1798   -4.6496 H   0  0  0  0  0  0  0  0  0  0  0  0
   -2.4363    1.5785   -4.9332 H   0  0  0  0  0  0  0  0  0  0  0  0
   -1.1363    0.4773   -5.4253 H   0  0  0  0  0  0  0  0  0  0  0  0
   -4.8366   -0.2199   -3.0228 H   0  0  0  0  0  0  0  0  0  0  0  0
   -5.4122    1.2839   -2.2456 H   0  0  0  0  0  0  0  0  0  0  0  0
   -4.3355    1.3690   -3.6063 H   0  0  0  0  0  0  0  0  0  0  0  0
   -3.5493    1.2304    2.2177 H   0  0  0  0  0  0  0  0  0  0  0  0
   -5.3934    0.7676    3.7546 H   0  0  0  0  0  0  0  0  0  0  0  0
   -8.6655   -0.8112    2.6968 H   0  0  0  0  0  0  0  0  0  0  0  0
   -8.0954    0.5194    3.7133 H   0  0  0  0  0  0  0  0  0  0  0  0
   -7.4647   -1.1331    3.9606 H   0  0  0  0  0  0  0  0  0  0  0  0
   -7.6500   -0.9984    0.5364 H   0  0  0  0  0  0  0  0  0  0  0  0
   -5.8169   -0.5944   -0.9943 H   0  0  0  0  0  0  0  0  0  0  0  0
    2.8689   -1.8654    0.8281 H   0  0  0  0  0  0  0  0  0  0  0  0
    3.1646   -1.8848    3.2748 H   0  0  0  0  0  0  0  0  0  0  0  0
  1  2  1  0
  2  3  1  0
  3  4  2  0
  4  5  1  0
  5  6  2  0
  6  7  1  0
  7  8  1  0
  8  9  1  0
  9 10  2  0
  9 11  1  0
 11 12  1  0
 11 13  1  0
 13 14  1  0
 14 15  2  0
 15 16  1  0
 15 17  1  0
 17 18  2  0
 18 19  1  0
 18 20  1  0
 20 21  1  0
 21 22  2  0
 22 23  1  0
 23 24  2  0
 24 25  1  0
 24 26  1  0
 26 27  2  0
 20 28  1  0
 28 29  2  0
 29 30  1  0
 30 31  2  0
  6 32  1  0
 32 33  2  0
 33  3  1  0
 30 13  1  0
 29 17  1  0
 27 21  1  0
  1 34  1  0
  1 35  1  0
  1 36  1  0
  4 37  1  0
  5 38  1  0
  7 39  1  0
  7 40  1  0
  8 41  1  0
 11 42  1  0
 12 43  1  0
 12 44  1  0
 12 45  1  0
 16 46  1  0
 16 47  1  0
 16 48  1  0
 19 49  1  0
 19 50  1  0
 19 51  1  0
 22 52  1  0
 23 53  1  0
 25 54  1  0
 25 55  1  0
 25 56  1  0
 26 57  1  0
 27 58  1  0
 32 59  1  0
 33 60  1  0
M  END
$$$$
