
     RDKit          3D

 40 42  0  0  0  0  0  0  0  0999 V2000
   -5.5295   -0.8262   -0.0207 C   0  0  0  0  0  0  0  0  0  0  0  0
   -4.4999   -0.3968    1.0407 C   0  0  0  0  0  0  0  0  0  0  0  0
   -4.2073   -1.5755    1.9872 C   0  0  0  0  0  0  0  0  0  0  0  0
   -5.1245    0.7413    1.8767 C   0  0  0  0  0  0  0  0  0  0  0  0
   -3.2194    0.0917    0.3797 C   0  0  0  0  0  0  0  0  0  0  0  0
   -2.7245    1.3087    0.5066 N   0  0  0  0  0  0  0  0  0  0  0  0
   -1.5523    1.4787   -0.1998 N   0  0  0  0  0  0  0  0  0  0  0  0
   -1.1944    0.3882   -0.8376 C   0  0  0  0  0  0  0  0  0  0  0  0
   -0.0617    0.3311   -1.6059 N   0  0  0  0  0  0  0  0  0  0  0  0
    0.4368   -0.7596   -2.2806 C   0  0  0  0  0  0  0  0  0  0  0  0
   -0.0507   -1.8842   -2.3384 O   0  0  0  0  0  0  0  0  0  0  0  0
    1.7236   -0.4319   -3.0469 C   0  0  0  0  0  0  0  0  0  0  0  0
    2.4678    0.6552   -2.5117 O   0  0  0  0  0  0  0  0  0  0  0  0
    3.2786    0.4136   -1.4344 C   0  0  0  0  0  0  0  0  0  0  0  0
    3.3623   -0.7955   -0.7178 C   0  0  0  0  0  0  0  0  0  0  0  0
    4.2215   -0.9141    0.3828 C   0  0  0  0  0  0  0  0  0  0  0  0
    4.9726    0.1843    0.7371 C   0  0  0  0  0  0  0  0  0  0  0  0
    4.8911    1.3657    0.0423 C   0  0  0  0  0  0  0  0  0  0  0  0
    4.0548    1.5114   -1.0438 C   0  0  0  0  0  0  0  0  0  0  0  0
    5.7095    2.3248    0.5516 O   0  0  0  0  0  0  0  0  0  0  0  0
    6.3134    1.6105    1.6505 C   0  0  0  0  0  0  0  0  0  0  0  0
    5.8518    0.2486    1.7713 O   0  0  0  0  0  0  0  0  0  0  0  0
   -2.2570   -0.9232   -0.6321 S   0  0  0  0  0  0  0  0  0  0  0  0
   -5.7353   -0.0127   -0.7264 H   0  0  0  0  0  0  0  0  0  0  0  0
   -5.1821   -1.6869   -0.6031 H   0  0  0  0  0  0  0  0  0  0  0  0
   -6.4797   -1.1131    0.4446 H   0  0  0  0  0  0  0  0  0  0  0  0
   -5.1128   -1.8876    2.5204 H   0  0  0  0  0  0  0  0  0  0  0  0
   -3.8328   -2.4516    1.4461 H   0  0  0  0  0  0  0  0  0  0  0  0
   -3.4545   -1.3052    2.7371 H   0  0  0  0  0  0  0  0  0  0  0  0
   -4.4400    1.0825    2.6625 H   0  0  0  0  0  0  0  0  0  0  0  0
   -6.0502    0.4142    2.3642 H   0  0  0  0  0  0  0  0  0  0  0  0
   -5.3690    1.6088    1.2520 H   0  0  0  0  0  0  0  0  0  0  0  0
    0.4810    1.1875   -1.6105 H   0  0  0  0  0  0  0  0  0  0  0  0
    2.3429   -1.3297   -3.1564 H   0  0  0  0  0  0  0  0  0  0  0  0
    1.4156   -0.1393   -4.0575 H   0  0  0  0  0  0  0  0  0  0  0  0
    2.7708   -1.6671   -0.9822 H   0  0  0  0  0  0  0  0  0  0  0  0
    4.2927   -1.8408    0.9418 H   0  0  0  0  0  0  0  0  0  0  0  0
    4.0052    2.4534   -1.5786 H   0  0  0  0  0  0  0  0  0  0  0  0
    7.4001    1.6010    1.5076 H   0  0  0  0  0  0  0  0  0  0  0  0
    6.0855    2.1420    2.5817 H   0  0  0  0  0  0  0  0  0  0  0  0
  1  2  1  0
  2  3  1  0
  2  4  1  0
  2  5  1  0
  5  6  2  0
  6  7  1  0
  7  8  2  0
  8  9  1  0
  9 10  1  0
 10 11  2  0
 10 12  1  0
 12 13  1  0
 13 14  1  0
 14 15  2  0
 15 16  1  0
 16 17  2  0
 17 18  1  0
 18 19  2  0
 18 20  1  0
 20 21  1  0
 21 22  1  0
  8 23  1  0
 23  5  1  0
 19 14  1  0
 22 17  1  0
  1 24  1  0
  1 25  1  0
  1 26  1  0
  3 27  1  0
  3 28  1  0
  3 29  1  0
  4 30  1  0
  4 31  1  0
  4 32  1  0
  9 33  1  0
 12 34  1  0
 12 35  1  0
 15 36  1  0
 16 37  1  0
 19 38  1  0
 21 39  1  0
 21 40  1  0
M  END
$$$$
