
     RDKit          3D

 37 39  0  0  0  0  0  0  0  0999 V2000
   -7.6020    0.4327    1.0015 C   0  0  0  0  0  0  0  0  0  0  0  0
   -6.9841    0.1785   -0.3643 C   0  0  0  0  0  0  0  0  0  0  0  0
   -5.5078   -0.0166   -0.2704 C   0  0  0  0  0  0  0  0  0  0  0  0
   -4.9178   -1.1653   -0.0122 N   0  0  0  0  0  0  0  0  0  0  0  0
   -3.5427   -1.0431    0.0132 N   0  0  0  0  0  0  0  0  0  0  0  0
   -3.1479    0.1877   -0.2274 C   0  0  0  0  0  0  0  0  0  0  0  0
   -1.8246    0.5382   -0.2520 N   0  0  0  0  0  0  0  0  0  0  0  0
   -1.2881    1.7817   -0.4891 C   0  0  0  0  0  0  0  0  0  0  0  0
   -1.9012    2.8190   -0.7245 O   0  0  0  0  0  0  0  0  0  0  0  0
    0.2430    1.7867   -0.4358 C   0  0  0  0  0  0  0  0  0  0  0  0
    0.7521    0.4863   -0.1492 O   0  0  0  0  0  0  0  0  0  0  0  0
    2.1118    0.3543   -0.0789 C   0  0  0  0  0  0  0  0  0  0  0  0
    3.0442    1.3730   -0.2618 C   0  0  0  0  0  0  0  0  0  0  0  0
    4.4126    1.0975   -0.1626 C   0  0  0  0  0  0  0  0  0  0  0  0
    4.8696   -0.1985    0.1207 C   0  0  0  0  0  0  0  0  0  0  0  0
    6.2400   -0.4886    0.2219 C   0  0  0  0  0  0  0  0  0  0  0  0
    6.6751   -1.7843    0.5042 C   0  0  0  0  0  0  0  0  0  0  0  0
    5.7470   -2.8048    0.6891 C   0  0  0  0  0  0  0  0  0  0  0  0
    4.3816   -2.5320    0.5919 C   0  0  0  0  0  0  0  0  0  0  0  0
    3.9277   -1.2336    0.3077 C   0  0  0  0  0  0  0  0  0  0  0  0
    2.5577   -0.9403    0.2047 C   0  0  0  0  0  0  0  0  0  0  0  0
   -4.4169    1.2894   -0.5018 S   0  0  0  0  0  0  0  0  0  0  0  0
   -7.1967    1.3419    1.4584 H   0  0  0  0  0  0  0  0  0  0  0  0
   -8.6862    0.5529    0.9104 H   0  0  0  0  0  0  0  0  0  0  0  0
   -7.4087   -0.4010    1.6852 H   0  0  0  0  0  0  0  0  0  0  0  0
   -7.2259    1.0086   -1.0383 H   0  0  0  0  0  0  0  0  0  0  0  0
   -7.4340   -0.7209   -0.8012 H   0  0  0  0  0  0  0  0  0  0  0  0
   -1.1811   -0.2246   -0.0715 H   0  0  0  0  0  0  0  0  0  0  0  0
    0.5963    2.1235   -1.4173 H   0  0  0  0  0  0  0  0  0  0  0  0
    0.5340    2.4885    0.3540 H   0  0  0  0  0  0  0  0  0  0  0  0
    2.7499    2.3935   -0.4831 H   0  0  0  0  0  0  0  0  0  0  0  0
    5.1234    1.9082   -0.3093 H   0  0  0  0  0  0  0  0  0  0  0  0
    6.9808    0.2953    0.0805 H   0  0  0  0  0  0  0  0  0  0  0  0
    7.7387   -1.9957    0.5793 H   0  0  0  0  0  0  0  0  0  0  0  0
    6.0844   -3.8144    0.9083 H   0  0  0  0  0  0  0  0  0  0  0  0
    3.6717   -3.3431    0.7397 H   0  0  0  0  0  0  0  0  0  0  0  0
    1.8239   -1.7310    0.3471 H   0  0  0  0  0  0  0  0  0  0  0  0
  1  2  1  0
  2  3  1  0
  3  4  2  0
  4  5  1  0
  5  6  2  0
  6  7  1  0
  7  8  1  0
  8  9  2  0
  8 10  1  0
 10 11  1  0
 11 12  1  0
 12 13  2  0
 13 14  1  0
 14 15  2  0
 15 16  1  0
 16 17  2  0
 17 18  1  0
 18 19  2  0
 19 20  1  0
 20 21  2  0
  6 22  1  0
 22  3  1  0
 21 12  1  0
 20 15  1  0
  1 23  1  0
  1 24  1  0
  1 25  1  0
  2 26  1  0
  2 27  1  0
  7 28  1  0
 10 29  1  0
 10 30  1  0
 13 31  1  0
 14 32  1  0
 16 33  1  0
 17 34  1  0
 18 35  1  0
 19 36  1  0
 21 37  1  0
M  END
$$$$
