
     RDKit          3D

 57 60  0  0  0  0  0  0  0  0999 V2000
   -0.2543    2.7273    4.0463 C   0  0  0  0  0  0  0  0  0  0  0  0
   -0.8733    1.5665    3.4916 O   0  0  0  0  0  0  0  0  0  0  0  0
   -0.0533    0.8242    2.6884 C   0  0  0  0  0  0  0  0  0  0  0  0
    1.2238    0.4360    3.1107 C   0  0  0  0  0  0  0  0  0  0  0  0
    2.0188   -0.3835    2.3025 C   0  0  0  0  0  0  0  0  0  0  0  0
    1.5347   -0.8309    1.0679 C   0  0  0  0  0  0  0  0  0  0  0  0
    2.3385   -1.7266    0.1966 C   0  0  0  0  0  0  0  0  0  0  0  0
    1.7788   -2.5818   -0.4783 O   0  0  0  0  0  0  0  0  0  0  0  0
    3.6971   -1.4993    0.1889 N   0  0  0  0  0  0  0  0  0  0  0  0
    4.5627   -2.1880   -0.7434 C   0  0  0  0  0  0  0  0  0  0  0  0
    4.8145   -1.3392   -1.9641 C   0  0  0  0  0  0  0  0  0  0  0  0
    3.8652   -1.3116   -3.0135 C   0  0  0  0  0  0  0  0  0  0  0  0
    4.0625   -0.5137   -4.1448 C   0  0  0  0  0  0  0  0  0  0  0  0
    5.2093    0.2474   -4.1978 C   0  0  0  0  0  0  0  0  0  0  0  0
    6.1331    0.2368   -3.1795 C   0  0  0  0  0  0  0  0  0  0  0  0
    5.9666   -0.5403   -2.0520 C   0  0  0  0  0  0  0  0  0  0  0  0
    7.1852    1.0645   -3.4244 O   0  0  0  0  0  0  0  0  0  0  0  0
    6.8189    1.5906   -4.7182 C   0  0  0  0  0  0  0  0  0  0  0  0
    5.5650    1.0793   -5.2132 O   0  0  0  0  0  0  0  0  0  0  0  0
    0.2515   -0.4684    0.6492 C   0  0  0  0  0  0  0  0  0  0  0  0
   -0.5381    0.3563    1.4620 C   0  0  0  0  0  0  0  0  0  0  0  0
   -2.1446    0.8472    0.8808 S   0  0  0  0  0  6  0  0  0  0  0  0
   -2.3481    0.2325   -0.4157 O   0  0  0  0  0  0  0  0  0  0  0  0
   -2.2344    2.2860    1.0228 O   0  0  0  0  0  0  0  0  0  0  0  0
   -3.1995    0.0979    1.9769 N   0  0  0  0  0  0  0  0  0  0  0  0
   -3.2396   -1.3740    1.9478 C   0  0  0  0  0  0  0  0  0  0  0  0
   -4.5174    0.7469    2.1538 C   0  0  0  0  0  0  0  0  0  0  0  0
   -5.5715    0.4012    1.1273 C   0  0  0  0  0  0  0  0  0  0  0  0
   -6.5418   -0.5761    1.4011 C   0  0  0  0  0  0  0  0  0  0  0  0
   -7.5079   -0.9045    0.4481 C   0  0  0  0  0  0  0  0  0  0  0  0
   -7.5149   -0.2611   -0.7882 C   0  0  0  0  0  0  0  0  0  0  0  0
   -6.5579    0.7112   -1.0720 C   0  0  0  0  0  0  0  0  0  0  0  0
   -5.5925    1.0428   -0.1194 C   0  0  0  0  0  0  0  0  0  0  0  0
    0.3756    3.2461    3.3129 H   0  0  0  0  0  0  0  0  0  0  0  0
   -1.0503    3.4143    4.3491 H   0  0  0  0  0  0  0  0  0  0  0  0
    0.3246    2.4684    4.9410 H   0  0  0  0  0  0  0  0  0  0  0  0
    1.6018    0.7359    4.0844 H   0  0  0  0  0  0  0  0  0  0  0  0
    2.9939   -0.6985    2.6659 H   0  0  0  0  0  0  0  0  0  0  0  0
    4.0468   -0.6355    0.5799 H   0  0  0  0  0  0  0  0  0  0  0  0
    5.5040   -2.3935   -0.2212 H   0  0  0  0  0  0  0  0  0  0  0  0
    4.1340   -3.1545   -1.0329 H   0  0  0  0  0  0  0  0  0  0  0  0
    2.9611   -1.9159   -2.9401 H   0  0  0  0  0  0  0  0  0  0  0  0
    3.3372   -0.4917   -4.9493 H   0  0  0  0  0  0  0  0  0  0  0  0
    6.7125   -0.5264   -1.2645 H   0  0  0  0  0  0  0  0  0  0  0  0
    6.7481    2.6822   -4.6443 H   0  0  0  0  0  0  0  0  0  0  0  0
    7.6078    1.3362   -5.4356 H   0  0  0  0  0  0  0  0  0  0  0  0
   -0.1230   -0.8288   -0.3081 H   0  0  0  0  0  0  0  0  0  0  0  0
   -2.2425   -1.7904    2.1110 H   0  0  0  0  0  0  0  0  0  0  0  0
   -3.8720   -1.7489    2.7581 H   0  0  0  0  0  0  0  0  0  0  0  0
   -3.6314   -1.7465    0.9978 H   0  0  0  0  0  0  0  0  0  0  0  0
   -4.4064    1.8373    2.2066 H   0  0  0  0  0  0  0  0  0  0  0  0
   -4.8855    0.4760    3.1530 H   0  0  0  0  0  0  0  0  0  0  0  0
   -6.5499   -1.0902    2.3597 H   0  0  0  0  0  0  0  0  0  0  0  0
   -8.2536   -1.6638    0.6676 H   0  0  0  0  0  0  0  0  0  0  0  0
   -8.2630   -0.5188   -1.5331 H   0  0  0  0  0  0  0  0  0  0  0  0
   -6.5566    1.2098   -2.0384 H   0  0  0  0  0  0  0  0  0  0  0  0
   -4.8503    1.8015   -0.3623 H   0  0  0  0  0  0  0  0  0  0  0  0
  1  2  1  0
  2  3  1  0
  3  4  2  0
  4  5  1  0
  5  6  2  0
  6  7  1  0
  7  8  2  0
  7  9  1  0
  9 10  1  0
 10 11  1  0
 11 12  2  0
 12 13  1  0
 13 14  2  0
 14 15  1  0
 15 16  2  0
 15 17  1  0
 17 18  1  0
 18 19  1  0
  6 20  1  0
 20 21  2  0
 21 22  1  0
 22 23  2  0
 22 24  2  0
 22 25  1  0
 25 26  1  0
 25 27  1  0
 27 28  1  0
 28 29  2  0
 29 30  1  0
 30 31  2  0
 31 32  1  0
 32 33  2  0
 21  3  1  0
 33 28  1  0
 16 11  1  0
 19 14  1  0
  1 34  1  0
  1 35  1  0
  1 36  1  0
  4 37  1  0
  5 38  1  0
  9 39  1  0
 10 40  1  0
 10 41  1  0
 12 42  1  0
 13 43  1  0
 16 44  1  0
 18 45  1  0
 18 46  1  0
 20 47  1  0
 26 48  1  0
 26 49  1  0
 26 50  1  0
 27 51  1  0
 27 52  1  0
 29 53  1  0
 30 54  1  0
 31 55  1  0
 32 56  1  0
 33 57  1  0
M  END
$$$$
