
     RDKit          3D

 39 40  0  0  0  0  0  0  0  0999 V2000
   -1.7124   -1.7726   -1.3662 C   0  0  0  0  0  0  0  0  0  0  0  0
   -2.4514   -0.5487   -0.8647 C   0  0  0  0  0  0  0  0  0  0  0  0
   -1.8245    0.4824   -0.2662 C   0  0  0  0  0  0  0  0  0  0  0  0
   -0.3466    0.5526   -0.1104 C   0  0  0  0  0  0  0  0  0  0  0  0
    0.4896    0.2606   -1.0591 N   0  0  0  0  0  0  0  0  0  0  0  0
    1.8259    0.3393   -0.7534 N   0  0  0  0  0  0  0  0  0  0  0  0
    2.3703   -0.1807    0.4174 C   0  0  0  0  0  0  0  0  0  0  0  0
    1.7276   -0.6872    1.3365 O   0  0  0  0  0  0  0  0  0  0  0  0
    3.8568   -0.1679    0.5161 C   0  0  0  0  0  0  0  0  0  0  0  0
    4.6294    0.7500   -0.2107 C   0  0  0  0  0  0  0  0  0  0  0  0
    6.0217    0.7222   -0.1026 C   0  0  0  0  0  0  0  0  0  0  0  0
    7.0587    1.9580   -1.0897 Br  0  0  0  0  0  0  0  0  0  0  0  0
    6.6564   -0.2018    0.7256 C   0  0  0  0  0  0  0  0  0  0  0  0
    5.8921   -1.1017    1.4670 C   0  0  0  0  0  0  0  0  0  0  0  0
    4.5018   -1.0771    1.3704 C   0  0  0  0  0  0  0  0  0  0  0  0
    3.8295   -1.9817    2.1483 O   0  0  0  0  0  0  0  0  0  0  0  0
   -2.6234    1.5918    0.3021 C   0  0  0  0  0  0  0  0  0  0  0  0
   -2.0484    2.5459    0.8262 O   0  0  0  0  0  0  0  0  0  0  0  0
   -3.9940    1.4883    0.2017 N   0  0  0  0  0  0  0  0  0  0  0  0
   -4.8056    2.5568    0.7540 C   0  0  0  0  0  0  0  0  0  0  0  0
   -4.6489    0.4940   -0.5089 C   0  0  0  0  0  0  0  0  0  0  0  0
   -5.8712    0.5127   -0.6670 O   0  0  0  0  0  0  0  0  0  0  0  0
   -3.8417   -0.5217   -1.0280 N   0  0  0  0  0  0  0  0  0  0  0  0
   -4.5213   -1.5915   -1.7585 C   0  0  0  0  0  0  0  0  0  0  0  0
   -0.7228   -1.8951   -0.9185 H   0  0  0  0  0  0  0  0  0  0  0  0
   -2.2458   -2.6925   -1.1046 H   0  0  0  0  0  0  0  0  0  0  0  0
   -1.5966   -1.7300   -2.4538 H   0  0  0  0  0  0  0  0  0  0  0  0
   -0.0122    0.9449    0.8675 H   0  0  0  0  0  0  0  0  0  0  0  0
    2.4175    0.3564   -1.5794 H   0  0  0  0  0  0  0  0  0  0  0  0
    4.1633    1.5031   -0.8398 H   0  0  0  0  0  0  0  0  0  0  0  0
    7.7401   -0.2238    0.8100 H   0  0  0  0  0  0  0  0  0  0  0  0
    6.3765   -1.8178    2.1265 H   0  0  0  0  0  0  0  0  0  0  0  0
    2.8712   -1.7600    2.1164 H   0  0  0  0  0  0  0  0  0  0  0  0
   -4.2733    3.1078    1.5345 H   0  0  0  0  0  0  0  0  0  0  0  0
   -5.0647    3.2464   -0.0559 H   0  0  0  0  0  0  0  0  0  0  0  0
   -5.7293    2.1522    1.1796 H   0  0  0  0  0  0  0  0  0  0  0  0
   -5.5589   -1.3386   -1.9936 H   0  0  0  0  0  0  0  0  0  0  0  0
   -4.0095   -1.7802   -2.7072 H   0  0  0  0  0  0  0  0  0  0  0  0
   -4.5257   -2.4951   -1.1412 H   0  0  0  0  0  0  0  0  0  0  0  0
  1  2  1  0
  2  3  2  0
  3  4  1  0
  4  5  2  3
  5  6  1  0
  6  7  1  0
  7  8  2  0
  7  9  1  0
  9 10  2  0
 10 11  1  0
 11 12  1  0
 11 13  2  0
 13 14  1  0
 14 15  2  0
 15 16  1  0
  3 17  1  0
 17 18  2  0
 17 19  1  0
 19 20  1  0
 19 21  1  0
 21 22  2  0
 21 23  1  0
 23 24  1  0
 23  2  1  0
 15  9  1  0
  1 25  1  0
  1 26  1  0
  1 27  1  0
  4 28  1  0
  6 29  1  0
 10 30  1  0
 13 31  1  0
 14 32  1  0
 16 33  1  0
 20 34  1  0
 20 35  1  0
 20 36  1  0
 24 37  1  0
 24 38  1  0
 24 39  1  0
M  END
$$$$
