
     RDKit          3D

 52 56  0  0  0  0  0  0  0  0999 V2000
    2.4544   -1.7318    2.7713 O   0  0  0  0  0  0  0  0  0  0  0  0
    2.1361   -1.9755    1.6101 C   0  0  0  0  0  0  0  0  0  0  0  0
    1.4198   -3.2709    1.2604 C   0  0  0  0  0  0  0  0  0  0  0  0
   -0.3791   -3.0460    1.2585 S   0  0  0  0  0  0  0  0  0  0  0  0
   -0.6315   -2.2640   -0.2695 C   0  0  0  0  0  0  0  0  0  0  0  0
    0.3232   -2.0418   -1.1439 N   0  0  0  0  0  0  0  0  0  0  0  0
   -0.2400   -1.5174   -2.2652 N   0  0  0  0  0  0  0  0  0  0  0  0
   -1.5479   -1.4327   -2.0738 C   0  0  0  0  0  0  0  0  0  0  0  0
   -2.4947   -0.8007   -3.0434 C   0  0  0  0  0  0  0  0  0  0  0  0
   -3.1302    0.4627   -2.5305 C   0  0  0  0  0  0  0  0  0  0  0  0
   -2.5222    1.5721   -1.9712 C   0  0  0  0  0  0  0  0  0  0  0  0
   -3.4610    2.5887   -1.6272 C   0  0  0  0  0  0  0  0  0  0  0  0
   -4.7524    2.2303   -1.9488 C   0  0  0  0  0  0  0  0  0  0  0  0
   -4.8313    0.6721   -2.6386 S   0  0  0  0  0  0  0  0  0  0  0  0
   -1.8622   -1.9187   -0.8061 N   0  0  0  0  0  0  0  0  0  0  0  0
   -3.1442   -2.0310   -0.2164 C   0  0  0  0  0  0  0  0  0  0  0  0
   -3.3620   -1.5753    1.0899 C   0  0  0  0  0  0  0  0  0  0  0  0
   -4.6330   -1.6896    1.6575 C   0  0  0  0  0  0  0  0  0  0  0  0
   -5.6799   -2.2670    0.9319 C   0  0  0  0  0  0  0  0  0  0  0  0
   -5.4584   -2.7268   -0.3627 C   0  0  0  0  0  0  0  0  0  0  0  0
   -4.1941   -2.6114   -0.9415 C   0  0  0  0  0  0  0  0  0  0  0  0
    2.3716   -1.1669    0.5121 N   0  0  0  0  0  0  0  0  0  0  0  0
    3.0608    0.0659    0.4764 C   0  0  0  0  0  0  0  0  0  0  0  0
    3.0031    0.7884   -0.7240 C   0  0  0  0  0  0  0  0  0  0  0  0
    3.6736    2.0064   -0.8566 C   0  0  0  0  0  0  0  0  0  0  0  0
    4.4134    2.5072    0.2095 C   0  0  0  0  0  0  0  0  0  0  0  0
    4.4547    1.8062    1.4184 C   0  0  0  0  0  0  0  0  0  0  0  0
    3.7945    0.5832    1.5469 C   0  0  0  0  0  0  0  0  0  0  0  0
    5.1440    2.2535    2.5196 O   0  0  0  0  0  0  0  0  0  0  0  0
    5.4683    3.6441    2.3984 C   0  0  0  0  0  0  0  0  0  0  0  0
    6.0476    3.9343    1.0235 C   0  0  0  0  0  0  0  0  0  0  0  0
    5.0726    3.6861   -0.0011 O   0  0  0  0  0  0  0  0  0  0  0  0
    1.7785   -3.6682    0.3043 H   0  0  0  0  0  0  0  0  0  0  0  0
    1.6771   -4.0134    2.0252 H   0  0  0  0  0  0  0  0  0  0  0  0
   -3.2396   -1.5316   -3.3724 H   0  0  0  0  0  0  0  0  0  0  0  0
   -1.9301   -0.5388   -3.9488 H   0  0  0  0  0  0  0  0  0  0  0  0
   -1.4471    1.6598   -1.8222 H   0  0  0  0  0  0  0  0  0  0  0  0
   -3.2032    3.5457   -1.1829 H   0  0  0  0  0  0  0  0  0  0  0  0
   -5.6532    2.8133   -1.8104 H   0  0  0  0  0  0  0  0  0  0  0  0
   -2.5716   -1.0974    1.6751 H   0  0  0  0  0  0  0  0  0  0  0  0
   -4.8101   -1.3275    2.6672 H   0  0  0  0  0  0  0  0  0  0  0  0
   -6.6656   -2.3694    1.3805 H   0  0  0  0  0  0  0  0  0  0  0  0
   -6.2742   -3.1904   -0.9207 H   0  0  0  0  0  0  0  0  0  0  0  0
   -4.0467   -3.0244   -1.9358 H   0  0  0  0  0  0  0  0  0  0  0  0
    1.9005   -1.4346   -0.3501 H   0  0  0  0  0  0  0  0  0  0  0  0
    2.4327    0.4117   -1.5708 H   0  0  0  0  0  0  0  0  0  0  0  0
    3.6329    2.5533   -1.7952 H   0  0  0  0  0  0  0  0  0  0  0  0
    3.8681    0.0591    2.4953 H   0  0  0  0  0  0  0  0  0  0  0  0
    6.2013    3.8841    3.1782 H   0  0  0  0  0  0  0  0  0  0  0  0
    4.5582    4.2333    2.5880 H   0  0  0  0  0  0  0  0  0  0  0  0
    6.9346    3.3142    0.8206 H   0  0  0  0  0  0  0  0  0  0  0  0
    6.3440    4.9876    0.9548 H   0  0  0  0  0  0  0  0  0  0  0  0
  1  2  2  0
  2  3  1  0
  3  4  1  0
  4  5  1  0
  5  6  2  0
  6  7  1  0
  7  8  2  0
  8  9  1  0
  9 10  1  0
 10 11  2  0
 11 12  1  0
 12 13  2  0
 13 14  1  0
  8 15  1  0
 15 16  1  0
 16 17  2  0
 17 18  1  0
 18 19  2  0
 19 20  1  0
 20 21  2  0
  2 22  1  0
 22 23  1  0
 23 24  2  0
 24 25  1  0
 25 26  2  0
 26 27  1  0
 27 28  2  0
 27 29  1  0
 29 30  1  0
 30 31  1  0
 31 32  1  0
 15  5  1  0
 21 16  1  0
 28 23  1  0
 14 10  1  0
 32 26  1  0
  3 33  1  0
  3 34  1  0
  9 35  1  0
  9 36  1  0
 11 37  1  0
 12 38  1  0
 13 39  1  0
 17 40  1  0
 18 41  1  0
 19 42  1  0
 20 43  1  0
 21 44  1  0
 22 45  1  0
 24 46  1  0
 25 47  1  0
 28 48  1  0
 30 49  1  0
 30 50  1  0
 31 51  1  0
 31 52  1  0
M  END
$$$$
