
     RDKit          3D

 39 41  0  0  0  0  0  0  0  0999 V2000
   -4.9495   -0.5287   -0.4087 C   0  0  0  0  0  0  0  0  0  0  0  0
   -3.7374   -1.4097   -0.1390 C   0  0  0  0  0  0  0  0  0  0  0  0
   -2.5753   -0.6225    0.2654 N   0  0  0  0  0  0  0  0  0  0  0  0
   -2.4286   -0.3563    1.6185 C   0  0  0  0  0  0  0  0  0  0  0  0
   -3.2189   -0.7334    2.4813 O   0  0  0  0  0  0  0  0  0  0  0  0
   -1.2529    0.4309    2.0152 C   0  0  0  0  0  0  0  0  0  0  0  0
   -1.0267    0.6830    3.3785 C   0  0  0  0  0  0  0  0  0  0  0  0
    0.0784    1.4270    3.7774 C   0  0  0  0  0  0  0  0  0  0  0  0
    0.9525    1.9182    2.8155 C   0  0  0  0  0  0  0  0  0  0  0  0
    0.7210    1.6661    1.4577 C   0  0  0  0  0  0  0  0  0  0  0  0
   -0.3877    0.9149    1.0350 C   0  0  0  0  0  0  0  0  0  0  0  0
   -0.6592    0.6424   -0.3362 N   0  0  0  0  0  0  0  0  0  0  0  0
    0.2175    1.1596   -1.3932 C   0  0  0  0  0  0  0  0  0  0  0  0
    1.5019    0.3690   -1.5707 C   0  0  0  0  0  0  0  0  0  0  0  0
    1.4788   -1.0283   -1.7154 C   0  0  0  0  0  0  0  0  0  0  0  0
    2.6620   -1.7492   -1.8989 C   0  0  0  0  0  0  0  0  0  0  0  0
    3.8828   -1.0680   -1.9525 C   0  0  0  0  0  0  0  0  0  0  0  0
    5.1293   -1.8193   -2.1437 N   0  0  0  0  0  4  0  0  0  0  0  0
    6.1889   -1.1770   -2.1808 O   0  0  0  0  0  0  0  0  0  0  0  0
    5.0505   -3.0511   -2.2547 O   0  0  0  0  0  1  0  0  0  0  0  0
    3.9240    0.3262   -1.8321 C   0  0  0  0  0  0  0  0  0  0  0  0
    2.7350    1.0378   -1.6492 C   0  0  0  0  0  0  0  0  0  0  0  0
   -1.7549   -0.1192   -0.7355 C   0  0  0  0  0  0  0  0  0  0  0  0
   -1.9852   -0.3432   -1.9269 O   0  0  0  0  0  0  0  0  0  0  0  0
   -5.2310    0.0393    0.4840 H   0  0  0  0  0  0  0  0  0  0  0  0
   -5.8052   -1.1417   -0.7079 H   0  0  0  0  0  0  0  0  0  0  0  0
   -4.7460    0.1890   -1.2100 H   0  0  0  0  0  0  0  0  0  0  0  0
   -3.9822   -2.1342    0.6462 H   0  0  0  0  0  0  0  0  0  0  0  0
   -3.4977   -1.9869   -1.0392 H   0  0  0  0  0  0  0  0  0  0  0  0
   -1.7134    0.2976    4.1303 H   0  0  0  0  0  0  0  0  0  0  0  0
    0.2553    1.6212    4.8324 H   0  0  0  0  0  0  0  0  0  0  0  0
    1.8201    2.5003    3.1187 H   0  0  0  0  0  0  0  0  0  0  0  0
    1.4398    2.0767    0.7575 H   0  0  0  0  0  0  0  0  0  0  0  0
    0.4237    2.2173   -1.1885 H   0  0  0  0  0  0  0  0  0  0  0  0
   -0.3003    1.1601   -2.3602 H   0  0  0  0  0  0  0  0  0  0  0  0
    0.5339   -1.5693   -1.6946 H   0  0  0  0  0  0  0  0  0  0  0  0
    2.6112   -2.8313   -2.0030 H   0  0  0  0  0  0  0  0  0  0  0  0
    4.8653    0.8699   -1.8829 H   0  0  0  0  0  0  0  0  0  0  0  0
    2.7803    2.1228   -1.5694 H   0  0  0  0  0  0  0  0  0  0  0  0
  1  2  1  0
  2  3  1  0
  3  4  1  0
  4  5  2  0
  4  6  1  0
  6  7  2  0
  7  8  1  0
  8  9  2  0
  9 10  1  0
 10 11  2  0
 11 12  1  0
 12 13  1  0
 13 14  1  0
 14 15  2  0
 15 16  1  0
 16 17  2  0
 17 18  1  0
 18 19  2  0
 18 20  1  0
 17 21  1  0
 21 22  2  0
 12 23  1  0
 23 24  2  0
 23  3  1  0
 11  6  1  0
 22 14  1  0
  1 25  1  0
  1 26  1  0
  1 27  1  0
  2 28  1  0
  2 29  1  0
  7 30  1  0
  8 31  1  0
  9 32  1  0
 10 33  1  0
 13 34  1  0
 13 35  1  0
 15 36  1  0
 16 37  1  0
 21 38  1  0
 22 39  1  0
M  CHG  2  18   1  20  -1
M  END
$$$$
