
     RDKit          3D

 37 39  0  0  0  0  0  0  0  0999 V2000
    7.9319   -0.3275    0.6029 C   0  0  0  0  0  0  0  0  0  0  0  0
    6.4330   -0.5629    0.5042 C   0  0  0  0  0  0  0  0  0  0  0  0
    5.7437    0.5460   -0.2909 C   0  0  0  0  0  0  0  0  0  0  0  0
    4.2754    0.2997   -0.4072 C   0  0  0  0  0  0  0  0  0  0  0  0
    3.7108   -0.4453   -1.3349 N   0  0  0  0  0  0  0  0  0  0  0  0
    2.3383   -0.4928   -1.1918 N   0  0  0  0  0  0  0  0  0  0  0  0
    1.9203    0.2158   -0.1663 C   0  0  0  0  0  0  0  0  0  0  0  0
    0.5947    0.3106    0.1633 N   0  0  0  0  0  0  0  0  0  0  0  0
    0.0351    1.0139    1.2038 C   0  0  0  0  0  0  0  0  0  0  0  0
    0.6253    1.6940    2.0384 O   0  0  0  0  0  0  0  0  0  0  0  0
   -1.4905    0.8820    1.2561 C   0  0  0  0  0  0  0  0  0  0  0  0
   -1.9725    0.0514    0.2017 O   0  0  0  0  0  0  0  0  0  0  0  0
   -3.3260   -0.1456    0.1396 C   0  0  0  0  0  0  0  0  0  0  0  0
   -3.7441   -0.9743   -0.9219 C   0  0  0  0  0  0  0  0  0  0  0  0
   -5.0966   -1.2705   -1.1188 C   0  0  0  0  0  0  0  0  0  0  0  0
   -6.0016   -0.7232   -0.2387 C   0  0  0  0  0  0  0  0  0  0  0  0
   -5.5993    0.0853    0.7977 C   0  0  0  0  0  0  0  0  0  0  0  0
   -4.2710    0.3947    1.0161 C   0  0  0  0  0  0  0  0  0  0  0  0
   -6.6462    0.5222    1.5494 O   0  0  0  0  0  0  0  0  0  0  0  0
   -7.7523   -0.1048    0.8661 C   0  0  0  0  0  0  0  0  0  0  0  0
   -7.3490   -0.8969   -0.2702 O   0  0  0  0  0  0  0  0  0  0  0  0
    3.1622    0.9938    0.7010 S   0  0  0  0  0  0  0  0  0  0  0  0
    8.4050   -1.1319    1.1747 H   0  0  0  0  0  0  0  0  0  0  0  0
    8.3911   -0.3013   -0.3905 H   0  0  0  0  0  0  0  0  0  0  0  0
    8.1477    0.6200    1.1069 H   0  0  0  0  0  0  0  0  0  0  0  0
    6.0116   -0.6214    1.5152 H   0  0  0  0  0  0  0  0  0  0  0  0
    6.2521   -1.5351    0.0293 H   0  0  0  0  0  0  0  0  0  0  0  0
    5.9351    1.5195    0.1769 H   0  0  0  0  0  0  0  0  0  0  0  0
    6.1712    0.5959   -1.3001 H   0  0  0  0  0  0  0  0  0  0  0  0
   -0.0303   -0.2072   -0.4448 H   0  0  0  0  0  0  0  0  0  0  0  0
   -1.9030    1.8930    1.1593 H   0  0  0  0  0  0  0  0  0  0  0  0
   -1.7410    0.4419    2.2283 H   0  0  0  0  0  0  0  0  0  0  0  0
   -3.0047   -1.3926   -1.6017 H   0  0  0  0  0  0  0  0  0  0  0  0
   -5.4212   -1.9072   -1.9339 H   0  0  0  0  0  0  0  0  0  0  0  0
   -4.0139    1.0367    1.8486 H   0  0  0  0  0  0  0  0  0  0  0  0
   -8.2807   -0.7523    1.5753 H   0  0  0  0  0  0  0  0  0  0  0  0
   -8.4403    0.6764    0.5228 H   0  0  0  0  0  0  0  0  0  0  0  0
  1  2  1  0
  2  3  1  0
  3  4  1  0
  4  5  2  0
  5  6  1  0
  6  7  2  0
  7  8  1  0
  8  9  1  0
  9 10  2  0
  9 11  1  0
 11 12  1  0
 12 13  1  0
 13 14  2  0
 14 15  1  0
 15 16  2  0
 16 17  1  0
 17 18  2  0
 17 19  1  0
 19 20  1  0
 20 21  1  0
  7 22  1  0
 22  4  1  0
 18 13  1  0
 21 16  1  0
  1 23  1  0
  1 24  1  0
  1 25  1  0
  2 26  1  0
  2 27  1  0
  3 28  1  0
  3 29  1  0
  8 30  1  0
 11 31  1  0
 11 32  1  0
 14 33  1  0
 15 34  1  0
 18 35  1  0
 20 36  1  0
 20 37  1  0
M  END
$$$$
