
     RDKit          3D

 58 61  0  0  0  0  0  0  0  0999 V2000
   -4.0816    5.9690   -0.4388 C   0  0  0  0  0  0  0  0  0  0  0  0
   -3.1793    4.8705   -0.4133 O   0  0  0  0  0  0  0  0  0  0  0  0
   -3.5307    3.7965    0.3581 C   0  0  0  0  0  0  0  0  0  0  0  0
   -4.6801    3.6855    1.1282 C   0  0  0  0  0  0  0  0  0  0  0  0
   -4.9258    2.5308    1.8800 C   0  0  0  0  0  0  0  0  0  0  0  0
   -3.9939    1.4755    1.8475 C   0  0  0  0  0  0  0  0  0  0  0  0
   -4.0974   -0.0154    2.6924 S   0  0  0  0  0  0  0  0  0  0  0  0
   -2.6138   -0.5816    2.0559 C   0  0  0  0  0  0  0  0  0  0  0  0
   -2.1539   -1.9220    2.4509 C   0  0  0  0  0  0  0  0  0  0  0  0
   -1.6795   -2.1229    3.7588 C   0  0  0  0  0  0  0  0  0  0  0  0
   -1.2120   -3.3733    4.1627 C   0  0  0  0  0  0  0  0  0  0  0  0
   -1.2170   -4.4372    3.2655 C   0  0  0  0  0  0  0  0  0  0  0  0
   -1.6847   -4.2536    1.9622 C   0  0  0  0  0  0  0  0  0  0  0  0
   -2.1423   -2.9984    1.5426 C   0  0  0  0  0  0  0  0  0  0  0  0
   -2.6443   -2.7689    0.2854 O   0  0  0  0  0  0  0  0  0  0  0  0
   -2.0514   -3.5314   -0.7599 C   0  0  0  0  0  0  0  0  0  0  0  0
   -2.0348    0.3486    1.2057 C   0  0  0  0  0  0  0  0  0  0  0  0
   -0.7684    0.0884    0.5271 C   0  0  0  0  0  0  0  0  0  0  0  0
   -0.7388   -0.0569   -0.8627 C   0  0  0  0  0  0  0  0  0  0  0  0
    0.4704   -0.3107   -1.5139 C   0  0  0  0  0  0  0  0  0  0  0  0
    1.6610   -0.4160   -0.7908 C   0  0  0  0  0  0  0  0  0  0  0  0
    2.7672   -0.6740   -1.5512 O   0  0  0  0  0  0  0  0  0  0  0  0
    4.0308   -0.6777   -0.8852 C   0  0  0  0  0  0  0  0  0  0  0  0
    5.1554   -0.9334   -1.9088 C   0  0  0  0  0  0  0  0  0  0  0  0
    5.3145    0.0954   -2.9584 N   0  0  0  0  0  0  0  0  0  0  0  0
    5.6995    1.3956   -2.4120 C   0  0  0  0  0  0  0  0  0  0  0  0
    6.2979   -0.3446   -3.9497 C   0  0  0  0  0  0  0  0  0  0  0  0
    1.6335   -0.2656    0.5961 C   0  0  0  0  0  0  0  0  0  0  0  0
    0.4236   -0.0112    1.2525 C   0  0  0  0  0  0  0  0  0  0  0  0
   -2.8311    1.5509    1.0803 C   0  0  0  0  0  0  0  0  0  0  0  0
   -2.6125    2.7398    0.3349 C   0  0  0  0  0  0  0  0  0  0  0  0
   -4.1908    6.4132    0.5561 H   0  0  0  0  0  0  0  0  0  0  0  0
   -5.0526    5.6732   -0.8494 H   0  0  0  0  0  0  0  0  0  0  0  0
   -3.6598    6.7327   -1.0994 H   0  0  0  0  0  0  0  0  0  0  0  0
   -5.4168    4.4809    1.1736 H   0  0  0  0  0  0  0  0  0  0  0  0
   -5.8269    2.4510    2.4818 H   0  0  0  0  0  0  0  0  0  0  0  0
   -1.6709   -1.2987    4.4688 H   0  0  0  0  0  0  0  0  0  0  0  0
   -0.8506   -3.5167    5.1777 H   0  0  0  0  0  0  0  0  0  0  0  0
   -0.8647   -5.4159    3.5816 H   0  0  0  0  0  0  0  0  0  0  0  0
   -1.7008   -5.1104    1.2965 H   0  0  0  0  0  0  0  0  0  0  0  0
   -2.3102   -3.0532   -1.7095 H   0  0  0  0  0  0  0  0  0  0  0  0
   -0.9586   -3.5496   -0.6820 H   0  0  0  0  0  0  0  0  0  0  0  0
   -2.4605   -4.5463   -0.7769 H   0  0  0  0  0  0  0  0  0  0  0  0
   -1.6554    0.0139   -1.4435 H   0  0  0  0  0  0  0  0  0  0  0  0
    0.4863   -0.4258   -2.5950 H   0  0  0  0  0  0  0  0  0  0  0  0
    4.0507   -1.4974   -0.1561 H   0  0  0  0  0  0  0  0  0  0  0  0
    4.1973    0.2683   -0.3582 H   0  0  0  0  0  0  0  0  0  0  0  0
    4.9239   -1.8867   -2.4019 H   0  0  0  0  0  0  0  0  0  0  0  0
    6.1004   -1.0671   -1.3666 H   0  0  0  0  0  0  0  0  0  0  0  0
    5.8473    2.1239   -3.2179 H   0  0  0  0  0  0  0  0  0  0  0  0
    6.6251    1.3401   -1.8281 H   0  0  0  0  0  0  0  0  0  0  0  0
    4.9096    1.8089   -1.7775 H   0  0  0  0  0  0  0  0  0  0  0  0
    7.2922   -0.4851   -3.5105 H   0  0  0  0  0  0  0  0  0  0  0  0
    5.9869   -1.2888   -4.4106 H   0  0  0  0  0  0  0  0  0  0  0  0
    6.3797    0.3854   -4.7629 H   0  0  0  0  0  0  0  0  0  0  0  0
    2.5313   -0.3435    1.1991 H   0  0  0  0  0  0  0  0  0  0  0  0
    0.4190    0.1060    2.3334 H   0  0  0  0  0  0  0  0  0  0  0  0
   -1.7118    2.8359   -0.2678 H   0  0  0  0  0  0  0  0  0  0  0  0
  1  2  1  0
  2  3  1  0
  3  4  2  0
  4  5  1  0
  5  6  2  0
  6  7  1  0
  7  8  1  0
  8  9  1  0
  9 10  2  0
 10 11  1  0
 11 12  2  0
 12 13  1  0
 13 14  2  0
 14 15  1  0
 15 16  1  0
  8 17  2  0
 17 18  1  0
 18 19  2  0
 19 20  1  0
 20 21  2  0
 21 22  1  0
 22 23  1  0
 23 24  1  0
 24 25  1  0
 25 26  1  0
 25 27  1  0
 21 28  1  0
 28 29  2  0
 17 30  1  0
 30 31  2  0
 31  3  1  0
 30  6  1  0
 14  9  1  0
 29 18  1  0
  1 32  1  0
  1 33  1  0
  1 34  1  0
  4 35  1  0
  5 36  1  0
 10 37  1  0
 11 38  1  0
 12 39  1  0
 13 40  1  0
 16 41  1  0
 16 42  1  0
 16 43  1  0
 19 44  1  0
 20 45  1  0
 23 46  1  0
 23 47  1  0
 24 48  1  0
 24 49  1  0
 26 50  1  0
 26 51  1  0
 26 52  1  0
 27 53  1  0
 27 54  1  0
 27 55  1  0
 28 56  1  0
 29 57  1  0
 31 58  1  0
M  END
$$$$
