
     RDKit          3D

 47 48  0  0  0  0  0  0  0  0999 V2000
    4.6141    1.9979    3.7876 C   0  0  0  0  0  0  0  0  0  0  0  0
    3.2959    1.3044    4.0755 C   0  0  0  0  0  0  0  0  0  0  0  0
    2.7905    0.6914    2.8793 O   0  0  0  0  0  0  0  0  0  0  0  0
    2.0297    1.4783    2.0766 C   0  0  0  0  0  0  0  0  0  0  0  0
    1.7543    2.6502    2.2963 O   0  0  0  0  0  0  0  0  0  0  0  0
    1.5734    0.7243    0.8809 C   0  0  0  0  0  0  0  0  0  0  0  0
    1.9580   -0.6356    0.7170 C   0  0  0  0  0  0  0  0  0  0  0  0
    2.2860   -1.7436    0.5924 N   0  0  0  0  0  0  0  0  0  0  0  0
    0.8126    1.3943   -0.0084 C   0  0  0  0  0  0  0  0  0  0  0  0
    0.2511    0.8580   -1.2430 C   0  0  0  0  0  0  0  0  0  0  0  0
   -0.6345   -0.1702   -1.3046 C   0  0  0  0  0  0  0  0  0  0  0  0
   -1.2247   -0.7083   -0.1397 N   0  0  0  0  0  0  0  0  0  0  0  0
   -1.3263   -2.1550    0.1447 C   0  0  0  0  0  0  0  0  0  0  0  0
   -1.5472   -2.3862    1.6477 C   0  0  0  0  0  0  0  0  0  0  0  0
   -2.7637   -1.8020    2.1429 O   0  0  0  0  0  0  0  0  0  0  0  0
   -3.1938   -0.6651    1.3799 C   0  0  0  0  0  0  0  0  0  0  0  0
   -2.0319    0.1373    0.7757 C   0  0  0  0  0  0  0  0  0  0  0  0
   -1.0907   -0.7078   -2.7042 C   0  0  0  0  0  0  0  0  0  0  0  0
   -0.6440   -2.1560   -2.9566 C   0  0  0  0  0  0  0  0  0  0  0  0
   -2.6153   -0.5999   -2.8655 C   0  0  0  0  0  0  0  0  0  0  0  0
   -0.4958    0.0065   -3.8165 O   0  0  0  0  0  0  0  0  0  0  0  0
   -0.3137    1.3949   -3.5946 C   0  0  0  0  0  0  0  0  0  0  0  0
    0.7033    1.5812   -2.4850 C   0  0  0  0  0  0  0  0  0  0  0  0
    5.0353    2.4258    4.7017 H   0  0  0  0  0  0  0  0  0  0  0  0
    4.4845    2.7993    3.0536 H   0  0  0  0  0  0  0  0  0  0  0  0
    5.3353    1.2917    3.3630 H   0  0  0  0  0  0  0  0  0  0  0  0
    2.5642    1.9959    4.5086 H   0  0  0  0  0  0  0  0  0  0  0  0
    3.4525    0.5026    4.8044 H   0  0  0  0  0  0  0  0  0  0  0  0
    0.5882    2.4482    0.1593 H   0  0  0  0  0  0  0  0  0  0  0  0
   -0.4099   -2.6679   -0.1629 H   0  0  0  0  0  0  0  0  0  0  0  0
   -2.1741   -2.5738   -0.4070 H   0  0  0  0  0  0  0  0  0  0  0  0
   -1.5876   -3.4588    1.8630 H   0  0  0  0  0  0  0  0  0  0  0  0
   -0.7180   -1.9649    2.2281 H   0  0  0  0  0  0  0  0  0  0  0  0
   -3.7859   -0.0293    2.0461 H   0  0  0  0  0  0  0  0  0  0  0  0
   -3.8643   -1.0247    0.5906 H   0  0  0  0  0  0  0  0  0  0  0  0
   -2.4342    1.0047    0.2400 H   0  0  0  0  0  0  0  0  0  0  0  0
   -1.3869    0.4968    1.5848 H   0  0  0  0  0  0  0  0  0  0  0  0
   -1.2139   -2.8904   -2.3841 H   0  0  0  0  0  0  0  0  0  0  0  0
   -0.7569   -2.4193   -4.0156 H   0  0  0  0  0  0  0  0  0  0  0  0
    0.4195   -2.2813   -2.7211 H   0  0  0  0  0  0  0  0  0  0  0  0
   -3.1526   -1.2586   -2.1764 H   0  0  0  0  0  0  0  0  0  0  0  0
   -2.9632    0.4240   -2.6881 H   0  0  0  0  0  0  0  0  0  0  0  0
   -2.9166   -0.8569   -3.8881 H   0  0  0  0  0  0  0  0  0  0  0  0
   -1.2699    1.8804   -3.3682 H   0  0  0  0  0  0  0  0  0  0  0  0
    0.0648    1.8362   -4.5223 H   0  0  0  0  0  0  0  0  0  0  0  0
    1.6767    1.1769   -2.7886 H   0  0  0  0  0  0  0  0  0  0  0  0
    0.8261    2.6548   -2.2994 H   0  0  0  0  0  0  0  0  0  0  0  0
  1  2  1  0
  2  3  1  0
  3  4  1  0
  4  5  2  0
  4  6  1  0
  6  7  1  0
  7  8  3  0
  6  9  2  3
  9 10  1  0
 10 11  2  0
 11 12  1  0
 12 13  1  0
 13 14  1  0
 14 15  1  0
 15 16  1  0
 16 17  1  0
 11 18  1  0
 18 19  1  0
 18 20  1  0
 18 21  1  0
 21 22  1  0
 22 23  1  0
 23 10  1  0
 17 12  1  0
  1 24  1  0
  1 25  1  0
  1 26  1  0
  2 27  1  0
  2 28  1  0
  9 29  1  0
 13 30  1  0
 13 31  1  0
 14 32  1  0
 14 33  1  0
 16 34  1  0
 16 35  1  0
 17 36  1  0
 17 37  1  0
 19 38  1  0
 19 39  1  0
 19 40  1  0
 20 41  1  0
 20 42  1  0
 20 43  1  0
 22 44  1  0
 22 45  1  0
 23 46  1  0
 23 47  1  0
M  END
$$$$
