
     RDKit          3D

 56 61  0  0  0  0  0  0  0  0999 V2000
    9.5947    1.3798   -1.8935 C   0  0  0  0  0  0  0  0  0  0  0  0
    9.4941    1.0019   -0.5254 O   0  0  0  0  0  0  0  0  0  0  0  0
    8.2749    0.5565   -0.0942 C   0  0  0  0  0  0  0  0  0  0  0  0
    8.2348    0.1799    1.2459 C   0  0  0  0  0  0  0  0  0  0  0  0
    7.0510   -0.2927    1.8075 C   0  0  0  0  0  0  0  0  0  0  0  0
    5.8913   -0.3912    1.0262 C   0  0  0  0  0  0  0  0  0  0  0  0
    4.6909   -0.8659    1.5781 C   0  0  0  0  0  0  0  0  0  0  0  0
    3.5730   -0.9363    0.7378 C   0  0  0  0  0  0  0  0  0  0  0  0
    2.2202   -1.3380    0.8630 C   0  0  0  0  0  0  0  0  0  0  0  0
    1.6311   -1.1498   -0.3759 C   0  0  0  0  0  0  0  0  0  0  0  0
    0.2922   -1.4042   -0.8722 C   0  0  0  0  0  0  0  0  0  0  0  0
    0.0959   -1.9084   -1.9781 O   0  0  0  0  0  0  0  0  0  0  0  0
   -0.7880   -1.0925   -0.0238 N   0  0  0  0  0  0  0  0  0  0  0  0
   -0.7621    0.1159    0.8104 C   0  0  0  0  0  0  0  0  0  0  0  0
   -1.8876    0.1346    1.8634 C   0  0  0  0  0  0  0  0  0  0  0  0
   -3.2391   -0.1388    1.3356 N   0  0  0  0  0  0  0  0  0  0  0  0
   -3.7485    0.9979    0.5505 C   0  0  0  0  0  0  0  0  0  0  0  0
   -5.2157    0.8672    0.1945 C   0  0  0  0  0  0  0  0  0  0  0  0
   -5.6270    0.8855   -1.1591 C   0  0  0  0  0  0  0  0  0  0  0  0
   -6.9785    0.7737   -1.5021 C   0  0  0  0  0  0  0  0  0  0  0  0
   -7.8919    0.6484   -0.4785 C   0  0  0  0  0  0  0  0  0  0  0  0
   -7.5045    0.6327    0.8402 C   0  0  0  0  0  0  0  0  0  0  0  0
   -6.1808    0.7408    1.2093 C   0  0  0  0  0  0  0  0  0  0  0  0
   -8.5587    0.5021    1.6893 O   0  0  0  0  0  0  0  0  0  0  0  0
   -9.6533    0.4317    0.7527 C   0  0  0  0  0  0  0  0  0  0  0  0
   -9.2385    0.5293   -0.6257 O   0  0  0  0  0  0  0  0  0  0  0  0
   -3.2000   -1.4006    0.5635 C   0  0  0  0  0  0  0  0  0  0  0  0
   -2.1155   -1.4566   -0.5272 C   0  0  0  0  0  0  0  0  0  0  0  0
    2.5648   -0.6760   -1.2573 O   0  0  0  0  0  0  0  0  0  0  0  0
    3.7372   -0.5357   -0.5822 C   0  0  0  0  0  0  0  0  0  0  0  0
    4.8590   -0.0721   -1.1534 N   0  0  0  0  0  0  0  0  0  0  0  0
    5.9187   -0.0103   -0.3378 C   0  0  0  0  0  0  0  0  0  0  0  0
    7.1154    0.4566   -0.8669 C   0  0  0  0  0  0  0  0  0  0  0  0
    9.3856    0.5317   -2.5539 H   0  0  0  0  0  0  0  0  0  0  0  0
    8.9392    2.2278   -2.1173 H   0  0  0  0  0  0  0  0  0  0  0  0
   10.6254    1.6982   -2.0771 H   0  0  0  0  0  0  0  0  0  0  0  0
    9.1326    0.2542    1.8552 H   0  0  0  0  0  0  0  0  0  0  0  0
    7.0443   -0.5825    2.8557 H   0  0  0  0  0  0  0  0  0  0  0  0
    4.6242   -1.1708    2.6174 H   0  0  0  0  0  0  0  0  0  0  0  0
    1.7296   -1.7322    1.7419 H   0  0  0  0  0  0  0  0  0  0  0  0
   -0.8511    0.9758    0.1354 H   0  0  0  0  0  0  0  0  0  0  0  0
    0.1966    0.2203    1.3211 H   0  0  0  0  0  0  0  0  0  0  0  0
   -1.8750    1.0906    2.4011 H   0  0  0  0  0  0  0  0  0  0  0  0
   -1.6647   -0.6299    2.6197 H   0  0  0  0  0  0  0  0  0  0  0  0
   -3.6583    1.9201    1.1405 H   0  0  0  0  0  0  0  0  0  0  0  0
   -3.1560    1.1635   -0.3570 H   0  0  0  0  0  0  0  0  0  0  0  0
   -4.8903    0.9855   -1.9540 H   0  0  0  0  0  0  0  0  0  0  0  0
   -7.2993    0.7853   -2.5376 H   0  0  0  0  0  0  0  0  0  0  0  0
   -5.8950    0.7189    2.2559 H   0  0  0  0  0  0  0  0  0  0  0  0
  -10.3511    1.2493    0.9672 H   0  0  0  0  0  0  0  0  0  0  0  0
  -10.1753   -0.5216    0.8948 H   0  0  0  0  0  0  0  0  0  0  0  0
   -4.1779   -1.6272    0.1241 H   0  0  0  0  0  0  0  0  0  0  0  0
   -3.0116   -2.2144    1.2767 H   0  0  0  0  0  0  0  0  0  0  0  0
   -2.0747   -2.4716   -0.9400 H   0  0  0  0  0  0  0  0  0  0  0  0
   -2.3589   -0.7789   -1.3544 H   0  0  0  0  0  0  0  0  0  0  0  0
    7.1127    0.7422   -1.9145 H   0  0  0  0  0  0  0  0  0  0  0  0
  1  2  1  0
  2  3  1  0
  3  4  2  0
  4  5  1  0
  5  6  2  0
  6  7  1  0
  7  8  2  0
  8  9  1  0
  9 10  2  0
 10 11  1  0
 11 12  2  0
 11 13  1  0
 13 14  1  0
 14 15  1  0
 15 16  1  0
 16 17  1  0
 17 18  1  0
 18 19  2  0
 19 20  1  0
 20 21  2  0
 21 22  1  0
 22 23  2  0
 22 24  1  0
 24 25  1  0
 25 26  1  0
 16 27  1  0
 27 28  1  0
 10 29  1  0
 29 30  1  0
 30 31  2  0
 31 32  1  0
 32 33  2  0
 33  3  1  0
 32  6  1  0
 30  8  1  0
 28 13  1  0
 23 18  1  0
 26 21  1  0
  1 34  1  0
  1 35  1  0
  1 36  1  0
  4 37  1  0
  5 38  1  0
  7 39  1  0
  9 40  1  0
 14 41  1  0
 14 42  1  0
 15 43  1  0
 15 44  1  0
 17 45  1  0
 17 46  1  0
 19 47  1  0
 20 48  1  0
 23 49  1  0
 25 50  1  0
 25 51  1  0
 27 52  1  0
 27 53  1  0
 28 54  1  0
 28 55  1  0
 33 56  1  0
M  END
$$$$
