
     RDKit          3D

 52 56  0  0  0  0  0  0  0  0999 V2000
    2.2966   -2.0126    2.7454 O   0  0  0  0  0  0  0  0  0  0  0  0
    1.5126   -1.0685    2.7968 C   0  0  0  0  0  0  0  0  0  0  0  0
    0.2339   -1.1657    3.6186 C   0  0  0  0  0  0  0  0  0  0  0  0
   -1.1476   -1.7631    2.5978 S   0  0  0  0  0  0  0  0  0  0  0  0
   -1.4548   -0.3698    1.6090 C   0  0  0  0  0  0  0  0  0  0  0  0
   -1.0679    0.8442    1.9317 N   0  0  0  0  0  0  0  0  0  0  0  0
   -1.2744    1.6508    0.8541 N   0  0  0  0  0  0  0  0  0  0  0  0
   -1.8267    0.9294   -0.1064 C   0  0  0  0  0  0  0  0  0  0  0  0
   -2.3722    1.5069   -1.3741 C   0  0  0  0  0  0  0  0  0  0  0  0
   -3.8756    1.5067   -1.4135 C   0  0  0  0  0  0  0  0  0  0  0  0
   -4.7576    2.0591   -0.5030 C   0  0  0  0  0  0  0  0  0  0  0  0
   -6.1180    1.8587   -0.8743 C   0  0  0  0  0  0  0  0  0  0  0  0
   -6.2315    1.1717   -2.0613 C   0  0  0  0  0  0  0  0  0  0  0  0
   -4.7067    0.7777   -2.7238 S   0  0  0  0  0  0  0  0  0  0  0  0
   -1.9445   -0.3937    0.3139 N   0  0  0  0  0  0  0  0  0  0  0  0
   -2.4469   -1.4983   -0.4193 C   0  0  0  0  0  0  0  0  0  0  0  0
   -2.0393   -1.7075   -1.7422 C   0  0  0  0  0  0  0  0  0  0  0  0
   -2.5435   -2.7922   -2.4627 C   0  0  0  0  0  0  0  0  0  0  0  0
   -3.4508   -3.6672   -1.8683 C   0  0  0  0  0  0  0  0  0  0  0  0
   -3.8522   -3.4653   -0.5492 C   0  0  0  0  0  0  0  0  0  0  0  0
   -3.3505   -2.3852    0.1793 C   0  0  0  0  0  0  0  0  0  0  0  0
    1.6560    0.1493    2.1523 N   0  0  0  0  0  0  0  0  0  0  0  0
    2.7105    0.5691    1.3179 C   0  0  0  0  0  0  0  0  0  0  0  0
    2.5498    1.8037    0.6714 C   0  0  0  0  0  0  0  0  0  0  0  0
    3.5404    2.2985   -0.1809 C   0  0  0  0  0  0  0  0  0  0  0  0
    4.7004    1.5612   -0.3921 C   0  0  0  0  0  0  0  0  0  0  0  0
    4.8819    0.3445    0.2718 C   0  0  0  0  0  0  0  0  0  0  0  0
    3.8846   -0.1578    1.1120 C   0  0  0  0  0  0  0  0  0  0  0  0
    6.0168   -0.4169    0.1392 O   0  0  0  0  0  0  0  0  0  0  0  0
    7.0875    0.3393   -0.4356 C   0  0  0  0  0  0  0  0  0  0  0  0
    6.5995    1.1219   -1.6431 C   0  0  0  0  0  0  0  0  0  0  0  0
    5.6218    2.0947   -1.2559 O   0  0  0  0  0  0  0  0  0  0  0  0
   -0.0011   -0.2067    4.0915 H   0  0  0  0  0  0  0  0  0  0  0  0
    0.4056   -1.8834    4.4277 H   0  0  0  0  0  0  0  0  0  0  0  0
   -2.0417    2.5525   -1.4436 H   0  0  0  0  0  0  0  0  0  0  0  0
   -1.9365    1.0139   -2.2472 H   0  0  0  0  0  0  0  0  0  0  0  0
   -4.4399    2.5796    0.3941 H   0  0  0  0  0  0  0  0  0  0  0  0
   -6.9697    2.2038   -0.3009 H   0  0  0  0  0  0  0  0  0  0  0  0
   -7.1382    0.8846   -2.5762 H   0  0  0  0  0  0  0  0  0  0  0  0
   -1.2961   -1.0759   -2.2206 H   0  0  0  0  0  0  0  0  0  0  0  0
   -2.2204   -2.9619   -3.4871 H   0  0  0  0  0  0  0  0  0  0  0  0
   -3.8414   -4.5110   -2.4319 H   0  0  0  0  0  0  0  0  0  0  0  0
   -4.5613   -4.1484   -0.0879 H   0  0  0  0  0  0  0  0  0  0  0  0
   -3.7084   -2.2381    1.1955 H   0  0  0  0  0  0  0  0  0  0  0  0
    0.8532    0.7786    2.1941 H   0  0  0  0  0  0  0  0  0  0  0  0
    1.6457    2.3920    0.8166 H   0  0  0  0  0  0  0  0  0  0  0  0
    3.4010    3.2509   -0.6842 H   0  0  0  0  0  0  0  0  0  0  0  0
    4.0615   -1.1093    1.6022 H   0  0  0  0  0  0  0  0  0  0  0  0
    7.8700   -0.3660   -0.7326 H   0  0  0  0  0  0  0  0  0  0  0  0
    7.4999    1.0031    0.3346 H   0  0  0  0  0  0  0  0  0  0  0  0
    7.4328    1.6572   -2.1090 H   0  0  0  0  0  0  0  0  0  0  0  0
    6.1536    0.4610   -2.3966 H   0  0  0  0  0  0  0  0  0  0  0  0
  1  2  2  0
  2  3  1  0
  3  4  1  0
  4  5  1  0
  5  6  2  0
  6  7  1  0
  7  8  2  0
  8  9  1  0
  9 10  1  0
 10 11  2  0
 11 12  1  0
 12 13  2  0
 13 14  1  0
  8 15  1  0
 15 16  1  0
 16 17  2  0
 17 18  1  0
 18 19  2  0
 19 20  1  0
 20 21  2  0
  2 22  1  0
 22 23  1  0
 23 24  2  0
 24 25  1  0
 25 26  2  0
 26 27  1  0
 27 28  2  0
 27 29  1  0
 29 30  1  0
 30 31  1  0
 31 32  1  0
 15  5  1  0
 21 16  1  0
 28 23  1  0
 14 10  1  0
 32 26  1  0
  3 33  1  0
  3 34  1  0
  9 35  1  0
  9 36  1  0
 11 37  1  0
 12 38  1  0
 13 39  1  0
 17 40  1  0
 18 41  1  0
 19 42  1  0
 20 43  1  0
 21 44  1  0
 22 45  1  0
 24 46  1  0
 25 47  1  0
 28 48  1  0
 30 49  1  0
 30 50  1  0
 31 51  1  0
 31 52  1  0
M  END
$$$$
