
     RDKit          3D

 51 54  0  0  0  0  0  0  0  0999 V2000
   -6.7150    2.1836   -0.6610 C   0  0  0  0  0  0  0  0  0  0  0  0
   -6.6077    1.2362    0.5265 C   0  0  0  0  0  0  0  0  0  0  0  0
   -5.7933    0.0534    0.2079 N   0  0  0  0  0  0  0  0  0  0  0  0
   -6.5151   -1.2201    0.0783 C   0  0  0  0  0  0  0  0  0  0  0  0
   -7.0324   -1.4226   -1.3377 C   0  0  0  0  0  0  0  0  0  0  0  0
   -4.4093    0.1231    0.0778 C   0  0  0  0  0  0  0  0  0  0  0  0
   -3.6555   -0.9234   -0.4909 C   0  0  0  0  0  0  0  0  0  0  0  0
   -2.2580   -0.8671   -0.6293 C   0  0  0  0  0  0  0  0  0  0  0  0
   -1.5616    0.2531   -0.1966 C   0  0  0  0  0  0  0  0  0  0  0  0
   -0.1212    0.3782   -0.3218 C   0  0  0  0  0  0  0  0  0  0  0  0
    0.5136    1.4833    0.1059 C   0  0  0  0  0  0  0  0  0  0  0  0
    1.9335    1.5435   -0.0514 C   0  0  0  0  0  0  0  0  0  0  0  0
    2.7657    0.5283    0.1177 N   0  0  0  0  0  0  0  0  0  0  0  0
    4.0810    0.8947   -0.1342 C   0  0  0  0  0  0  0  0  0  0  0  0
    5.1711   -0.0667    0.0236 C   0  0  0  0  0  0  0  0  0  0  0  0
    6.5149    0.3257    0.1008 C   0  0  0  0  0  0  0  0  0  0  0  0
    7.5368   -0.6236    0.2519 C   0  0  0  0  0  0  0  0  0  0  0  0
    7.2303   -1.9809    0.3312 C   0  0  0  0  0  0  0  0  0  0  0  0
    8.1263   -3.0029    0.4772 O   0  0  0  0  0  0  0  0  0  0  0  0
    9.4997   -2.6465    0.5689 C   0  0  0  0  0  0  0  0  0  0  0  0
    5.8952   -2.3790    0.2620 C   0  0  0  0  0  0  0  0  0  0  0  0
    4.8755   -1.4335    0.1125 C   0  0  0  0  0  0  0  0  0  0  0  0
    4.2336    2.1978   -0.5584 C   0  0  0  0  0  0  0  0  0  0  0  0
    2.7141    2.9807   -0.6288 S   0  0  0  0  0  0  0  0  0  0  0  0
   -0.2382    2.5845    0.7673 C   0  0  0  0  0  0  0  0  0  0  0  0
    0.3041    3.5716    1.2530 O   0  0  0  0  0  0  0  0  0  0  0  0
   -1.6250    2.4473    0.8275 O   0  0  0  0  0  0  0  0  0  0  0  0
   -2.2813    1.2922    0.3641 C   0  0  0  0  0  0  0  0  0  0  0  0
   -3.6721    1.2406    0.5024 C   0  0  0  0  0  0  0  0  0  0  0  0
   -7.1416    1.6787   -1.5331 H   0  0  0  0  0  0  0  0  0  0  0  0
   -7.3634    3.0289   -0.4093 H   0  0  0  0  0  0  0  0  0  0  0  0
   -5.7411    2.5858   -0.9549 H   0  0  0  0  0  0  0  0  0  0  0  0
   -6.2226    1.7569    1.4102 H   0  0  0  0  0  0  0  0  0  0  0  0
   -7.6253    0.9305    0.8005 H   0  0  0  0  0  0  0  0  0  0  0  0
   -7.3673   -1.2358    0.7694 H   0  0  0  0  0  0  0  0  0  0  0  0
   -5.8969   -2.0708    0.3873 H   0  0  0  0  0  0  0  0  0  0  0  0
   -7.5269   -2.3954   -1.4228 H   0  0  0  0  0  0  0  0  0  0  0  0
   -7.7631   -0.6523   -1.6036 H   0  0  0  0  0  0  0  0  0  0  0  0
   -6.2246   -1.3850   -2.0746 H   0  0  0  0  0  0  0  0  0  0  0  0
   -4.1435   -1.8181   -0.8667 H   0  0  0  0  0  0  0  0  0  0  0  0
   -1.7386   -1.7082   -1.0819 H   0  0  0  0  0  0  0  0  0  0  0  0
    0.4216   -0.4440   -0.7812 H   0  0  0  0  0  0  0  0  0  0  0  0
    6.7972    1.3742    0.0593 H   0  0  0  0  0  0  0  0  0  0  0  0
    8.5592   -0.2650    0.3079 H   0  0  0  0  0  0  0  0  0  0  0  0
    9.8416   -2.1538   -0.3473 H   0  0  0  0  0  0  0  0  0  0  0  0
   10.0772   -3.5685    0.6862 H   0  0  0  0  0  0  0  0  0  0  0  0
    9.6877   -2.0217    1.4483 H   0  0  0  0  0  0  0  0  0  0  0  0
    5.6425   -3.4345    0.3273 H   0  0  0  0  0  0  0  0  0  0  0  0
    3.8438   -1.7764    0.0656 H   0  0  0  0  0  0  0  0  0  0  0  0
    5.1301    2.7283   -0.8416 H   0  0  0  0  0  0  0  0  0  0  0  0
   -4.1560    2.0946    0.9635 H   0  0  0  0  0  0  0  0  0  0  0  0
  1  2  1  0
  2  3  1  0
  3  4  1  0
  4  5  1  0
  3  6  1  0
  6  7  2  0
  7  8  1  0
  8  9  2  0
  9 10  1  0
 10 11  2  0
 11 12  1  0
 12 13  2  0
 13 14  1  0
 14 15  1  0
 15 16  2  0
 16 17  1  0
 17 18  2  0
 18 19  1  0
 19 20  1  0
 18 21  1  0
 21 22  2  0
 14 23  2  0
 23 24  1  0
 11 25  1  0
 25 26  2  0
 25 27  1  0
 27 28  1  0
 28 29  2  0
 29  6  1  0
 28  9  1  0
 24 12  1  0
 22 15  1  0
  1 30  1  0
  1 31  1  0
  1 32  1  0
  2 33  1  0
  2 34  1  0
  4 35  1  0
  4 36  1  0
  5 37  1  0
  5 38  1  0
  5 39  1  0
  7 40  1  0
  8 41  1  0
 10 42  1  0
 16 43  1  0
 17 44  1  0
 20 45  1  0
 20 46  1  0
 20 47  1  0
 21 48  1  0
 22 49  1  0
 23 50  1  0
 29 51  1  0
M  END
$$$$
