
     RDKit          3D

 35 37  0  0  0  0  0  0  0  0999 V2000
   -2.2484    4.3716    4.3451 C   0  0  0  0  0  0  0  0  0  0  0  0
   -2.2620    2.9505    4.2954 O   0  0  0  0  0  0  0  0  0  0  0  0
   -1.6017    2.3633    3.2519 C   0  0  0  0  0  0  0  0  0  0  0  0
   -0.8631    3.0241    2.2708 C   0  0  0  0  0  0  0  0  0  0  0  0
   -0.2326    2.2968    1.2535 C   0  0  0  0  0  0  0  0  0  0  0  0
   -0.3437    0.9032    1.2011 C   0  0  0  0  0  0  0  0  0  0  0  0
    0.3221    0.1130    0.1580 C   0  0  0  0  0  0  0  0  0  0  0  0
    0.1197    0.2029   -1.1738 C   0  0  0  0  0  0  0  0  0  0  0  0
   -0.8159    1.1379   -1.7284 C   0  0  0  0  0  0  0  0  0  0  0  0
   -1.5563    1.9086   -2.1841 N   0  0  0  0  0  0  0  0  0  0  0  0
    0.8277   -0.6342   -2.1034 C   0  0  0  0  0  0  0  0  0  0  0  0
    1.4803   -0.1729   -3.2291 C   0  0  0  0  0  0  0  0  0  0  0  0
    2.0459   -1.2483   -3.8612 N   0  0  0  0  0  0  0  0  0  0  0  0
    1.7687   -2.4068   -3.1724 C   0  0  0  0  0  0  0  0  0  0  0  0
    2.1380   -3.7280   -3.4535 C   0  0  0  0  0  0  0  0  0  0  0  0
    1.6997   -4.7252   -2.5783 C   0  0  0  0  0  0  0  0  0  0  0  0
    0.9193   -4.4122   -1.4691 C   0  0  0  0  0  0  0  0  0  0  0  0
    0.5589   -3.0863   -1.2017 C   0  0  0  0  0  0  0  0  0  0  0  0
    0.9960   -2.0557   -2.0627 C   0  0  0  0  0  0  0  0  0  0  0  0
   -1.0724    0.2425    2.1937 C   0  0  0  0  0  0  0  0  0  0  0  0
   -1.6982    0.9709    3.2091 C   0  0  0  0  0  0  0  0  0  0  0  0
   -1.2309    4.7509    4.4856 H   0  0  0  0  0  0  0  0  0  0  0  0
   -2.8413    4.6814    5.2111 H   0  0  0  0  0  0  0  0  0  0  0  0
   -2.7125    4.8036    3.4522 H   0  0  0  0  0  0  0  0  0  0  0  0
   -0.7542    4.1035    2.2660 H   0  0  0  0  0  0  0  0  0  0  0  0
    0.3456    2.8368    0.5067 H   0  0  0  0  0  0  0  0  0  0  0  0
    1.0365   -0.6116    0.5458 H   0  0  0  0  0  0  0  0  0  0  0  0
    1.5978    0.8235   -3.6364 H   0  0  0  0  0  0  0  0  0  0  0  0
    2.5851   -1.2055   -4.7153 H   0  0  0  0  0  0  0  0  0  0  0  0
    2.7398   -3.9774   -4.3215 H   0  0  0  0  0  0  0  0  0  0  0  0
    1.9682   -5.7616   -2.7710 H   0  0  0  0  0  0  0  0  0  0  0  0
    0.5819   -5.2045   -0.8052 H   0  0  0  0  0  0  0  0  0  0  0  0
   -0.0602   -2.8629   -0.3380 H   0  0  0  0  0  0  0  0  0  0  0  0
   -1.1683   -0.8405    2.1861 H   0  0  0  0  0  0  0  0  0  0  0  0
   -2.2692    0.4484    3.9729 H   0  0  0  0  0  0  0  0  0  0  0  0
  1  2  1  0
  2  3  1  0
  3  4  2  0
  4  5  1  0
  5  6  2  0
  6  7  1  0
  7  8  2  3
  8  9  1  0
  9 10  3  0
  8 11  1  0
 11 12  2  0
 12 13  1  0
 13 14  1  0
 14 15  2  0
 15 16  1  0
 16 17  2  0
 17 18  1  0
 18 19  2  0
  6 20  1  0
 20 21  2  0
 21  3  1  0
 19 11  1  0
 19 14  1  0
  1 22  1  0
  1 23  1  0
  1 24  1  0
  4 25  1  0
  5 26  1  0
  7 27  1  0
 12 28  1  0
 13 29  1  0
 15 30  1  0
 16 31  1  0
 17 32  1  0
 18 33  1  0
 20 34  1  0
 21 35  1  0
M  END
$$$$
