
     RDKit          3D

 44 47  0  0  0  0  0  0  0  0999 V2000
   -2.2696   -0.9249   -1.7738 O   0  0  0  0  0  0  0  0  0  0  0  0
   -2.9409   -0.5220   -0.8349 C   0  0  0  0  0  0  0  0  0  0  0  0
   -3.1620   -1.1603    0.3710 O   0  0  0  0  0  0  0  0  0  0  0  0
   -2.4418   -2.3547    0.4916 C   0  0  0  0  0  0  0  0  0  0  0  0
   -3.0843   -3.5429    0.1375 C   0  0  0  0  0  0  0  0  0  0  0  0
   -2.4065   -4.7521    0.2743 C   0  0  0  0  0  0  0  0  0  0  0  0
   -1.1042   -4.7679    0.7756 C   0  0  0  0  0  0  0  0  0  0  0  0
   -0.4744   -3.5742    1.1447 C   0  0  0  0  0  0  0  0  0  0  0  0
   -1.1364   -2.3471    1.0065 C   0  0  0  0  0  0  0  0  0  0  0  0
   -0.5003   -1.0936    1.4300 C   0  0  0  0  0  0  0  0  0  0  0  0
    0.7155   -0.7172    1.0052 C   0  0  0  0  0  0  0  0  0  0  0  0
    1.2993    0.5876    1.4420 C   0  0  0  0  0  0  0  0  0  0  0  0
    0.6605    1.3273    2.1904 O   0  0  0  0  0  0  0  0  0  0  0  0
    2.6210    0.9274    0.9549 C   0  0  0  0  0  0  0  0  0  0  0  0
    3.3939    2.0537    1.1764 C   0  0  0  0  0  0  0  0  0  0  0  0
    4.6062    1.8744    0.4629 C   0  0  0  0  0  0  0  0  0  0  0  0
    5.7817    2.6211    0.2717 C   0  0  0  0  0  0  0  0  0  0  0  0
    6.7950    2.0846   -0.5362 C   0  0  0  0  0  0  0  0  0  0  0  0
    6.6472    0.8339   -1.1424 C   0  0  0  0  0  0  0  0  0  0  0  0
    5.4850    0.0761   -0.9633 C   0  0  0  0  0  0  0  0  0  0  0  0
    4.4978    0.6358   -0.1560 C   0  0  0  0  0  0  0  0  0  0  0  0
    3.3009    0.0604    0.1407 O   0  0  0  0  0  0  0  0  0  0  0  0
   -3.6739    0.7745   -0.8577 C   0  0  0  0  0  0  0  0  0  0  0  0
   -3.6858    1.5028   -2.0559 C   0  0  0  0  0  0  0  0  0  0  0  0
   -4.3547    2.7260   -2.1318 C   0  0  0  0  0  0  0  0  0  0  0  0
   -5.0131    3.2304   -1.0116 C   0  0  0  0  0  0  0  0  0  0  0  0
   -5.0031    2.5153    0.1855 C   0  0  0  0  0  0  0  0  0  0  0  0
   -4.3355    1.2904    0.2657 C   0  0  0  0  0  0  0  0  0  0  0  0
   -4.0985   -3.5251   -0.2494 H   0  0  0  0  0  0  0  0  0  0  0  0
   -2.8921   -5.6827   -0.0080 H   0  0  0  0  0  0  0  0  0  0  0  0
   -0.5780   -5.7131    0.8859 H   0  0  0  0  0  0  0  0  0  0  0  0
    0.5333   -3.6164    1.5518 H   0  0  0  0  0  0  0  0  0  0  0  0
   -1.0902   -0.4569    2.0860 H   0  0  0  0  0  0  0  0  0  0  0  0
    1.2978   -1.3270    0.3246 H   0  0  0  0  0  0  0  0  0  0  0  0
    3.1041    2.9002    1.7839 H   0  0  0  0  0  0  0  0  0  0  0  0
    5.9066    3.5942    0.7373 H   0  0  0  0  0  0  0  0  0  0  0  0
    7.7098    2.6526   -0.6932 H   0  0  0  0  0  0  0  0  0  0  0  0
    7.4487    0.4418   -1.7652 H   0  0  0  0  0  0  0  0  0  0  0  0
    5.3537   -0.8940   -1.4265 H   0  0  0  0  0  0  0  0  0  0  0  0
   -3.1721    1.1200   -2.9362 H   0  0  0  0  0  0  0  0  0  0  0  0
   -4.3591    3.2853   -3.0642 H   0  0  0  0  0  0  0  0  0  0  0  0
   -5.5317    4.1844   -1.0702 H   0  0  0  0  0  0  0  0  0  0  0  0
   -5.5126    2.9139    1.0597 H   0  0  0  0  0  0  0  0  0  0  0  0
   -4.3372    0.7581    1.2137 H   0  0  0  0  0  0  0  0  0  0  0  0
  1  2  2  0
  2  3  1  0
  3  4  1  0
  4  5  2  0
  5  6  1  0
  6  7  2  0
  7  8  1  0
  8  9  2  0
  9 10  1  0
 10 11  2  3
 11 12  1  0
 12 13  2  0
 12 14  1  0
 14 15  2  0
 15 16  1  0
 16 17  2  0
 17 18  1  0
 18 19  2  0
 19 20  1  0
 20 21  2  0
 21 22  1  0
  2 23  1  0
 23 24  2  0
 24 25  1  0
 25 26  2  0
 26 27  1  0
 27 28  2  0
  9  4  1  0
 22 14  1  0
 28 23  1  0
 21 16  1  0
  5 29  1  0
  6 30  1  0
  7 31  1  0
  8 32  1  0
 10 33  1  0
 11 34  1  0
 15 35  1  0
 17 36  1  0
 18 37  1  0
 19 38  1  0
 20 39  1  0
 24 40  1  0
 25 41  1  0
 26 42  1  0
 27 43  1  0
 28 44  1  0
M  END
$$$$
