
     RDKit          3D

 52 54  0  0  0  0  0  0  0  0999 V2000
   -3.6222   -1.0916   -2.8724 C   0  0  0  0  0  0  0  0  0  0  0  0
   -3.6484   -1.1921   -1.4192 N   0  0  0  0  0  0  0  0  0  0  0  0
   -4.8210   -1.8385   -0.8298 C   0  0  0  0  0  0  0  0  0  0  0  0
   -6.0411   -0.9474   -0.8472 C   0  0  0  0  0  0  0  0  0  0  0  0
   -7.1003   -1.1986   -1.7312 C   0  0  0  0  0  0  0  0  0  0  0  0
   -8.2204   -0.3652   -1.7486 C   0  0  0  0  0  0  0  0  0  0  0  0
   -8.2933    0.7257   -0.8842 C   0  0  0  0  0  0  0  0  0  0  0  0
   -7.2476    0.9851   -0.0008 C   0  0  0  0  0  0  0  0  0  0  0  0
   -6.1272    0.1534    0.0179 C   0  0  0  0  0  0  0  0  0  0  0  0
   -2.6736   -0.6851   -0.5670 C   0  0  0  0  0  0  0  0  0  0  0  0
   -2.7824   -0.7379    0.6619 O   0  0  0  0  0  0  0  0  0  0  0  0
   -1.4393   -0.0322   -1.2047 C   0  0  0  0  0  0  0  0  0  0  0  0
   -0.4580    0.3252   -0.2274 O   0  0  0  0  0  0  0  0  0  0  0  0
    0.2615   -0.7336    0.2498 C   0  0  0  0  0  0  0  0  0  0  0  0
    0.1900   -1.8761   -0.1876 O   0  0  0  0  0  0  0  0  0  0  0  0
    1.1297   -0.3336    1.4246 C   0  0  0  0  0  0  0  0  0  0  0  0
    1.4371    1.1048    1.4388 N   0  0  0  0  0  0  0  0  0  0  0  0
    2.6089    1.6511    2.4959 S   0  0  0  0  0  6  0  0  0  0  0  0
    2.4061    3.0762    2.6300 O   0  0  0  0  0  0  0  0  0  0  0  0
    2.6283    0.7694    3.6411 O   0  0  0  0  0  0  0  0  0  0  0  0
    4.0889    1.4044    1.5513 C   0  0  0  0  0  0  0  0  0  0  0  0
    4.4122    2.3107    0.5407 C   0  0  0  0  0  0  0  0  0  0  0  0
    5.5790    2.1231   -0.2011 C   0  0  0  0  0  0  0  0  0  0  0  0
    6.4309    1.0377    0.0636 C   0  0  0  0  0  0  0  0  0  0  0  0
    7.6061    0.8364   -0.6772 C   0  0  0  0  0  0  0  0  0  0  0  0
    8.4459   -0.2442   -0.4030 C   0  0  0  0  0  0  0  0  0  0  0  0
    8.1232   -1.1360    0.6156 C   0  0  0  0  0  0  0  0  0  0  0  0
    6.9592   -0.9507    1.3630 C   0  0  0  0  0  0  0  0  0  0  0  0
    6.1024    0.1295    1.0994 C   0  0  0  0  0  0  0  0  0  0  0  0
    4.9288    0.3258    1.8426 C   0  0  0  0  0  0  0  0  0  0  0  0
   -3.6213   -2.1030   -3.2908 H   0  0  0  0  0  0  0  0  0  0  0  0
   -2.7476   -0.5582   -3.2456 H   0  0  0  0  0  0  0  0  0  0  0  0
   -4.5139   -0.5582   -3.2143 H   0  0  0  0  0  0  0  0  0  0  0  0
   -4.6224   -2.1436    0.2045 H   0  0  0  0  0  0  0  0  0  0  0  0
   -5.0085   -2.7657   -1.3852 H   0  0  0  0  0  0  0  0  0  0  0  0
   -7.0611   -2.0458   -2.4120 H   0  0  0  0  0  0  0  0  0  0  0  0
   -9.0378   -0.5682   -2.4352 H   0  0  0  0  0  0  0  0  0  0  0  0
   -9.1663    1.3730   -0.8966 H   0  0  0  0  0  0  0  0  0  0  0  0
   -7.3037    1.8335    0.6763 H   0  0  0  0  0  0  0  0  0  0  0  0
   -5.3182    0.3636    0.7156 H   0  0  0  0  0  0  0  0  0  0  0  0
   -0.9950   -0.6878   -1.9612 H   0  0  0  0  0  0  0  0  0  0  0  0
   -1.7575    0.8961   -1.6899 H   0  0  0  0  0  0  0  0  0  0  0  0
    0.5849   -0.5994    2.3357 H   0  0  0  0  0  0  0  0  0  0  0  0
    2.0579   -0.9089    1.3572 H   0  0  0  0  0  0  0  0  0  0  0  0
    0.6505    1.7458    1.3252 H   0  0  0  0  0  0  0  0  0  0  0  0
    3.7657    3.1591    0.3280 H   0  0  0  0  0  0  0  0  0  0  0  0
    5.8229    2.8338   -0.9881 H   0  0  0  0  0  0  0  0  0  0  0  0
    7.8781    1.5228   -1.4760 H   0  0  0  0  0  0  0  0  0  0  0  0
    9.3534   -0.3878   -0.9839 H   0  0  0  0  0  0  0  0  0  0  0  0
    8.7782   -1.9765    0.8307 H   0  0  0  0  0  0  0  0  0  0  0  0
    6.7268   -1.6584    2.1560 H   0  0  0  0  0  0  0  0  0  0  0  0
    4.6716   -0.3618    2.6460 H   0  0  0  0  0  0  0  0  0  0  0  0
  1  2  1  0
  2  3  1  0
  3  4  1  0
  4  5  2  0
  5  6  1  0
  6  7  2  0
  7  8  1  0
  8  9  2  0
  2 10  1  0
 10 11  2  0
 10 12  1  0
 12 13  1  0
 13 14  1  0
 14 15  2  0
 14 16  1  0
 16 17  1  0
 17 18  1  0
 18 19  2  0
 18 20  2  0
 18 21  1  0
 21 22  2  0
 22 23  1  0
 23 24  2  0
 24 25  1  0
 25 26  2  0
 26 27  1  0
 27 28  2  0
 28 29  1  0
 29 30  2  0
  9  4  1  0
 30 21  1  0
 29 24  1  0
  1 31  1  0
  1 32  1  0
  1 33  1  0
  3 34  1  0
  3 35  1  0
  5 36  1  0
  6 37  1  0
  7 38  1  0
  8 39  1  0
  9 40  1  0
 12 41  1  0
 12 42  1  0
 16 43  1  0
 16 44  1  0
 17 45  1  0
 22 46  1  0
 23 47  1  0
 25 48  1  0
 26 49  1  0
 27 50  1  0
 28 51  1  0
 30 52  1  0
M  END
$$$$
