
     RDKit          3D

 39 39  0  0  0  0  0  0  0  0999 V2000
   -1.5901    3.9699    0.9497 C   0  0  0  0  0  0  0  0  0  0  0  0
   -1.5414    3.2048   -0.3374 C   0  0  0  0  0  0  0  0  0  0  0  0
   -1.5690    3.7161   -1.4473 O   0  0  0  0  0  0  0  0  0  0  0  0
   -1.5097    1.8663   -0.0874 O   0  0  0  0  0  0  0  0  0  0  0  0
   -1.5390    1.0455   -1.2638 C   0  0  0  0  0  0  0  0  0  0  0  0
   -1.6861   -0.4139   -0.8393 C   0  0  0  0  0  0  0  0  0  0  0  0
   -0.4392   -0.9502   -0.1050 C   0  0  0  0  0  0  0  0  0  0  0  0
    0.6092   -1.2260   -1.1097 N   0  0  0  0  0  0  0  0  0  0  0  0
    2.1533   -0.6737   -0.7811 S   0  0  0  0  0  6  0  0  0  0  0  0
    2.9984   -1.1878   -1.8334 O   0  0  0  0  0  0  0  0  0  0  0  0
    2.4501   -0.9251    0.6088 O   0  0  0  0  0  0  0  0  0  0  0  0
    2.0313    0.9281   -0.9777 O   0  0  0  0  0  0  0  0  0  0  0  0
    3.2511    1.6683   -0.9989 C   0  0  0  0  0  0  0  0  0  0  0  0
    2.9963    3.1801   -1.0319 C   0  0  0  0  0  0  0  0  0  0  0  0
    4.5646    4.0484   -1.0480 Cl  0  0  0  0  0  0  0  0  0  0  0  0
    2.0774    3.6352   -2.4961 Cl  0  0  0  0  0  0  0  0  0  0  0  0
    2.0815    3.6930    0.4202 Cl  0  0  0  0  0  0  0  0  0  0  0  0
   -0.7480   -2.2161    0.6835 C   0  0  0  0  0  0  0  0  0  0  0  0
   -0.2496   -2.3585    1.9882 C   0  0  0  0  0  0  0  0  0  0  0  0
   -0.4953   -3.5189    2.7246 C   0  0  0  0  0  0  0  0  0  0  0  0
   -1.2359   -4.5570    2.1653 C   0  0  0  0  0  0  0  0  0  0  0  0
   -1.7259   -4.4388    0.8672 C   0  0  0  0  0  0  0  0  0  0  0  0
   -1.4799   -3.2795    0.1282 C   0  0  0  0  0  0  0  0  0  0  0  0
   -1.2795    5.0027    0.7681 H   0  0  0  0  0  0  0  0  0  0  0  0
   -0.8992    3.5334    1.6759 H   0  0  0  0  0  0  0  0  0  0  0  0
   -2.6086    3.9586    1.3443 H   0  0  0  0  0  0  0  0  0  0  0  0
   -0.6246    1.1995   -1.8465 H   0  0  0  0  0  0  0  0  0  0  0  0
   -2.4053    1.3224   -1.8764 H   0  0  0  0  0  0  0  0  0  0  0  0
   -2.5569   -0.4871   -0.1743 H   0  0  0  0  0  0  0  0  0  0  0  0
   -1.8987   -1.0176   -1.7303 H   0  0  0  0  0  0  0  0  0  0  0  0
   -0.1069   -0.1736    0.5948 H   0  0  0  0  0  0  0  0  0  0  0  0
    0.6522   -2.2040   -1.3971 H   0  0  0  0  0  0  0  0  0  0  0  0
    3.8273    1.3646   -1.8819 H   0  0  0  0  0  0  0  0  0  0  0  0
    3.8398    1.4064   -0.1102 H   0  0  0  0  0  0  0  0  0  0  0  0
    0.3469   -1.5677    2.4407 H   0  0  0  0  0  0  0  0  0  0  0  0
   -0.1014   -3.6138    3.7335 H   0  0  0  0  0  0  0  0  0  0  0  0
   -1.4249   -5.4605    2.7391 H   0  0  0  0  0  0  0  0  0  0  0  0
   -2.2978   -5.2526    0.4282 H   0  0  0  0  0  0  0  0  0  0  0  0
   -1.8664   -3.2207   -0.8866 H   0  0  0  0  0  0  0  0  0  0  0  0
  1  2  1  0
  2  3  2  0
  2  4  1  0
  4  5  1  0
  5  6  1  0
  6  7  1  0
  7  8  1  0
  8  9  1  0
  9 10  2  0
  9 11  2  0
  9 12  1  0
 12 13  1  0
 13 14  1  0
 14 15  1  0
 14 16  1  0
 14 17  1  0
  7 18  1  0
 18 19  2  0
 19 20  1  0
 20 21  2  0
 21 22  1  0
 22 23  2  0
 23 18  1  0
  1 24  1  0
  1 25  1  0
  1 26  1  0
  5 27  1  0
  5 28  1  0
  6 29  1  0
  6 30  1  0
  7 31  1  0
  8 32  1  0
 13 33  1  0
 13 34  1  0
 19 35  1  0
 20 36  1  0
 21 37  1  0
 22 38  1  0
 23 39  1  0
M  END
$$$$
