
     RDKit          3D

 42 46  0  0  0  0  0  0  0  0999 V2000
    5.1132    2.2168   -0.0128 C   0  0  0  0  0  0  0  0  0  0  0  0
    5.2652    0.9010   -0.4455 C   0  0  0  0  0  0  0  0  0  0  0  0
    4.1697    0.0250   -0.4681 C   0  0  0  0  0  0  0  0  0  0  0  0
    4.3123   -1.2973   -0.9020 C   0  0  0  0  0  0  0  0  0  0  0  0
    3.2165   -2.1606   -0.9211 C   0  0  0  0  0  0  0  0  0  0  0  0
    1.9514   -1.7238   -0.5067 C   0  0  0  0  0  0  0  0  0  0  0  0
    0.8581   -2.5936   -0.5269 C   0  0  0  0  0  0  0  0  0  0  0  0
   -0.3982   -2.1601   -0.1119 C   0  0  0  0  0  0  0  0  0  0  0  0
   -0.5987   -0.8414    0.3331 C   0  0  0  0  0  0  0  0  0  0  0  0
   -1.9993   -0.4512    0.7830 C   0  0  0  0  0  0  0  0  0  0  0  0
   -2.6557    0.5402   -0.0855 N   0  0  0  0  0  0  0  0  0  0  0  0
   -2.9223    0.0406   -1.4521 C   0  0  0  0  0  0  0  0  0  0  0  0
   -4.0738   -0.9751   -1.5327 C   0  0  0  0  0  0  0  0  0  0  0  0
   -5.2812   -0.4418   -0.9741 O   0  0  0  0  0  0  0  0  0  0  0  0
   -5.0786   -0.0281    0.3820 C   0  0  0  0  0  0  0  0  0  0  0  0
   -3.9372    0.9977    0.4948 C   0  0  0  0  0  0  0  0  0  0  0  0
    0.4994    0.0633    0.3594 C   0  0  0  0  0  0  0  0  0  0  0  0
    0.3928    1.4031    0.7868 C   0  0  0  0  0  0  0  0  0  0  0  0
    1.4937    2.2637    0.8031 C   0  0  0  0  0  0  0  0  0  0  0  0
    2.7512    1.8184    0.3910 C   0  0  0  0  0  0  0  0  0  0  0  0
    3.8639    2.6728    0.4026 C   0  0  0  0  0  0  0  0  0  0  0  0
    2.8981    0.4833   -0.0464 C   0  0  0  0  0  0  0  0  0  0  0  0
    1.7772   -0.3909   -0.0630 C   0  0  0  0  0  0  0  0  0  0  0  0
    5.9684    2.8873    0.0001 H   0  0  0  0  0  0  0  0  0  0  0  0
    6.2479    0.5633   -0.7666 H   0  0  0  0  0  0  0  0  0  0  0  0
    5.2801   -1.6693   -1.2305 H   0  0  0  0  0  0  0  0  0  0  0  0
    3.3623   -3.1824   -1.2644 H   0  0  0  0  0  0  0  0  0  0  0  0
    0.9750   -3.6207   -0.8652 H   0  0  0  0  0  0  0  0  0  0  0  0
   -1.2271   -2.8642   -0.1385 H   0  0  0  0  0  0  0  0  0  0  0  0
   -2.6141   -1.3527    0.8944 H   0  0  0  0  0  0  0  0  0  0  0  0
   -1.9037   -0.0474    1.8002 H   0  0  0  0  0  0  0  0  0  0  0  0
   -3.1915    0.9110   -2.0652 H   0  0  0  0  0  0  0  0  0  0  0  0
   -2.0194   -0.3741   -1.9126 H   0  0  0  0  0  0  0  0  0  0  0  0
   -3.8255   -1.9133   -1.0240 H   0  0  0  0  0  0  0  0  0  0  0  0
   -4.2776   -1.2158   -2.5811 H   0  0  0  0  0  0  0  0  0  0  0  0
   -4.8930   -0.9116    1.0030 H   0  0  0  0  0  0  0  0  0  0  0  0
   -6.0131    0.4243    0.7295 H   0  0  0  0  0  0  0  0  0  0  0  0
   -4.2343    1.9052   -0.0468 H   0  0  0  0  0  0  0  0  0  0  0  0
   -3.8021    1.2996    1.5400 H   0  0  0  0  0  0  0  0  0  0  0  0
   -0.5649    1.8072    1.1067 H   0  0  0  0  0  0  0  0  0  0  0  0
    1.3514    3.2885    1.1383 H   0  0  0  0  0  0  0  0  0  0  0  0
    3.7635    3.7033    0.7361 H   0  0  0  0  0  0  0  0  0  0  0  0
  1  2  2  0
  2  3  1  0
  3  4  2  0
  4  5  1  0
  5  6  2  0
  6  7  1  0
  7  8  2  0
  8  9  1  0
  9 10  1  0
 10 11  1  0
 11 12  1  0
 12 13  1  0
 13 14  1  0
 14 15  1  0
 15 16  1  0
  9 17  2  0
 17 18  1  0
 18 19  2  0
 19 20  1  0
 20 21  2  0
 20 22  1  0
 22 23  2  0
 21  1  1  0
 22  3  1  0
 23  6  1  0
 16 11  1  0
 23 17  1  0
  1 24  1  0
  2 25  1  0
  4 26  1  0
  5 27  1  0
  7 28  1  0
  8 29  1  0
 10 30  1  0
 10 31  1  0
 12 32  1  0
 12 33  1  0
 13 34  1  0
 13 35  1  0
 15 36  1  0
 15 37  1  0
 16 38  1  0
 16 39  1  0
 18 40  1  0
 19 41  1  0
 21 42  1  0
M  END
$$$$
