
     RDKit          3D

 50 53  0  0  0  0  0  0  0  0999 V2000
   -4.6035   -4.3820   -0.6350 C   0  0  0  0  0  0  0  0  0  0  0  0
   -3.8765   -3.2040   -0.0117 C   0  0  0  0  0  0  0  0  0  0  0  0
   -3.5479   -2.2880   -1.0548 O   0  0  0  0  0  0  0  0  0  0  0  0
   -2.8917   -1.1437   -0.6966 C   0  0  0  0  0  0  0  0  0  0  0  0
   -2.4947   -0.7930    0.5935 C   0  0  0  0  0  0  0  0  0  0  0  0
   -1.8235    0.4142    0.8201 C   0  0  0  0  0  0  0  0  0  0  0  0
   -1.5471    1.2819   -0.2421 C   0  0  0  0  0  0  0  0  0  0  0  0
   -0.8045    2.5140   -0.0096 C   0  0  0  0  0  0  0  0  0  0  0  0
    0.5487    2.7231    0.2501 C   0  0  0  0  0  0  0  0  0  0  0  0
    1.6692    1.7805    0.3680 C   0  0  0  0  0  0  0  0  0  0  0  0
    2.7236    2.1265    0.8970 O   0  0  0  0  0  0  0  0  0  0  0  0
    1.4493    0.5141   -0.1760 N   0  0  0  0  0  0  0  0  0  0  0  0
    2.3884   -0.4830   -0.2978 N   0  0  0  0  0  0  0  0  0  0  0  0
    3.2701   -0.6168    0.6425 C   0  0  0  0  0  0  0  0  0  0  0  0
    4.3374   -1.6361    0.5621 C   0  0  0  0  0  0  0  0  0  0  0  0
    5.2598   -1.7275    1.6090 C   0  0  0  0  0  0  0  0  0  0  0  0
    6.2736   -2.6855    1.5546 C   0  0  0  0  0  0  0  0  0  0  0  0
    6.3586   -3.5397    0.4596 C   0  0  0  0  0  0  0  0  0  0  0  0
    7.3655   -4.4586    0.4507 O   0  0  0  0  0  0  0  0  0  0  0  0
    5.4459   -3.4550   -0.5884 C   0  0  0  0  0  0  0  0  0  0  0  0
    4.4299   -2.4978   -0.5369 C   0  0  0  0  0  0  0  0  0  0  0  0
    0.7605    4.0664    0.4310 N   0  0  0  0  0  0  0  0  0  0  0  0
   -0.3854    4.7020    0.2819 N   0  0  0  0  0  0  0  0  0  0  0  0
   -1.3722    3.7945    0.0486 N   0  0  0  0  0  0  0  0  0  0  0  0
   -2.7270    4.1988   -0.0695 C   0  0  0  0  0  0  0  0  0  0  0  0
   -3.7079    3.3075   -0.2140 N   0  0  0  0  0  0  0  0  0  0  0  0
   -4.8658    4.0807   -0.2696 O   0  0  0  0  0  0  0  0  0  0  0  0
   -4.5740    5.4354   -0.1524 N   0  0  0  0  0  0  0  0  0  0  0  0
   -3.2488    5.5062   -0.0351 C   0  0  0  0  0  0  0  0  0  0  0  0
   -2.5578    6.6550    0.0899 N   0  0  0  0  0  0  0  0  0  0  0  0
   -1.9422    0.9279   -1.5360 C   0  0  0  0  0  0  0  0  0  0  0  0
   -2.6121   -0.2776   -1.7563 C   0  0  0  0  0  0  0  0  0  0  0  0
   -3.9745   -4.8688   -1.3877 H   0  0  0  0  0  0  0  0  0  0  0  0
   -4.8775   -5.1180    0.1260 H   0  0  0  0  0  0  0  0  0  0  0  0
   -5.5119   -4.0474   -1.1468 H   0  0  0  0  0  0  0  0  0  0  0  0
   -4.5348   -2.7250    0.7223 H   0  0  0  0  0  0  0  0  0  0  0  0
   -2.9649   -3.5649    0.4784 H   0  0  0  0  0  0  0  0  0  0  0  0
   -2.6897   -1.4353    1.4460 H   0  0  0  0  0  0  0  0  0  0  0  0
   -1.5210    0.6644    1.8352 H   0  0  0  0  0  0  0  0  0  0  0  0
    0.6819    0.4032   -0.8294 H   0  0  0  0  0  0  0  0  0  0  0  0
    3.2591   -0.0100    1.5638 H   0  0  0  0  0  0  0  0  0  0  0  0
    5.2028   -1.0599    2.4647 H   0  0  0  0  0  0  0  0  0  0  0  0
    6.9969   -2.7645    2.3617 H   0  0  0  0  0  0  0  0  0  0  0  0
    7.3138   -4.9697   -0.3737 H   0  0  0  0  0  0  0  0  0  0  0  0
    5.5075   -4.1175   -1.4460 H   0  0  0  0  0  0  0  0  0  0  0  0
    3.7155   -2.4271   -1.3536 H   0  0  0  0  0  0  0  0  0  0  0  0
   -3.0579    7.5103    0.3091 H   0  0  0  0  0  0  0  0  0  0  0  0
   -1.5790    6.6545    0.3749 H   0  0  0  0  0  0  0  0  0  0  0  0
   -1.7414    1.5804   -2.3829 H   0  0  0  0  0  0  0  0  0  0  0  0
   -2.9230   -0.5453   -2.7638 H   0  0  0  0  0  0  0  0  0  0  0  0
  1  2  1  0
  2  3  1  0
  3  4  1  0
  4  5  2  0
  5  6  1  0
  6  7  2  0
  7  8  1  0
  8  9  2  0
  9 10  1  0
 10 11  2  0
 10 12  1  0
 12 13  1  0
 13 14  2  3
 14 15  1  0
 15 16  2  0
 16 17  1  0
 17 18  2  0
 18 19  1  0
 18 20  1  0
 20 21  2  0
  9 22  1  0
 22 23  2  0
 23 24  1  0
 24 25  1  0
 25 26  2  0
 26 27  1  0
 27 28  1  0
 28 29  2  0
 29 30  1  0
  7 31  1  0
 31 32  2  0
 32  4  1  0
 24  8  1  0
 29 25  1  0
 21 15  1  0
  1 33  1  0
  1 34  1  0
  1 35  1  0
  2 36  1  0
  2 37  1  0
  5 38  1  0
  6 39  1  0
 12 40  1  0
 14 41  1  0
 16 42  1  0
 17 43  1  0
 19 44  1  0
 20 45  1  0
 21 46  1  0
 30 47  1  0
 30 48  1  0
 31 49  1  0
 32 50  1  0
M  END
$$$$
