
     RDKit          3D

 51 55  0  0  0  0  0  0  0  0999 V2000
    9.3975   -0.5433   -0.4766 Cl  0  0  0  0  0  0  0  0  0  0  0  0
    7.6844   -0.4539   -0.2720 C   0  0  0  0  0  0  0  0  0  0  0  0
    6.9918    0.5174   -1.0001 C   0  0  0  0  0  0  0  0  0  0  0  0
    5.6054    0.6365   -0.8753 C   0  0  0  0  0  0  0  0  0  0  0  0
    4.8946   -0.2179   -0.0234 C   0  0  0  0  0  0  0  0  0  0  0  0
    3.3966   -0.0794    0.1256 C   0  0  0  0  0  0  0  0  0  0  0  0
    3.0270    0.8823    1.2701 C   0  0  0  0  0  0  0  0  0  0  0  0
    1.5977    1.1096    1.5041 N   0  0  0  0  0  0  0  0  0  0  0  0
    0.8171   -0.0951    1.8286 C   0  0  0  0  0  0  0  0  0  0  0  0
   -0.1132   -0.6088    0.7055 C   0  0  0  0  0  0  0  0  0  0  0  0
   -1.0059    0.4396    0.1894 N   0  0  0  0  0  0  0  0  0  0  0  0
   -2.3455    0.1855   -0.0942 C   0  0  0  0  0  0  0  0  0  0  0  0
   -3.2196    1.1212    0.1885 N   0  0  0  0  0  0  0  0  0  0  0  0
   -4.5947    0.9199   -0.0312 C   0  0  0  0  0  0  0  0  0  0  0  0
   -5.4777    1.9470    0.3079 C   0  0  0  0  0  0  0  0  0  0  0  0
   -6.8544    1.7955    0.1223 C   0  0  0  0  0  0  0  0  0  0  0  0
   -7.3625    0.6085   -0.4063 C   0  0  0  0  0  0  0  0  0  0  0  0
   -6.4982   -0.4309   -0.7524 C   0  0  0  0  0  0  0  0  0  0  0  0
   -5.1232   -0.2642   -0.5601 C   0  0  0  0  0  0  0  0  0  0  0  0
   -4.1818   -1.2510   -0.8938 N   0  0  0  0  0  0  0  0  0  0  0  0
   -4.3827   -2.4918   -1.4510 C   0  0  0  0  0  0  0  0  0  0  0  0
   -3.1524   -3.0698   -1.6700 C   0  0  0  0  0  0  0  0  0  0  0  0
   -2.1747   -2.1549   -1.2150 C   0  0  0  0  0  0  0  0  0  0  0  0
   -2.8308   -1.0503   -0.6978 C   0  0  0  0  0  0  0  0  0  0  0  0
   -0.5858    1.8224    0.4838 C   0  0  0  0  0  0  0  0  0  0  0  0
    0.9517    1.9379    0.4716 C   0  0  0  0  0  0  0  0  0  0  0  0
    5.5956   -1.1868    0.7097 C   0  0  0  0  0  0  0  0  0  0  0  0
    6.9846   -1.3079    0.5860 C   0  0  0  0  0  0  0  0  0  0  0  0
    7.7702   -2.5299    1.5218 Cl  0  0  0  0  0  0  0  0  0  0  0  0
    7.5275    1.1879   -1.6682 H   0  0  0  0  0  0  0  0  0  0  0  0
    5.0850    1.4017   -1.4489 H   0  0  0  0  0  0  0  0  0  0  0  0
    2.9688   -1.0738    0.3012 H   0  0  0  0  0  0  0  0  0  0  0  0
    2.9783    0.2639   -0.8275 H   0  0  0  0  0  0  0  0  0  0  0  0
    3.5131    1.8533    1.1044 H   0  0  0  0  0  0  0  0  0  0  0  0
    3.4655    0.5076    2.2050 H   0  0  0  0  0  0  0  0  0  0  0  0
    0.1874    0.1603    2.6915 H   0  0  0  0  0  0  0  0  0  0  0  0
    1.4629   -0.9109    2.1758 H   0  0  0  0  0  0  0  0  0  0  0  0
    0.4929   -0.9917   -0.1227 H   0  0  0  0  0  0  0  0  0  0  0  0
   -0.6924   -1.4441    1.1154 H   0  0  0  0  0  0  0  0  0  0  0  0
   -5.0846    2.8715    0.7225 H   0  0  0  0  0  0  0  0  0  0  0  0
   -7.5281    2.6048    0.3919 H   0  0  0  0  0  0  0  0  0  0  0  0
   -8.4343    0.4947   -0.5495 H   0  0  0  0  0  0  0  0  0  0  0  0
   -6.9167   -1.3429   -1.1642 H   0  0  0  0  0  0  0  0  0  0  0  0
   -5.3725   -2.8652   -1.6696 H   0  0  0  0  0  0  0  0  0  0  0  0
   -2.9796   -4.0390   -2.1203 H   0  0  0  0  0  0  0  0  0  0  0  0
   -1.1048   -2.2957   -1.2674 H   0  0  0  0  0  0  0  0  0  0  0  0
   -0.9814    2.1374    1.4576 H   0  0  0  0  0  0  0  0  0  0  0  0
   -0.9872    2.5010   -0.2786 H   0  0  0  0  0  0  0  0  0  0  0  0
    1.2983    1.6588   -0.5304 H   0  0  0  0  0  0  0  0  0  0  0  0
    1.2335    2.9848    0.6320 H   0  0  0  0  0  0  0  0  0  0  0  0
    5.0571   -1.8519    1.3823 H   0  0  0  0  0  0  0  0  0  0  0  0
  1  2  1  0
  2  3  2  0
  3  4  1  0
  4  5  2  0
  5  6  1  0
  6  7  1  0
  7  8  1  0
  8  9  1  0
  9 10  1  0
 10 11  1  0
 11 12  1  0
 12 13  2  0
 13 14  1  0
 14 15  2  0
 15 16  1  0
 16 17  2  0
 17 18  1  0
 18 19  2  0
 19 20  1  0
 20 21  1  0
 21 22  2  0
 22 23  1  0
 23 24  2  0
 11 25  1  0
 25 26  1  0
  5 27  1  0
 27 28  2  0
 28 29  1  0
 28  2  1  0
 26  8  1  0
 24 12  1  0
 19 14  1  0
 24 20  1  0
  3 30  1  0
  4 31  1  0
  6 32  1  0
  6 33  1  0
  7 34  1  0
  7 35  1  0
  9 36  1  0
  9 37  1  0
 10 38  1  0
 10 39  1  0
 15 40  1  0
 16 41  1  0
 17 42  1  0
 18 43  1  0
 21 44  1  0
 22 45  1  0
 23 46  1  0
 25 47  1  0
 25 48  1  0
 26 49  1  0
 26 50  1  0
 27 51  1  0
M  END
$$$$
