
     RDKit          3D

 53 54  0  0  0  0  0  0  0  0999 V2000
   -5.8909    1.4282    0.4885 C   0  0  0  0  0  0  0  0  0  0  0  0
   -5.8312   -0.0612    0.7858 C   0  0  0  0  0  0  0  0  0  0  0  0
   -5.7034   -0.8217   -0.4875 N   0  0  0  0  0  0  0  0  0  0  0  0
   -7.0038   -1.0006   -1.1956 C   0  0  0  0  0  0  0  0  0  0  0  0
   -6.8843   -0.4369   -2.6015 C   0  0  0  0  0  0  0  0  0  0  0  0
   -4.7711   -2.2563   -0.3893 S   0  0  0  0  0  6  0  0  0  0  0  0
   -5.2221   -2.9778    0.7820 O   0  0  0  0  0  0  0  0  0  0  0  0
   -4.7381   -2.8763   -1.6957 O   0  0  0  0  0  0  0  0  0  0  0  0
   -3.1377   -1.6299   -0.0750 C   0  0  0  0  0  0  0  0  0  0  0  0
   -2.4348   -2.0388    1.0601 C   0  0  0  0  0  0  0  0  0  0  0  0
   -1.1573   -1.5242    1.2996 C   0  0  0  0  0  0  0  0  0  0  0  0
   -0.5861   -0.6028    0.4071 C   0  0  0  0  0  0  0  0  0  0  0  0
    0.7669   -0.0205    0.6218 C   0  0  0  0  0  0  0  0  0  0  0  0
    1.3189    0.7250   -0.1740 O   0  0  0  0  0  0  0  0  0  0  0  0
    1.2733   -0.4104    1.8184 O   0  0  0  0  0  0  0  0  0  0  0  0
    2.6122    0.0258    2.0480 C   0  0  0  0  0  0  0  0  0  0  0  0
    3.6216   -0.7437    1.1939 C   0  0  0  0  0  0  0  0  0  0  0  0
    3.6090   -1.9691    1.1077 O   0  0  0  0  0  0  0  0  0  0  0  0
    4.5339    0.0478    0.5330 N   0  0  0  0  0  0  0  0  0  0  0  0
    5.4897   -0.5329   -0.3891 C   0  0  0  0  0  0  0  0  0  0  0  0
    6.3087    0.5282   -1.1327 C   0  0  0  0  0  0  0  0  0  0  0  0
    7.1566    1.3135   -0.2475 N   0  0  0  0  0  0  0  0  0  0  0  0
    6.7631    2.4799    0.3606 C   0  0  0  0  0  0  0  0  0  0  0  0
    5.5024    2.9521    0.1377 O   0  0  0  0  0  0  0  0  0  0  0  0
    7.6875    3.0327    1.1528 C   0  0  0  0  0  0  0  0  0  0  0  0
    9.1353    2.0716    1.1954 S   0  0  0  0  0  0  0  0  0  0  0  0
    8.4243    0.8742    0.0967 C   0  0  0  0  0  0  0  0  0  0  0  0
    8.9922   -0.1439   -0.2606 O   0  0  0  0  0  0  0  0  0  0  0  0
   -1.3012   -0.2095   -0.7345 C   0  0  0  0  0  0  0  0  0  0  0  0
   -2.5768   -0.7223   -0.9786 C   0  0  0  0  0  0  0  0  0  0  0  0
   -6.7682    1.6832   -0.1135 H   0  0  0  0  0  0  0  0  0  0  0  0
   -5.0015    1.7519   -0.0626 H   0  0  0  0  0  0  0  0  0  0  0  0
   -5.9435    1.9994    1.4203 H   0  0  0  0  0  0  0  0  0  0  0  0
   -6.7228   -0.3805    1.3363 H   0  0  0  0  0  0  0  0  0  0  0  0
   -4.9692   -0.2395    1.4357 H   0  0  0  0  0  0  0  0  0  0  0  0
   -7.2933   -2.0572   -1.2331 H   0  0  0  0  0  0  0  0  0  0  0  0
   -7.8123   -0.4825   -0.6680 H   0  0  0  0  0  0  0  0  0  0  0  0
   -6.6139    0.6246   -2.5768 H   0  0  0  0  0  0  0  0  0  0  0  0
   -6.1156   -0.9623   -3.1765 H   0  0  0  0  0  0  0  0  0  0  0  0
   -7.8353   -0.5352   -3.1344 H   0  0  0  0  0  0  0  0  0  0  0  0
   -2.8665   -2.7547    1.7567 H   0  0  0  0  0  0  0  0  0  0  0  0
   -0.6154   -1.8572    2.1820 H   0  0  0  0  0  0  0  0  0  0  0  0
    2.8535   -0.1749    3.0975 H   0  0  0  0  0  0  0  0  0  0  0  0
    2.6936    1.1098    1.9030 H   0  0  0  0  0  0  0  0  0  0  0  0
    4.3575    1.0434    0.4583 H   0  0  0  0  0  0  0  0  0  0  0  0
    6.1387   -1.2048    0.1835 H   0  0  0  0  0  0  0  0  0  0  0  0
    4.9310   -1.1430   -1.1113 H   0  0  0  0  0  0  0  0  0  0  0  0
    6.9511    0.0237   -1.8632 H   0  0  0  0  0  0  0  0  0  0  0  0
    5.6505    1.2001   -1.6967 H   0  0  0  0  0  0  0  0  0  0  0  0
    5.4357    3.8347    0.5434 H   0  0  0  0  0  0  0  0  0  0  0  0
    7.5803    3.9409    1.7270 H   0  0  0  0  0  0  0  0  0  0  0  0
   -0.8650    0.4961   -1.4402 H   0  0  0  0  0  0  0  0  0  0  0  0
   -3.1264   -0.4161   -1.8661 H   0  0  0  0  0  0  0  0  0  0  0  0
  1  2  1  0
  2  3  1  0
  3  4  1  0
  4  5  1  0
  3  6  1  0
  6  7  2  0
  6  8  2  0
  6  9  1  0
  9 10  2  0
 10 11  1  0
 11 12  2  0
 12 13  1  0
 13 14  2  0
 13 15  1  0
 15 16  1  0
 16 17  1  0
 17 18  2  0
 17 19  1  0
 19 20  1  0
 20 21  1  0
 21 22  1  0
 22 23  1  0
 23 24  1  0
 23 25  2  0
 25 26  1  0
 26 27  1  0
 27 28  2  0
 12 29  1  0
 29 30  2  0
 30  9  1  0
 27 22  1  0
  1 31  1  0
  1 32  1  0
  1 33  1  0
  2 34  1  0
  2 35  1  0
  4 36  1  0
  4 37  1  0
  5 38  1  0
  5 39  1  0
  5 40  1  0
 10 41  1  0
 11 42  1  0
 16 43  1  0
 16 44  1  0
 19 45  1  0
 20 46  1  0
 20 47  1  0
 21 48  1  0
 21 49  1  0
 24 50  1  0
 25 51  1  0
 29 52  1  0
 30 53  1  0
M  END
$$$$
