
     RDKit          3D

 39 40  0  0  0  0  0  0  0  0999 V2000
    3.9568    2.1674   -2.5315 C   0  0  0  0  0  0  0  0  0  0  0  0
    4.5901    1.6934   -1.2284 C   0  0  0  0  0  0  0  0  0  0  0  0
    3.9802    0.4124   -0.6261 C   0  0  0  0  0  0  0  0  0  0  0  0
    3.8844   -0.7205   -1.6492 C   0  0  0  0  0  0  0  0  0  0  0  0
    2.6221    0.6718    0.0466 C   0  0  0  0  0  0  0  0  0  0  0  0
    2.0538    1.7539   -0.0433 O   0  0  0  0  0  0  0  0  0  0  0  0
    2.1746   -0.4243    0.7528 N   0  0  0  0  0  0  0  0  0  0  0  0
    0.9941   -0.5387    1.4431 C   0  0  0  0  0  0  0  0  0  0  0  0
    0.6975   -1.6180    2.1338 N   0  0  0  0  0  0  0  0  0  0  0  0
   -0.5371   -1.5247    2.7435 N   0  0  0  0  0  0  0  0  0  0  0  0
   -1.1329   -0.3811    2.4721 C   0  0  0  0  0  0  0  0  0  0  0  0
   -2.4861    0.0120    2.9702 C   0  0  0  0  0  0  0  0  0  0  0  0
   -3.5940   -0.8791    2.4009 C   0  0  0  0  0  0  0  0  0  0  0  0
   -3.8254   -0.6701    0.9230 C   0  0  0  0  0  0  0  0  0  0  0  0
   -3.2566   -1.5437   -0.0139 C   0  0  0  0  0  0  0  0  0  0  0  0
   -3.4478   -1.3366   -1.3805 C   0  0  0  0  0  0  0  0  0  0  0  0
   -4.2073   -0.2554   -1.8230 C   0  0  0  0  0  0  0  0  0  0  0  0
   -4.7760    0.6200   -0.8997 C   0  0  0  0  0  0  0  0  0  0  0  0
   -4.5857    0.4154    0.4677 C   0  0  0  0  0  0  0  0  0  0  0  0
   -0.2093    0.6642    1.4708 S   0  0  0  0  0  0  0  0  0  0  0  0
    4.4071    3.1170   -2.8391 H   0  0  0  0  0  0  0  0  0  0  0  0
    2.8801    2.3260   -2.4280 H   0  0  0  0  0  0  0  0  0  0  0  0
    4.1235    1.4499   -3.3406 H   0  0  0  0  0  0  0  0  0  0  0  0
    5.6573    1.5186   -1.4151 H   0  0  0  0  0  0  0  0  0  0  0  0
    4.5358    2.5062   -0.4936 H   0  0  0  0  0  0  0  0  0  0  0  0
    4.6602    0.0928    0.1762 H   0  0  0  0  0  0  0  0  0  0  0  0
    3.6699   -1.6780   -1.1631 H   0  0  0  0  0  0  0  0  0  0  0  0
    4.8265   -0.8364   -2.1951 H   0  0  0  0  0  0  0  0  0  0  0  0
    3.0814   -0.5411   -2.3721 H   0  0  0  0  0  0  0  0  0  0  0  0
    2.7618   -1.2419    0.8376 H   0  0  0  0  0  0  0  0  0  0  0  0
   -2.6962    1.0672    2.7569 H   0  0  0  0  0  0  0  0  0  0  0  0
   -2.4835   -0.0889    4.0628 H   0  0  0  0  0  0  0  0  0  0  0  0
   -4.5320   -0.6666    2.9303 H   0  0  0  0  0  0  0  0  0  0  0  0
   -3.3775   -1.9374    2.5966 H   0  0  0  0  0  0  0  0  0  0  0  0
   -2.6534   -2.3878    0.3158 H   0  0  0  0  0  0  0  0  0  0  0  0
   -3.0010   -2.0179   -2.0996 H   0  0  0  0  0  0  0  0  0  0  0  0
   -4.3543   -0.0939   -2.8875 H   0  0  0  0  0  0  0  0  0  0  0  0
   -5.3666    1.4643   -1.2455 H   0  0  0  0  0  0  0  0  0  0  0  0
   -5.0344    1.1097    1.1742 H   0  0  0  0  0  0  0  0  0  0  0  0
  1  2  1  0
  2  3  1  0
  3  4  1  0
  3  5  1  0
  5  6  2  0
  5  7  1  0
  7  8  1  0
  8  9  2  0
  9 10  1  0
 10 11  2  0
 11 12  1  0
 12 13  1  0
 13 14  1  0
 14 15  2  0
 15 16  1  0
 16 17  2  0
 17 18  1  0
 18 19  2  0
 11 20  1  0
 20  8  1  0
 19 14  1  0
  1 21  1  0
  1 22  1  0
  1 23  1  0
  2 24  1  0
  2 25  1  0
  3 26  1  0
  4 27  1  0
  4 28  1  0
  4 29  1  0
  7 30  1  0
 12 31  1  0
 12 32  1  0
 13 33  1  0
 13 34  1  0
 15 35  1  0
 16 36  1  0
 17 37  1  0
 18 38  1  0
 19 39  1  0
M  END
$$$$
