
     RDKit          3D

 42 43  0  0  0  0  0  0  0  0999 V2000
   -5.8550   -0.8940    0.5797 C   0  0  0  0  0  0  0  0  0  0  0  0
   -4.5513   -0.5496   -0.0652 C   0  0  0  0  0  0  0  0  0  0  0  0
   -4.0182    0.6707   -0.2867 C   0  0  0  0  0  0  0  0  0  0  0  0
   -4.7138    1.9657    0.0443 C   0  0  0  0  0  0  0  0  0  0  0  0
   -2.6563    0.8789   -0.9425 C   0  0  0  0  0  0  0  0  0  0  0  0
   -1.7279   -0.2610   -0.8825 N   0  0  0  0  0  0  0  0  0  0  0  0
   -0.5955   -0.0846   -1.8183 C   0  0  0  0  0  0  0  0  0  0  0  0
    0.6744    0.5704   -1.2261 C   0  0  0  0  0  0  0  0  0  0  0  0
    1.1640   -0.1744   -0.0539 N   0  0  0  0  0  0  0  0  0  0  0  0
    2.5164   -0.2168    0.2460 C   0  0  0  0  0  0  0  0  0  0  0  0
    3.0909   -1.2725    0.9701 C   0  0  0  0  0  0  0  0  0  0  0  0
    4.4589   -1.3098    1.2758 C   0  0  0  0  0  0  0  0  0  0  0  0
    5.3069   -0.2841    0.8596 C   0  0  0  0  0  0  0  0  0  0  0  0
    6.7627   -0.3020    1.2142 C   0  0  0  0  0  0  0  0  0  0  0  0
    4.7567    0.7878    0.1583 C   0  0  0  0  0  0  0  0  0  0  0  0
    3.3879    0.8132   -0.1430 C   0  0  0  0  0  0  0  0  0  0  0  0
    0.1919   -1.0628    0.6022 C   0  0  0  0  0  0  0  0  0  0  0  0
   -1.2331   -0.4682    0.5034 C   0  0  0  0  0  0  0  0  0  0  0  0
   -6.5353   -1.3218   -0.1629 H   0  0  0  0  0  0  0  0  0  0  0  0
   -5.6873   -1.6452    1.3585 H   0  0  0  0  0  0  0  0  0  0  0  0
   -6.3500   -0.0445    1.0534 H   0  0  0  0  0  0  0  0  0  0  0  0
   -3.9843   -1.4228   -0.3888 H   0  0  0  0  0  0  0  0  0  0  0  0
   -4.7295    2.6183   -0.8356 H   0  0  0  0  0  0  0  0  0  0  0  0
   -5.7515    1.8386    0.3587 H   0  0  0  0  0  0  0  0  0  0  0  0
   -4.1798    2.4837    0.8477 H   0  0  0  0  0  0  0  0  0  0  0  0
   -2.1746    1.7706   -0.5187 H   0  0  0  0  0  0  0  0  0  0  0  0
   -2.8725    1.1177   -1.9929 H   0  0  0  0  0  0  0  0  0  0  0  0
   -0.3215   -1.0874   -2.1735 H   0  0  0  0  0  0  0  0  0  0  0  0
   -0.9032    0.4610   -2.7189 H   0  0  0  0  0  0  0  0  0  0  0  0
    0.4600    1.6055   -0.9348 H   0  0  0  0  0  0  0  0  0  0  0  0
    1.4291    0.5899   -2.0219 H   0  0  0  0  0  0  0  0  0  0  0  0
    2.4848   -2.1108    1.3007 H   0  0  0  0  0  0  0  0  0  0  0  0
    4.8508   -2.1530    1.8396 H   0  0  0  0  0  0  0  0  0  0  0  0
    6.9191    0.1883    2.1799 H   0  0  0  0  0  0  0  0  0  0  0  0
    7.1377   -1.3292    1.2738 H   0  0  0  0  0  0  0  0  0  0  0  0
    7.3564    0.2162    0.4538 H   0  0  0  0  0  0  0  0  0  0  0  0
    5.3829    1.6186   -0.1578 H   0  0  0  0  0  0  0  0  0  0  0  0
    3.0079    1.6823   -0.6727 H   0  0  0  0  0  0  0  0  0  0  0  0
    0.4259   -1.1718    1.6681 H   0  0  0  0  0  0  0  0  0  0  0  0
    0.2208   -2.0579    0.1417 H   0  0  0  0  0  0  0  0  0  0  0  0
   -1.2224    0.4827    1.0541 H   0  0  0  0  0  0  0  0  0  0  0  0
   -1.9229   -1.1359    1.0311 H   0  0  0  0  0  0  0  0  0  0  0  0
  1  2  1  0
  2  3  2  3
  3  4  1  0
  3  5  1  0
  5  6  1  0
  6  7  1  0
  7  8  1  0
  8  9  1  0
  9 10  1  0
 10 11  2  0
 11 12  1  0
 12 13  2  0
 13 14  1  0
 13 15  1  0
 15 16  2  0
  9 17  1  0
 17 18  1  0
 18  6  1  0
 16 10  1  0
  1 19  1  0
  1 20  1  0
  1 21  1  0
  2 22  1  0
  4 23  1  0
  4 24  1  0
  4 25  1  0
  5 26  1  0
  5 27  1  0
  7 28  1  0
  7 29  1  0
  8 30  1  0
  8 31  1  0
 11 32  1  0
 12 33  1  0
 14 34  1  0
 14 35  1  0
 14 36  1  0
 15 37  1  0
 16 38  1  0
 17 39  1  0
 17 40  1  0
 18 41  1  0
 18 42  1  0
M  END
$$$$
