
     RDKit          3D

 36 36  0  0  0  0  0  0  0  0999 V2000
    2.1411   -5.1688    0.4234 C   0  0  0  0  0  0  0  0  0  0  0  0
    1.5085   -4.9328    1.7832 C   0  0  0  0  0  0  0  0  0  0  0  0
    1.0616   -3.5852    1.9242 O   0  0  0  0  0  0  0  0  0  0  0  0
   -0.1943   -3.3384    1.2947 C   0  0  0  0  0  0  0  0  0  0  0  0
   -0.6079   -1.8968    1.5639 C   0  0  0  0  0  0  0  0  0  0  0  0
    0.4003   -0.9043    0.9901 C   0  0  0  0  0  0  0  0  0  0  0  0
   -0.0247    0.4685    1.2026 N   0  0  0  0  0  0  0  0  0  0  0  0
   -0.9228    1.0835    0.3602 C   0  0  0  0  0  0  0  0  0  0  0  0
   -1.3817    0.5562   -0.6465 O   0  0  0  0  0  0  0  0  0  0  0  0
   -1.3049    2.4621    0.7623 C   0  0  0  0  0  0  0  0  0  0  0  0
   -1.8127    2.6267    2.0819 C   0  0  0  0  0  0  0  0  0  0  0  0
   -2.1936    2.7716    3.1682 N   0  0  0  0  0  0  0  0  0  0  0  0
   -1.2353    3.5298   -0.0532 C   0  0  0  0  0  0  0  0  0  0  0  0
   -0.7291    3.5743   -1.3839 C   0  0  0  0  0  0  0  0  0  0  0  0
    0.1468    2.7543   -2.0965 C   0  0  0  0  0  0  0  0  0  0  0  0
    0.3130    3.2917   -3.3992 C   0  0  0  0  0  0  0  0  0  0  0  0
   -0.4538    4.4250   -3.4123 C   0  0  0  0  0  0  0  0  0  0  0  0
   -0.6951    5.4009   -4.4265 N   0  0  0  0  0  4  0  0  0  0  0  0
   -1.4419    6.3490   -4.1527 O   0  0  0  0  0  0  0  0  0  0  0  0
   -0.1236    5.2172   -5.5101 O   0  0  0  0  0  1  0  0  0  0  0  0
   -1.0702    4.6220   -2.2218 O   0  0  0  0  0  0  0  0  0  0  0  0
    2.9184   -4.4237    0.2252 H   0  0  0  0  0  0  0  0  0  0  0  0
    2.5861   -6.1668    0.3737 H   0  0  0  0  0  0  0  0  0  0  0  0
    1.4029   -5.0844   -0.3795 H   0  0  0  0  0  0  0  0  0  0  0  0
    0.6889   -5.6356    1.9706 H   0  0  0  0  0  0  0  0  0  0  0  0
    2.2645   -5.0985    2.5578 H   0  0  0  0  0  0  0  0  0  0  0  0
   -0.1192   -3.5105    0.2161 H   0  0  0  0  0  0  0  0  0  0  0  0
   -0.9500   -4.0153    1.7089 H   0  0  0  0  0  0  0  0  0  0  0  0
   -0.6883   -1.7328    2.6457 H   0  0  0  0  0  0  0  0  0  0  0  0
   -1.6015   -1.7203    1.1360 H   0  0  0  0  0  0  0  0  0  0  0  0
    1.3769   -1.0114    1.4733 H   0  0  0  0  0  0  0  0  0  0  0  0
    0.5312   -1.0699   -0.0852 H   0  0  0  0  0  0  0  0  0  0  0  0
    0.2817    0.9188    2.0569 H   0  0  0  0  0  0  0  0  0  0  0  0
   -1.6041    4.4870    0.3158 H   0  0  0  0  0  0  0  0  0  0  0  0
    0.6202    1.8537   -1.7278 H   0  0  0  0  0  0  0  0  0  0  0  0
    0.9127    2.9030   -4.2107 H   0  0  0  0  0  0  0  0  0  0  0  0
  1  2  1  0
  2  3  1  0
  3  4  1  0
  4  5  1  0
  5  6  1  0
  6  7  1  0
  7  8  1  0
  8  9  2  0
  8 10  1  0
 10 11  1  0
 11 12  3  0
 10 13  2  3
 13 14  1  0
 14 15  2  0
 15 16  1  0
 16 17  2  0
 17 18  1  0
 18 19  2  0
 18 20  1  0
 17 21  1  0
 21 14  1  0
  1 22  1  0
  1 23  1  0
  1 24  1  0
  2 25  1  0
  2 26  1  0
  4 27  1  0
  4 28  1  0
  5 29  1  0
  5 30  1  0
  6 31  1  0
  6 32  1  0
  7 33  1  0
 13 34  1  0
 15 35  1  0
 16 36  1  0
M  CHG  2  18   1  20  -1
M  END
$$$$
