
     RDKit          3D

 59 63  0  0  0  0  0  0  0  0999 V2000
   -5.6371   -3.4024    0.9358 C   0  0  0  0  0  0  0  0  0  0  0  0
   -5.1719   -2.2431    0.0664 C   0  0  0  0  0  0  0  0  0  0  0  0
   -3.6859   -1.9105    0.2763 C   0  0  0  0  0  0  0  0  0  0  0  0
   -3.5071   -1.2745    1.5787 N   0  0  0  0  0  0  0  0  0  0  0  0
   -2.1929   -0.8629    1.8077 C   0  0  0  0  0  0  0  0  0  0  0  0
   -1.8154   -0.9068    3.0901 N   0  0  0  0  0  0  0  0  0  0  0  0
   -0.5904   -0.4523    3.3482 C   0  0  0  0  0  0  0  0  0  0  0  0
    0.2922   -0.0097    2.4472 N   0  0  0  0  0  0  0  0  0  0  0  0
   -0.0914    0.0008    1.1552 C   0  0  0  0  0  0  0  0  0  0  0  0
    0.9058    0.3197    0.2091 N   0  0  0  0  0  0  0  0  0  0  0  0
    1.8455    1.3811    0.6644 C   0  0  0  0  0  0  0  0  0  0  0  0
    3.2468    0.8423    1.0173 C   0  0  0  0  0  0  0  0  0  0  0  0
    3.8373    0.1594   -0.1511 N   0  0  0  0  0  0  0  0  0  0  0  0
    5.1551   -0.2661   -0.0087 C   0  0  0  0  0  0  0  0  0  0  0  0
    5.8652   -0.7759   -1.0988 C   0  0  0  0  0  0  0  0  0  0  0  0
    7.1934   -1.1784   -0.9459 C   0  0  0  0  0  0  0  0  0  0  0  0
    7.7971   -1.0629    0.2942 C   0  0  0  0  0  0  0  0  0  0  0  0
    7.0440   -0.5370    1.3256 C   0  0  0  0  0  0  0  0  0  0  0  0
    5.7577   -0.1355    1.1943 N   0  0  0  0  0  0  0  0  0  0  0  0
    2.9103   -0.6468   -0.9642 C   0  0  0  0  0  0  0  0  0  0  0  0
    1.5860   -0.9328   -0.2186 C   0  0  0  0  0  0  0  0  0  0  0  0
   -1.3831   -0.3915    0.7645 C   0  0  0  0  0  0  0  0  0  0  0  0
   -1.9339   -0.3468   -0.5687 N   0  0  0  0  0  0  0  0  0  0  0  0
   -1.4235    0.5469   -1.6000 C   0  0  0  0  0  0  0  0  0  0  0  0
   -2.0509    1.9247   -1.5736 C   0  0  0  0  0  0  0  0  0  0  0  0
   -2.9089    2.3180   -2.6091 C   0  0  0  0  0  0  0  0  0  0  0  0
   -3.4700    3.5958   -2.6234 C   0  0  0  0  0  0  0  0  0  0  0  0
   -3.1802    4.4876   -1.5940 C   0  0  0  0  0  0  0  0  0  0  0  0
   -3.9353    6.2203   -1.6146 Br  0  0  0  0  0  0  0  0  0  0  0  0
   -2.3395    4.1122   -0.5507 C   0  0  0  0  0  0  0  0  0  0  0  0
   -1.7747    2.8364   -0.5443 C   0  0  0  0  0  0  0  0  0  0  0  0
   -3.1502   -0.9933   -0.8481 C   0  0  0  0  0  0  0  0  0  0  0  0
   -3.7052   -0.9163   -1.9470 O   0  0  0  0  0  0  0  0  0  0  0  0
   -5.0749   -4.3120    0.7079 H   0  0  0  0  0  0  0  0  0  0  0  0
   -5.5185   -3.1803    1.9977 H   0  0  0  0  0  0  0  0  0  0  0  0
   -6.6976   -3.6071    0.7510 H   0  0  0  0  0  0  0  0  0  0  0  0
   -5.3595   -2.5156   -0.9795 H   0  0  0  0  0  0  0  0  0  0  0  0
   -5.7909   -1.3634    0.2760 H   0  0  0  0  0  0  0  0  0  0  0  0
   -3.1019   -2.8406    0.2289 H   0  0  0  0  0  0  0  0  0  0  0  0
   -3.8412   -1.7702    2.3987 H   0  0  0  0  0  0  0  0  0  0  0  0
   -0.2755   -0.4475    4.3832 H   0  0  0  0  0  0  0  0  0  0  0  0
    1.9481    2.0826   -0.1742 H   0  0  0  0  0  0  0  0  0  0  0  0
    1.4442    1.9748    1.4960 H   0  0  0  0  0  0  0  0  0  0  0  0
    3.8722    1.6937    1.3084 H   0  0  0  0  0  0  0  0  0  0  0  0
    3.1789    0.1577    1.8714 H   0  0  0  0  0  0  0  0  0  0  0  0
    5.4041   -0.8393   -2.0796 H   0  0  0  0  0  0  0  0  0  0  0  0
    7.7465   -1.5730   -1.7933 H   0  0  0  0  0  0  0  0  0  0  0  0
    8.8256   -1.3660    0.4542 H   0  0  0  0  0  0  0  0  0  0  0  0
    7.4651   -0.4152    2.3199 H   0  0  0  0  0  0  0  0  0  0  0  0
    2.6994   -0.0935   -1.8874 H   0  0  0  0  0  0  0  0  0  0  0  0
    3.3394   -1.6144   -1.2494 H   0  0  0  0  0  0  0  0  0  0  0  0
    1.8069   -1.5736    0.6501 H   0  0  0  0  0  0  0  0  0  0  0  0
    0.9230   -1.4980   -0.8895 H   0  0  0  0  0  0  0  0  0  0  0  0
   -1.6352    0.0876   -2.5747 H   0  0  0  0  0  0  0  0  0  0  0  0
   -0.3437    0.6400   -1.6052 H   0  0  0  0  0  0  0  0  0  0  0  0
   -3.1498    1.6239   -3.4123 H   0  0  0  0  0  0  0  0  0  0  0  0
   -4.1258    3.8837   -3.4407 H   0  0  0  0  0  0  0  0  0  0  0  0
   -2.1121    4.8022    0.2570 H   0  0  0  0  0  0  0  0  0  0  0  0
   -1.1158    2.5637    0.2714 H   0  0  0  0  0  0  0  0  0  0  0  0
  1  2  1  0
  2  3  1  0
  3  4  1  0
  4  5  1  0
  5  6  2  0
  6  7  1  0
  7  8  2  0
  8  9  1  0
  9 10  1  0
 10 11  1  0
 11 12  1  0
 12 13  1  0
 13 14  1  0
 14 15  2  0
 15 16  1  0
 16 17  2  0
 17 18  1  0
 18 19  2  0
 13 20  1  0
 20 21  1  0
  9 22  2  0
 22 23  1  0
 23 24  1  0
 24 25  1  0
 25 26  2  0
 26 27  1  0
 27 28  2  0
 28 29  1  0
 28 30  1  0
 30 31  2  0
 23 32  1  0
 32 33  2  0
 32  3  1  0
 22  5  1  0
 31 25  1  0
 21 10  1  0
 19 14  1  0
  1 34  1  0
  1 35  1  0
  1 36  1  0
  2 37  1  0
  2 38  1  0
  3 39  1  0
  4 40  1  0
  7 41  1  0
 11 42  1  0
 11 43  1  0
 12 44  1  0
 12 45  1  0
 15 46  1  0
 16 47  1  0
 17 48  1  0
 18 49  1  0
 20 50  1  0
 20 51  1  0
 21 52  1  0
 21 53  1  0
 24 54  1  0
 24 55  1  0
 26 56  1  0
 27 57  1  0
 30 58  1  0
 31 59  1  0
M  END
$$$$
