
     RDKit          3D

 77 80  0  0  0  0  0  0  0  0999 V2000
   -0.2004    4.7836   -0.2004 C   0  0  0  0  0  0  0  0  0  0  0  0
   -1.4726    4.0315    0.1966 C   0  0  0  0  0  0  0  0  0  0  0  0
   -2.6250    5.0158    0.3942 C   0  0  0  0  0  0  0  0  0  0  0  0
   -1.8402    3.0149   -0.7866 N   0  0  0  0  0  0  0  0  0  0  0  0
   -1.0728    1.8890   -0.9418 C   0  0  0  0  0  0  0  0  0  0  0  0
   -0.0061    1.7109   -0.3591 O   0  0  0  0  0  0  0  0  0  0  0  0
   -1.5984    0.9357   -1.8058 N   0  0  0  0  0  0  0  0  0  0  0  0
   -2.3694    1.3294   -2.9768 C   0  0  0  0  0  0  0  0  0  0  0  0
   -0.8262   -0.3061   -1.9131 C   0  0  0  0  0  0  0  0  0  0  0  0
   -0.9489   -1.2122   -0.6521 C   0  0  0  0  0  0  0  0  0  0  0  0
    0.1236   -2.1721   -0.7260 O   0  0  0  0  0  0  0  0  0  0  0  0
    0.6976   -2.4314    0.5022 C   0  0  0  0  0  0  0  0  0  0  0  0
    1.6619   -1.5678    1.0798 C   0  0  0  0  0  0  0  0  0  0  0  0
    2.0011   -0.3547    0.4297 N   0  0  0  0  0  0  0  0  0  0  0  0
    2.8036    0.6771    0.9077 C   0  0  0  0  0  0  0  0  0  0  0  0
    3.3393    0.6953    2.0103 O   0  0  0  0  0  0  0  0  0  0  0  0
    2.9386    1.6756   -0.0457 N   0  0  0  0  0  0  0  0  0  0  0  0
    3.6406    2.8950    0.0660 C   0  0  0  0  0  0  0  0  0  0  0  0
    3.6235    3.7424   -1.0670 C   0  0  0  0  0  0  0  0  0  0  0  0
    4.2659    4.9883   -1.0568 C   0  0  0  0  0  0  0  0  0  0  0  0
    4.9090    5.3629    0.0979 C   0  0  0  0  0  0  0  0  0  0  0  0
    4.9338    4.5437    1.2029 C   0  0  0  0  0  0  0  0  0  0  0  0
    4.3195    3.3037    1.2163 C   0  0  0  0  0  0  0  0  0  0  0  0
    5.6097    5.1025    2.2498 O   0  0  0  0  0  0  0  0  0  0  0  0
    6.0112    6.3597    1.6662 C   0  0  0  0  0  0  0  0  0  0  0  0
    5.5621    6.5388    0.3060 O   0  0  0  0  0  0  0  0  0  0  0  0
    2.2663   -1.9463    2.2868 C   0  0  0  0  0  0  0  0  0  0  0  0
    1.9446   -3.1448    2.9218 C   0  0  0  0  0  0  0  0  0  0  0  0
    1.0114   -3.9949    2.3480 C   0  0  0  0  0  0  0  0  0  0  0  0
    0.3895   -3.6442    1.1415 C   0  0  0  0  0  0  0  0  0  0  0  0
   -0.5778   -4.6320    0.6150 C   0  0  0  0  0  0  0  0  0  0  0  0
   -0.2003   -5.8043    0.5682 O   0  0  0  0  0  0  0  0  0  0  0  0
   -1.8830   -4.2421    0.2959 N   0  0  0  0  0  0  0  0  0  0  0  0
   -2.8585   -5.2919   -0.0989 C   0  0  0  0  0  0  0  0  0  0  0  0
   -2.4598   -6.0379   -1.3762 C   0  0  0  0  0  0  0  0  0  0  0  0
   -3.1588   -6.2773    1.0479 C   0  0  0  0  0  0  0  0  0  0  0  0
   -4.3977   -6.9526    0.8108 O   0  0  0  0  0  0  0  0  0  0  0  0
   -2.4230   -2.9115    0.6148 C   0  0  0  0  0  0  0  0  0  0  0  0
   -2.3483   -1.8813   -0.5328 C   0  0  0  0  0  0  0  0  0  0  0  0
   -2.8753   -2.4639   -1.8473 C   0  0  0  0  0  0  0  0  0  0  0  0
   -0.3139    5.2801   -1.1690 H   0  0  0  0  0  0  0  0  0  0  0  0
    0.0433    5.5441    0.5476 H   0  0  0  0  0  0  0  0  0  0  0  0
    0.6498    4.1073   -0.2710 H   0  0  0  0  0  0  0  0  0  0  0  0
   -1.2915    3.5115    1.1496 H   0  0  0  0  0  0  0  0  0  0  0  0
   -2.3811    5.7514    1.1678 H   0  0  0  0  0  0  0  0  0  0  0  0
   -2.8557    5.5558   -0.5295 H   0  0  0  0  0  0  0  0  0  0  0  0
   -3.5302    4.4834    0.7114 H   0  0  0  0  0  0  0  0  0  0  0  0
   -2.8286    2.8140   -0.8389 H   0  0  0  0  0  0  0  0  0  0  0  0
   -2.8752    0.4562   -3.4039 H   0  0  0  0  0  0  0  0  0  0  0  0
   -3.1319    2.0752   -2.7288 H   0  0  0  0  0  0  0  0  0  0  0  0
   -1.6875    1.7613   -3.7187 H   0  0  0  0  0  0  0  0  0  0  0  0
    0.2248   -0.0437   -2.0900 H   0  0  0  0  0  0  0  0  0  0  0  0
   -1.1148   -0.8531   -2.8145 H   0  0  0  0  0  0  0  0  0  0  0  0
   -0.8232   -0.5901    0.2450 H   0  0  0  0  0  0  0  0  0  0  0  0
    1.4682   -0.1392   -0.3976 H   0  0  0  0  0  0  0  0  0  0  0  0
    2.3764    1.5642   -0.8823 H   0  0  0  0  0  0  0  0  0  0  0  0
    3.1052    3.4335   -1.9750 H   0  0  0  0  0  0  0  0  0  0  0  0
    4.2472    5.6367   -1.9215 H   0  0  0  0  0  0  0  0  0  0  0  0
    4.3786    2.7026    2.1150 H   0  0  0  0  0  0  0  0  0  0  0  0
    5.6065    7.1702    2.2783 H   0  0  0  0  0  0  0  0  0  0  0  0
    7.1046    6.4232    1.6803 H   0  0  0  0  0  0  0  0  0  0  0  0
    3.0246   -1.3309    2.7606 H   0  0  0  0  0  0  0  0  0  0  0  0
    2.4319   -3.4096    3.8561 H   0  0  0  0  0  0  0  0  0  0  0  0
    0.7675   -4.9376    2.8335 H   0  0  0  0  0  0  0  0  0  0  0  0
   -3.7998   -4.7851   -0.3394 H   0  0  0  0  0  0  0  0  0  0  0  0
   -2.2207   -5.3440   -2.1882 H   0  0  0  0  0  0  0  0  0  0  0  0
   -1.5893   -6.6821   -1.2247 H   0  0  0  0  0  0  0  0  0  0  0  0
   -3.2733   -6.6754   -1.7278 H   0  0  0  0  0  0  0  0  0  0  0  0
   -2.3746   -7.0343    1.1503 H   0  0  0  0  0  0  0  0  0  0  0  0
   -3.2536   -5.7437    2.0015 H   0  0  0  0  0  0  0  0  0  0  0  0
   -4.4957   -7.5933    1.5397 H   0  0  0  0  0  0  0  0  0  0  0  0
   -1.9215   -2.5158    1.5101 H   0  0  0  0  0  0  0  0  0  0  0  0
   -3.4748   -3.0383    0.9169 H   0  0  0  0  0  0  0  0  0  0  0  0
   -3.0373   -1.0697   -0.2617 H   0  0  0  0  0  0  0  0  0  0  0  0
   -2.1401   -3.1201   -2.3202 H   0  0  0  0  0  0  0  0  0  0  0  0
   -3.8037   -3.0202   -1.6940 H   0  0  0  0  0  0  0  0  0  0  0  0
   -3.1209   -1.6709   -2.5570 H   0  0  0  0  0  0  0  0  0  0  0  0
  1  2  1  0
  2  3  1  0
  2  4  1  0
  4  5  1  0
  5  6  2  0
  5  7  1  0
  7  8  1  0
  7  9  1  0
  9 10  1  0
 10 11  1  0
 11 12  1  0
 12 13  2  0
 13 14  1  0
 14 15  1  0
 15 16  2  0
 15 17  1  0
 17 18  1  0
 18 19  2  0
 19 20  1  0
 20 21  2  0
 21 22  1  0
 22 23  2  0
 22 24  1  0
 24 25  1  0
 25 26  1  0
 13 27  1  0
 27 28  2  0
 28 29  1  0
 29 30  2  0
 30 31  1  0
 31 32  2  0
 31 33  1  0
 33 34  1  0
 34 35  1  0
 34 36  1  0
 36 37  1  0
 33 38  1  0
 38 39  1  0
 39 40  1  0
 39 10  1  0
 30 12  1  0
 23 18  1  0
 26 21  1  0
  1 41  1  0
  1 42  1  0
  1 43  1  0
  2 44  1  0
  3 45  1  0
  3 46  1  0
  3 47  1  0
  4 48  1  0
  8 49  1  0
  8 50  1  0
  8 51  1  0
  9 52  1  0
  9 53  1  0
 10 54  1  0
 14 55  1  0
 17 56  1  0
 19 57  1  0
 20 58  1  0
 23 59  1  0
 25 60  1  0
 25 61  1  0
 27 62  1  0
 28 63  1  0
 29 64  1  0
 34 65  1  0
 35 66  1  0
 35 67  1  0
 35 68  1  0
 36 69  1  0
 36 70  1  0
 37 71  1  0
 38 72  1  0
 38 73  1  0
 39 74  1  0
 40 75  1  0
 40 76  1  0
 40 77  1  0
M  END
$$$$
