
     RDKit          3D

 51 53  0  0  0  0  0  0  0  0999 V2000
    8.1242   -0.7716    2.2684 C   0  0  0  0  0  0  0  0  0  0  0  0
    8.7277   -0.4056    1.0331 O   0  0  0  0  0  0  0  0  0  0  0  0
    7.8857   -0.1323   -0.0112 C   0  0  0  0  0  0  0  0  0  0  0  0
    8.5315    0.2224   -1.1971 C   0  0  0  0  0  0  0  0  0  0  0  0
    7.7944    0.5266   -2.3391 C   0  0  0  0  0  0  0  0  0  0  0  0
    6.4015    0.4764   -2.2982 C   0  0  0  0  0  0  0  0  0  0  0  0
    5.7384    0.1226   -1.1173 C   0  0  0  0  0  0  0  0  0  0  0  0
    4.3329    0.0952   -1.1583 N   0  0  0  0  0  0  0  0  0  0  0  0
    3.4577   -0.2116   -0.1379 C   0  0  0  0  0  0  0  0  0  0  0  0
    3.6954   -0.5227    1.0207 O   0  0  0  0  0  0  0  0  0  0  0  0
    1.9874   -0.1270   -0.5934 C   0  0  0  0  0  0  0  0  0  0  0  0
    1.7445    0.2118   -1.7446 O   0  0  0  0  0  0  0  0  0  0  0  0
    1.1076   -0.4516    0.4237 N   0  0  0  0  0  0  0  0  0  0  0  0
   -0.2598   -0.3564    0.4086 N   0  0  0  0  0  0  0  0  0  0  0  0
   -0.8913   -0.3606   -0.7196 C   0  0  0  0  0  0  0  0  0  0  0  0
   -2.3401   -0.2144   -0.7452 C   0  0  0  0  0  0  0  0  0  0  0  0
   -3.1178   -0.0781   -1.9209 C   0  0  0  0  0  0  0  0  0  0  0  0
   -4.4418    0.0735   -1.5622 C   0  0  0  0  0  0  0  0  0  0  0  0
   -5.5869    0.3543   -2.4762 C   0  0  0  0  0  0  0  0  0  0  0  0
   -4.5160    0.0297   -0.1731 N   0  0  0  0  0  0  0  0  0  0  0  0
   -5.6948    0.2219    0.6068 C   0  0  0  0  0  0  0  0  0  0  0  0
   -5.6614    1.0641    1.7253 C   0  0  0  0  0  0  0  0  0  0  0  0
   -6.8173    1.2642    2.4847 C   0  0  0  0  0  0  0  0  0  0  0  0
   -8.0098    0.6253    2.1342 C   0  0  0  0  0  0  0  0  0  0  0  0
   -9.3990    0.9206    3.1177 Cl  0  0  0  0  0  0  0  0  0  0  0  0
   -8.0443   -0.2185    1.0183 C   0  0  0  0  0  0  0  0  0  0  0  0
   -9.4798   -1.0489    0.5310 Cl  0  0  0  0  0  0  0  0  0  0  0  0
   -6.8885   -0.4194    0.2548 C   0  0  0  0  0  0  0  0  0  0  0  0
   -3.2320   -0.2049    0.3236 C   0  0  0  0  0  0  0  0  0  0  0  0
   -2.9428   -0.4754    1.7676 C   0  0  0  0  0  0  0  0  0  0  0  0
    6.4881   -0.1810    0.0250 C   0  0  0  0  0  0  0  0  0  0  0  0
    7.5036    0.0407    2.6609 H   0  0  0  0  0  0  0  0  0  0  0  0
    8.9260   -0.9557    2.9898 H   0  0  0  0  0  0  0  0  0  0  0  0
    7.5493   -1.6979    2.1672 H   0  0  0  0  0  0  0  0  0  0  0  0
    9.6177    0.2614   -1.2279 H   0  0  0  0  0  0  0  0  0  0  0  0
    8.3055    0.8017   -3.2579 H   0  0  0  0  0  0  0  0  0  0  0  0
    5.8453    0.7185   -3.2002 H   0  0  0  0  0  0  0  0  0  0  0  0
    3.8828    0.3344   -2.0399 H   0  0  0  0  0  0  0  0  0  0  0  0
    1.5194   -0.5843    1.3487 H   0  0  0  0  0  0  0  0  0  0  0  0
   -0.4105   -0.4765   -1.7033 H   0  0  0  0  0  0  0  0  0  0  0  0
   -2.7439   -0.0540   -2.9380 H   0  0  0  0  0  0  0  0  0  0  0  0
   -6.2475    1.1287   -2.0748 H   0  0  0  0  0  0  0  0  0  0  0  0
   -6.1640   -0.5554   -2.6660 H   0  0  0  0  0  0  0  0  0  0  0  0
   -5.2224    0.7167   -3.4442 H   0  0  0  0  0  0  0  0  0  0  0  0
   -4.7558    1.6018    1.9987 H   0  0  0  0  0  0  0  0  0  0  0  0
   -6.7822    1.9281    3.3458 H   0  0  0  0  0  0  0  0  0  0  0  0
   -6.9228   -1.1105   -0.5831 H   0  0  0  0  0  0  0  0  0  0  0  0
   -2.1712   -1.2448    1.8727 H   0  0  0  0  0  0  0  0  0  0  0  0
   -3.8147   -0.8609    2.3040 H   0  0  0  0  0  0  0  0  0  0  0  0
   -2.5928    0.4346    2.2644 H   0  0  0  0  0  0  0  0  0  0  0  0
    5.9844   -0.4555    0.9425 H   0  0  0  0  0  0  0  0  0  0  0  0
  1  2  1  0
  2  3  1  0
  3  4  2  0
  4  5  1  0
  5  6  2  0
  6  7  1  0
  7  8  1  0
  8  9  1  0
  9 10  2  0
  9 11  1  0
 11 12  2  0
 11 13  1  0
 13 14  1  0
 14 15  2  3
 15 16  1  0
 16 17  1  0
 17 18  2  0
 18 19  1  0
 18 20  1  0
 20 21  1  0
 21 22  2  0
 22 23  1  0
 23 24  2  0
 24 25  1  0
 24 26  1  0
 26 27  1  0
 26 28  2  0
 20 29  1  0
 29 30  1  0
  7 31  2  0
 31  3  1  0
 29 16  2  0
 28 21  1  0
  1 32  1  0
  1 33  1  0
  1 34  1  0
  4 35  1  0
  5 36  1  0
  6 37  1  0
  8 38  1  0
 13 39  1  0
 15 40  1  0
 17 41  1  0
 19 42  1  0
 19 43  1  0
 19 44  1  0
 22 45  1  0
 23 46  1  0
 28 47  1  0
 30 48  1  0
 30 49  1  0
 30 50  1  0
 31 51  1  0
M  END
$$$$
