
     RDKit          3D

 57 60  0  0  0  0  0  0  0  0999 V2000
   -0.2561    1.7195    5.2009 C   0  0  0  0  0  0  0  0  0  0  0  0
   -0.6781    0.9808    4.0624 O   0  0  0  0  0  0  0  0  0  0  0  0
   -0.0470    1.2059    2.8739 C   0  0  0  0  0  0  0  0  0  0  0  0
    1.1432    1.9348    2.7515 C   0  0  0  0  0  0  0  0  0  0  0  0
    1.7727    2.0808    1.5086 C   0  0  0  0  0  0  0  0  0  0  0  0
    1.2274    1.4810    0.3704 C   0  0  0  0  0  0  0  0  0  0  0  0
    1.8585    1.6140   -0.9698 C   0  0  0  0  0  0  0  0  0  0  0  0
    1.1588    1.5930   -1.9756 O   0  0  0  0  0  0  0  0  0  0  0  0
    3.2312    1.7270   -0.9868 N   0  0  0  0  0  0  0  0  0  0  0  0
    3.9701    1.7123   -2.2299 C   0  0  0  0  0  0  0  0  0  0  0  0
    4.5215    0.3365   -2.5061 C   0  0  0  0  0  0  0  0  0  0  0  0
    3.6930   -0.6533   -3.0860 C   0  0  0  0  0  0  0  0  0  0  0  0
    4.1728   -1.9438   -3.3299 C   0  0  0  0  0  0  0  0  0  0  0  0
    5.4764   -2.2179   -2.9807 C   0  0  0  0  0  0  0  0  0  0  0  0
    6.2876   -1.2662   -2.4094 C   0  0  0  0  0  0  0  0  0  0  0  0
    5.8432    0.0148   -2.1566 C   0  0  0  0  0  0  0  0  0  0  0  0
    7.5326   -1.7411   -2.1367 O   0  0  0  0  0  0  0  0  0  0  0  0
    7.4124   -3.1002   -2.6071 C   0  0  0  0  0  0  0  0  0  0  0  0
    6.1090   -3.4106   -3.1410 O   0  0  0  0  0  0  0  0  0  0  0  0
    0.0366    0.7600    0.4765 C   0  0  0  0  0  0  0  0  0  0  0  0
   -0.6021    0.6344    1.7207 C   0  0  0  0  0  0  0  0  0  0  0  0
   -2.1337   -0.2741    1.7949 S   0  0  0  0  0  6  0  0  0  0  0  0
   -1.7648   -1.6721    1.8771 O   0  0  0  0  0  0  0  0  0  0  0  0
   -3.0174    0.3446    2.7600 O   0  0  0  0  0  0  0  0  0  0  0  0
   -2.8307    0.0019    0.2615 N   0  0  0  0  0  0  0  0  0  0  0  0
   -3.3435    1.3664    0.0221 C   0  0  0  0  0  0  0  0  0  0  0  0
   -3.7107   -1.0758   -0.2529 C   0  0  0  0  0  0  0  0  0  0  0  0
   -5.1332   -1.0833    0.2558 C   0  0  0  0  0  0  0  0  0  0  0  0
   -6.1690   -0.5298   -0.5131 C   0  0  0  0  0  0  0  0  0  0  0  0
   -7.4831   -0.5314   -0.0418 C   0  0  0  0  0  0  0  0  0  0  0  0
   -7.7768   -1.0846    1.2025 C   0  0  0  0  0  0  0  0  0  0  0  0
   -6.7579   -1.6371    1.9754 C   0  0  0  0  0  0  0  0  0  0  0  0
   -5.4437   -1.6383    1.5049 C   0  0  0  0  0  0  0  0  0  0  0  0
   -0.3021    2.7977    5.0154 H   0  0  0  0  0  0  0  0  0  0  0  0
   -0.9444    1.4927    6.0207 H   0  0  0  0  0  0  0  0  0  0  0  0
    0.7472    1.4142    5.5146 H   0  0  0  0  0  0  0  0  0  0  0  0
    1.6150    2.4007    3.6118 H   0  0  0  0  0  0  0  0  0  0  0  0
    2.6776    2.6797    1.4468 H   0  0  0  0  0  0  0  0  0  0  0  0
    3.7492    1.4955   -0.1509 H   0  0  0  0  0  0  0  0  0  0  0  0
    3.3416    2.0454   -3.0635 H   0  0  0  0  0  0  0  0  0  0  0  0
    4.7862    2.4363   -2.1297 H   0  0  0  0  0  0  0  0  0  0  0  0
    2.6618   -0.4112   -3.3436 H   0  0  0  0  0  0  0  0  0  0  0  0
    3.5400   -2.7035   -3.7745 H   0  0  0  0  0  0  0  0  0  0  0  0
    6.5068    0.7425   -1.7023 H   0  0  0  0  0  0  0  0  0  0  0  0
    8.1611   -3.2672   -3.3901 H   0  0  0  0  0  0  0  0  0  0  0  0
    7.6200   -3.7793   -1.7721 H   0  0  0  0  0  0  0  0  0  0  0  0
   -0.3861    0.2927   -0.4113 H   0  0  0  0  0  0  0  0  0  0  0  0
   -3.6210    1.4798   -1.0308 H   0  0  0  0  0  0  0  0  0  0  0  0
   -4.2189    1.5818    0.6411 H   0  0  0  0  0  0  0  0  0  0  0  0
   -2.5737    2.1146    0.2292 H   0  0  0  0  0  0  0  0  0  0  0  0
   -3.2571   -2.0587   -0.0789 H   0  0  0  0  0  0  0  0  0  0  0  0
   -3.7231   -0.9893   -1.3481 H   0  0  0  0  0  0  0  0  0  0  0  0
   -5.9584   -0.0925   -1.4865 H   0  0  0  0  0  0  0  0  0  0  0  0
   -8.2778   -0.1000   -0.6445 H   0  0  0  0  0  0  0  0  0  0  0  0
   -8.7986   -1.0836    1.5721 H   0  0  0  0  0  0  0  0  0  0  0  0
   -6.9828   -2.0647    2.9491 H   0  0  0  0  0  0  0  0  0  0  0  0
   -4.6617   -2.0717    2.1260 H   0  0  0  0  0  0  0  0  0  0  0  0
  1  2  1  0
  2  3  1  0
  3  4  2  0
  4  5  1  0
  5  6  2  0
  6  7  1  0
  7  8  2  0
  7  9  1  0
  9 10  1  0
 10 11  1  0
 11 12  2  0
 12 13  1  0
 13 14  2  0
 14 15  1  0
 15 16  2  0
 15 17  1  0
 17 18  1  0
 18 19  1  0
  6 20  1  0
 20 21  2  0
 21 22  1  0
 22 23  2  0
 22 24  2  0
 22 25  1  0
 25 26  1  0
 25 27  1  0
 27 28  1  0
 28 29  2  0
 29 30  1  0
 30 31  2  0
 31 32  1  0
 32 33  2  0
 21  3  1  0
 33 28  1  0
 16 11  1  0
 19 14  1  0
  1 34  1  0
  1 35  1  0
  1 36  1  0
  4 37  1  0
  5 38  1  0
  9 39  1  0
 10 40  1  0
 10 41  1  0
 12 42  1  0
 13 43  1  0
 16 44  1  0
 18 45  1  0
 18 46  1  0
 20 47  1  0
 26 48  1  0
 26 49  1  0
 26 50  1  0
 27 51  1  0
 27 52  1  0
 29 53  1  0
 30 54  1  0
 31 55  1  0
 32 56  1  0
 33 57  1  0
M  END
$$$$
