
     RDKit          3D

 58 63  0  0  0  0  0  0  0  0999 V2000
    7.3633    2.8555   -0.0061 C   0  0  0  0  0  0  0  0  0  0  0  0
    6.3262    1.7941   -0.1417 C   0  0  0  0  0  0  0  0  0  0  0  0
    5.9836    0.8065    0.7576 C   0  0  0  0  0  0  0  0  0  0  0  0
    4.9423   -0.0327    0.2639 C   0  0  0  0  0  0  0  0  0  0  0  0
    4.5061    0.3511   -0.9906 C   0  0  0  0  0  0  0  0  0  0  0  0
    3.4787   -0.2388   -1.8376 C   0  0  0  0  0  0  0  0  0  0  0  0
    3.6732   -0.4755   -3.0306 O   0  0  0  0  0  0  0  0  0  0  0  0
    2.2474   -0.5583   -1.2421 N   0  0  0  0  0  0  0  0  0  0  0  0
    1.2573   -1.2612   -2.0503 C   0  0  0  0  0  0  0  0  0  0  0  0
    0.2920   -2.0435   -1.1677 C   0  0  0  0  0  0  0  0  0  0  0  0
   -0.4860   -1.1404   -0.1593 C   0  0  0  0  0  0  0  0  0  0  0  0
    0.2677    0.2059    0.0227 C   0  0  0  0  0  0  0  0  0  0  0  0
    1.7827    0.0116    0.0210 C   0  0  0  0  0  0  0  0  0  0  0  0
   -0.4332   -1.7587    1.1560 O   0  0  0  0  0  0  0  0  0  0  0  0
   -1.2226   -2.8594    1.3335 C   0  0  0  0  0  0  0  0  0  0  0  0
   -0.8929   -3.6851    2.4080 C   0  0  0  0  0  0  0  0  0  0  0  0
   -1.6353   -4.8425    2.6535 C   0  0  0  0  0  0  0  0  0  0  0  0
   -2.7104   -5.1673    1.8260 C   0  0  0  0  0  0  0  0  0  0  0  0
   -3.6203   -6.5936    2.1328 Cl  0  0  0  0  0  0  0  0  0  0  0  0
   -3.0565   -4.3402    0.7607 C   0  0  0  0  0  0  0  0  0  0  0  0
   -2.3118   -3.1795    0.5258 C   0  0  0  0  0  0  0  0  0  0  0  0
   -2.6881   -2.2600   -0.5638 C   0  0  0  0  0  0  0  0  0  0  0  0
   -3.5702   -2.5856   -1.3516 O   0  0  0  0  0  0  0  0  0  0  0  0
   -1.9670   -0.9154   -0.5779 C   0  0  0  0  0  0  0  0  0  0  0  0
   -2.7706    0.0422    0.2946 C   0  0  0  0  0  0  0  0  0  0  0  0
   -2.8267    1.2158   -0.6192 C   0  0  0  0  0  0  0  0  0  0  0  0
   -3.3263    2.5373   -0.1724 C   0  0  0  0  0  0  0  0  0  0  0  0
   -3.2477    3.6248   -1.0534 C   0  0  0  0  0  0  0  0  0  0  0  0
   -3.7050    4.8858   -0.6609 C   0  0  0  0  0  0  0  0  0  0  0  0
   -4.2433    5.0602    0.6117 C   0  0  0  0  0  0  0  0  0  0  0  0
   -4.8059    6.6106    1.0987 Cl  0  0  0  0  0  0  0  0  0  0  0  0
   -4.3299    3.9840    1.4940 C   0  0  0  0  0  0  0  0  0  0  0  0
   -3.8726    2.7207    1.1037 C   0  0  0  0  0  0  0  0  0  0  0  0
   -2.4061    0.9905   -1.8216 N   0  0  0  0  0  0  0  0  0  0  0  0
   -2.0277   -0.3682   -1.8994 O   0  0  0  0  0  0  0  0  0  0  0  0
    5.3959    1.6926   -1.5740 S   0  0  0  0  0  0  0  0  0  0  0  0
    7.8621    2.7925    0.9667 H   0  0  0  0  0  0  0  0  0  0  0  0
    8.1286    2.7524   -0.7822 H   0  0  0  0  0  0  0  0  0  0  0  0
    6.9138    3.8508   -0.0873 H   0  0  0  0  0  0  0  0  0  0  0  0
    6.4649    0.6817    1.7203 H   0  0  0  0  0  0  0  0  0  0  0  0
    4.5429   -0.8850    0.7995 H   0  0  0  0  0  0  0  0  0  0  0  0
    0.7286   -0.5205   -2.6614 H   0  0  0  0  0  0  0  0  0  0  0  0
    1.7638   -1.9485   -2.7373 H   0  0  0  0  0  0  0  0  0  0  0  0
    0.8676   -2.8008   -0.6181 H   0  0  0  0  0  0  0  0  0  0  0  0
   -0.3942   -2.6008   -1.8152 H   0  0  0  0  0  0  0  0  0  0  0  0
    0.0217    0.9080   -0.7813 H   0  0  0  0  0  0  0  0  0  0  0  0
   -0.0147    0.6792    0.9707 H   0  0  0  0  0  0  0  0  0  0  0  0
    2.0809   -0.6721    0.8234 H   0  0  0  0  0  0  0  0  0  0  0  0
    2.2656    0.9781    0.1965 H   0  0  0  0  0  0  0  0  0  0  0  0
   -0.0498   -3.4377    3.0491 H   0  0  0  0  0  0  0  0  0  0  0  0
   -1.3686   -5.4877    3.4874 H   0  0  0  0  0  0  0  0  0  0  0  0
   -3.9022   -4.5900    0.1232 H   0  0  0  0  0  0  0  0  0  0  0  0
   -3.7933   -0.3017    0.4860 H   0  0  0  0  0  0  0  0  0  0  0  0
   -2.2892    0.2768    1.2465 H   0  0  0  0  0  0  0  0  0  0  0  0
   -2.8317    3.4989   -2.0520 H   0  0  0  0  0  0  0  0  0  0  0  0
   -3.6393    5.7216   -1.3530 H   0  0  0  0  0  0  0  0  0  0  0  0
   -4.7557    4.1219    2.4850 H   0  0  0  0  0  0  0  0  0  0  0  0
   -3.9624    1.9000    1.8092 H   0  0  0  0  0  0  0  0  0  0  0  0
  1  2  1  0
  2  3  2  0
  3  4  1  0
  4  5  2  0
  5  6  1  0
  6  7  2  0
  6  8  1  0
  8  9  1  0
  9 10  1  0
 10 11  1  0
 11 12  1  0
 12 13  1  0
 11 14  1  0
 14 15  1  0
 15 16  2  0
 16 17  1  0
 17 18  2  0
 18 19  1  0
 18 20  1  0
 20 21  2  0
 21 22  1  0
 22 23  2  0
 22 24  1  0
 24 25  1  0
 25 26  1  0
 26 27  1  0
 27 28  2  0
 28 29  1  0
 29 30  2  0
 30 31  1  0
 30 32  1  0
 32 33  2  0
 26 34  2  0
 34 35  1  0
  5 36  1  0
 36  2  1  0
 13  8  1  0
 21 15  1  0
 35 24  1  0
 24 11  1  0
 33 27  1  0
  1 37  1  0
  1 38  1  0
  1 39  1  0
  3 40  1  0
  4 41  1  0
  9 42  1  0
  9 43  1  0
 10 44  1  0
 10 45  1  0
 12 46  1  0
 12 47  1  0
 13 48  1  0
 13 49  1  0
 16 50  1  0
 17 51  1  0
 20 52  1  0
 25 53  1  0
 25 54  1  0
 28 55  1  0
 29 56  1  0
 32 57  1  0
 33 58  1  0
M  END
$$$$
