
     RDKit          3D

 51 53  0  0  0  0  0  0  0  0999 V2000
    9.3834   -1.2627   -1.5008 C   0  0  0  0  0  0  0  0  0  0  0  0
    8.3950   -0.3900   -0.9677 O   0  0  0  0  0  0  0  0  0  0  0  0
    7.0937   -0.8039   -1.0522 C   0  0  0  0  0  0  0  0  0  0  0  0
    6.6493   -2.0029   -1.6054 C   0  0  0  0  0  0  0  0  0  0  0  0
    5.2842   -2.2960   -1.6255 C   0  0  0  0  0  0  0  0  0  0  0  0
    4.3576   -1.3953   -1.0936 C   0  0  0  0  0  0  0  0  0  0  0  0
    4.7896   -0.1929   -0.5360 C   0  0  0  0  0  0  0  0  0  0  0  0
    3.9254    0.7641    0.0215 N   0  0  0  0  0  0  0  0  0  0  0  0
    2.5515    0.7126    0.1216 C   0  0  0  0  0  0  0  0  0  0  0  0
    1.7783   -0.1599   -0.2505 O   0  0  0  0  0  0  0  0  0  0  0  0
    1.9766    1.9638    0.8094 C   0  0  0  0  0  0  0  0  0  0  0  0
    2.7425    2.8382    1.1944 O   0  0  0  0  0  0  0  0  0  0  0  0
    0.6000    1.9224    0.8998 N   0  0  0  0  0  0  0  0  0  0  0  0
   -0.0857    2.8989    1.5557 N   0  0  0  0  0  0  0  0  0  0  0  0
   -1.3848    2.8610    1.5810 C   0  0  0  0  0  0  0  0  0  0  0  0
   -2.2365    1.9311    0.8559 C   0  0  0  0  0  0  0  0  0  0  0  0
   -2.1107    1.4968   -0.4855 C   0  0  0  0  0  0  0  0  0  0  0  0
   -3.1441    0.6262   -0.7657 C   0  0  0  0  0  0  0  0  0  0  0  0
   -3.3385   -0.1528   -2.0235 C   0  0  0  0  0  0  0  0  0  0  0  0
   -3.9415    0.5248    0.3696 N   0  0  0  0  0  0  0  0  0  0  0  0
   -5.1014   -0.2930    0.5056 C   0  0  0  0  0  0  0  0  0  0  0  0
   -5.2727   -1.0831    1.6483 C   0  0  0  0  0  0  0  0  0  0  0  0
   -6.4066   -1.8902    1.7758 C   0  0  0  0  0  0  0  0  0  0  0  0
   -7.3745   -1.9115    0.7677 C   0  0  0  0  0  0  0  0  0  0  0  0
   -8.7485   -2.9334    0.9945 Cl  0  0  0  0  0  0  0  0  0  0  0  0
   -7.2057   -1.1209   -0.3742 C   0  0  0  0  0  0  0  0  0  0  0  0
   -8.3647   -1.0877   -1.6558 Cl  0  0  0  0  0  0  0  0  0  0  0  0
   -6.0698   -0.3138   -0.5059 C   0  0  0  0  0  0  0  0  0  0  0  0
   -3.4025    1.3580    1.3529 C   0  0  0  0  0  0  0  0  0  0  0  0
   -4.0502    1.5977    2.6805 C   0  0  0  0  0  0  0  0  0  0  0  0
    6.1604    0.0932   -0.5205 C   0  0  0  0  0  0  0  0  0  0  0  0
    9.2361   -1.4173   -2.5749 H   0  0  0  0  0  0  0  0  0  0  0  0
   10.3589   -0.7860   -1.3641 H   0  0  0  0  0  0  0  0  0  0  0  0
    9.4002   -2.2157   -0.9617 H   0  0  0  0  0  0  0  0  0  0  0  0
    7.3344   -2.7299   -2.0280 H   0  0  0  0  0  0  0  0  0  0  0  0
    4.9370   -3.2320   -2.0569 H   0  0  0  0  0  0  0  0  0  0  0  0
    3.3068   -1.6647   -1.1297 H   0  0  0  0  0  0  0  0  0  0  0  0
    4.3415    1.6094    0.4100 H   0  0  0  0  0  0  0  0  0  0  0  0
    0.1283    1.0777    0.5801 H   0  0  0  0  0  0  0  0  0  0  0  0
   -1.8958    3.6084    2.2102 H   0  0  0  0  0  0  0  0  0  0  0  0
   -1.3334    1.7810   -1.1861 H   0  0  0  0  0  0  0  0  0  0  0  0
   -2.3987   -0.2114   -2.5841 H   0  0  0  0  0  0  0  0  0  0  0  0
   -3.6531   -1.1809   -1.8205 H   0  0  0  0  0  0  0  0  0  0  0  0
   -4.0749    0.3325   -2.6707 H   0  0  0  0  0  0  0  0  0  0  0  0
   -4.5168   -1.1198    2.4292 H   0  0  0  0  0  0  0  0  0  0  0  0
   -6.5241   -2.5099    2.6623 H   0  0  0  0  0  0  0  0  0  0  0  0
   -5.9747    0.3241   -1.3808 H   0  0  0  0  0  0  0  0  0  0  0  0
   -3.7805    2.5811    3.0780 H   0  0  0  0  0  0  0  0  0  0  0  0
   -5.1421    1.5827    2.6102 H   0  0  0  0  0  0  0  0  0  0  0  0
   -3.7234    0.8478    3.4071 H   0  0  0  0  0  0  0  0  0  0  0  0
    6.5249    1.0240   -0.0921 H   0  0  0  0  0  0  0  0  0  0  0  0
  1  2  1  0
  2  3  1  0
  3  4  2  0
  4  5  1  0
  5  6  2  0
  6  7  1  0
  7  8  1  0
  8  9  1  0
  9 10  2  0
  9 11  1  0
 11 12  2  0
 11 13  1  0
 13 14  1  0
 14 15  2  3
 15 16  1  0
 16 17  1  0
 17 18  2  0
 18 19  1  0
 18 20  1  0
 20 21  1  0
 21 22  2  0
 22 23  1  0
 23 24  2  0
 24 25  1  0
 24 26  1  0
 26 27  1  0
 26 28  2  0
 20 29  1  0
 29 30  1  0
  7 31  2  0
 31  3  1  0
 29 16  2  0
 28 21  1  0
  1 32  1  0
  1 33  1  0
  1 34  1  0
  4 35  1  0
  5 36  1  0
  6 37  1  0
  8 38  1  0
 13 39  1  0
 15 40  1  0
 17 41  1  0
 19 42  1  0
 19 43  1  0
 19 44  1  0
 22 45  1  0
 23 46  1  0
 28 47  1  0
 30 48  1  0
 30 49  1  0
 30 50  1  0
 31 51  1  0
M  END
$$$$
