
     RDKit          3D

 62 66  0  0  0  0  0  0  0  0999 V2000
   -3.0011    6.2634   -1.4513 C   0  0  0  0  0  0  0  0  0  0  0  0
   -2.3162    5.0612   -1.1240 O   0  0  0  0  0  0  0  0  0  0  0  0
   -3.0845    3.9854   -0.7716 C   0  0  0  0  0  0  0  0  0  0  0  0
   -4.4717    3.9518   -0.7283 C   0  0  0  0  0  0  0  0  0  0  0  0
   -5.1462    2.7859   -0.3474 C   0  0  0  0  0  0  0  0  0  0  0  0
   -4.4028    1.6399   -0.0062 C   0  0  0  0  0  0  0  0  0  0  0  0
   -5.0240    0.1158    0.4884 S   0  0  0  0  0  0  0  0  0  0  0  0
   -3.4643   -0.5620    0.6566 C   0  0  0  0  0  0  0  0  0  0  0  0
   -3.3515   -1.9518    1.1176 C   0  0  0  0  0  0  0  0  0  0  0  0
   -3.1077   -2.1884    2.4806 C   0  0  0  0  0  0  0  0  0  0  0  0
   -2.9805   -3.4893    2.9628 C   0  0  0  0  0  0  0  0  0  0  0  0
   -3.0896   -4.5644    2.0861 C   0  0  0  0  0  0  0  0  0  0  0  0
   -3.3266   -4.3432    0.7260 C   0  0  0  0  0  0  0  0  0  0  0  0
   -3.4617   -3.0414    0.2295 C   0  0  0  0  0  0  0  0  0  0  0  0
   -3.6788   -2.7367   -1.0911 O   0  0  0  0  0  0  0  0  0  0  0  0
   -3.9537   -3.8122   -1.9758 C   0  0  0  0  0  0  0  0  0  0  0  0
   -2.4723    0.3533    0.3474 C   0  0  0  0  0  0  0  0  0  0  0  0
   -1.0589    0.0063    0.4283 C   0  0  0  0  0  0  0  0  0  0  0  0
   -0.2689    0.5230    1.4588 C   0  0  0  0  0  0  0  0  0  0  0  0
    1.0893    0.2035    1.5214 C   0  0  0  0  0  0  0  0  0  0  0  0
    1.6733   -0.6223    0.5564 C   0  0  0  0  0  0  0  0  0  0  0  0
    3.0113   -0.8445    0.7296 O   0  0  0  0  0  0  0  0  0  0  0  0
    3.7054   -1.4736   -0.3471 C   0  0  0  0  0  0  0  0  0  0  0  0
    5.2240   -1.4671   -0.0804 C   0  0  0  0  0  0  0  0  0  0  0  0
    5.9661   -0.2045   -0.1492 N   0  0  0  0  0  0  0  0  0  0  0  0
    5.8186    0.5547   -1.3852 C   0  0  0  0  0  0  0  0  0  0  0  0
    6.4821    1.8849   -1.0486 C   0  0  0  0  0  0  0  0  0  0  0  0
    6.4586    1.9707    0.4750 C   0  0  0  0  0  0  0  0  0  0  0  0
    5.6830    0.7414    0.9253 C   0  0  0  0  0  0  0  0  0  0  0  0
    0.8813   -1.1465   -0.4665 C   0  0  0  0  0  0  0  0  0  0  0  0
   -0.4799   -0.8292   -0.5328 C   0  0  0  0  0  0  0  0  0  0  0  0
   -3.0081    1.6390   -0.0391 C   0  0  0  0  0  0  0  0  0  0  0  0
   -2.3575    2.8380   -0.4330 C   0  0  0  0  0  0  0  0  0  0  0  0
   -3.6314    6.1299   -2.3361 H   0  0  0  0  0  0  0  0  0  0  0  0
   -3.5860    6.6290   -0.6010 H   0  0  0  0  0  0  0  0  0  0  0  0
   -2.2499    7.0220   -1.6891 H   0  0  0  0  0  0  0  0  0  0  0  0
   -5.0726    4.8179   -0.9859 H   0  0  0  0  0  0  0  0  0  0  0  0
   -6.2318    2.7667   -0.3166 H   0  0  0  0  0  0  0  0  0  0  0  0
   -3.0134   -1.3527    3.1710 H   0  0  0  0  0  0  0  0  0  0  0  0
   -2.7908   -3.6614    4.0194 H   0  0  0  0  0  0  0  0  0  0  0  0
   -2.9856   -5.5794    2.4614 H   0  0  0  0  0  0  0  0  0  0  0  0
   -3.3916   -5.2109    0.0784 H   0  0  0  0  0  0  0  0  0  0  0  0
   -4.1992   -3.3871   -2.9554 H   0  0  0  0  0  0  0  0  0  0  0  0
   -4.8206   -4.3911   -1.6420 H   0  0  0  0  0  0  0  0  0  0  0  0
   -3.0736   -4.4489   -2.1007 H   0  0  0  0  0  0  0  0  0  0  0  0
   -0.7023    1.1732    2.2147 H   0  0  0  0  0  0  0  0  0  0  0  0
    1.7004    0.6087    2.3245 H   0  0  0  0  0  0  0  0  0  0  0  0
    3.4848   -0.9859   -1.3018 H   0  0  0  0  0  0  0  0  0  0  0  0
    3.3816   -2.5197   -0.4068 H   0  0  0  0  0  0  0  0  0  0  0  0
    5.4084   -1.9140    0.9050 H   0  0  0  0  0  0  0  0  0  0  0  0
    5.6856   -2.1473   -0.8072 H   0  0  0  0  0  0  0  0  0  0  0  0
    6.3072    0.0662   -2.2340 H   0  0  0  0  0  0  0  0  0  0  0  0
    4.7691    0.7390   -1.6417 H   0  0  0  0  0  0  0  0  0  0  0  0
    5.9447    2.7220   -1.5057 H   0  0  0  0  0  0  0  0  0  0  0  0
    7.5170    1.9115   -1.4088 H   0  0  0  0  0  0  0  0  0  0  0  0
    5.9955    2.8983    0.8257 H   0  0  0  0  0  0  0  0  0  0  0  0
    7.4853    1.9411    0.8602 H   0  0  0  0  0  0  0  0  0  0  0  0
    6.0328    0.3839    1.8989 H   0  0  0  0  0  0  0  0  0  0  0  0
    4.6206    0.9920    0.9997 H   0  0  0  0  0  0  0  0  0  0  0  0
    1.2869   -1.8066   -1.2259 H   0  0  0  0  0  0  0  0  0  0  0  0
   -1.0873   -1.2383   -1.3384 H   0  0  0  0  0  0  0  0  0  0  0  0
   -1.2706    2.8688   -0.4740 H   0  0  0  0  0  0  0  0  0  0  0  0
  1  2  1  0
  2  3  1  0
  3  4  2  0
  4  5  1  0
  5  6  2  0
  6  7  1  0
  7  8  1  0
  8  9  1  0
  9 10  2  0
 10 11  1  0
 11 12  2  0
 12 13  1  0
 13 14  2  0
 14 15  1  0
 15 16  1  0
  8 17  2  0
 17 18  1  0
 18 19  2  0
 19 20  1  0
 20 21  2  0
 21 22  1  0
 22 23  1  0
 23 24  1  0
 24 25  1  0
 25 26  1  0
 26 27  1  0
 27 28  1  0
 28 29  1  0
 21 30  1  0
 30 31  2  0
 17 32  1  0
 32 33  2  0
 33  3  1  0
 32  6  1  0
 14  9  1  0
 31 18  1  0
 29 25  1  0
  1 34  1  0
  1 35  1  0
  1 36  1  0
  4 37  1  0
  5 38  1  0
 10 39  1  0
 11 40  1  0
 12 41  1  0
 13 42  1  0
 16 43  1  0
 16 44  1  0
 16 45  1  0
 19 46  1  0
 20 47  1  0
 23 48  1  0
 23 49  1  0
 24 50  1  0
 24 51  1  0
 26 52  1  0
 26 53  1  0
 27 54  1  0
 27 55  1  0
 28 56  1  0
 28 57  1  0
 29 58  1  0
 29 59  1  0
 30 60  1  0
 31 61  1  0
 33 62  1  0
M  END
$$$$
