
     RDKit          3D

 60 63  0  0  0  0  0  0  0  0999 V2000
    8.8648    0.7774    2.4972 C   0  0  0  0  0  0  0  0  0  0  0  0
    7.9855    0.4690    1.2986 C   0  0  0  0  0  0  0  0  0  0  0  0
    6.8131   -0.1920    1.7718 O   0  0  0  0  0  0  0  0  0  0  0  0
    5.8941   -0.5729    0.8331 C   0  0  0  0  0  0  0  0  0  0  0  0
    4.7810   -1.2433    1.3457 C   0  0  0  0  0  0  0  0  0  0  0  0
    3.7619   -1.6875    0.4995 C   0  0  0  0  0  0  0  0  0  0  0  0
    3.8464   -1.4707   -0.8807 C   0  0  0  0  0  0  0  0  0  0  0  0
    2.7398   -1.9143   -1.8021 C   0  0  0  0  0  0  0  0  0  0  0  0
    1.8309   -0.8247   -2.0610 N   0  0  0  0  0  0  0  0  0  0  0  0
    1.8977   -0.0617   -3.2062 C   0  0  0  0  0  0  0  0  0  0  0  0
    2.6744   -0.3024   -4.1286 O   0  0  0  0  0  0  0  0  0  0  0  0
    1.0139    1.1876   -3.2014 C   0  0  0  0  0  0  0  0  0  0  0  0
   -0.0383    1.1353   -2.1864 N   0  0  0  0  0  0  0  0  0  0  0  0
    0.3267    1.5390   -0.8937 N   0  0  0  0  0  0  0  0  0  0  0  0
   -0.5387    1.5339    0.0830 C   0  0  0  0  0  0  0  0  0  0  0  0
   -0.0837    1.9859    1.4413 C   0  0  0  0  0  0  0  0  0  0  0  0
   -1.8869    1.0898   -0.1705 C   0  0  0  0  0  0  0  0  0  0  0  0
   -3.0401    1.0213    0.5939 C   0  0  0  0  0  0  0  0  0  0  0  0
   -3.3092    1.5415    1.9596 C   0  0  0  0  0  0  0  0  0  0  0  0
   -3.9903    0.3926   -0.2218 N   0  0  0  0  0  0  0  0  0  0  0  0
   -5.2873   -0.1247    0.0859 C   0  0  0  0  0  0  0  0  0  0  0  0
   -6.1733   -0.4014   -0.9689 C   0  0  0  0  0  0  0  0  0  0  0  0
   -7.4501   -0.9115   -0.7154 C   0  0  0  0  0  0  0  0  0  0  0  0
   -7.8655   -1.1608    0.5948 C   0  0  0  0  0  0  0  0  0  0  0  0
   -9.2212   -1.7421    0.8664 C   0  0  0  0  0  0  0  0  0  0  0  0
   -6.9707   -0.9256    1.6434 C   0  0  0  0  0  0  0  0  0  0  0  0
   -5.6911   -0.4133    1.3936 C   0  0  0  0  0  0  0  0  0  0  0  0
   -3.5343    0.2841   -1.4995 N   0  0  0  0  0  0  0  0  0  0  0  0
   -2.2519    0.6462   -1.4460 C   0  0  0  0  0  0  0  0  0  0  0  0
   -1.3048    0.6367   -2.5535 C   0  0  0  0  0  0  0  0  0  0  0  0
   -1.5774    0.2396   -3.6834 O   0  0  0  0  0  0  0  0  0  0  0  0
    4.9607   -0.7905   -1.3902 C   0  0  0  0  0  0  0  0  0  0  0  0
    5.9796   -0.3467   -0.5401 C   0  0  0  0  0  0  0  0  0  0  0  0
    8.3315    1.4111    3.2136 H   0  0  0  0  0  0  0  0  0  0  0  0
    9.7810    1.2879    2.1876 H   0  0  0  0  0  0  0  0  0  0  0  0
    9.1339   -0.1435    3.0250 H   0  0  0  0  0  0  0  0  0  0  0  0
    7.7177    1.4083    0.8009 H   0  0  0  0  0  0  0  0  0  0  0  0
    8.5368   -0.1800    0.6083 H   0  0  0  0  0  0  0  0  0  0  0  0
    4.7086   -1.4213    2.4158 H   0  0  0  0  0  0  0  0  0  0  0  0
    2.9062   -2.2043    0.9269 H   0  0  0  0  0  0  0  0  0  0  0  0
    3.1547   -2.3083   -2.7365 H   0  0  0  0  0  0  0  0  0  0  0  0
    2.1586   -2.7190   -1.3389 H   0  0  0  0  0  0  0  0  0  0  0  0
    1.3687   -0.3873   -1.2700 H   0  0  0  0  0  0  0  0  0  0  0  0
    0.5671    1.2939   -4.1950 H   0  0  0  0  0  0  0  0  0  0  0  0
    1.6466    2.0592   -3.0029 H   0  0  0  0  0  0  0  0  0  0  0  0
   -0.4041    1.2728    2.2054 H   0  0  0  0  0  0  0  0  0  0  0  0
    1.0076    2.0596    1.4710 H   0  0  0  0  0  0  0  0  0  0  0  0
   -0.5033    2.9720    1.6568 H   0  0  0  0  0  0  0  0  0  0  0  0
   -3.0799    0.7848    2.7157 H   0  0  0  0  0  0  0  0  0  0  0  0
   -4.3448    1.8747    2.0746 H   0  0  0  0  0  0  0  0  0  0  0  0
   -2.6956    2.4218    2.1703 H   0  0  0  0  0  0  0  0  0  0  0  0
   -5.8874   -0.2160   -2.0038 H   0  0  0  0  0  0  0  0  0  0  0  0
   -8.1142   -1.1137   -1.5532 H   0  0  0  0  0  0  0  0  0  0  0  0
   -9.1629   -2.8346    0.8869 H   0  0  0  0  0  0  0  0  0  0  0  0
   -9.9382   -1.4409    0.0955 H   0  0  0  0  0  0  0  0  0  0  0  0
   -9.6105   -1.3891    1.8271 H   0  0  0  0  0  0  0  0  0  0  0  0
   -7.2605   -1.1535    2.6675 H   0  0  0  0  0  0  0  0  0  0  0  0
   -5.0298   -0.3046    2.2443 H   0  0  0  0  0  0  0  0  0  0  0  0
    5.0363   -0.5979   -2.4601 H   0  0  0  0  0  0  0  0  0  0  0  0
    6.8204    0.1741   -0.9855 H   0  0  0  0  0  0  0  0  0  0  0  0
  1  2  1  0
  2  3  1  0
  3  4  1  0
  4  5  2  0
  5  6  1  0
  6  7  2  0
  7  8  1  0
  8  9  1  0
  9 10  1  0
 10 11  2  0
 10 12  1  0
 12 13  1  0
 13 14  1  0
 14 15  2  0
 15 16  1  0
 15 17  1  0
 17 18  2  0
 18 19  1  0
 18 20  1  0
 20 21  1  0
 21 22  2  0
 22 23  1  0
 23 24  2  0
 24 25  1  0
 24 26  1  0
 26 27  2  0
 20 28  1  0
 28 29  2  0
 29 30  1  0
 30 31  2  0
  7 32  1  0
 32 33  2  0
 33  4  1  0
 30 13  1  0
 29 17  1  0
 27 21  1  0
  1 34  1  0
  1 35  1  0
  1 36  1  0
  2 37  1  0
  2 38  1  0
  5 39  1  0
  6 40  1  0
  8 41  1  0
  8 42  1  0
  9 43  1  0
 12 44  1  0
 12 45  1  0
 16 46  1  0
 16 47  1  0
 16 48  1  0
 19 49  1  0
 19 50  1  0
 19 51  1  0
 22 52  1  0
 23 53  1  0
 25 54  1  0
 25 55  1  0
 25 56  1  0
 26 57  1  0
 27 58  1  0
 32 59  1  0
 33 60  1  0
M  END
$$$$
