
     RDKit          3D

 49 51  0  0  0  0  0  0  0  0999 V2000
    2.2539   -1.9049   -2.3410 O   0  0  0  0  0  0  0  0  0  0  0  0
    2.6501   -0.7842   -2.0526 C   0  0  0  0  0  0  0  0  0  0  0  0
    3.9184   -0.2904   -2.2411 N   0  0  0  0  0  0  0  0  0  0  0  0
    5.0133   -1.1219   -2.6670 C   0  0  0  0  0  0  0  0  0  0  0  0
    5.7928   -1.6331   -1.4840 C   0  0  0  0  0  0  0  0  0  0  0  0
    6.8897   -0.9159   -0.9856 C   0  0  0  0  0  0  0  0  0  0  0  0
    7.5945   -1.3832    0.1252 C   0  0  0  0  0  0  0  0  0  0  0  0
    7.2061   -2.5658    0.7522 C   0  0  0  0  0  0  0  0  0  0  0  0
    6.1106   -3.2811    0.2724 C   0  0  0  0  0  0  0  0  0  0  0  0
    5.4047   -2.8158   -0.8379 C   0  0  0  0  0  0  0  0  0  0  0  0
    1.6892    0.2302   -1.3913 C   0  0  0  0  0  0  0  0  0  0  0  0
    2.1092    1.3129   -1.0091 O   0  0  0  0  0  0  0  0  0  0  0  0
    0.3959   -0.2229   -1.2837 N   0  0  0  0  0  0  0  0  0  0  0  0
   -0.6026    0.4811   -0.4951 C   0  0  0  0  0  0  0  0  0  0  0  0
   -2.0347   -0.0225   -0.7946 C   0  0  0  0  0  0  0  0  0  0  0  0
   -2.0621   -1.4597   -0.6361 O   0  0  0  0  0  0  0  0  0  0  0  0
   -2.4205   -1.6938    0.7288 C   0  0  0  0  0  0  0  0  0  0  0  0
   -3.4075   -0.5951    1.0610 C   0  0  0  0  0  0  0  0  0  0  0  0
   -3.0972    0.4716    0.0974 N   0  0  0  0  0  0  0  0  0  0  0  0
   -3.0147    2.0565    0.6252 S   0  0  0  0  0  6  0  0  0  0  0  0
   -2.1142    2.0840    1.7575 O   0  0  0  0  0  0  0  0  0  0  0  0
   -2.8054    2.9017   -0.5287 O   0  0  0  0  0  0  0  0  0  0  0  0
   -4.6650    2.3511    1.2096 C   0  0  0  0  0  0  0  0  0  0  0  0
   -4.9026    2.5561    2.5720 C   0  0  0  0  0  0  0  0  0  0  0  0
   -6.2071    2.7873    3.0129 C   0  0  0  0  0  0  0  0  0  0  0  0
   -7.2562    2.8166    2.0919 C   0  0  0  0  0  0  0  0  0  0  0  0
   -9.0207    3.1286    2.6945 Br  0  0  0  0  0  0  0  0  0  0  0  0
   -7.0159    2.6205    0.7308 C   0  0  0  0  0  0  0  0  0  0  0  0
   -5.7139    2.3892    0.2844 C   0  0  0  0  0  0  0  0  0  0  0  0
    4.1114    0.6135   -1.8190 H   0  0  0  0  0  0  0  0  0  0  0  0
    4.6435   -1.9589   -3.2704 H   0  0  0  0  0  0  0  0  0  0  0  0
    5.6566   -0.5148   -3.3133 H   0  0  0  0  0  0  0  0  0  0  0  0
    7.2020    0.0121   -1.4592 H   0  0  0  0  0  0  0  0  0  0  0  0
    8.4454   -0.8227    0.5037 H   0  0  0  0  0  0  0  0  0  0  0  0
    7.7545   -2.9279    1.6178 H   0  0  0  0  0  0  0  0  0  0  0  0
    5.8027   -4.2000    0.7643 H   0  0  0  0  0  0  0  0  0  0  0  0
    4.5441   -3.3777   -1.1977 H   0  0  0  0  0  0  0  0  0  0  0  0
    0.2488   -1.2100   -1.4922 H   0  0  0  0  0  0  0  0  0  0  0  0
   -0.5034    1.5529   -0.6928 H   0  0  0  0  0  0  0  0  0  0  0  0
   -0.3367    0.3104    0.5541 H   0  0  0  0  0  0  0  0  0  0  0  0
   -2.2960    0.1887   -1.8369 H   0  0  0  0  0  0  0  0  0  0  0  0
   -1.5192   -1.6292    1.3481 H   0  0  0  0  0  0  0  0  0  0  0  0
   -2.8482   -2.6940    0.8391 H   0  0  0  0  0  0  0  0  0  0  0  0
   -4.4336   -0.9312    0.8775 H   0  0  0  0  0  0  0  0  0  0  0  0
   -3.3254   -0.2942    2.1084 H   0  0  0  0  0  0  0  0  0  0  0  0
   -4.0860    2.5431    3.2908 H   0  0  0  0  0  0  0  0  0  0  0  0
   -6.3954    2.9486    4.0717 H   0  0  0  0  0  0  0  0  0  0  0  0
   -7.8323    2.6508    0.0133 H   0  0  0  0  0  0  0  0  0  0  0  0
   -5.5208    2.2431   -0.7765 H   0  0  0  0  0  0  0  0  0  0  0  0
  1  2  2  0
  2  3  1  0
  3  4  1  0
  4  5  1  0
  5  6  2  0
  6  7  1  0
  7  8  2  0
  8  9  1  0
  9 10  2  0
  2 11  1  0
 11 12  2  0
 11 13  1  0
 13 14  1  0
 14 15  1  0
 15 16  1  0
 16 17  1  0
 17 18  1  0
 18 19  1  0
 19 20  1  0
 20 21  2  0
 20 22  2  0
 20 23  1  0
 23 24  2  0
 24 25  1  0
 25 26  2  0
 26 27  1  0
 26 28  1  0
 28 29  2  0
 10  5  1  0
 19 15  1  0
 29 23  1  0
  3 30  1  0
  4 31  1  0
  4 32  1  0
  6 33  1  0
  7 34  1  0
  8 35  1  0
  9 36  1  0
 10 37  1  0
 13 38  1  0
 14 39  1  0
 14 40  1  0
 15 41  1  0
 17 42  1  0
 17 43  1  0
 18 44  1  0
 18 45  1  0
 24 46  1  0
 25 47  1  0
 28 48  1  0
 29 49  1  0
M  END
$$$$
