
     RDKit          3D

 42 44  0  0  0  0  0  0  0  0999 V2000
   -3.8554    2.0719   -0.9229 C   0  0  0  0  0  0  0  0  0  0  0  0
   -4.0051    1.2949    0.2581 O   0  0  0  0  0  0  0  0  0  0  0  0
   -4.3818   -0.0161    0.1037 C   0  0  0  0  0  0  0  0  0  0  0  0
   -4.8029   -0.5823   -1.1046 C   0  0  0  0  0  0  0  0  0  0  0  0
   -5.1757   -1.9281   -1.1646 C   0  0  0  0  0  0  0  0  0  0  0  0
   -5.1360   -2.7190   -0.0198 C   0  0  0  0  0  0  0  0  0  0  0  0
   -4.7220   -2.1663    1.1910 C   0  0  0  0  0  0  0  0  0  0  0  0
   -4.3391   -0.8193    1.2618 C   0  0  0  0  0  0  0  0  0  0  0  0
   -3.9139   -0.2957    2.5674 C   0  0  0  0  0  0  0  0  0  0  0  0
   -2.6775    0.0838    2.9260 C   0  0  0  0  0  0  0  0  0  0  0  0
   -1.4459    0.0465    2.1295 C   0  0  0  0  0  0  0  0  0  0  0  0
   -0.3341    0.6261    2.4432 N   0  0  0  0  0  0  0  0  0  0  0  0
    0.4965    0.2878    1.4039 C   0  0  0  0  0  0  0  0  0  0  0  0
    1.7699    0.6990    1.3240 C   0  0  0  0  0  0  0  0  0  0  0  0
    2.7275    0.3959    0.2813 C   0  0  0  0  0  0  0  0  0  0  0  0
    3.9785    0.8847    0.2870 C   0  0  0  0  0  0  0  0  0  0  0  0
    4.9859    0.5965   -0.7460 C   0  0  0  0  0  0  0  0  0  0  0  0
    6.3360    0.5369   -0.3740 C   0  0  0  0  0  0  0  0  0  0  0  0
    7.3289    0.2942   -1.3269 C   0  0  0  0  0  0  0  0  0  0  0  0
    6.9835    0.1193   -2.6648 C   0  0  0  0  0  0  0  0  0  0  0  0
    5.6470    0.1916   -3.0509 C   0  0  0  0  0  0  0  0  0  0  0  0
    4.6539    0.4342   -2.0978 C   0  0  0  0  0  0  0  0  0  0  0  0
   -0.2390   -0.5707    0.4305 C   0  0  0  0  0  0  0  0  0  0  0  0
    0.1292   -1.0654   -0.6157 O   0  0  0  0  0  0  0  0  0  0  0  0
   -1.4701   -0.6815    0.9953 O   0  0  0  0  0  0  0  0  0  0  0  0
   -3.1310    1.6189   -1.6081 H   0  0  0  0  0  0  0  0  0  0  0  0
   -3.4670    3.0521   -0.6301 H   0  0  0  0  0  0  0  0  0  0  0  0
   -4.8213    2.2304   -1.4133 H   0  0  0  0  0  0  0  0  0  0  0  0
   -4.8556   -0.0033   -2.0204 H   0  0  0  0  0  0  0  0  0  0  0  0
   -5.4973   -2.3589   -2.1098 H   0  0  0  0  0  0  0  0  0  0  0  0
   -5.4247   -3.7657   -0.0701 H   0  0  0  0  0  0  0  0  0  0  0  0
   -4.6916   -2.7953    2.0776 H   0  0  0  0  0  0  0  0  0  0  0  0
   -4.7223   -0.1969    3.2889 H   0  0  0  0  0  0  0  0  0  0  0  0
   -2.5318    0.4997    3.9193 H   0  0  0  0  0  0  0  0  0  0  0  0
    2.1301    1.3317    2.1340 H   0  0  0  0  0  0  0  0  0  0  0  0
    2.4109   -0.2658   -0.5215 H   0  0  0  0  0  0  0  0  0  0  0  0
    4.3152    1.5259    1.0986 H   0  0  0  0  0  0  0  0  0  0  0  0
    6.6273    0.6696    0.6655 H   0  0  0  0  0  0  0  0  0  0  0  0
    8.3710    0.2422   -1.0230 H   0  0  0  0  0  0  0  0  0  0  0  0
    7.7549   -0.0695   -3.4067 H   0  0  0  0  0  0  0  0  0  0  0  0
    5.3745    0.0631   -4.0952 H   0  0  0  0  0  0  0  0  0  0  0  0
    3.6203    0.5026   -2.4286 H   0  0  0  0  0  0  0  0  0  0  0  0
  1  2  1  0
  2  3  1  0
  3  4  2  0
  4  5  1  0
  5  6  2  0
  6  7  1  0
  7  8  2  0
  8  9  1  0
  9 10  2  3
 10 11  1  0
 11 12  2  0
 12 13  1  0
 13 14  2  3
 14 15  1  0
 15 16  2  3
 16 17  1  0
 17 18  2  0
 18 19  1  0
 19 20  2  0
 20 21  1  0
 21 22  2  0
 13 23  1  0
 23 24  2  0
 23 25  1  0
  8  3  1  0
 25 11  1  0
 22 17  1  0
  1 26  1  0
  1 27  1  0
  1 28  1  0
  4 29  1  0
  5 30  1  0
  6 31  1  0
  7 32  1  0
  9 33  1  0
 10 34  1  0
 14 35  1  0
 15 36  1  0
 16 37  1  0
 18 38  1  0
 19 39  1  0
 20 40  1  0
 21 41  1  0
 22 42  1  0
M  END
$$$$
