
     RDKit          3D

 61 63  0  0  0  0  0  0  0  0999 V2000
   -9.7680    2.1920    1.1413 C   0  0  0  0  0  0  0  0  0  0  0  0
   -9.2319    1.4550    0.0500 O   0  0  0  0  0  0  0  0  0  0  0  0
   -8.3374    0.4651    0.3520 C   0  0  0  0  0  0  0  0  0  0  0  0
   -7.9741    0.0449    1.6318 C   0  0  0  0  0  0  0  0  0  0  0  0
   -7.0482   -0.9921    1.7966 C   0  0  0  0  0  0  0  0  0  0  0  0
   -6.4776   -1.6242    0.6835 C   0  0  0  0  0  0  0  0  0  0  0  0
   -5.4594   -2.7202    0.8521 C   0  0  0  0  0  0  0  0  0  0  0  0
   -4.1435   -2.1758    1.0571 N   0  0  0  0  0  0  0  0  0  0  0  0
   -3.3195   -1.8440    0.0090 C   0  0  0  0  0  0  0  0  0  0  0  0
   -3.5066   -2.1009   -1.1729 O   0  0  0  0  0  0  0  0  0  0  0  0
   -2.0653   -1.0492    0.4400 C   0  0  0  0  0  0  0  0  0  0  0  0
   -1.8051   -0.9128    1.6272 O   0  0  0  0  0  0  0  0  0  0  0  0
   -1.3486   -0.5407   -0.6194 N   0  0  0  0  0  0  0  0  0  0  0  0
   -0.0534    0.0955   -0.4461 C   0  0  0  0  0  0  0  0  0  0  0  0
    1.1336   -0.8933   -0.6031 C   0  0  0  0  0  0  0  0  0  0  0  0
    0.9731   -2.0114    0.2927 O   0  0  0  0  0  0  0  0  0  0  0  0
    1.6232   -1.6266    1.5076 C   0  0  0  0  0  0  0  0  0  0  0  0
    2.8387   -0.8487    1.0507 C   0  0  0  0  0  0  0  0  0  0  0  0
    2.4684   -0.3495   -0.2858 N   0  0  0  0  0  0  0  0  0  0  0  0
    2.7950    1.2429   -0.6789 S   0  0  0  0  0  6  0  0  0  0  0  0
    2.2596    2.0714    0.3806 O   0  0  0  0  0  0  0  0  0  0  0  0
    2.4111    1.4510   -2.0586 O   0  0  0  0  0  0  0  0  0  0  0  0
    4.5662    1.2996   -0.5998 C   0  0  0  0  0  0  0  0  0  0  0  0
    5.1980    1.9271    0.4742 C   0  0  0  0  0  0  0  0  0  0  0  0
    6.5918    1.9614    0.5259 C   0  0  0  0  0  0  0  0  0  0  0  0
    7.3521    1.3827   -0.4985 C   0  0  0  0  0  0  0  0  0  0  0  0
    8.7249    1.3807   -0.5355 O   0  0  0  0  0  0  0  0  0  0  0  0
    9.4153    1.8774    0.6020 C   0  0  0  0  0  0  0  0  0  0  0  0
    6.7039    0.7657   -1.5913 C   0  0  0  0  0  0  0  0  0  0  0  0
    7.5239    0.2239   -2.5501 O   0  0  0  0  0  0  0  0  0  0  0  0
    6.9204   -0.2289   -3.7541 C   0  0  0  0  0  0  0  0  0  0  0  0
    5.3078    0.7218   -1.6346 C   0  0  0  0  0  0  0  0  0  0  0  0
   -6.8360   -1.1858   -0.5965 C   0  0  0  0  0  0  0  0  0  0  0  0
   -7.7637   -0.1557   -0.7578 C   0  0  0  0  0  0  0  0  0  0  0  0
  -10.4465    2.9475    0.7302 H   0  0  0  0  0  0  0  0  0  0  0  0
  -10.3527    1.5479    1.8065 H   0  0  0  0  0  0  0  0  0  0  0  0
   -8.9777    2.7159    1.6911 H   0  0  0  0  0  0  0  0  0  0  0  0
   -8.3938    0.5018    2.5214 H   0  0  0  0  0  0  0  0  0  0  0  0
   -6.7777   -1.3033    2.8025 H   0  0  0  0  0  0  0  0  0  0  0  0
   -5.4568   -3.3734   -0.0258 H   0  0  0  0  0  0  0  0  0  0  0  0
   -5.7089   -3.3415    1.7169 H   0  0  0  0  0  0  0  0  0  0  0  0
   -3.8912   -1.7923    1.9630 H   0  0  0  0  0  0  0  0  0  0  0  0
   -1.6663   -0.8153   -1.5462 H   0  0  0  0  0  0  0  0  0  0  0  0
   -0.0355    0.5642    0.5438 H   0  0  0  0  0  0  0  0  0  0  0  0
   -0.0015    0.8888   -1.1979 H   0  0  0  0  0  0  0  0  0  0  0  0
    1.1389   -1.3025   -1.6194 H   0  0  0  0  0  0  0  0  0  0  0  0
    0.9431   -1.0033    2.0971 H   0  0  0  0  0  0  0  0  0  0  0  0
    1.8831   -2.5117    2.0926 H   0  0  0  0  0  0  0  0  0  0  0  0
    3.7026   -1.5118    0.9358 H   0  0  0  0  0  0  0  0  0  0  0  0
    3.1012   -0.0664    1.7682 H   0  0  0  0  0  0  0  0  0  0  0  0
    4.6191    2.3843    1.2757 H   0  0  0  0  0  0  0  0  0  0  0  0
    7.0567    2.4553    1.3735 H   0  0  0  0  0  0  0  0  0  0  0  0
    9.2192    2.9452    0.7494 H   0  0  0  0  0  0  0  0  0  0  0  0
    9.1639    1.3002    1.4995 H   0  0  0  0  0  0  0  0  0  0  0  0
   10.4878    1.7588    0.4204 H   0  0  0  0  0  0  0  0  0  0  0  0
    6.3425    0.5660   -4.2356 H   0  0  0  0  0  0  0  0  0  0  0  0
    7.7223   -0.5144   -4.4431 H   0  0  0  0  0  0  0  0  0  0  0  0
    6.3038   -1.1159   -3.5730 H   0  0  0  0  0  0  0  0  0  0  0  0
    4.7781    0.2451   -2.4536 H   0  0  0  0  0  0  0  0  0  0  0  0
   -6.3880   -1.6398   -1.4789 H   0  0  0  0  0  0  0  0  0  0  0  0
   -8.0343    0.1722   -1.7579 H   0  0  0  0  0  0  0  0  0  0  0  0
  1  2  1  0
  2  3  1  0
  3  4  2  0
  4  5  1  0
  5  6  2  0
  6  7  1  0
  7  8  1  0
  8  9  1  0
  9 10  2  0
  9 11  1  0
 11 12  2  0
 11 13  1  0
 13 14  1  0
 14 15  1  0
 15 16  1  0
 16 17  1  0
 17 18  1  0
 18 19  1  0
 19 20  1  0
 20 21  2  0
 20 22  2  0
 20 23  1  0
 23 24  2  0
 24 25  1  0
 25 26  2  0
 26 27  1  0
 27 28  1  0
 26 29  1  0
 29 30  1  0
 30 31  1  0
 29 32  2  0
  6 33  1  0
 33 34  2  0
 34  3  1  0
 19 15  1  0
 32 23  1  0
  1 35  1  0
  1 36  1  0
  1 37  1  0
  4 38  1  0
  5 39  1  0
  7 40  1  0
  7 41  1  0
  8 42  1  0
 13 43  1  0
 14 44  1  0
 14 45  1  0
 15 46  1  0
 17 47  1  0
 17 48  1  0
 18 49  1  0
 18 50  1  0
 24 51  1  0
 25 52  1  0
 28 53  1  0
 28 54  1  0
 28 55  1  0
 31 56  1  0
 31 57  1  0
 31 58  1  0
 32 59  1  0
 33 60  1  0
 34 61  1  0
M  END
$$$$
