
     RDKit          3D

 38 38  0  0  0  0  0  0  0  0999 V2000
    5.1965   -1.1940   -3.1975 C   0  0  0  0  0  0  0  0  0  0  0  0
    4.2943    0.0253   -3.1724 C   0  0  0  0  0  0  0  0  0  0  0  0
    3.2306   -0.1674   -2.2287 O   0  0  0  0  0  0  0  0  0  0  0  0
    3.4979    0.2134   -0.9490 C   0  0  0  0  0  0  0  0  0  0  0  0
    4.5779    0.6184   -0.5385 O   0  0  0  0  0  0  0  0  0  0  0  0
    2.3036   -0.0102   -0.0706 C   0  0  0  0  0  0  0  0  0  0  0  0
    1.1138    0.8373   -0.4383 C   0  0  0  0  0  0  0  0  0  0  0  0
    1.2068    1.8330   -1.1529 O   0  0  0  0  0  0  0  0  0  0  0  0
   -0.2283    0.4646    0.1051 C   0  0  0  0  0  0  0  0  0  0  0  0
   -1.3612    1.0502   -0.4832 C   0  0  0  0  0  0  0  0  0  0  0  0
   -2.6404    0.7415   -0.0200 C   0  0  0  0  0  0  0  0  0  0  0  0
   -3.8046    1.2512   -0.5327 O   0  0  0  0  0  0  0  0  0  0  0  0
   -3.7065    2.0976   -1.6706 C   0  0  0  0  0  0  0  0  0  0  0  0
   -2.7709   -0.1504    1.0576 C   0  0  0  0  0  0  0  0  0  0  0  0
   -4.0289   -0.5031    1.4955 O   0  0  0  0  0  0  0  0  0  0  0  0
   -4.4616    0.4025    2.5094 C   0  0  0  0  0  0  0  0  0  0  0  0
   -1.6474   -0.7539    1.6498 C   0  0  0  0  0  0  0  0  0  0  0  0
   -1.9001   -1.6149    2.6863 O   0  0  0  0  0  0  0  0  0  0  0  0
   -0.8160   -2.3818    3.1912 C   0  0  0  0  0  0  0  0  0  0  0  0
   -0.3739   -0.4315    1.1740 C   0  0  0  0  0  0  0  0  0  0  0  0
    5.6717   -1.3513   -2.2241 H   0  0  0  0  0  0  0  0  0  0  0  0
    5.9783   -1.0825   -3.9541 H   0  0  0  0  0  0  0  0  0  0  0  0
    4.6170   -2.0964   -3.4184 H   0  0  0  0  0  0  0  0  0  0  0  0
    3.8300    0.1604   -4.1547 H   0  0  0  0  0  0  0  0  0  0  0  0
    4.8601    0.9387   -2.9555 H   0  0  0  0  0  0  0  0  0  0  0  0
    2.0545   -1.0753   -0.1256 H   0  0  0  0  0  0  0  0  0  0  0  0
    2.5916    0.2300    0.9590 H   0  0  0  0  0  0  0  0  0  0  0  0
   -1.2161    1.7443   -1.3064 H   0  0  0  0  0  0  0  0  0  0  0  0
   -3.2462    1.5743   -2.5152 H   0  0  0  0  0  0  0  0  0  0  0  0
   -3.1643    3.0180   -1.4305 H   0  0  0  0  0  0  0  0  0  0  0  0
   -4.7220    2.3779   -1.9668 H   0  0  0  0  0  0  0  0  0  0  0  0
   -3.7916    0.3818    3.3760 H   0  0  0  0  0  0  0  0  0  0  0  0
   -5.4533    0.0822    2.8426 H   0  0  0  0  0  0  0  0  0  0  0  0
   -4.5492    1.4238    2.1234 H   0  0  0  0  0  0  0  0  0  0  0  0
   -0.3458   -2.9754    2.4001 H   0  0  0  0  0  0  0  0  0  0  0  0
   -0.0840   -1.7407    3.6927 H   0  0  0  0  0  0  0  0  0  0  0  0
   -1.2156   -3.0764    3.9363 H   0  0  0  0  0  0  0  0  0  0  0  0
    0.5032   -0.8612    1.6419 H   0  0  0  0  0  0  0  0  0  0  0  0
  1  2  1  0
  2  3  1  0
  3  4  1  0
  4  5  2  0
  4  6  1  0
  6  7  1  0
  7  8  2  0
  7  9  1  0
  9 10  2  0
 10 11  1  0
 11 12  1  0
 12 13  1  0
 11 14  2  0
 14 15  1  0
 15 16  1  0
 14 17  1  0
 17 18  1  0
 18 19  1  0
 17 20  2  0
 20  9  1  0
  1 21  1  0
  1 22  1  0
  1 23  1  0
  2 24  1  0
  2 25  1  0
  6 26  1  0
  6 27  1  0
 10 28  1  0
 13 29  1  0
 13 30  1  0
 13 31  1  0
 16 32  1  0
 16 33  1  0
 16 34  1  0
 19 35  1  0
 19 36  1  0
 19 37  1  0
 20 38  1  0
M  END
$$$$
