
     RDKit          3D

 37 37  0  0  0  0  0  0  0  0999 V2000
   -2.0406   -2.3461   -1.8405 C   0  0  0  0  0  0  0  0  0  0  0  0
   -1.4983   -1.1874   -1.2069 O   0  0  0  0  0  0  0  0  0  0  0  0
   -2.3455   -0.1178   -1.1815 C   0  0  0  0  0  0  0  0  0  0  0  0
   -3.4873   -0.1255   -1.6298 O   0  0  0  0  0  0  0  0  0  0  0  0
   -1.7038    1.1065   -0.4993 C   0  0  0  0  0  0  0  0  0  0  0  0
   -2.5827    1.6438    0.6435 C   0  0  0  0  0  0  0  0  0  0  0  0
   -2.4825    0.9330    1.9960 C   0  0  0  0  0  0  0  0  0  0  0  0
   -2.9003   -0.8374    2.0019 S   0  0  0  0  0  0  0  0  0  0  0  0
   -4.6876   -0.7285    1.7307 C   0  0  0  0  0  0  0  0  0  0  0  0
   -0.3244    0.8852   -0.0553 N   0  0  0  0  0  0  0  0  0  0  0  0
    0.7003    1.0253   -0.9582 C   0  0  0  0  0  0  0  0  0  0  0  0
    0.5673    1.4300   -2.1024 O   0  0  0  0  0  0  0  0  0  0  0  0
    1.8921    0.6440   -0.4027 N   0  0  0  0  0  0  0  0  0  0  0  0
    3.1048    0.8113   -1.1696 C   0  0  0  0  0  0  0  0  0  0  0  0
    4.2377    0.2384   -0.3835 C   0  0  0  0  0  0  0  0  0  0  0  0
    4.7383   -1.0485   -0.4150 C   0  0  0  0  0  0  0  0  0  0  0  0
    5.8311   -1.2282    0.4829 C   0  0  0  0  0  0  0  0  0  0  0  0
    6.1247   -0.0749    1.1758 C   0  0  0  0  0  0  0  0  0  0  0  0
    5.0899    1.2159    0.7414 S   0  0  0  0  0  0  0  0  0  0  0  0
   -2.9173   -2.7094   -1.2940 H   0  0  0  0  0  0  0  0  0  0  0  0
   -2.2943   -2.1293   -2.8828 H   0  0  0  0  0  0  0  0  0  0  0  0
   -1.2779   -3.1279   -1.8274 H   0  0  0  0  0  0  0  0  0  0  0  0
   -1.6765    1.8760   -1.2839 H   0  0  0  0  0  0  0  0  0  0  0  0
   -2.2866    2.6874    0.8198 H   0  0  0  0  0  0  0  0  0  0  0  0
   -3.6305    1.6863    0.3245 H   0  0  0  0  0  0  0  0  0  0  0  0
   -1.4606    1.0214    2.3823 H   0  0  0  0  0  0  0  0  0  0  0  0
   -3.1246    1.4381    2.7247 H   0  0  0  0  0  0  0  0  0  0  0  0
   -4.9103   -0.2667    0.7664 H   0  0  0  0  0  0  0  0  0  0  0  0
   -5.1572   -0.1513    2.5305 H   0  0  0  0  0  0  0  0  0  0  0  0
   -5.1087   -1.7380    1.7384 H   0  0  0  0  0  0  0  0  0  0  0  0
   -0.2004    0.0615    0.5219 H   0  0  0  0  0  0  0  0  0  0  0  0
    1.9664    0.8504    0.5827 H   0  0  0  0  0  0  0  0  0  0  0  0
    3.2473    1.8787   -1.3799 H   0  0  0  0  0  0  0  0  0  0  0  0
    2.9912    0.2965   -2.1296 H   0  0  0  0  0  0  0  0  0  0  0  0
    4.3372   -1.8282   -1.0532 H   0  0  0  0  0  0  0  0  0  0  0  0
    6.3717   -2.1578    0.6151 H   0  0  0  0  0  0  0  0  0  0  0  0
    6.8979    0.0732    1.9169 H   0  0  0  0  0  0  0  0  0  0  0  0
  1  2  1  0
  2  3  1  0
  3  4  2  0
  3  5  1  0
  5  6  1  0
  6  7  1  0
  7  8  1  0
  8  9  1  0
  5 10  1  0
 10 11  1  0
 11 12  2  0
 11 13  1  0
 13 14  1  0
 14 15  1  0
 15 16  2  0
 16 17  1  0
 17 18  2  0
 18 19  1  0
 19 15  1  0
  1 20  1  0
  1 21  1  0
  1 22  1  0
  5 23  1  0
  6 24  1  0
  6 25  1  0
  7 26  1  0
  7 27  1  0
  9 28  1  0
  9 29  1  0
  9 30  1  0
 10 31  1  0
 13 32  1  0
 14 33  1  0
 14 34  1  0
 16 35  1  0
 17 36  1  0
 18 37  1  0
M  END
$$$$
