
     RDKit          3D

 54 56  0  0  0  0  0  0  0  0999 V2000
   10.3230   -1.2666   -0.3279 C   0  0  0  0  0  0  0  0  0  0  0  0
    9.7119    0.0054   -0.5041 O   0  0  0  0  0  0  0  0  0  0  0  0
    8.6032    0.2681    0.2524 C   0  0  0  0  0  0  0  0  0  0  0  0
    8.0548    1.5381    0.0627 C   0  0  0  0  0  0  0  0  0  0  0  0
    6.9205    1.9404    0.7725 C   0  0  0  0  0  0  0  0  0  0  0  0
    6.3134    1.0713    1.6854 C   0  0  0  0  0  0  0  0  0  0  0  0
    5.0831    1.4950    2.4471 C   0  0  0  0  0  0  0  0  0  0  0  0
    3.8064    0.7671    2.0137 C   0  0  0  0  0  0  0  0  0  0  0  0
    3.4120    1.0642    0.5656 C   0  0  0  0  0  0  0  0  0  0  0  0
    2.1060    0.4476    0.2349 C   0  0  0  0  0  0  0  0  0  0  0  0
    1.8160   -0.8040   -0.0454 N   0  0  0  0  0  0  0  0  0  0  0  0
    0.4573   -0.8393   -0.2765 N   0  0  0  0  0  0  0  0  0  0  0  0
    0.0126    0.3919   -0.1232 C   0  0  0  0  0  0  0  0  0  0  0  0
   -1.6409    0.8782   -0.3140 S   0  0  0  0  0  0  0  0  0  0  0  0
   -2.2684   -0.5477   -1.2416 C   0  0  0  0  0  0  0  0  0  0  0  0
   -3.7138   -0.2933   -1.6308 C   0  0  0  0  0  0  0  0  0  0  0  0
   -3.9896    0.2703   -2.6861 O   0  0  0  0  0  0  0  0  0  0  0  0
   -4.6161   -0.7566   -0.6880 N   0  0  0  0  0  0  0  0  0  0  0  0
   -6.0304   -0.7126   -0.7318 C   0  0  0  0  0  0  0  0  0  0  0  0
   -6.7480   -0.1563   -1.7932 C   0  0  0  0  0  0  0  0  0  0  0  0
   -8.1577   -0.1325   -1.7984 C   0  0  0  0  0  0  0  0  0  0  0  0
   -8.8674    0.4771   -2.9775 C   0  0  0  0  0  0  0  0  0  0  0  0
   -8.8672   -0.7077   -0.7284 C   0  0  0  0  0  0  0  0  0  0  0  0
  -10.3707   -0.7085   -0.6816 C   0  0  0  0  0  0  0  0  0  0  0  0
   -8.1512   -1.2533    0.3456 C   0  0  0  0  0  0  0  0  0  0  0  0
   -6.7530   -1.2564    0.3420 C   0  0  0  0  0  0  0  0  0  0  0  0
   -5.8684   -2.0288    1.8415 Br  0  0  0  0  0  0  0  0  0  0  0  0
    1.0108    1.2667    0.2149 O   0  0  0  0  0  0  0  0  0  0  0  0
    6.8661   -0.2018    1.8739 C   0  0  0  0  0  0  0  0  0  0  0  0
    8.0033   -0.6016    1.1620 C   0  0  0  0  0  0  0  0  0  0  0  0
   10.6799   -1.3942    0.6998 H   0  0  0  0  0  0  0  0  0  0  0  0
    9.6420   -2.0751   -0.6148 H   0  0  0  0  0  0  0  0  0  0  0  0
   11.1933   -1.3135   -0.9899 H   0  0  0  0  0  0  0  0  0  0  0  0
    8.5177    2.2225   -0.6450 H   0  0  0  0  0  0  0  0  0  0  0  0
    6.5197    2.9370    0.6033 H   0  0  0  0  0  0  0  0  0  0  0  0
    5.2591    1.3074    3.5147 H   0  0  0  0  0  0  0  0  0  0  0  0
    4.9367    2.5791    2.3556 H   0  0  0  0  0  0  0  0  0  0  0  0
    3.9201   -0.3158    2.1524 H   0  0  0  0  0  0  0  0  0  0  0  0
    2.9935    1.0777    2.6832 H   0  0  0  0  0  0  0  0  0  0  0  0
    4.1662    0.6719   -0.1256 H   0  0  0  0  0  0  0  0  0  0  0  0
    3.3607    2.1475    0.4056 H   0  0  0  0  0  0  0  0  0  0  0  0
   -2.1942   -1.4596   -0.6389 H   0  0  0  0  0  0  0  0  0  0  0  0
   -1.6885   -0.7006   -2.1585 H   0  0  0  0  0  0  0  0  0  0  0  0
   -4.2353   -1.1711    0.1579 H   0  0  0  0  0  0  0  0  0  0  0  0
   -6.2308    0.2793   -2.6424 H   0  0  0  0  0  0  0  0  0  0  0  0
   -9.6610    1.1536   -2.6466 H   0  0  0  0  0  0  0  0  0  0  0  0
   -8.1835    1.0667   -3.5970 H   0  0  0  0  0  0  0  0  0  0  0  0
   -9.2973   -0.3111   -3.6024 H   0  0  0  0  0  0  0  0  0  0  0  0
  -10.7360    0.2818   -0.3945 H   0  0  0  0  0  0  0  0  0  0  0  0
  -10.7441   -1.4362    0.0472 H   0  0  0  0  0  0  0  0  0  0  0  0
  -10.7936   -0.9864   -1.6520 H   0  0  0  0  0  0  0  0  0  0  0  0
   -8.6896   -1.6813    1.1900 H   0  0  0  0  0  0  0  0  0  0  0  0
    6.4154   -0.8959    2.5798 H   0  0  0  0  0  0  0  0  0  0  0  0
    8.3923   -1.5979    1.3423 H   0  0  0  0  0  0  0  0  0  0  0  0
  1  2  1  0
  2  3  1  0
  3  4  2  0
  4  5  1  0
  5  6  2  0
  6  7  1  0
  7  8  1  0
  8  9  1  0
  9 10  1  0
 10 11  2  0
 11 12  1  0
 12 13  2  0
 13 14  1  0
 14 15  1  0
 15 16  1  0
 16 17  2  0
 16 18  1  0
 18 19  1  0
 19 20  2  0
 20 21  1  0
 21 22  1  0
 21 23  2  0
 23 24  1  0
 23 25  1  0
 25 26  2  0
 26 27  1  0
 13 28  1  0
  6 29  1  0
 29 30  2  0
 30  3  1  0
 28 10  1  0
 26 19  1  0
  1 31  1  0
  1 32  1  0
  1 33  1  0
  4 34  1  0
  5 35  1  0
  7 36  1  0
  7 37  1  0
  8 38  1  0
  8 39  1  0
  9 40  1  0
  9 41  1  0
 15 42  1  0
 15 43  1  0
 18 44  1  0
 20 45  1  0
 22 46  1  0
 22 47  1  0
 22 48  1  0
 24 49  1  0
 24 50  1  0
 24 51  1  0
 25 52  1  0
 29 53  1  0
 30 54  1  0
M  END
$$$$
