
     RDKit          3D

 63 67  0  0  0  0  0  0  0  0999 V2000
    7.1381    0.9608   -4.0443 C   0  0  0  0  0  0  0  0  0  0  0  0
    6.4427    2.0182   -3.2075 C   0  0  0  0  0  0  0  0  0  0  0  0
    5.4611    1.4103   -2.3571 O   0  0  0  0  0  0  0  0  0  0  0  0
    5.9184    0.9524   -1.1554 C   0  0  0  0  0  0  0  0  0  0  0  0
    7.0807    1.0313   -0.7766 O   0  0  0  0  0  0  0  0  0  0  0  0
    4.8569    0.3502   -0.3588 C   0  0  0  0  0  0  0  0  0  0  0  0
    3.4783    0.1846   -0.6799 C   0  0  0  0  0  0  0  0  0  0  0  0
    2.8478   -0.4243    0.3916 C   0  0  0  0  0  0  0  0  0  0  0  0
    1.4646   -0.8265    0.6140 C   0  0  0  0  0  0  0  0  0  0  0  0
    0.4229   -0.5391   -0.2628 N   0  0  0  0  0  0  0  0  0  0  0  0
    0.3206    0.7640   -0.9384 C   0  0  0  0  0  0  0  0  0  0  0  0
   -1.1271    1.3033   -0.9299 C   0  0  0  0  0  0  0  0  0  0  0  0
   -2.0716    0.4005   -1.6047 N   0  0  0  0  0  0  0  0  0  0  0  0
   -3.4806    0.7691   -1.4300 C   0  0  0  0  0  0  0  0  0  0  0  0
   -4.0520    0.6593   -0.0024 C   0  0  0  0  0  0  0  0  0  0  0  0
   -5.5384    0.9634    0.0338 C   0  0  0  0  0  0  0  0  0  0  0  0
   -5.9397    2.3116    0.0636 C   0  0  0  0  0  0  0  0  0  0  0  0
   -7.2897    2.6583    0.0835 C   0  0  0  0  0  0  0  0  0  0  0  0
   -8.2616    1.6650    0.0730 C   0  0  0  0  0  0  0  0  0  0  0  0
   -7.8832    0.3232    0.0406 C   0  0  0  0  0  0  0  0  0  0  0  0
   -6.5250   -0.0500    0.0158 C   0  0  0  0  0  0  0  0  0  0  0  0
   -6.1707   -1.5217   -0.0119 C   0  0  0  0  0  0  0  0  0  0  0  0
   -7.2495   -2.3422   -0.1620 F   0  0  0  0  0  0  0  0  0  0  0  0
   -5.3249   -1.8435   -1.0307 F   0  0  0  0  0  0  0  0  0  0  0  0
   -5.5533   -1.9329    1.1307 F   0  0  0  0  0  0  0  0  0  0  0  0
   -1.7771   -1.0204   -1.3379 C   0  0  0  0  0  0  0  0  0  0  0  0
   -0.8461   -1.2793   -0.1345 C   0  0  0  0  0  0  0  0  0  0  0  0
    1.1850   -1.5082    1.6984 N   0  0  0  0  0  0  0  0  0  0  0  0
    2.1821   -1.8019    2.6471 C   0  0  0  0  0  0  0  0  0  0  0  0
    1.8206   -2.5193    3.7891 C   0  0  0  0  0  0  0  0  0  0  0  0
    2.7689   -2.8278    4.7681 C   0  0  0  0  0  0  0  0  0  0  0  0
    4.0936   -2.4186    4.6127 C   0  0  0  0  0  0  0  0  0  0  0  0
    4.4771   -1.7010    3.4792 C   0  0  0  0  0  0  0  0  0  0  0  0
    3.5166   -1.3996    2.5087 C   0  0  0  0  0  0  0  0  0  0  0  0
    3.8178   -0.6960    1.3317 N   0  0  0  0  0  0  0  0  0  0  0  0
    5.0227   -0.1986    0.9019 C   0  0  0  0  0  0  0  0  0  0  0  0
    7.6813    0.2525   -3.4108 H   0  0  0  0  0  0  0  0  0  0  0  0
    7.8456    1.4203   -4.7402 H   0  0  0  0  0  0  0  0  0  0  0  0
    6.4064    0.3803   -4.6161 H   0  0  0  0  0  0  0  0  0  0  0  0
    7.1614    2.6104   -2.6295 H   0  0  0  0  0  0  0  0  0  0  0  0
    5.9098    2.7138   -3.8640 H   0  0  0  0  0  0  0  0  0  0  0  0
    3.0085    0.4817   -1.6077 H   0  0  0  0  0  0  0  0  0  0  0  0
    0.6676    0.6584   -1.9729 H   0  0  0  0  0  0  0  0  0  0  0  0
    0.9539    1.5092   -0.4434 H   0  0  0  0  0  0  0  0  0  0  0  0
   -1.1433    2.2778   -1.4312 H   0  0  0  0  0  0  0  0  0  0  0  0
   -1.4158    1.4701    0.1143 H   0  0  0  0  0  0  0  0  0  0  0  0
   -4.0811    0.1522   -2.1117 H   0  0  0  0  0  0  0  0  0  0  0  0
   -3.6158    1.7961   -1.7950 H   0  0  0  0  0  0  0  0  0  0  0  0
   -3.8596   -0.3305    0.4222 H   0  0  0  0  0  0  0  0  0  0  0  0
   -3.5449    1.3634    0.6686 H   0  0  0  0  0  0  0  0  0  0  0  0
   -5.1947    3.1057    0.0725 H   0  0  0  0  0  0  0  0  0  0  0  0
   -7.5819    3.7052    0.1079 H   0  0  0  0  0  0  0  0  0  0  0  0
   -9.3151    1.9337    0.0903 H   0  0  0  0  0  0  0  0  0  0  0  0
   -8.6618   -0.4394    0.0341 H   0  0  0  0  0  0  0  0  0  0  0  0
   -1.2841   -1.4129   -2.2368 H   0  0  0  0  0  0  0  0  0  0  0  0
   -2.6927   -1.6121   -1.2227 H   0  0  0  0  0  0  0  0  0  0  0  0
   -1.3525   -0.9893    0.7945 H   0  0  0  0  0  0  0  0  0  0  0  0
   -0.6410   -2.3554   -0.0839 H   0  0  0  0  0  0  0  0  0  0  0  0
    0.7891   -2.8380    3.9135 H   0  0  0  0  0  0  0  0  0  0  0  0
    2.4713   -3.3877    5.6510 H   0  0  0  0  0  0  0  0  0  0  0  0
    4.8286   -2.6620    5.3764 H   0  0  0  0  0  0  0  0  0  0  0  0
    5.5140   -1.3975    3.3795 H   0  0  0  0  0  0  0  0  0  0  0  0
    5.9208   -0.2804    1.4986 H   0  0  0  0  0  0  0  0  0  0  0  0
  1  2  1  0
  2  3  1  0
  3  4  1  0
  4  5  2  0
  4  6  1  0
  6  7  1  0
  7  8  2  0
  8  9  1  0
  9 10  1  0
 10 11  1  0
 11 12  1  0
 12 13  1  0
 13 14  1  0
 14 15  1  0
 15 16  1  0
 16 17  2  0
 17 18  1  0
 18 19  2  0
 19 20  1  0
 20 21  2  0
 21 22  1  0
 22 23  1  0
 22 24  1  0
 22 25  1  0
 13 26  1  0
 26 27  1  0
  9 28  2  0
 28 29  1  0
 29 30  2  0
 30 31  1  0
 31 32  2  0
 32 33  1  0
 33 34  2  0
 34 35  1  0
 35 36  1  0
 36  6  2  0
 35  8  1  0
 27 10  1  0
 34 29  1  0
 21 16  1  0
  1 37  1  0
  1 38  1  0
  1 39  1  0
  2 40  1  0
  2 41  1  0
  7 42  1  0
 11 43  1  0
 11 44  1  0
 12 45  1  0
 12 46  1  0
 14 47  1  0
 14 48  1  0
 15 49  1  0
 15 50  1  0
 17 51  1  0
 18 52  1  0
 19 53  1  0
 20 54  1  0
 26 55  1  0
 26 56  1  0
 27 57  1  0
 27 58  1  0
 30 59  1  0
 31 60  1  0
 32 61  1  0
 33 62  1  0
 36 63  1  0
M  END
$$$$
