
     RDKit          3D

 31 31  0  0  0  0  0  0  0  0999 V2000
    2.5060   -0.8300    3.0982 C   0  0  0  0  0  0  0  0  0  0  0  0
    3.5397   -0.4086    2.2168 O   0  0  0  0  0  0  0  0  0  0  0  0
    3.0210    0.3541    1.1280 C   0  0  0  0  0  0  0  0  0  0  0  0
    2.1516   -0.4261    0.3088 O   0  0  0  0  0  0  0  0  0  0  0  0
    1.5674    0.3302   -0.6756 C   0  0  0  0  0  0  0  0  0  0  0  0
    0.2430    0.3704   -0.9077 C   0  0  0  0  0  0  0  0  0  0  0  0
   -0.2407    1.1345   -1.9516 N   0  0  0  0  0  0  0  0  0  0  0  0
   -1.5584    1.2976   -2.3486 C   0  0  0  0  0  0  0  0  0  0  0  0
   -1.6800    2.1969   -3.5537 C   0  0  0  0  0  0  0  0  0  0  0  0
   -2.5551    0.8233   -1.8182 O   0  0  0  0  0  0  0  0  0  0  0  0
   -0.6574   -0.3894   -0.0217 C   0  0  0  0  0  0  0  0  0  0  0  0
   -1.2896    0.2452    1.0568 C   0  0  0  0  0  0  0  0  0  0  0  0
   -2.1066   -0.4829    1.9242 C   0  0  0  0  0  0  0  0  0  0  0  0
   -2.2924   -1.8503    1.7244 C   0  0  0  0  0  0  0  0  0  0  0  0
   -1.6638   -2.4913    0.6576 C   0  0  0  0  0  0  0  0  0  0  0  0
   -0.8476   -1.7647   -0.2119 C   0  0  0  0  0  0  0  0  0  0  0  0
    1.9525    0.0312    3.4852 H   0  0  0  0  0  0  0  0  0  0  0  0
    2.9677   -1.3525    3.9404 H   0  0  0  0  0  0  0  0  0  0  0  0
    1.8242   -1.5230    2.5963 H   0  0  0  0  0  0  0  0  0  0  0  0
    3.8798    0.6866    0.5338 H   0  0  0  0  0  0  0  0  0  0  0  0
    2.5027    1.2389    1.5208 H   0  0  0  0  0  0  0  0  0  0  0  0
    2.2984    0.8631   -1.2705 H   0  0  0  0  0  0  0  0  0  0  0  0
    0.4541    1.6138   -2.5100 H   0  0  0  0  0  0  0  0  0  0  0  0
   -0.8915    1.9812   -4.2804 H   0  0  0  0  0  0  0  0  0  0  0  0
   -2.6451    2.0262   -4.0395 H   0  0  0  0  0  0  0  0  0  0  0  0
   -1.6143    3.2407   -3.2359 H   0  0  0  0  0  0  0  0  0  0  0  0
   -1.1587    1.3120    1.2153 H   0  0  0  0  0  0  0  0  0  0  0  0
   -2.6048    0.0188    2.7490 H   0  0  0  0  0  0  0  0  0  0  0  0
   -2.9334   -2.4153    2.3956 H   0  0  0  0  0  0  0  0  0  0  0  0
   -1.8107   -3.5560    0.4992 H   0  0  0  0  0  0  0  0  0  0  0  0
   -0.3584   -2.2742   -1.0378 H   0  0  0  0  0  0  0  0  0  0  0  0
  1  2  1  0
  2  3  1  0
  3  4  1  0
  4  5  1  0
  5  6  2  3
  6  7  1  0
  7  8  1  0
  8  9  1  0
  8 10  2  0
  6 11  1  0
 11 12  2  0
 12 13  1  0
 13 14  2  0
 14 15  1  0
 15 16  2  0
 16 11  1  0
  1 17  1  0
  1 18  1  0
  1 19  1  0
  3 20  1  0
  3 21  1  0
  5 22  1  0
  7 23  1  0
  9 24  1  0
  9 25  1  0
  9 26  1  0
 12 27  1  0
 13 28  1  0
 14 29  1  0
 15 30  1  0
 16 31  1  0
M  END
$$$$
