
     RDKit          3D

 29 30  0  0  0  0  0  0  0  0999 V2000
    2.4301    3.1005    0.4135 O   0  0  0  0  0  0  0  0  0  0  0  0
    3.2298    2.2252    0.1059 C   0  0  0  0  0  0  0  0  0  0  0  0
    2.8907    0.7924    0.2072 C   0  0  0  0  0  0  0  0  0  0  0  0
    3.8425   -0.1659   -0.1522 C   0  0  0  0  0  0  0  0  0  0  0  0
    3.5273   -1.5211   -0.0483 C   0  0  0  0  0  0  0  0  0  0  0  0
    2.2658   -1.9116    0.4048 C   0  0  0  0  0  0  0  0  0  0  0  0
    1.3105   -0.9501    0.7430 C   0  0  0  0  0  0  0  0  0  0  0  0
    0.0953   -1.4275    1.1868 O   0  0  0  0  0  0  0  0  0  0  0  0
   -1.0226   -0.7360    0.7888 C   0  0  0  0  0  0  0  0  0  0  0  0
   -1.7258   -0.0425    1.7790 C   0  0  0  0  0  0  0  0  0  0  0  0
   -2.8722    0.6872    1.4469 C   0  0  0  0  0  0  0  0  0  0  0  0
   -3.3255    0.7093    0.1180 C   0  0  0  0  0  0  0  0  0  0  0  0
   -4.5325    1.4742   -0.2250 N   0  0  0  0  0  4  0  0  0  0  0  0
   -5.0833    2.1156    0.6795 O   0  0  0  0  0  0  0  0  0  0  0  0
   -4.9267    1.4242   -1.3978 O   0  0  0  0  0  1  0  0  0  0  0  0
   -2.6490   -0.0025   -0.8808 C   0  0  0  0  0  0  0  0  0  0  0  0
   -1.5069   -0.7317   -0.5244 C   0  0  0  0  0  0  0  0  0  0  0  0
   -0.8473   -1.5104   -1.5548 N   0  0  0  0  0  4  0  0  0  0  0  0
   -0.5236   -0.9090   -2.5874 O   0  0  0  0  0  0  0  0  0  0  0  0
   -0.6901   -2.7197   -1.3441 O   0  0  0  0  0  1  0  0  0  0  0  0
    1.6255    0.4072    0.6623 C   0  0  0  0  0  0  0  0  0  0  0  0
    4.2404    2.4712   -0.2609 H   0  0  0  0  0  0  0  0  0  0  0  0
    4.8268    0.1266   -0.5089 H   0  0  0  0  0  0  0  0  0  0  0  0
    4.2608   -2.2759   -0.3230 H   0  0  0  0  0  0  0  0  0  0  0  0
    2.0212   -2.9694    0.4782 H   0  0  0  0  0  0  0  0  0  0  0  0
   -1.3732   -0.0586    2.8089 H   0  0  0  0  0  0  0  0  0  0  0  0
   -3.3974    1.2305    2.2318 H   0  0  0  0  0  0  0  0  0  0  0  0
   -3.0012   -0.0033   -1.9114 H   0  0  0  0  0  0  0  0  0  0  0  0
    0.9108    1.1713    0.9557 H   0  0  0  0  0  0  0  0  0  0  0  0
  1  2  2  0
  2  3  1  0
  3  4  2  0
  4  5  1  0
  5  6  2  0
  6  7  1  0
  7  8  1  0
  8  9  1  0
  9 10  2  0
 10 11  1  0
 11 12  2  0
 12 13  1  0
 13 14  2  0
 13 15  1  0
 12 16  1  0
 16 17  2  0
 17 18  1  0
 18 19  2  0
 18 20  1  0
  7 21  2  0
 21  3  1  0
 17  9  1  0
  2 22  1  0
  4 23  1  0
  5 24  1  0
  6 25  1  0
 10 26  1  0
 11 27  1  0
 16 28  1  0
 21 29  1  0
M  CHG  4  13   1  15  -1  18   1  20  -1
M  END
$$$$
