
     RDKit          3D

 53 58  0  0  0  0  0  0  0  0999 V2000
   -1.1157   -1.5394   -1.4428 O   0  0  0  0  0  0  0  0  0  0  0  0
   -1.5408   -0.4641   -1.0167 C   0  0  0  0  0  0  0  0  0  0  0  0
   -0.7378    0.8250   -1.2752 C   0  0  0  0  0  0  0  0  0  0  0  0
    0.6927    0.5838   -1.0186 N   0  0  0  0  0  4  0  0  0  0  0  0
    1.4039    0.9093    0.1354 C   0  0  0  0  0  0  0  0  0  0  0  0
    2.7017    0.4237    0.0168 C   0  0  0  0  0  0  0  0  0  0  0  0
    3.8391    0.5237    1.0979 C   0  0  0  0  0  0  0  0  0  0  0  0
    5.0776   -0.0883    0.8881 C   0  0  0  0  0  0  0  0  0  0  0  0
    6.0816    0.0011    1.8594 C   0  0  0  0  0  0  0  0  0  0  0  0
    5.8483    0.7008    3.0406 C   0  0  0  0  0  0  0  0  0  0  0  0
    7.0825    0.8078    4.2323 Cl  0  0  0  0  0  0  0  0  0  0  0  0
    4.6158    1.3103    3.2597 C   0  0  0  0  0  0  0  0  0  0  0  0
    3.6097    1.2212    2.2918 C   0  0  0  0  0  0  0  0  0  0  0  0
    2.7127   -0.1505   -1.2415 N   0  0  0  0  0  0  0  0  0  0  0  0
    1.5147   -0.0902   -1.8176 C   0  0  0  0  0  0  0  0  0  0  0  0
    1.4752   -0.7375   -3.1510 C   0  0  0  0  0  0  0  0  0  0  0  0
    2.9750   -0.8942   -3.4689 C   0  0  0  0  0  0  0  0  0  0  0  0
    3.6821   -0.8343   -2.0859 C   0  0  0  0  0  0  0  0  0  0  0  0
   -2.6658   -0.2767   -0.2010 N   0  0  0  0  0  0  0  0  0  0  0  0
   -2.8867   -1.0952    0.9696 C   0  0  0  0  0  0  0  0  0  0  0  0
   -2.1867   -2.3070    1.1474 C   0  0  0  0  0  0  0  0  0  0  0  0
   -2.3728   -3.1162    2.2750 C   0  0  0  0  0  0  0  0  0  0  0  0
   -3.2569   -2.7296    3.2686 C   0  0  0  0  0  0  0  0  0  0  0  0
   -3.9419   -1.5263    3.1367 C   0  0  0  0  0  0  0  0  0  0  0  0
   -3.7582   -0.7102    2.0053 C   0  0  0  0  0  0  0  0  0  0  0  0
   -4.5804    0.8621    2.0490 S   0  0  0  0  0  0  0  0  0  0  0  0
   -4.5635    1.2695    0.3314 C   0  0  0  0  0  0  0  0  0  0  0  0
   -5.4912    2.2331   -0.1008 C   0  0  0  0  0  0  0  0  0  0  0  0
   -5.5567    2.6177   -1.4360 C   0  0  0  0  0  0  0  0  0  0  0  0
   -4.7093    2.0238   -2.3574 C   0  0  0  0  0  0  0  0  0  0  0  0
   -3.7769    1.0723   -1.9339 C   0  0  0  0  0  0  0  0  0  0  0  0
   -3.6606    0.6985   -0.5764 C   0  0  0  0  0  0  0  0  0  0  0  0
   -1.0647    1.6440   -0.6280 H   0  0  0  0  0  0  0  0  0  0  0  0
   -0.8537    1.1241   -2.3207 H   0  0  0  0  0  0  0  0  0  0  0  0
    0.8812    1.4334    0.9178 H   0  0  0  0  0  0  0  0  0  0  0  0
    5.2965   -0.6546   -0.0086 H   0  0  0  0  0  0  0  0  0  0  0  0
    7.0431   -0.4802    1.6916 H   0  0  0  0  0  0  0  0  0  0  0  0
    4.4330    1.8563    4.1826 H   0  0  0  0  0  0  0  0  0  0  0  0
    2.6636    1.7120    2.5029 H   0  0  0  0  0  0  0  0  0  0  0  0
    0.9457   -0.0896   -3.8508 H   0  0  0  0  0  0  0  0  0  0  0  0
    0.9791   -1.7013   -3.0235 H   0  0  0  0  0  0  0  0  0  0  0  0
    3.3036   -0.0382   -4.0708 H   0  0  0  0  0  0  0  0  0  0  0  0
    3.2041   -1.8061   -4.0255 H   0  0  0  0  0  0  0  0  0  0  0  0
    3.8525   -1.8373   -1.6853 H   0  0  0  0  0  0  0  0  0  0  0  0
    4.6157   -0.2725   -2.1473 H   0  0  0  0  0  0  0  0  0  0  0  0
   -1.4921   -2.6906    0.4063 H   0  0  0  0  0  0  0  0  0  0  0  0
   -1.8268   -4.0538    2.3684 H   0  0  0  0  0  0  0  0  0  0  0  0
   -3.4085   -3.3539    4.1460 H   0  0  0  0  0  0  0  0  0  0  0  0
   -4.6167   -1.2202    3.9353 H   0  0  0  0  0  0  0  0  0  0  0  0
   -6.1863    2.6863    0.6070 H   0  0  0  0  0  0  0  0  0  0  0  0
   -6.2910    3.3544   -1.7570 H   0  0  0  0  0  0  0  0  0  0  0  0
   -4.7910    2.2826   -3.4112 H   0  0  0  0  0  0  0  0  0  0  0  0
   -3.1980    0.5811   -2.7108 H   0  0  0  0  0  0  0  0  0  0  0  0
  1  2  2  0
  2  3  1  0
  3  4  1  0
  4  5  1  0
  5  6  2  0
  6  7  1  0
  7  8  2  0
  8  9  1  0
  9 10  2  0
 10 11  1  0
 10 12  1  0
 12 13  2  0
  6 14  1  0
 14 15  1  0
 15 16  1  0
 16 17  1  0
 17 18  1  0
  2 19  1  0
 19 20  1  0
 20 21  2  0
 21 22  1  0
 22 23  2  0
 23 24  1  0
 24 25  2  0
 25 26  1  0
 26 27  1  0
 27 28  2  0
 28 29  1  0
 29 30  2  0
 30 31  1  0
 31 32  2  0
 15  4  2  0
 32 19  1  0
 13  7  1  0
 18 14  1  0
 25 20  1  0
 32 27  1  0
  3 33  1  0
  3 34  1  0
  5 35  1  0
  8 36  1  0
  9 37  1  0
 12 38  1  0
 13 39  1  0
 16 40  1  0
 16 41  1  0
 17 42  1  0
 17 43  1  0
 18 44  1  0
 18 45  1  0
 21 46  1  0
 22 47  1  0
 23 48  1  0
 24 49  1  0
 28 50  1  0
 29 51  1  0
 30 52  1  0
 31 53  1  0
M  CHG  1   4   1
M  END
$$$$
