
     RDKit          3D

 43 45  0  0  0  0  0  0  0  0999 V2000
   -2.4551   -1.2890    1.5098 C   0  0  0  0  0  0  0  0  0  0  0  0
   -3.0562   -0.4706    0.4056 C   0  0  0  0  0  0  0  0  0  0  0  0
   -3.7008   -0.9349   -0.5257 O   0  0  0  0  0  0  0  0  0  0  0  0
   -2.7738    0.8706    0.6418 O   0  0  0  0  0  0  0  0  0  0  0  0
   -3.1539    1.7127   -0.4114 C   0  0  0  0  0  0  0  0  0  0  0  0
   -4.2998    2.4888   -0.2294 C   0  0  0  0  0  0  0  0  0  0  0  0
   -4.7030    3.3589   -1.2402 C   0  0  0  0  0  0  0  0  0  0  0  0
   -3.9579    3.4546   -2.4167 C   0  0  0  0  0  0  0  0  0  0  0  0
   -2.8006    2.6867   -2.5847 C   0  0  0  0  0  0  0  0  0  0  0  0
   -2.3724    1.8166   -1.5753 C   0  0  0  0  0  0  0  0  0  0  0  0
   -1.1556    1.0235   -1.7952 C   0  0  0  0  0  0  0  0  0  0  0  0
   -0.1214    1.0498   -0.9395 C   0  0  0  0  0  0  0  0  0  0  0  0
    1.0746    0.2088   -1.0266 C   0  0  0  0  0  0  0  0  0  0  0  0
    1.5999   -0.2565   -2.2222 C   0  0  0  0  0  0  0  0  0  0  0  0
    2.7363   -1.0587   -2.1816 C   0  0  0  0  0  0  0  0  0  0  0  0
    3.3230   -1.3780   -0.9519 C   0  0  0  0  0  0  0  0  0  0  0  0
    4.4720   -2.1893   -0.8733 C   0  0  0  0  0  0  0  0  0  0  0  0
    5.0508   -2.4887    0.3603 C   0  0  0  0  0  0  0  0  0  0  0  0
    4.4838   -1.9859    1.5242 C   0  0  0  0  0  0  0  0  0  0  0  0
    3.3331   -1.1984    1.4333 C   0  0  0  0  0  0  0  0  0  0  0  0
    2.8122   -0.6799    2.6294 O   0  0  0  0  0  0  0  0  0  0  0  0
    1.6395   -1.3156    3.0145 C   0  0  0  0  0  0  0  0  0  0  0  0
    1.0275   -0.5489    4.1488 C   0  0  0  0  0  0  0  0  0  0  0  0
    1.1761   -2.3545    2.5610 O   0  0  0  0  0  0  0  0  0  0  0  0
    2.7325   -0.8576    0.2166 C   0  0  0  0  0  0  0  0  0  0  0  0
    1.6394   -0.0622    0.1718 N   0  0  0  0  0  0  0  0  0  0  0  0
   -2.6192   -2.3506    1.3042 H   0  0  0  0  0  0  0  0  0  0  0  0
   -2.9315   -1.0363    2.4601 H   0  0  0  0  0  0  0  0  0  0  0  0
   -1.3782   -1.1099    1.5588 H   0  0  0  0  0  0  0  0  0  0  0  0
   -4.8781    2.4085    0.6858 H   0  0  0  0  0  0  0  0  0  0  0  0
   -5.5999    3.9599   -1.1145 H   0  0  0  0  0  0  0  0  0  0  0  0
   -4.2776    4.1299   -3.2067 H   0  0  0  0  0  0  0  0  0  0  0  0
   -2.2328    2.7810   -3.5075 H   0  0  0  0  0  0  0  0  0  0  0  0
   -1.1713    0.3815   -2.6710 H   0  0  0  0  0  0  0  0  0  0  0  0
   -0.1533    1.6832   -0.0557 H   0  0  0  0  0  0  0  0  0  0  0  0
    1.1479   -0.0075   -3.1755 H   0  0  0  0  0  0  0  0  0  0  0  0
    3.1562   -1.4328   -3.1119 H   0  0  0  0  0  0  0  0  0  0  0  0
    4.9240   -2.5908   -1.7782 H   0  0  0  0  0  0  0  0  0  0  0  0
    5.9396   -3.1126    0.4099 H   0  0  0  0  0  0  0  0  0  0  0  0
    4.9232   -2.2075    2.4919 H   0  0  0  0  0  0  0  0  0  0  0  0
    1.6732   -0.6099    5.0281 H   0  0  0  0  0  0  0  0  0  0  0  0
    0.8750    0.4925    3.8533 H   0  0  0  0  0  0  0  0  0  0  0  0
    0.0528   -0.9810    4.3930 H   0  0  0  0  0  0  0  0  0  0  0  0
  1  2  1  0
  2  3  2  0
  2  4  1  0
  4  5  1  0
  5  6  2  0
  6  7  1  0
  7  8  2  0
  8  9  1  0
  9 10  2  0
 10 11  1  0
 11 12  2  0
 12 13  1  0
 13 14  2  0
 14 15  1  0
 15 16  2  0
 16 17  1  0
 17 18  2  0
 18 19  1  0
 19 20  2  0
 20 21  1  0
 21 22  1  0
 22 23  1  0
 22 24  2  0
 20 25  1  0
 25 26  2  0
 10  5  1  0
 26 13  1  0
 25 16  1  0
  1 27  1  0
  1 28  1  0
  1 29  1  0
  6 30  1  0
  7 31  1  0
  8 32  1  0
  9 33  1  0
 11 34  1  0
 12 35  1  0
 14 36  1  0
 15 37  1  0
 17 38  1  0
 18 39  1  0
 19 40  1  0
 23 41  1  0
 23 42  1  0
 23 43  1  0
M  END
$$$$
