
     RDKit          3D

 60 63  0  0  0  0  0  0  0  0999 V2000
   -7.0147    2.4149   -0.4920 C   0  0  0  0  0  0  0  0  0  0  0  0
   -5.8682    2.0933   -1.2698 O   0  0  0  0  0  0  0  0  0  0  0  0
   -4.6602    2.1020   -0.6300 C   0  0  0  0  0  0  0  0  0  0  0  0
   -4.4583    2.2957    0.7369 C   0  0  0  0  0  0  0  0  0  0  0  0
   -3.1638    2.2644    1.2697 C   0  0  0  0  0  0  0  0  0  0  0  0
   -2.0655    2.0464    0.4296 C   0  0  0  0  0  0  0  0  0  0  0  0
   -0.7604    2.0120    0.9785 N   0  0  0  0  0  0  0  0  0  0  0  0
   -0.3225    1.2448    2.0518 C   0  0  0  0  0  0  0  0  0  0  0  0
   -1.0923    0.1311    2.6947 C   0  0  0  0  0  0  0  0  0  0  0  0
   -1.1298   -1.0981    1.8283 C   0  0  0  0  0  0  0  0  0  0  0  0
   -0.0838   -1.7310    1.1735 C   0  0  0  0  0  0  0  0  0  0  0  0
   -0.6111   -2.8272    0.4585 C   0  0  0  0  0  0  0  0  0  0  0  0
   -1.9611   -2.8622    0.7114 C   0  0  0  0  0  0  0  0  0  0  0  0
   -2.2697   -1.8225    1.5520 N   0  0  0  0  0  0  0  0  0  0  0  0
   -3.6002   -1.5687    2.0599 C   0  0  0  0  0  0  0  0  0  0  0  0
    0.9464    1.5235    2.3036 N   0  0  0  0  0  0  0  0  0  0  0  0
    1.3793    2.4245    1.3747 N   0  0  0  0  0  0  0  0  0  0  0  0
    0.3729    2.6873    0.5690 C   0  0  0  0  0  0  0  0  0  0  0  0
    0.4578    3.8178   -0.7426 S   0  0  0  0  0  0  0  0  0  0  0  0
    2.2185    3.6902   -1.1797 C   0  0  0  0  0  0  0  0  0  0  0  0
    2.5204    2.3190   -1.7624 C   0  0  0  0  0  0  0  0  0  0  0  0
    2.3732    2.0715   -2.9560 O   0  0  0  0  0  0  0  0  0  0  0  0
    2.9633    1.3938   -0.8400 N   0  0  0  0  0  0  0  0  0  0  0  0
    3.1433   -0.0069   -1.1743 C   0  0  0  0  0  0  0  0  0  0  0  0
    4.4901   -0.5276   -0.6739 C   0  0  0  0  0  0  0  0  0  0  0  0
    4.6338   -2.0129   -0.8865 C   0  0  0  0  0  0  0  0  0  0  0  0
    4.9100   -2.5242   -2.1618 C   0  0  0  0  0  0  0  0  0  0  0  0
    5.0155   -3.9039   -2.3618 C   0  0  0  0  0  0  0  0  0  0  0  0
    4.8552   -4.7806   -1.2918 C   0  0  0  0  0  0  0  0  0  0  0  0
    4.5825   -4.2805   -0.0200 C   0  0  0  0  0  0  0  0  0  0  0  0
    4.4675   -2.9046    0.1826 C   0  0  0  0  0  0  0  0  0  0  0  0
   -2.2601    1.8640   -0.9411 C   0  0  0  0  0  0  0  0  0  0  0  0
   -3.5578    1.8841   -1.4601 C   0  0  0  0  0  0  0  0  0  0  0  0
   -7.1904    1.6590    0.2804 H   0  0  0  0  0  0  0  0  0  0  0  0
   -6.9298    3.4154   -0.0540 H   0  0  0  0  0  0  0  0  0  0  0  0
   -7.8821    2.4168   -1.1594 H   0  0  0  0  0  0  0  0  0  0  0  0
   -5.2868    2.4779    1.4145 H   0  0  0  0  0  0  0  0  0  0  0  0
   -3.0346    2.4545    2.3330 H   0  0  0  0  0  0  0  0  0  0  0  0
   -2.0931    0.4659    2.9766 H   0  0  0  0  0  0  0  0  0  0  0  0
   -0.5960   -0.1360    3.6367 H   0  0  0  0  0  0  0  0  0  0  0  0
    0.9528   -1.4229    1.2023 H   0  0  0  0  0  0  0  0  0  0  0  0
   -0.0632   -3.5202   -0.1669 H   0  0  0  0  0  0  0  0  0  0  0  0
   -2.7230   -3.5460    0.3600 H   0  0  0  0  0  0  0  0  0  0  0  0
   -4.2401   -2.4300    1.8523 H   0  0  0  0  0  0  0  0  0  0  0  0
   -3.5415   -1.4171    3.1400 H   0  0  0  0  0  0  0  0  0  0  0  0
   -3.9976   -0.6841    1.5615 H   0  0  0  0  0  0  0  0  0  0  0  0
    2.8574    3.8983   -0.3151 H   0  0  0  0  0  0  0  0  0  0  0  0
    2.4528    4.4405   -1.9423 H   0  0  0  0  0  0  0  0  0  0  0  0
    2.8112    1.6121    0.1450 H   0  0  0  0  0  0  0  0  0  0  0  0
    2.3200   -0.5501   -0.6987 H   0  0  0  0  0  0  0  0  0  0  0  0
    3.0475   -0.1550   -2.2553 H   0  0  0  0  0  0  0  0  0  0  0  0
    4.6112   -0.2920    0.3914 H   0  0  0  0  0  0  0  0  0  0  0  0
    5.3097   -0.0054   -1.1856 H   0  0  0  0  0  0  0  0  0  0  0  0
    5.0374   -1.8526   -3.0089 H   0  0  0  0  0  0  0  0  0  0  0  0
    5.2231   -4.2918   -3.3547 H   0  0  0  0  0  0  0  0  0  0  0  0
    4.9407   -5.8542   -1.4482 H   0  0  0  0  0  0  0  0  0  0  0  0
    4.4589   -4.9644    0.8152 H   0  0  0  0  0  0  0  0  0  0  0  0
    4.2481   -2.5339    1.1817 H   0  0  0  0  0  0  0  0  0  0  0  0
   -1.4323    1.6615   -1.6170 H   0  0  0  0  0  0  0  0  0  0  0  0
   -3.7106    1.7245   -2.5256 H   0  0  0  0  0  0  0  0  0  0  0  0
  1  2  1  0
  2  3  1  0
  3  4  2  0
  4  5  1  0
  5  6  2  0
  6  7  1  0
  7  8  1  0
  8  9  1  0
  9 10  1  0
 10 11  2  0
 11 12  1  0
 12 13  2  0
 13 14  1  0
 14 15  1  0
  8 16  2  0
 16 17  1  0
 17 18  2  0
 18 19  1  0
 19 20  1  0
 20 21  1  0
 21 22  2  0
 21 23  1  0
 23 24  1  0
 24 25  1  0
 25 26  1  0
 26 27  2  0
 27 28  1  0
 28 29  2  0
 29 30  1  0
 30 31  2  0
  6 32  1  0
 32 33  2  0
 33  3  1  0
 18  7  1  0
 31 26  1  0
 14 10  1  0
  1 34  1  0
  1 35  1  0
  1 36  1  0
  4 37  1  0
  5 38  1  0
  9 39  1  0
  9 40  1  0
 11 41  1  0
 12 42  1  0
 13 43  1  0
 15 44  1  0
 15 45  1  0
 15 46  1  0
 20 47  1  0
 20 48  1  0
 23 49  1  0
 24 50  1  0
 24 51  1  0
 25 52  1  0
 25 53  1  0
 27 54  1  0
 28 55  1  0
 29 56  1  0
 30 57  1  0
 31 58  1  0
 32 59  1  0
 33 60  1  0
M  END
$$$$
