
     RDKit          3D

 24 24  0  0  0  0  0  0  0  0999 V2000
   -3.7672   -0.0867   -1.4603 C   0  0  0  0  0  0  0  0  0  0  0  0
   -2.5812   -0.2733   -0.6482 N   0  0  0  0  0  0  0  0  0  0  0  0
   -2.5637   -0.7015    0.6483 C   0  0  0  0  0  0  0  0  0  0  0  0
   -3.9126   -1.0782    1.5637 S   0  0  0  0  0  0  0  0  0  0  0  0
   -1.3388   -0.8861    1.2252 N   0  0  0  0  0  0  0  0  0  0  0  0
   -0.0598   -0.3927    0.8962 C   0  0  0  0  0  0  0  0  0  0  0  0
    1.0356   -0.9936    1.5259 C   0  0  0  0  0  0  0  0  0  0  0  0
    2.3384   -0.5571    1.2658 C   0  0  0  0  0  0  0  0  0  0  0  0
    2.5672    0.4966    0.3767 C   0  0  0  0  0  0  0  0  0  0  0  0
    3.9600    0.9920    0.1241 C   0  0  0  0  0  0  0  0  0  0  0  0
    1.4701    1.1277   -0.2174 C   0  0  0  0  0  0  0  0  0  0  0  0
    0.1669    0.6878    0.0423 C   0  0  0  0  0  0  0  0  0  0  0  0
   -4.2090   -1.0625   -1.6792 H   0  0  0  0  0  0  0  0  0  0  0  0
   -4.4904    0.5423   -0.9351 H   0  0  0  0  0  0  0  0  0  0  0  0
   -3.4695    0.3991   -2.3927 H   0  0  0  0  0  0  0  0  0  0  0  0
   -1.7388   -0.5008   -1.1608 H   0  0  0  0  0  0  0  0  0  0  0  0
   -1.3918   -1.4252    2.0833 H   0  0  0  0  0  0  0  0  0  0  0  0
    0.8926   -1.8206    2.2170 H   0  0  0  0  0  0  0  0  0  0  0  0
    3.1722   -1.0463    1.7646 H   0  0  0  0  0  0  0  0  0  0  0  0
    4.2195    1.7671    0.8517 H   0  0  0  0  0  0  0  0  0  0  0  0
    4.0490    1.4088   -0.8847 H   0  0  0  0  0  0  0  0  0  0  0  0
    4.6852    0.1752    0.2027 H   0  0  0  0  0  0  0  0  0  0  0  0
    1.6191    1.9803   -0.8768 H   0  0  0  0  0  0  0  0  0  0  0  0
   -0.6532    1.2479   -0.3957 H   0  0  0  0  0  0  0  0  0  0  0  0
  1  2  1  0
  2  3  1  0
  3  4  2  0
  3  5  1  0
  5  6  1  0
  6  7  2  0
  7  8  1  0
  8  9  2  0
  9 10  1  0
  9 11  1  0
 11 12  2  0
 12  6  1  0
  1 13  1  0
  1 14  1  0
  1 15  1  0
  2 16  1  0
  5 17  1  0
  7 18  1  0
  8 19  1  0
 10 20  1  0
 10 21  1  0
 10 22  1  0
 11 23  1  0
 12 24  1  0
M  END
$$$$
