
     RDKit          3D

 41 43  0  0  0  0  0  0  0  0999 V2000
   -3.2125    1.1453   -1.8278 C   0  0  0  0  0  0  0  0  0  0  0  0
   -2.2910    1.4906   -0.7762 N   0  0  0  0  0  0  0  0  0  0  0  0
   -1.4412    2.5571   -0.7325 C   0  0  0  0  0  0  0  0  0  0  0  0
   -1.1833    3.6536   -2.0423 S   0  0  0  0  0  0  0  0  0  0  0  0
    0.4944    4.2456   -1.6601 C   0  0  0  0  0  0  0  0  0  0  0  0
    1.5144    3.1330   -1.8372 C   0  0  0  0  0  0  0  0  0  0  0  0
    2.0795    2.9433   -2.9125 O   0  0  0  0  0  0  0  0  0  0  0  0
    1.7144    2.3888   -0.6807 N   0  0  0  0  0  0  0  0  0  0  0  0
    2.5196    1.2848   -0.7061 N   0  0  0  0  0  0  0  0  0  0  0  0
    2.5181    0.5806    0.3807 C   0  0  0  0  0  0  0  0  0  0  0  0
    3.3145   -0.6163    0.5327 C   0  0  0  0  0  0  0  0  0  0  0  0
    3.4749   -1.3765    1.6782 C   0  0  0  0  0  0  0  0  0  0  0  0
    4.3589   -2.4788    1.4766 C   0  0  0  0  0  0  0  0  0  0  0  0
    4.8130   -2.5268    0.1749 C   0  0  0  0  0  0  0  0  0  0  0  0
    5.7100   -3.5052   -0.3802 N   0  0  0  0  0  4  0  0  0  0  0  0
    6.2766   -4.2486    0.4348 O   0  0  0  0  0  0  0  0  0  0  0  0
    5.8391   -3.5586   -1.6100 O   0  0  0  0  0  1  0  0  0  0  0  0
    4.2101   -1.2610   -0.7783 S   0  0  0  0  0  0  0  0  0  0  0  0
   -0.8097    2.5794    0.4184 N   0  0  0  0  0  0  0  0  0  0  0  0
   -1.1969    1.4710    1.1258 N   0  0  0  0  0  0  0  0  0  0  0  0
   -2.0843    0.8078    0.4034 C   0  0  0  0  0  0  0  0  0  0  0  0
   -2.7338   -0.4364    0.7938 C   0  0  0  0  0  0  0  0  0  0  0  0
   -3.6477   -0.4405    1.8543 C   0  0  0  0  0  0  0  0  0  0  0  0
   -4.2653   -1.6300    2.2503 C   0  0  0  0  0  0  0  0  0  0  0  0
   -3.9629   -2.8187    1.5907 C   0  0  0  0  0  0  0  0  0  0  0  0
   -4.7072   -4.2849    2.0886 Cl  0  0  0  0  0  0  0  0  0  0  0  0
   -3.0505   -2.8282    0.5371 C   0  0  0  0  0  0  0  0  0  0  0  0
   -2.4344   -1.6378    0.1393 C   0  0  0  0  0  0  0  0  0  0  0  0
   -3.6484    2.0575   -2.2450 H   0  0  0  0  0  0  0  0  0  0  0  0
   -4.0251    0.5351   -1.4263 H   0  0  0  0  0  0  0  0  0  0  0  0
   -2.6672    0.5924   -2.5971 H   0  0  0  0  0  0  0  0  0  0  0  0
    0.7501    5.0581   -2.3490 H   0  0  0  0  0  0  0  0  0  0  0  0
    0.5450    4.6596   -0.6486 H   0  0  0  0  0  0  0  0  0  0  0  0
    1.0486    2.4929    0.0902 H   0  0  0  0  0  0  0  0  0  0  0  0
    1.9090    0.8769    1.2536 H   0  0  0  0  0  0  0  0  0  0  0  0
    2.9971   -1.1499    2.6226 H   0  0  0  0  0  0  0  0  0  0  0  0
    4.6380   -3.1951    2.2418 H   0  0  0  0  0  0  0  0  0  0  0  0
   -3.8850    0.4838    2.3754 H   0  0  0  0  0  0  0  0  0  0  0  0
   -4.9747   -1.6196    3.0741 H   0  0  0  0  0  0  0  0  0  0  0  0
   -2.7998   -3.7600    0.0372 H   0  0  0  0  0  0  0  0  0  0  0  0
   -1.7043   -1.6641   -0.6664 H   0  0  0  0  0  0  0  0  0  0  0  0
  1  2  1  0
  2  3  1  0
  3  4  1  0
  4  5  1  0
  5  6  1  0
  6  7  2  0
  6  8  1  0
  8  9  1  0
  9 10  2  3
 10 11  1  0
 11 12  2  0
 12 13  1  0
 13 14  2  0
 14 15  1  0
 15 16  2  0
 15 17  1  0
 14 18  1  0
  3 19  2  0
 19 20  1  0
 20 21  2  0
 21 22  1  0
 22 23  2  0
 23 24  1  0
 24 25  2  0
 25 26  1  0
 25 27  1  0
 27 28  2  0
 21  2  1  0
 28 22  1  0
 18 11  1  0
  1 29  1  0
  1 30  1  0
  1 31  1  0
  5 32  1  0
  5 33  1  0
  8 34  1  0
 10 35  1  0
 12 36  1  0
 13 37  1  0
 23 38  1  0
 24 39  1  0
 27 40  1  0
 28 41  1  0
M  CHG  2  15   1  17  -1
M  END
$$$$
