
     RDKit          3D

 69 71  0  0  0  0  0  0  0  0999 V2000
   -6.4203   -1.7448   -3.0829 C   0  0  0  0  0  0  0  0  0  0  0  0
   -5.4181   -1.6233   -2.0803 O   0  0  0  0  0  0  0  0  0  0  0  0
   -4.3713   -0.7713   -2.3239 C   0  0  0  0  0  0  0  0  0  0  0  0
   -4.2131   -0.0470   -3.5096 C   0  0  0  0  0  0  0  0  0  0  0  0
   -3.1485    0.8389   -3.6591 C   0  0  0  0  0  0  0  0  0  0  0  0
   -2.2411    1.0197   -2.6193 C   0  0  0  0  0  0  0  0  0  0  0  0
   -2.3651    0.3061   -1.4096 C   0  0  0  0  0  0  0  0  0  0  0  0
   -1.3150    0.5843   -0.3343 C   0  0  0  0  0  0  0  0  0  0  0  0
   -1.6991    0.2742    1.1443 C   0  0  0  0  0  0  0  0  0  0  0  0
   -1.0787   -0.5253    1.8459 O   0  0  0  0  0  0  0  0  0  0  0  0
   -2.7631    1.0323    1.6217 N   0  0  0  0  0  0  0  0  0  0  0  0
   -3.3289    0.9147    2.9741 C   0  0  0  0  0  0  0  0  0  0  0  0
   -4.4322    1.9795    3.1155 C   0  0  0  0  0  0  0  0  0  0  0  0
   -3.9540   -0.4710    3.1909 C   0  0  0  0  0  0  0  0  0  0  0  0
   -2.2660    1.1887    4.0514 C   0  0  0  0  0  0  0  0  0  0  0  0
    0.0366    0.0519   -0.6572 N   0  0  0  0  0  0  0  0  0  0  0  0
    1.1001    0.8582   -0.2308 C   0  0  0  0  0  0  0  0  0  0  0  0
    0.9390    2.0322    0.1121 O   0  0  0  0  0  0  0  0  0  0  0  0
    2.4883    0.2419   -0.2260 C   0  0  0  0  0  0  0  0  0  0  0  0
    3.5032    1.1762    0.4327 C   0  0  0  0  0  0  0  0  0  0  0  0
    4.9279    0.6903    0.2580 C   0  0  0  0  0  0  0  0  0  0  0  0
    5.2045   -0.3452   -0.3392 O   0  0  0  0  0  0  0  0  0  0  0  0
    5.8310    1.5528    0.8381 N   0  0  0  0  0  0  0  0  0  0  0  0
    7.2007    1.4171    0.8018 C   0  0  0  0  0  0  0  0  0  0  0  0
    7.9898    0.4188    0.1892 C   0  0  0  0  0  0  0  0  0  0  0  0
    9.2839    0.7865    0.4608 C   0  0  0  0  0  0  0  0  0  0  0  0
   10.6052    0.2215    0.1393 C   0  0  0  0  0  0  0  0  0  0  0  0
    9.2774    1.9302    1.1952 O   0  0  0  0  0  0  0  0  0  0  0  0
    7.9699    2.3306    1.4058 N   0  0  0  0  0  0  0  0  0  0  0  0
    0.1793   -1.3798   -0.8578 C   0  0  0  0  0  0  0  0  0  0  0  0
    1.0847   -1.9501   -1.9269 C   0  0  0  0  0  0  0  0  0  0  0  0
   -0.3923   -2.1082   -2.0504 C   0  0  0  0  0  0  0  0  0  0  0  0
   -3.4220   -0.6161   -1.2886 C   0  0  0  0  0  0  0  0  0  0  0  0
   -3.5349   -1.2851   -0.0973 O   0  0  0  0  0  0  0  0  0  0  0  0
   -3.6009   -2.7033   -0.2234 C   0  0  0  0  0  0  0  0  0  0  0  0
   -6.9181   -0.7853   -3.2658 H   0  0  0  0  0  0  0  0  0  0  0  0
   -7.1753   -2.4450   -2.7144 H   0  0  0  0  0  0  0  0  0  0  0  0
   -6.0032   -2.1616   -4.0069 H   0  0  0  0  0  0  0  0  0  0  0  0
   -4.9072   -0.1429   -4.3383 H   0  0  0  0  0  0  0  0  0  0  0  0
   -3.0293    1.3969   -4.5852 H   0  0  0  0  0  0  0  0  0  0  0  0
   -1.4186    1.7216   -2.7548 H   0  0  0  0  0  0  0  0  0  0  0  0
   -1.2379    1.6827   -0.3322 H   0  0  0  0  0  0  0  0  0  0  0  0
   -3.3848    1.3923    0.9069 H   0  0  0  0  0  0  0  0  0  0  0  0
   -4.8884    1.9555    4.1113 H   0  0  0  0  0  0  0  0  0  0  0  0
   -5.2285    1.8247    2.3781 H   0  0  0  0  0  0  0  0  0  0  0  0
   -4.0311    2.9876    2.9562 H   0  0  0  0  0  0  0  0  0  0  0  0
   -4.7236   -0.6801    2.4383 H   0  0  0  0  0  0  0  0  0  0  0  0
   -3.2090   -1.2707    3.1277 H   0  0  0  0  0  0  0  0  0  0  0  0
   -4.4239   -0.5405    4.1781 H   0  0  0  0  0  0  0  0  0  0  0  0
   -1.4932    0.4152    4.0767 H   0  0  0  0  0  0  0  0  0  0  0  0
   -2.7151    1.2228    5.0506 H   0  0  0  0  0  0  0  0  0  0  0  0
   -1.7650    2.1473    3.8746 H   0  0  0  0  0  0  0  0  0  0  0  0
    2.7850    0.0629   -1.2643 H   0  0  0  0  0  0  0  0  0  0  0  0
    2.4740   -0.7105    0.3165 H   0  0  0  0  0  0  0  0  0  0  0  0
    3.4399    2.1795   -0.0075 H   0  0  0  0  0  0  0  0  0  0  0  0
    3.2876    1.2605    1.5049 H   0  0  0  0  0  0  0  0  0  0  0  0
    5.5116    2.3736    1.3356 H   0  0  0  0  0  0  0  0  0  0  0  0
    7.6677   -0.4474   -0.3688 H   0  0  0  0  0  0  0  0  0  0  0  0
   11.1095   -0.1208    1.0488 H   0  0  0  0  0  0  0  0  0  0  0  0
   10.5119   -0.6317   -0.5396 H   0  0  0  0  0  0  0  0  0  0  0  0
   11.2387    0.9727   -0.3433 H   0  0  0  0  0  0  0  0  0  0  0  0
    0.1559   -1.9253    0.0857 H   0  0  0  0  0  0  0  0  0  0  0  0
    1.5601   -1.2853   -2.6387 H   0  0  0  0  0  0  0  0  0  0  0  0
    1.6747   -2.8237   -1.6717 H   0  0  0  0  0  0  0  0  0  0  0  0
   -0.8698   -1.5578   -2.8513 H   0  0  0  0  0  0  0  0  0  0  0  0
   -0.8129   -3.0948   -1.8892 H   0  0  0  0  0  0  0  0  0  0  0  0
   -4.6342   -3.0376   -0.0958 H   0  0  0  0  0  0  0  0  0  0  0  0
   -3.0085   -3.1357    0.5880 H   0  0  0  0  0  0  0  0  0  0  0  0
   -3.1955   -3.0752   -1.1704 H   0  0  0  0  0  0  0  0  0  0  0  0
  1  2  1  0
  2  3  1  0
  3  4  2  0
  4  5  1  0
  5  6  2  0
  6  7  1  0
  7  8  1  0
  8  9  1  0
  9 10  2  0
  9 11  1  0
 11 12  1  0
 12 13  1  0
 12 14  1  0
 12 15  1  0
  8 16  1  0
 16 17  1  0
 17 18  2  0
 17 19  1  0
 19 20  1  0
 20 21  1  0
 21 22  2  0
 21 23  1  0
 23 24  1  0
 24 25  1  0
 25 26  2  0
 26 27  1  0
 26 28  1  0
 28 29  1  0
 16 30  1  0
 30 31  1  0
 31 32  1  0
  7 33  2  0
 33 34  1  0
 34 35  1  0
 33  3  1  0
 29 24  2  0
 32 30  1  0
  1 36  1  0
  1 37  1  0
  1 38  1  0
  4 39  1  0
  5 40  1  0
  6 41  1  0
  8 42  1  0
 11 43  1  0
 13 44  1  0
 13 45  1  0
 13 46  1  0
 14 47  1  0
 14 48  1  0
 14 49  1  0
 15 50  1  0
 15 51  1  0
 15 52  1  0
 19 53  1  0
 19 54  1  0
 20 55  1  0
 20 56  1  0
 23 57  1  0
 25 58  1  0
 27 59  1  0
 27 60  1  0
 27 61  1  0
 30 62  1  0
 31 63  1  0
 31 64  1  0
 32 65  1  0
 32 66  1  0
 35 67  1  0
 35 68  1  0
 35 69  1  0
M  END
$$$$
