
     RDKit          3D

 49 51  0  0  0  0  0  0  0  0999 V2000
    4.4331    2.0026    1.4728 C   0  0  0  0  0  0  0  0  0  0  0  0
    3.6999    2.3981    0.3230 O   0  0  0  0  0  0  0  0  0  0  0  0
    2.3331    2.4733    0.4347 C   0  0  0  0  0  0  0  0  0  0  0  0
    1.6113    2.0750    1.5673 C   0  0  0  0  0  0  0  0  0  0  0  0
    0.2199    2.1828    1.5915 C   0  0  0  0  0  0  0  0  0  0  0  0
   -0.4488    2.6924    0.4787 C   0  0  0  0  0  0  0  0  0  0  0  0
   -2.2161    2.8419    0.5036 S   0  0  0  0  0  6  0  0  0  0  0  0
   -2.7032    2.4441    1.8078 O   0  0  0  0  0  0  0  0  0  0  0  0
   -2.5465    4.1399   -0.0470 O   0  0  0  0  0  0  0  0  0  0  0  0
   -2.7075    1.7036   -0.6402 N   0  0  0  0  0  0  0  0  0  0  0  0
   -2.6226    0.3270   -0.3000 C   0  0  0  0  0  0  0  0  0  0  0  0
   -3.6212   -0.2729    0.4532 C   0  0  0  0  0  0  0  0  0  0  0  0
   -3.4822   -1.6062    0.8230 C   0  0  0  0  0  0  0  0  0  0  0  0
   -2.3478   -2.3432    0.4357 C   0  0  0  0  0  0  0  0  0  0  0  0
   -1.3524   -1.7577   -0.3775 C   0  0  0  0  0  0  0  0  0  0  0  0
   -1.5028   -0.4027   -0.7079 C   0  0  0  0  0  0  0  0  0  0  0  0
   -0.2102   -2.5334   -0.8096 N   0  0  0  0  0  0  0  0  0  0  0  0
    0.5902   -2.1367   -1.9011 C   0  0  0  0  0  0  0  0  0  0  0  0
    1.7955   -3.0020   -2.1993 C   0  0  0  0  0  0  0  0  0  0  0  0
    0.3810   -1.1681   -2.6323 O   0  0  0  0  0  0  0  0  0  0  0  0
   -0.0576   -3.8872   -0.2582 C   0  0  0  0  0  0  0  0  0  0  0  0
   -0.7817   -4.1319    1.0529 C   0  0  0  0  0  0  0  0  0  0  0  0
   -2.2427   -3.7742    0.8840 C   0  0  0  0  0  0  0  0  0  0  0  0
    0.2543    3.1005   -0.6590 C   0  0  0  0  0  0  0  0  0  0  0  0
    1.6468    2.9790   -0.6912 C   0  0  0  0  0  0  0  0  0  0  0  0
    2.4270    3.3483   -1.7602 O   0  0  0  0  0  0  0  0  0  0  0  0
    1.7669    3.5815   -2.9975 C   0  0  0  0  0  0  0  0  0  0  0  0
    4.2567    2.6873    2.3087 H   0  0  0  0  0  0  0  0  0  0  0  0
    5.4973    2.0504    1.2233 H   0  0  0  0  0  0  0  0  0  0  0  0
    4.2027    0.9680    1.7495 H   0  0  0  0  0  0  0  0  0  0  0  0
    2.1031    1.6731    2.4469 H   0  0  0  0  0  0  0  0  0  0  0  0
   -0.3288    1.8672    2.4765 H   0  0  0  0  0  0  0  0  0  0  0  0
   -3.5181    2.0168   -1.1720 H   0  0  0  0  0  0  0  0  0  0  0  0
   -4.4880    0.2932    0.7828 H   0  0  0  0  0  0  0  0  0  0  0  0
   -4.2559   -2.0673    1.4333 H   0  0  0  0  0  0  0  0  0  0  0  0
   -0.7460    0.1256   -1.2772 H   0  0  0  0  0  0  0  0  0  0  0  0
    2.3444   -2.5754   -3.0458 H   0  0  0  0  0  0  0  0  0  0  0  0
    2.4724   -3.0182   -1.3413 H   0  0  0  0  0  0  0  0  0  0  0  0
    1.4868   -4.0134   -2.4755 H   0  0  0  0  0  0  0  0  0  0  0  0
   -0.4104   -4.5892   -1.0242 H   0  0  0  0  0  0  0  0  0  0  0  0
    1.0042   -4.0948   -0.0943 H   0  0  0  0  0  0  0  0  0  0  0  0
   -0.3307   -3.5235    1.8471 H   0  0  0  0  0  0  0  0  0  0  0  0
   -0.6798   -5.1815    1.3492 H   0  0  0  0  0  0  0  0  0  0  0  0
   -2.7218   -4.4216    0.1386 H   0  0  0  0  0  0  0  0  0  0  0  0
   -2.7606   -3.9209    1.8400 H   0  0  0  0  0  0  0  0  0  0  0  0
   -0.3015    3.5072   -1.4976 H   0  0  0  0  0  0  0  0  0  0  0  0
    1.1660    4.4959   -2.9527 H   0  0  0  0  0  0  0  0  0  0  0  0
    2.5343    3.7273   -3.7649 H   0  0  0  0  0  0  0  0  0  0  0  0
    1.1582    2.7204   -3.2945 H   0  0  0  0  0  0  0  0  0  0  0  0
  1  2  1  0
  2  3  1  0
  3  4  2  0
  4  5  1  0
  5  6  2  0
  6  7  1  0
  7  8  2  0
  7  9  2  0
  7 10  1  0
 10 11  1  0
 11 12  2  0
 12 13  1  0
 13 14  2  0
 14 15  1  0
 15 16  2  0
 15 17  1  0
 17 18  1  0
 18 19  1  0
 18 20  2  0
 17 21  1  0
 21 22  1  0
 22 23  1  0
  6 24  1  0
 24 25  2  0
 25 26  1  0
 26 27  1  0
 25  3  1  0
 16 11  1  0
 23 14  1  0
  1 28  1  0
  1 29  1  0
  1 30  1  0
  4 31  1  0
  5 32  1  0
 10 33  1  0
 12 34  1  0
 13 35  1  0
 16 36  1  0
 19 37  1  0
 19 38  1  0
 19 39  1  0
 21 40  1  0
 21 41  1  0
 22 42  1  0
 22 43  1  0
 23 44  1  0
 23 45  1  0
 24 46  1  0
 27 47  1  0
 27 48  1  0
 27 49  1  0
M  END
$$$$
