
     RDKit          3D

 37 39  0  0  0  0  0  0  0  0999 V2000
   -8.1839   -0.2707    0.2263 C   0  0  0  0  0  0  0  0  0  0  0  0
   -7.4570    0.7693   -0.6114 C   0  0  0  0  0  0  0  0  0  0  0  0
   -6.0055    0.8297   -0.2706 C   0  0  0  0  0  0  0  0  0  0  0  0
   -5.4960    1.5503    0.7066 N   0  0  0  0  0  0  0  0  0  0  0  0
   -4.1222    1.4131    0.7936 N   0  0  0  0  0  0  0  0  0  0  0  0
   -3.6558    0.5990   -0.1189 C   0  0  0  0  0  0  0  0  0  0  0  0
   -2.3776    0.1896   -0.3836 N   0  0  0  0  0  0  0  0  0  0  0  0
   -1.2973    0.6310    0.3596 C   0  0  0  0  0  0  0  0  0  0  0  0
   -1.3455    1.4085    1.3056 O   0  0  0  0  0  0  0  0  0  0  0  0
    0.0168    0.0200   -0.1461 C   0  0  0  0  0  0  0  0  0  0  0  0
    1.1302    0.4659    0.6098 O   0  0  0  0  0  0  0  0  0  0  0  0
    2.3626   -0.0085    0.2567 C   0  0  0  0  0  0  0  0  0  0  0  0
    2.6357   -0.8953   -0.7823 C   0  0  0  0  0  0  0  0  0  0  0  0
    3.9523   -1.2987   -1.0323 C   0  0  0  0  0  0  0  0  0  0  0  0
    5.0147   -0.8226   -0.2487 C   0  0  0  0  0  0  0  0  0  0  0  0
    6.3408   -1.2188   -0.4882 C   0  0  0  0  0  0  0  0  0  0  0  0
    7.3837   -0.7337    0.3028 C   0  0  0  0  0  0  0  0  0  0  0  0
    7.1144    0.1524    1.3417 C   0  0  0  0  0  0  0  0  0  0  0  0
    5.8018    0.5554    1.5920 C   0  0  0  0  0  0  0  0  0  0  0  0
    4.7417    0.0764    0.8052 C   0  0  0  0  0  0  0  0  0  0  0  0
    3.4149    0.4709    1.0424 C   0  0  0  0  0  0  0  0  0  0  0  0
   -4.8362   -0.0688   -1.1583 S   0  0  0  0  0  0  0  0  0  0  0  0
   -8.0900   -0.0541    1.2960 H   0  0  0  0  0  0  0  0  0  0  0  0
   -7.7820   -1.2744    0.0509 H   0  0  0  0  0  0  0  0  0  0  0  0
   -9.2491   -0.2832   -0.0253 H   0  0  0  0  0  0  0  0  0  0  0  0
   -7.5986    0.5493   -1.6759 H   0  0  0  0  0  0  0  0  0  0  0  0
   -7.9054    1.7538   -0.4323 H   0  0  0  0  0  0  0  0  0  0  0  0
   -2.2592   -0.4533   -1.1509 H   0  0  0  0  0  0  0  0  0  0  0  0
   -0.0791   -1.0699   -0.0649 H   0  0  0  0  0  0  0  0  0  0  0  0
    0.1318    0.3193   -1.1952 H   0  0  0  0  0  0  0  0  0  0  0  0
    1.8551   -1.2950   -1.4193 H   0  0  0  0  0  0  0  0  0  0  0  0
    4.1441   -1.9919   -1.8485 H   0  0  0  0  0  0  0  0  0  0  0  0
    6.5716   -1.9104   -1.2951 H   0  0  0  0  0  0  0  0  0  0  0  0
    8.4055   -1.0480    0.1073 H   0  0  0  0  0  0  0  0  0  0  0  0
    7.9249    0.5314    1.9588 H   0  0  0  0  0  0  0  0  0  0  0  0
    5.6098    1.2487    2.4082 H   0  0  0  0  0  0  0  0  0  0  0  0
    3.1880    1.1634    1.8512 H   0  0  0  0  0  0  0  0  0  0  0  0
  1  2  1  0
  2  3  1  0
  3  4  2  0
  4  5  1  0
  5  6  2  0
  6  7  1  0
  7  8  1  0
  8  9  2  0
  8 10  1  0
 10 11  1  0
 11 12  1  0
 12 13  2  0
 13 14  1  0
 14 15  2  0
 15 16  1  0
 16 17  2  0
 17 18  1  0
 18 19  2  0
 19 20  1  0
 20 21  2  0
  6 22  1  0
 22  3  1  0
 21 12  1  0
 20 15  1  0
  1 23  1  0
  1 24  1  0
  1 25  1  0
  2 26  1  0
  2 27  1  0
  7 28  1  0
 10 29  1  0
 10 30  1  0
 13 31  1  0
 14 32  1  0
 16 33  1  0
 17 34  1  0
 18 35  1  0
 19 36  1  0
 21 37  1  0
M  END
$$$$
