
     RDKit          3D

 44 46  0  0  0  0  0  0  0  0999 V2000
   -5.9119    1.5344   -1.9377 C   0  0  0  0  0  0  0  0  0  0  0  0
   -4.5818    2.0104   -1.3491 C   0  0  0  0  0  0  0  0  0  0  0  0
   -3.8438    2.9195   -2.3328 C   0  0  0  0  0  0  0  0  0  0  0  0
   -3.7070    0.8479   -0.9108 C   0  0  0  0  0  0  0  0  0  0  0  0
   -3.3038    0.7508    0.4318 C   0  0  0  0  0  0  0  0  0  0  0  0
   -2.4957   -0.3033    0.8615 C   0  0  0  0  0  0  0  0  0  0  0  0
   -2.0780   -1.2657   -0.0586 C   0  0  0  0  0  0  0  0  0  0  0  0
   -1.0472   -2.6088    0.4698 S   0  0  0  0  0  6  0  0  0  0  0  0
   -0.9045   -2.5577    1.9079 O   0  0  0  0  0  0  0  0  0  0  0  0
   -1.5295   -3.8042   -0.1917 O   0  0  0  0  0  0  0  0  0  0  0  0
    0.4409   -2.2455   -0.2536 N   0  0  0  0  0  0  0  0  0  0  0  0
    1.3030   -1.3318    0.4128 C   0  0  0  0  0  0  0  0  0  0  0  0
    1.0950    0.0402    0.2870 C   0  0  0  0  0  0  0  0  0  0  0  0
    1.9177    0.9297    0.9750 C   0  0  0  0  0  0  0  0  0  0  0  0
    2.9463    0.4439    1.7812 C   0  0  0  0  0  0  0  0  0  0  0  0
    3.7114    1.3895    2.4071 O   0  0  0  0  0  0  0  0  0  0  0  0
    3.1605   -0.9352    1.9245 C   0  0  0  0  0  0  0  0  0  0  0  0
    4.4191   -1.6294    2.9856 S   0  0  0  0  0  0  0  0  0  0  0  0
    5.8674   -1.0825    2.1893 C   0  0  0  0  0  0  0  0  0  0  0  0
    6.6187   -1.8589    1.3513 N   0  0  0  0  0  0  0  0  0  0  0  0
    7.5678   -1.0401    0.9630 C   0  0  0  0  0  0  0  0  0  0  0  0
    7.3857    0.1728    1.5464 N   0  0  0  0  0  0  0  0  0  0  0  0
    6.3003    0.1744    2.3427 N   0  0  0  0  0  0  0  0  0  0  0  0
    2.3179   -1.8207    1.2392 C   0  0  0  0  0  0  0  0  0  0  0  0
   -2.4767   -1.1951   -1.3954 C   0  0  0  0  0  0  0  0  0  0  0  0
   -3.2842   -0.1378   -1.8178 C   0  0  0  0  0  0  0  0  0  0  0  0
   -5.7741    0.9754   -2.8717 H   0  0  0  0  0  0  0  0  0  0  0  0
   -6.4392    0.8826   -1.2327 H   0  0  0  0  0  0  0  0  0  0  0  0
   -6.5623    2.3901   -2.1562 H   0  0  0  0  0  0  0  0  0  0  0  0
   -4.8230    2.6170   -0.4666 H   0  0  0  0  0  0  0  0  0  0  0  0
   -3.6105    2.4043   -3.2704 H   0  0  0  0  0  0  0  0  0  0  0  0
   -2.9002    3.2749   -1.9045 H   0  0  0  0  0  0  0  0  0  0  0  0
   -4.4526    3.7967   -2.5770 H   0  0  0  0  0  0  0  0  0  0  0  0
   -3.6189    1.4988    1.1569 H   0  0  0  0  0  0  0  0  0  0  0  0
   -2.1946   -0.3607    1.9057 H   0  0  0  0  0  0  0  0  0  0  0  0
    0.8601   -3.0904   -0.6401 H   0  0  0  0  0  0  0  0  0  0  0  0
    0.3079    0.4309   -0.3527 H   0  0  0  0  0  0  0  0  0  0  0  0
    1.7629    2.0011    0.8794 H   0  0  0  0  0  0  0  0  0  0  0  0
    4.5428    0.9618    2.7047 H   0  0  0  0  0  0  0  0  0  0  0  0
    8.3810   -1.2620    0.2845 H   0  0  0  0  0  0  0  0  0  0  0  0
    7.9320    1.0212    1.4461 H   0  0  0  0  0  0  0  0  0  0  0  0
    2.4468   -2.8932    1.3587 H   0  0  0  0  0  0  0  0  0  0  0  0
   -2.1628   -1.9542   -2.1077 H   0  0  0  0  0  0  0  0  0  0  0  0
   -3.5831   -0.0913   -2.8631 H   0  0  0  0  0  0  0  0  0  0  0  0
  1  2  1  0
  2  3  1  0
  2  4  1  0
  4  5  2  0
  5  6  1  0
  6  7  2  0
  7  8  1  0
  8  9  2  0
  8 10  2  0
  8 11  1  0
 11 12  1  0
 12 13  2  0
 13 14  1  0
 14 15  2  0
 15 16  1  0
 15 17  1  0
 17 18  1  0
 18 19  1  0
 19 20  1  0
 20 21  2  0
 21 22  1  0
 22 23  1  0
 17 24  2  0
  7 25  1  0
 25 26  2  0
 26  4  1  0
 24 12  1  0
 23 19  2  0
  1 27  1  0
  1 28  1  0
  1 29  1  0
  2 30  1  0
  3 31  1  0
  3 32  1  0
  3 33  1  0
  5 34  1  0
  6 35  1  0
 11 36  1  0
 13 37  1  0
 14 38  1  0
 16 39  1  0
 21 40  1  0
 22 41  1  0
 24 42  1  0
 25 43  1  0
 26 44  1  0
M  END
$$$$
