
     RDKit          3D

 50 53  0  0  0  0  0  0  0  0999 V2000
    7.7385    2.9971   -0.1941 C   0  0  0  0  0  0  0  0  0  0  0  0
    7.5788    1.6014    0.0250 O   0  0  0  0  0  0  0  0  0  0  0  0
    6.2985    1.1248    0.0667 C   0  0  0  0  0  0  0  0  0  0  0  0
    5.1364    1.8733   -0.0994 C   0  0  0  0  0  0  0  0  0  0  0  0
    3.8788    1.2534   -0.0319 C   0  0  0  0  0  0  0  0  0  0  0  0
    3.7468   -0.1269    0.2064 C   0  0  0  0  0  0  0  0  0  0  0  0
    2.4299   -0.7967    0.2847 C   0  0  0  0  0  0  0  0  0  0  0  0
    1.2755   -0.1566    0.6990 C   0  0  0  0  0  0  0  0  0  0  0  0
    0.0824   -0.8806    0.7217 C   0  0  0  0  0  0  0  0  0  0  0  0
   -1.1313   -0.1261    1.1090 C   0  0  0  0  0  0  0  0  0  0  0  0
   -1.1424    0.4211    2.2028 O   0  0  0  0  0  0  0  0  0  0  0  0
   -2.1031   -0.0905    0.1279 N   0  0  0  0  0  0  0  0  0  0  0  0
   -3.3618    0.5431    0.1918 C   0  0  0  0  0  0  0  0  0  0  0  0
   -3.8304    1.2284    1.3078 C   0  0  0  0  0  0  0  0  0  0  0  0
   -5.0796    1.8540    1.2748 C   0  0  0  0  0  0  0  0  0  0  0  0
   -5.8916    1.7894    0.1323 C   0  0  0  0  0  0  0  0  0  0  0  0
   -7.2092    2.5140    0.1314 C   0  0  0  0  0  0  0  0  0  0  0  0
   -5.4597    1.0392   -0.9733 C   0  0  0  0  0  0  0  0  0  0  0  0
   -6.1807    1.0270   -2.1786 N   0  0  0  0  0  0  0  0  0  0  0  0
   -4.1768    0.4698   -0.9465 C   0  0  0  0  0  0  0  0  0  0  0  0
    0.0470   -2.2495    0.3833 C   0  0  0  0  0  0  0  0  0  0  0  0
   -1.1026   -3.0794    0.4485 C   0  0  0  0  0  0  0  0  0  0  0  0
   -1.0401   -4.4227    0.0839 C   0  0  0  0  0  0  0  0  0  0  0  0
    0.1667   -4.9578   -0.3415 C   0  0  0  0  0  0  0  0  0  0  0  0
    1.3041   -4.1485   -0.3877 C   0  0  0  0  0  0  0  0  0  0  0  0
    1.2697   -2.8083   -0.0261 C   0  0  0  0  0  0  0  0  0  0  0  0
    2.4125   -2.1036   -0.0815 N   0  0  0  0  0  0  0  0  0  0  0  0
    4.9355   -0.8614    0.3618 C   0  0  0  0  0  0  0  0  0  0  0  0
    6.1904   -0.2455    0.2952 C   0  0  0  0  0  0  0  0  0  0  0  0
    7.3411    3.2911   -1.1711 H   0  0  0  0  0  0  0  0  0  0  0  0
    7.2787    3.5787    0.6118 H   0  0  0  0  0  0  0  0  0  0  0  0
    8.8108    3.2153   -0.1918 H   0  0  0  0  0  0  0  0  0  0  0  0
    5.1668    2.9413   -0.2878 H   0  0  0  0  0  0  0  0  0  0  0  0
    3.0005    1.8760   -0.1870 H   0  0  0  0  0  0  0  0  0  0  0  0
    1.2811    0.8828    1.0112 H   0  0  0  0  0  0  0  0  0  0  0  0
   -1.8836   -0.5471   -0.7496 H   0  0  0  0  0  0  0  0  0  0  0  0
   -3.2433    1.3133    2.2167 H   0  0  0  0  0  0  0  0  0  0  0  0
   -5.4073    2.4077    2.1525 H   0  0  0  0  0  0  0  0  0  0  0  0
   -7.3523    3.0923    1.0504 H   0  0  0  0  0  0  0  0  0  0  0  0
   -8.0342    1.7982    0.0575 H   0  0  0  0  0  0  0  0  0  0  0  0
   -7.2582    3.2164   -0.7069 H   0  0  0  0  0  0  0  0  0  0  0  0
   -5.9689    0.2365   -2.7784 H   0  0  0  0  0  0  0  0  0  0  0  0
   -7.1804    1.1558   -2.0617 H   0  0  0  0  0  0  0  0  0  0  0  0
   -3.8153   -0.0388   -1.8362 H   0  0  0  0  0  0  0  0  0  0  0  0
   -2.0544   -2.6899    0.8059 H   0  0  0  0  0  0  0  0  0  0  0  0
   -1.9274   -5.0484    0.1421 H   0  0  0  0  0  0  0  0  0  0  0  0
    0.2340   -6.0048   -0.6262 H   0  0  0  0  0  0  0  0  0  0  0  0
    2.2502   -4.5792   -0.7097 H   0  0  0  0  0  0  0  0  0  0  0  0
    4.8912   -1.9346    0.5421 H   0  0  0  0  0  0  0  0  0  0  0  0
    7.0886   -0.8446    0.4230 H   0  0  0  0  0  0  0  0  0  0  0  0
  1  2  1  0
  2  3  1  0
  3  4  2  0
  4  5  1  0
  5  6  2  0
  6  7  1  0
  7  8  2  0
  8  9  1  0
  9 10  1  0
 10 11  2  0
 10 12  1  0
 12 13  1  0
 13 14  2  0
 14 15  1  0
 15 16  2  0
 16 17  1  0
 16 18  1  0
 18 19  1  0
 18 20  2  0
  9 21  2  0
 21 22  1  0
 22 23  2  0
 23 24  1  0
 24 25  2  0
 25 26  1  0
 26 27  2  0
  6 28  1  0
 28 29  2  0
 29  3  1  0
 27  7  1  0
 20 13  1  0
 26 21  1  0
  1 30  1  0
  1 31  1  0
  1 32  1  0
  4 33  1  0
  5 34  1  0
  8 35  1  0
 12 36  1  0
 14 37  1  0
 15 38  1  0
 17 39  1  0
 17 40  1  0
 17 41  1  0
 19 42  1  0
 19 43  1  0
 20 44  1  0
 22 45  1  0
 23 46  1  0
 24 47  1  0
 25 48  1  0
 28 49  1  0
 29 50  1  0
M  END
$$$$
