
     RDKit          3D

 40 42  0  0  0  0  0  0  0  0999 V2000
    2.5858    5.2402   -0.0246 C   0  0  0  0  0  0  0  0  0  0  0  0
    2.1206    3.8001    0.1043 C   0  0  0  0  0  0  0  0  0  0  0  0
    0.4152    3.6446   -0.5191 S   0  0  0  0  0  0  0  0  0  0  0  0
    0.1187    1.9027   -0.2441 C   0  0  0  0  0  0  0  0  0  0  0  0
   -1.1193    1.3892   -0.5620 C   0  0  0  0  0  0  0  0  0  0  0  0
   -1.3214    0.0404   -0.3467 C   0  0  0  0  0  0  0  0  0  0  0  0
   -2.5763   -0.5332   -0.6384 N   0  0  0  0  0  0  0  0  0  0  0  0
   -2.7065   -1.9278   -0.1554 C   0  0  0  0  0  0  0  0  0  0  0  0
   -4.1271   -2.4421   -0.4342 C   0  0  0  0  0  0  0  0  0  0  0  0
   -4.4482   -2.3605   -1.8329 O   0  0  0  0  0  0  0  0  0  0  0  0
   -4.3636   -0.9983   -2.2791 C   0  0  0  0  0  0  0  0  0  0  0  0
   -2.9559   -0.4162   -2.0653 C   0  0  0  0  0  0  0  0  0  0  0  0
   -0.3478   -0.7195    0.1804 N   0  0  0  0  0  0  0  0  0  0  0  0
    0.8351   -0.1411    0.4612 C   0  0  0  0  0  0  0  0  0  0  0  0
    1.9020   -0.9934    1.0270 C   0  0  0  0  0  0  0  0  0  0  0  0
    1.7016   -2.3691    1.2559 C   0  0  0  0  0  0  0  0  0  0  0  0
    2.7097   -3.1780    1.7909 C   0  0  0  0  0  0  0  0  0  0  0  0
    3.9471   -2.6285    2.1112 C   0  0  0  0  0  0  0  0  0  0  0  0
    4.1765   -1.2731    1.8970 C   0  0  0  0  0  0  0  0  0  0  0  0
    3.1657   -0.4677    1.3616 C   0  0  0  0  0  0  0  0  0  0  0  0
    1.1106    1.1564    0.2593 N   0  0  0  0  0  0  0  0  0  0  0  0
    3.6105    5.3348    0.3498 H   0  0  0  0  0  0  0  0  0  0  0  0
    2.5834    5.5721   -1.0684 H   0  0  0  0  0  0  0  0  0  0  0  0
    1.9564    5.9203    0.5595 H   0  0  0  0  0  0  0  0  0  0  0  0
    2.1575    3.4976    1.1559 H   0  0  0  0  0  0  0  0  0  0  0  0
    2.7849    3.1493   -0.4733 H   0  0  0  0  0  0  0  0  0  0  0  0
   -1.9086    2.0246   -0.9401 H   0  0  0  0  0  0  0  0  0  0  0  0
   -1.9884   -2.5745   -0.6770 H   0  0  0  0  0  0  0  0  0  0  0  0
   -2.5204   -1.9840    0.9239 H   0  0  0  0  0  0  0  0  0  0  0  0
   -4.8721   -1.8743    0.1361 H   0  0  0  0  0  0  0  0  0  0  0  0
   -4.2072   -3.4925   -0.1369 H   0  0  0  0  0  0  0  0  0  0  0  0
   -4.6130   -0.9830   -3.3448 H   0  0  0  0  0  0  0  0  0  0  0  0
   -5.1186   -0.4038   -1.7507 H   0  0  0  0  0  0  0  0  0  0  0  0
   -2.2366   -0.9725   -2.6806 H   0  0  0  0  0  0  0  0  0  0  0  0
   -2.9636    0.6268   -2.3995 H   0  0  0  0  0  0  0  0  0  0  0  0
    0.7431   -2.8259    1.0142 H   0  0  0  0  0  0  0  0  0  0  0  0
    2.5243   -4.2362    1.9557 H   0  0  0  0  0  0  0  0  0  0  0  0
    4.7313   -3.2555    2.5269 H   0  0  0  0  0  0  0  0  0  0  0  0
    5.1411   -0.8378    2.1452 H   0  0  0  0  0  0  0  0  0  0  0  0
    3.3736    0.5896    1.2050 H   0  0  0  0  0  0  0  0  0  0  0  0
  1  2  1  0
  2  3  1  0
  3  4  1  0
  4  5  2  0
  5  6  1  0
  6  7  1  0
  7  8  1  0
  8  9  1  0
  9 10  1  0
 10 11  1  0
 11 12  1  0
  6 13  2  0
 13 14  1  0
 14 15  1  0
 15 16  2  0
 16 17  1  0
 17 18  2  0
 18 19  1  0
 19 20  2  0
 14 21  2  0
 21  4  1  0
 12  7  1  0
 20 15  1  0
  1 22  1  0
  1 23  1  0
  1 24  1  0
  2 25  1  0
  2 26  1  0
  5 27  1  0
  8 28  1  0
  8 29  1  0
  9 30  1  0
  9 31  1  0
 11 32  1  0
 11 33  1  0
 12 34  1  0
 12 35  1  0
 16 36  1  0
 17 37  1  0
 18 38  1  0
 19 39  1  0
 20 40  1  0
M  END
$$$$
