
     RDKit          3D

 54 57  0  0  0  0  0  0  0  0999 V2000
   -5.8781   -0.3851   -2.2723 C   0  0  0  0  0  0  0  0  0  0  0  0
   -5.7058    0.8764   -1.6417 O   0  0  0  0  0  0  0  0  0  0  0  0
   -4.4796    1.1422   -1.0895 C   0  0  0  0  0  0  0  0  0  0  0  0
   -3.4319    0.2192   -0.9822 C   0  0  0  0  0  0  0  0  0  0  0  0
   -2.1878    0.5645   -0.4088 C   0  0  0  0  0  0  0  0  0  0  0  0
   -1.1049   -0.4367   -0.3162 C   0  0  0  0  0  0  0  0  0  0  0  0
    0.2353   -0.1106   -0.4193 C   0  0  0  0  0  0  0  0  0  0  0  0
    1.1796   -1.1331   -0.3192 C   0  0  0  0  0  0  0  0  0  0  0  0
    2.5990   -0.7167   -0.3910 C   0  0  0  0  0  0  0  0  0  0  0  0
    2.9620   -0.0901   -1.3768 O   0  0  0  0  0  0  0  0  0  0  0  0
    3.3403   -1.0464    0.7268 N   0  0  0  0  0  0  0  0  0  0  0  0
    4.7124   -0.8061    0.9432 C   0  0  0  0  0  0  0  0  0  0  0  0
    5.2457   -1.2090    2.1753 C   0  0  0  0  0  0  0  0  0  0  0  0
    6.5988   -1.0135    2.4618 C   0  0  0  0  0  0  0  0  0  0  0  0
    7.4226   -0.4199    1.5159 C   0  0  0  0  0  0  0  0  0  0  0  0
    8.7370   -0.2503    1.8329 O   0  0  0  0  0  0  0  0  0  0  0  0
    6.9140   -0.0165    0.2877 C   0  0  0  0  0  0  0  0  0  0  0  0
    5.5575   -0.2114    0.0030 C   0  0  0  0  0  0  0  0  0  0  0  0
    0.7886   -2.4799   -0.1633 C   0  0  0  0  0  0  0  0  0  0  0  0
    1.6720   -3.5904   -0.1273 C   0  0  0  0  0  0  0  0  0  0  0  0
    1.1903   -4.8868    0.0416 C   0  0  0  0  0  0  0  0  0  0  0  0
   -0.1751   -5.0956    0.1670 C   0  0  0  0  0  0  0  0  0  0  0  0
   -1.0490   -4.0077    0.1096 C   0  0  0  0  0  0  0  0  0  0  0  0
   -0.5954   -2.7066   -0.0621 C   0  0  0  0  0  0  0  0  0  0  0  0
   -1.5048   -1.7192   -0.1298 N   0  0  0  0  0  0  0  0  0  0  0  0
   -2.0270    1.8784    0.0661 C   0  0  0  0  0  0  0  0  0  0  0  0
   -3.0574    2.8150   -0.0488 C   0  0  0  0  0  0  0  0  0  0  0  0
   -2.9122    4.0903    0.4370 O   0  0  0  0  0  0  0  0  0  0  0  0
   -1.8485    4.7873   -0.2096 C   0  0  0  0  0  0  0  0  0  0  0  0
   -4.2881    2.4393   -0.5953 C   0  0  0  0  0  0  0  0  0  0  0  0
   -5.2813    3.3822   -0.7223 O   0  0  0  0  0  0  0  0  0  0  0  0
   -6.1397    3.3317    0.4149 C   0  0  0  0  0  0  0  0  0  0  0  0
   -6.8763   -0.4006   -2.7198 H   0  0  0  0  0  0  0  0  0  0  0  0
   -5.8287   -1.1996   -1.5423 H   0  0  0  0  0  0  0  0  0  0  0  0
   -5.1515   -0.5300   -3.0784 H   0  0  0  0  0  0  0  0  0  0  0  0
   -3.5552   -0.7984   -1.3437 H   0  0  0  0  0  0  0  0  0  0  0  0
    0.5599    0.9115   -0.5881 H   0  0  0  0  0  0  0  0  0  0  0  0
    2.8456   -1.4980    1.4874 H   0  0  0  0  0  0  0  0  0  0  0  0
    4.6200   -1.6780    2.9301 H   0  0  0  0  0  0  0  0  0  0  0  0
    7.0084   -1.3276    3.4179 H   0  0  0  0  0  0  0  0  0  0  0  0
    9.1850    0.1682    1.0789 H   0  0  0  0  0  0  0  0  0  0  0  0
    7.5476    0.4465   -0.4623 H   0  0  0  0  0  0  0  0  0  0  0  0
    5.1926    0.1110   -0.9674 H   0  0  0  0  0  0  0  0  0  0  0  0
    2.7454   -3.4571   -0.2521 H   0  0  0  0  0  0  0  0  0  0  0  0
    1.8783   -5.7286    0.0657 H   0  0  0  0  0  0  0  0  0  0  0  0
   -0.5676   -6.1012    0.2969 H   0  0  0  0  0  0  0  0  0  0  0  0
   -2.1197   -4.1823    0.1951 H   0  0  0  0  0  0  0  0  0  0  0  0
   -1.1039    2.1750    0.5565 H   0  0  0  0  0  0  0  0  0  0  0  0
   -1.9970    5.8580   -0.0386 H   0  0  0  0  0  0  0  0  0  0  0  0
   -0.8847    4.5073    0.2279 H   0  0  0  0  0  0  0  0  0  0  0  0
   -1.8432    4.6159   -1.2922 H   0  0  0  0  0  0  0  0  0  0  0  0
   -6.8975    4.1120    0.2967 H   0  0  0  0  0  0  0  0  0  0  0  0
   -6.6557    2.3679    0.4839 H   0  0  0  0  0  0  0  0  0  0  0  0
   -5.5903    3.5327    1.3407 H   0  0  0  0  0  0  0  0  0  0  0  0
  1  2  1  0
  2  3  1  0
  3  4  2  0
  4  5  1  0
  5  6  1  0
  6  7  2  0
  7  8  1  0
  8  9  1  0
  9 10  2  0
  9 11  1  0
 11 12  1  0
 12 13  2  0
 13 14  1  0
 14 15  2  0
 15 16  1  0
 15 17  1  0
 17 18  2  0
  8 19  2  0
 19 20  1  0
 20 21  2  0
 21 22  1  0
 22 23  2  0
 23 24  1  0
 24 25  2  0
  5 26  2  0
 26 27  1  0
 27 28  1  0
 28 29  1  0
 27 30  2  0
 30 31  1  0
 31 32  1  0
 30  3  1  0
 25  6  1  0
 18 12  1  0
 24 19  1  0
  1 33  1  0
  1 34  1  0
  1 35  1  0
  4 36  1  0
  7 37  1  0
 11 38  1  0
 13 39  1  0
 14 40  1  0
 16 41  1  0
 17 42  1  0
 18 43  1  0
 20 44  1  0
 21 45  1  0
 22 46  1  0
 23 47  1  0
 26 48  1  0
 29 49  1  0
 29 50  1  0
 29 51  1  0
 32 52  1  0
 32 53  1  0
 32 54  1  0
M  END
$$$$
