
     RDKit          3D

 36 37  0  0  0  0  0  0  0  0999 V2000
   -2.0389    0.0008    2.0476 C   0  0  0  0  0  0  0  0  0  0  0  0
   -1.8526   -1.0666    0.9720 C   0  0  0  0  0  0  0  0  0  0  0  0
   -2.0144   -0.6333   -0.4294 N   0  0  0  0  0  0  0  0  0  0  0  0
   -3.3738   -0.1280   -0.6831 C   0  0  0  0  0  0  0  0  0  0  0  0
   -3.7723   -0.1498   -2.1677 C   0  0  0  0  0  0  0  0  0  0  0  0
   -5.1490    0.1933   -2.3132 O   0  0  0  0  0  0  0  0  0  0  0  0
   -0.9870    0.3304   -0.8638 C   0  0  0  0  0  0  0  0  0  0  0  0
    0.3716   -0.3216   -0.9064 C   0  0  0  0  0  0  0  0  0  0  0  0
    0.6697   -1.4139   -1.7012 C   0  0  0  0  0  0  0  0  0  0  0  0
    2.2813   -1.9304   -1.5501 S   0  0  0  0  0  0  0  0  0  0  0  0
    2.6471   -0.6927   -0.4137 C   0  0  0  0  0  0  0  0  0  0  0  0
    3.8929   -0.4662    0.2085 C   0  0  0  0  0  0  0  0  0  0  0  0
    4.0290    0.5870    1.1221 C   0  0  0  0  0  0  0  0  0  0  0  0
    5.3576    0.8577    1.7654 C   0  0  0  0  0  0  0  0  0  0  0  0
    2.9388    1.4119    1.3816 C   0  0  0  0  0  0  0  0  0  0  0  0
    1.7049    1.1830    0.7614 C   0  0  0  0  0  0  0  0  0  0  0  0
    1.5343    0.1128   -0.1540 C   0  0  0  0  0  0  0  0  0  0  0  0
   -1.3036    0.8047    1.9588 H   0  0  0  0  0  0  0  0  0  0  0  0
   -1.9123   -0.4497    3.0379 H   0  0  0  0  0  0  0  0  0  0  0  0
   -3.0403    0.4402    2.0149 H   0  0  0  0  0  0  0  0  0  0  0  0
   -2.5688   -1.8762    1.1646 H   0  0  0  0  0  0  0  0  0  0  0  0
   -0.8713   -1.5361    1.1088 H   0  0  0  0  0  0  0  0  0  0  0  0
   -4.1048   -0.7542   -0.1537 H   0  0  0  0  0  0  0  0  0  0  0  0
   -3.5110    0.8852   -0.2833 H   0  0  0  0  0  0  0  0  0  0  0  0
   -3.1956    0.5746   -2.7488 H   0  0  0  0  0  0  0  0  0  0  0  0
   -3.6183   -1.1418   -2.6058 H   0  0  0  0  0  0  0  0  0  0  0  0
   -5.6678   -0.5386   -1.9364 H   0  0  0  0  0  0  0  0  0  0  0  0
   -1.1886    0.6713   -1.8865 H   0  0  0  0  0  0  0  0  0  0  0  0
   -0.9905    1.2307   -0.2415 H   0  0  0  0  0  0  0  0  0  0  0  0
   -0.0058   -1.9410   -2.3615 H   0  0  0  0  0  0  0  0  0  0  0  0
    4.7378   -1.1099   -0.0232 H   0  0  0  0  0  0  0  0  0  0  0  0
    5.9205   -0.0712    1.9050 H   0  0  0  0  0  0  0  0  0  0  0  0
    5.9446    1.5370    1.1397 H   0  0  0  0  0  0  0  0  0  0  0  0
    5.2283    1.3099    2.7544 H   0  0  0  0  0  0  0  0  0  0  0  0
    3.0341    2.2465    2.0733 H   0  0  0  0  0  0  0  0  0  0  0  0
    0.8741    1.8442    0.9924 H   0  0  0  0  0  0  0  0  0  0  0  0
  1  2  1  0
  2  3  1  0
  3  4  1  0
  4  5  1  0
  5  6  1  0
  3  7  1  0
  7  8  1  0
  8  9  2  0
  9 10  1  0
 10 11  1  0
 11 12  2  0
 12 13  1  0
 13 14  1  0
 13 15  2  0
 15 16  1  0
 16 17  2  0
 17  8  1  0
 17 11  1  0
  1 18  1  0
  1 19  1  0
  1 20  1  0
  2 21  1  0
  2 22  1  0
  4 23  1  0
  4 24  1  0
  5 25  1  0
  5 26  1  0
  6 27  1  0
  7 28  1  0
  7 29  1  0
  9 30  1  0
 12 31  1  0
 14 32  1  0
 14 33  1  0
 14 34  1  0
 15 35  1  0
 16 36  1  0
M  END
$$$$
