
     RDKit          3D

 57 62  0  0  0  0  0  0  0  0999 V2000
    7.7531    2.5412   -1.3606 C   0  0  0  0  0  0  0  0  0  0  0  0
    6.5530    3.0768   -0.8167 O   0  0  0  0  0  0  0  0  0  0  0  0
    5.5560    2.1953   -0.5100 C   0  0  0  0  0  0  0  0  0  0  0  0
    4.3652    2.7869   -0.0884 C   0  0  0  0  0  0  0  0  0  0  0  0
    3.2587    2.0043    0.2529 C   0  0  0  0  0  0  0  0  0  0  0  0
    3.3390    0.6099    0.1824 C   0  0  0  0  0  0  0  0  0  0  0  0
    2.0862   -0.2641    0.5483 C   0  0  0  0  0  0  0  0  0  0  0  0
    0.8144    0.2065    0.8556 C   0  0  0  0  0  0  0  0  0  0  0  0
   -0.0318   -0.8810    1.0708 N   0  0  0  0  0  4  0  0  0  0  0  0
   -1.4838   -0.8334    1.3199 C   0  0  0  0  0  0  0  0  0  0  0  0
   -2.2487   -1.1501    0.0163 C   0  0  0  0  0  0  0  0  0  0  0  0
   -1.8732   -2.0988   -0.6777 O   0  0  0  0  0  0  0  0  0  0  0  0
   -3.2453   -0.2155   -0.3093 N   0  0  0  0  0  0  0  0  0  0  0  0
   -4.2206    0.1723    0.6798 C   0  0  0  0  0  0  0  0  0  0  0  0
   -4.5433   -0.7296    1.7181 C   0  0  0  0  0  0  0  0  0  0  0  0
   -5.4767   -0.4049    2.7068 C   0  0  0  0  0  0  0  0  0  0  0  0
   -6.1236    0.8235    2.6720 C   0  0  0  0  0  0  0  0  0  0  0  0
   -5.8449    1.7151    1.6398 C   0  0  0  0  0  0  0  0  0  0  0  0
   -4.9112    1.3920    0.6401 C   0  0  0  0  0  0  0  0  0  0  0  0
   -4.6204    2.5989   -0.6164 S   0  0  0  0  0  0  0  0  0  0  0  0
   -4.0206    1.5383   -1.9080 C   0  0  0  0  0  0  0  0  0  0  0  0
   -4.1244    2.0400   -3.2183 C   0  0  0  0  0  0  0  0  0  0  0  0
   -3.5885    1.3408   -4.2937 C   0  0  0  0  0  0  0  0  0  0  0  0
   -2.9359    0.1395   -4.0636 C   0  0  0  0  0  0  0  0  0  0  0  0
   -2.8295   -0.3634   -2.7607 C   0  0  0  0  0  0  0  0  0  0  0  0
   -3.3801    0.3107   -1.6503 C   0  0  0  0  0  0  0  0  0  0  0  0
    0.6868   -1.9853    0.8946 C   0  0  0  0  0  0  0  0  0  0  0  0
    1.9446   -1.6374    0.6315 N   0  0  0  0  0  0  0  0  0  0  0  0
    2.8069   -2.8015    0.4818 C   0  0  0  0  0  0  0  0  0  0  0  0
    1.9432   -3.9619    1.0517 C   0  0  0  0  0  0  0  0  0  0  0  0
    0.4903   -3.4537    0.9507 C   0  0  0  0  0  0  0  0  0  0  0  0
    4.5309    0.0149   -0.2334 C   0  0  0  0  0  0  0  0  0  0  0  0
    5.6358    0.8059   -0.5796 C   0  0  0  0  0  0  0  0  0  0  0  0
    8.2605    1.8998   -0.6338 H   0  0  0  0  0  0  0  0  0  0  0  0
    8.4195    3.3785   -1.5895 H   0  0  0  0  0  0  0  0  0  0  0  0
    7.5582    2.0043   -2.2932 H   0  0  0  0  0  0  0  0  0  0  0  0
    4.3007    3.8715   -0.0296 H   0  0  0  0  0  0  0  0  0  0  0  0
    2.3584    2.5190    0.5739 H   0  0  0  0  0  0  0  0  0  0  0  0
    0.3918    1.1954    0.9202 H   0  0  0  0  0  0  0  0  0  0  0  0
   -1.7281   -1.5822    2.0806 H   0  0  0  0  0  0  0  0  0  0  0  0
   -1.7240    0.1642    1.7045 H   0  0  0  0  0  0  0  0  0  0  0  0
   -4.1295   -1.7354    1.7488 H   0  0  0  0  0  0  0  0  0  0  0  0
   -5.7219   -1.1221    3.4876 H   0  0  0  0  0  0  0  0  0  0  0  0
   -6.8609    1.0781    3.4302 H   0  0  0  0  0  0  0  0  0  0  0  0
   -6.3760    2.6660    1.6138 H   0  0  0  0  0  0  0  0  0  0  0  0
   -4.6170    2.9914   -3.4090 H   0  0  0  0  0  0  0  0  0  0  0  0
   -3.6754    1.7346   -5.3038 H   0  0  0  0  0  0  0  0  0  0  0  0
   -2.5140   -0.4197   -4.8988 H   0  0  0  0  0  0  0  0  0  0  0  0
   -2.3321   -1.3237   -2.6694 H   0  0  0  0  0  0  0  0  0  0  0  0
    3.0178   -2.9512   -0.5807 H   0  0  0  0  0  0  0  0  0  0  0  0
    3.7308   -2.6802    1.0511 H   0  0  0  0  0  0  0  0  0  0  0  0
    2.1963   -4.1038    2.1100 H   0  0  0  0  0  0  0  0  0  0  0  0
    2.1043   -4.9123    0.5364 H   0  0  0  0  0  0  0  0  0  0  0  0
    0.0184   -3.7487    0.0123 H   0  0  0  0  0  0  0  0  0  0  0  0
   -0.1208   -3.7038    1.8187 H   0  0  0  0  0  0  0  0  0  0  0  0
    4.6368   -1.0590   -0.3221 H   0  0  0  0  0  0  0  0  0  0  0  0
    6.5447    0.3070   -0.9032 H   0  0  0  0  0  0  0  0  0  0  0  0
  1  2  1  0
  2  3  1  0
  3  4  2  0
  4  5  1  0
  5  6  2  0
  6  7  1  0
  7  8  2  0
  8  9  1  0
  9 10  1  0
 10 11  1  0
 11 12  2  0
 11 13  1  0
 13 14  1  0
 14 15  2  0
 15 16  1  0
 16 17  2  0
 17 18  1  0
 18 19  2  0
 19 20  1  0
 20 21  1  0
 21 22  2  0
 22 23  1  0
 23 24  2  0
 24 25  1  0
 25 26  2  0
  9 27  2  0
 27 28  1  0
 28 29  1  0
 29 30  1  0
 30 31  1  0
  6 32  1  0
 32 33  2  0
 33  3  1  0
 28  7  1  0
 26 13  1  0
 31 27  1  0
 19 14  1  0
 26 21  1  0
  1 34  1  0
  1 35  1  0
  1 36  1  0
  4 37  1  0
  5 38  1  0
  8 39  1  0
 10 40  1  0
 10 41  1  0
 15 42  1  0
 16 43  1  0
 17 44  1  0
 18 45  1  0
 22 46  1  0
 23 47  1  0
 24 48  1  0
 25 49  1  0
 29 50  1  0
 29 51  1  0
 30 52  1  0
 30 53  1  0
 31 54  1  0
 31 55  1  0
 32 56  1  0
 33 57  1  0
M  CHG  1   9   1
M  END
$$$$
