
     RDKit          3D

 41 42  0  0  0  0  0  0  0  0999 V2000
    0.2418    4.7701    0.6272 C   0  0  0  0  0  0  0  0  0  0  0  0
    0.0686    3.7355    1.7231 C   0  0  0  0  0  0  0  0  0  0  0  0
    0.1045    2.4147    1.1620 O   0  0  0  0  0  0  0  0  0  0  0  0
    1.3413    1.8628    0.9909 C   0  0  0  0  0  0  0  0  0  0  0  0
    2.3855    2.3920    1.3626 O   0  0  0  0  0  0  0  0  0  0  0  0
    1.2887    0.4528    0.3354 C   0  0  0  0  0  0  0  0  0  0  0  0
   -0.0816   -0.0487    0.2171 N   0  0  0  0  0  0  0  0  0  0  0  0
   -0.9415    0.3941   -0.7531 C   0  0  0  0  0  0  0  0  0  0  0  0
   -0.5988    1.1711   -1.6322 O   0  0  0  0  0  0  0  0  0  0  0  0
   -2.3493   -0.0783   -0.6662 C   0  0  0  0  0  0  0  0  0  0  0  0
   -2.6913   -1.2897   -0.0484 C   0  0  0  0  0  0  0  0  0  0  0  0
   -4.0277   -1.6926    0.0078 C   0  0  0  0  0  0  0  0  0  0  0  0
   -5.0220   -0.8926   -0.5561 C   0  0  0  0  0  0  0  0  0  0  0  0
   -4.6778    0.3047   -1.1824 C   0  0  0  0  0  0  0  0  0  0  0  0
   -5.9076    1.2838   -1.8812 Cl  0  0  0  0  0  0  0  0  0  0  0  0
   -3.3480    0.7143   -1.2450 C   0  0  0  0  0  0  0  0  0  0  0  0
    1.8917   -0.4935    1.3308 N   0  0  0  0  0  0  0  0  0  0  0  0
    2.3571   -1.7092    0.9243 C   0  0  0  0  0  0  0  0  0  0  0  0
    3.5547   -2.1400    1.2562 N   0  0  0  0  0  0  0  0  0  0  0  0
    3.8367   -3.3960    0.7628 N   0  0  0  0  0  0  0  0  0  0  0  0
    2.8261   -3.8981    0.0899 C   0  0  0  0  0  0  0  0  0  0  0  0
    2.8180   -5.2276   -0.5684 C   0  0  0  0  0  0  0  0  0  0  0  0
    1.4532   -2.8736    0.0272 S   0  0  0  0  0  0  0  0  0  0  0  0
    2.1345    0.6560   -0.9739 C   0  0  0  0  0  0  0  0  0  0  0  0
    3.4663    0.6329   -0.6959 F   0  0  0  0  0  0  0  0  0  0  0  0
    1.9002    1.8289   -1.6034 F   0  0  0  0  0  0  0  0  0  0  0  0
    1.9216   -0.3405   -1.8714 F   0  0  0  0  0  0  0  0  0  0  0  0
    0.1562    5.7824    1.0321 H   0  0  0  0  0  0  0  0  0  0  0  0
   -0.5160    4.6351   -0.1516 H   0  0  0  0  0  0  0  0  0  0  0  0
    1.2177    4.6688    0.1420 H   0  0  0  0  0  0  0  0  0  0  0  0
    0.8196    3.8541    2.5122 H   0  0  0  0  0  0  0  0  0  0  0  0
   -0.9133    3.8565    2.1921 H   0  0  0  0  0  0  0  0  0  0  0  0
   -0.4483   -0.4560    1.0632 H   0  0  0  0  0  0  0  0  0  0  0  0
   -1.9326   -1.9453    0.3700 H   0  0  0  0  0  0  0  0  0  0  0  0
   -4.2948   -2.6341    0.4828 H   0  0  0  0  0  0  0  0  0  0  0  0
   -6.0609   -1.2105   -0.5119 H   0  0  0  0  0  0  0  0  0  0  0  0
   -3.0871    1.6477   -1.7397 H   0  0  0  0  0  0  0  0  0  0  0  0
    2.6521   -0.0046    1.8162 H   0  0  0  0  0  0  0  0  0  0  0  0
    3.7782   -5.7330   -0.4234 H   0  0  0  0  0  0  0  0  0  0  0  0
    2.6495   -5.1282   -1.6454 H   0  0  0  0  0  0  0  0  0  0  0  0
    2.0348   -5.8661   -0.1476 H   0  0  0  0  0  0  0  0  0  0  0  0
  1  2  1  0
  2  3  1  0
  3  4  1  0
  4  5  2  0
  4  6  1  0
  6  7  1  0
  7  8  1  0
  8  9  2  0
  8 10  1  0
 10 11  2  0
 11 12  1  0
 12 13  2  0
 13 14  1  0
 14 15  1  0
 14 16  2  0
  6 17  1  0
 17 18  1  0
 18 19  2  0
 19 20  1  0
 20 21  2  0
 21 22  1  0
 21 23  1  0
  6 24  1  0
 24 25  1  0
 24 26  1  0
 24 27  1  0
 16 10  1  0
 23 18  1  0
  1 28  1  0
  1 29  1  0
  1 30  1  0
  2 31  1  0
  2 32  1  0
  7 33  1  0
 11 34  1  0
 12 35  1  0
 13 36  1  0
 16 37  1  0
 17 38  1  0
 22 39  1  0
 22 40  1  0
 22 41  1  0
M  END
$$$$
