
     RDKit          3D

 37 39  0  0  0  0  0  0  0  0999 V2000
    6.0043    0.0741   -0.6363 C   0  0  0  0  0  0  0  0  0  0  0  0
    5.4520   -0.2366    0.6367 O   0  0  0  0  0  0  0  0  0  0  0  0
    4.0878   -0.2750    0.7395 C   0  0  0  0  0  0  0  0  0  0  0  0
    3.6201   -0.6094    2.0202 C   0  0  0  0  0  0  0  0  0  0  0  0
    2.2545   -0.6914    2.2877 C   0  0  0  0  0  0  0  0  0  0  0  0
    1.3702   -0.4303    1.2543 C   0  0  0  0  0  0  0  0  0  0  0  0
    1.8100   -0.0893   -0.0434 C   0  0  0  0  0  0  0  0  0  0  0  0
    3.1797   -0.0145   -0.2951 C   0  0  0  0  0  0  0  0  0  0  0  0
    0.7564    0.1474   -0.9578 N   0  0  0  0  0  0  0  0  0  0  0  0
    1.0743    0.3152   -2.3661 C   0  0  0  0  0  0  0  0  0  0  0  0
   -0.4939   -0.0742   -0.3757 C   0  0  0  0  0  0  0  0  0  0  0  0
   -1.6910    0.0184   -0.9857 C   0  0  0  0  0  0  0  0  0  0  0  0
   -2.9900   -0.2222   -0.3498 C   0  0  0  0  0  0  0  0  0  0  0  0
   -3.5570   -1.5008   -0.4114 C   0  0  0  0  0  0  0  0  0  0  0  0
   -4.7778   -1.7501    0.2011 C   0  0  0  0  0  0  0  0  0  0  0  0
   -5.4182   -0.7210    0.8723 C   0  0  0  0  0  0  0  0  0  0  0  0
   -4.8298    0.5367    0.9141 C   0  0  0  0  0  0  0  0  0  0  0  0
   -3.6446    0.7776    0.3037 N   0  0  0  0  0  4  0  0  0  0  0  0
   -3.0697    2.1358    0.3879 C   0  0  0  0  0  0  0  0  0  0  0  0
   -0.4110   -0.4951    1.3621 S   0  0  0  0  0  0  0  0  0  0  0  0
    5.7178   -0.6733   -1.3834 H   0  0  0  0  0  0  0  0  0  0  0  0
    7.0943    0.0517   -0.5429 H   0  0  0  0  0  0  0  0  0  0  0  0
    5.7173    1.0817   -0.9544 H   0  0  0  0  0  0  0  0  0  0  0  0
    4.3369   -0.8109    2.8144 H   0  0  0  0  0  0  0  0  0  0  0  0
    1.9047   -0.9575    3.2796 H   0  0  0  0  0  0  0  0  0  0  0  0
    3.5346    0.2457   -1.2835 H   0  0  0  0  0  0  0  0  0  0  0  0
    1.7976    1.1248   -2.5137 H   0  0  0  0  0  0  0  0  0  0  0  0
    1.4848   -0.6111   -2.7830 H   0  0  0  0  0  0  0  0  0  0  0  0
    0.1946    0.5827   -2.9588 H   0  0  0  0  0  0  0  0  0  0  0  0
   -1.7564    0.2698   -2.0391 H   0  0  0  0  0  0  0  0  0  0  0  0
   -3.0409   -2.3102   -0.9259 H   0  0  0  0  0  0  0  0  0  0  0  0
   -5.2203   -2.7446    0.1626 H   0  0  0  0  0  0  0  0  0  0  0  0
   -6.3710   -0.8988    1.3670 H   0  0  0  0  0  0  0  0  0  0  0  0
   -5.3054    1.3602    1.4403 H   0  0  0  0  0  0  0  0  0  0  0  0
   -3.8276    2.8356    0.7504 H   0  0  0  0  0  0  0  0  0  0  0  0
   -2.7561    2.4499   -0.6108 H   0  0  0  0  0  0  0  0  0  0  0  0
   -2.2309    2.1090    1.0864 H   0  0  0  0  0  0  0  0  0  0  0  0
  1  2  1  0
  2  3  1  0
  3  4  2  0
  4  5  1  0
  5  6  2  0
  6  7  1  0
  7  8  2  0
  7  9  1  0
  9 10  1  0
  9 11  1  0
 11 12  2  3
 12 13  1  0
 13 14  2  0
 14 15  1  0
 15 16  2  0
 16 17  1  0
 17 18  2  0
 18 19  1  0
 11 20  1  0
  8  3  1  0
 18 13  1  0
 20  6  1  0
  1 21  1  0
  1 22  1  0
  1 23  1  0
  4 24  1  0
  5 25  1  0
  8 26  1  0
 10 27  1  0
 10 28  1  0
 10 29  1  0
 12 30  1  0
 14 31  1  0
 15 32  1  0
 16 33  1  0
 17 34  1  0
 19 35  1  0
 19 36  1  0
 19 37  1  0
M  CHG  1  18   1
M  END
$$$$
