
     RDKit          3D

 44 44  0  0  0  0  0  0  0  0999 V2000
   -5.6627   -0.4331   -0.0106 C   0  0  0  0  0  0  0  0  0  0  0  0
   -4.8505    0.8543   -0.0210 C   0  0  0  0  0  0  0  0  0  0  0  0
   -3.4181    0.5745   -0.1966 N   0  0  0  0  0  0  0  0  0  0  0  0
   -2.9390    0.5621   -1.5844 C   0  0  0  0  0  0  0  0  0  0  0  0
   -2.4386    1.9373   -2.0032 C   0  0  0  0  0  0  0  0  0  0  0  0
   -2.5760    0.3337    0.8874 C   0  0  0  0  0  0  0  0  0  0  0  0
   -3.0660    0.1948    2.1986 C   0  0  0  0  0  0  0  0  0  0  0  0
   -2.2276   -0.0466    3.2929 C   0  0  0  0  0  0  0  0  0  0  0  0
   -0.8574   -0.1566    3.1054 C   0  0  0  0  0  0  0  0  0  0  0  0
   -0.3219   -0.0267    1.8293 C   0  0  0  0  0  0  0  0  0  0  0  0
    1.0397   -0.1516    1.7744 O   0  0  0  0  0  0  0  0  0  0  0  0
    1.6558   -0.0377    0.4993 C   0  0  0  0  0  0  0  0  0  0  0  0
    3.1785   -0.2052    0.6015 C   0  0  0  0  0  0  0  0  0  0  0  0
    3.7462   -0.4062    1.6770 O   0  0  0  0  0  0  0  0  0  0  0  0
    3.9114   -0.1248   -0.5873 N   0  0  0  0  0  0  0  0  0  0  0  0
    3.3214   -0.1031   -1.9190 C   0  0  0  0  0  0  0  0  0  0  0  0
    5.3616   -0.3364   -0.5064 C   0  0  0  0  0  0  0  0  0  0  0  0
    5.7421   -1.8120   -0.3862 C   0  0  0  0  0  0  0  0  0  0  0  0
    7.1997   -1.9671   -0.4211 C   0  0  0  0  0  0  0  0  0  0  0  0
    8.3528   -2.0850   -0.4746 N   0  0  0  0  0  0  0  0  0  0  0  0
   -1.1772    0.2143    0.7429 C   0  0  0  0  0  0  0  0  0  0  0  0
   -5.3682   -1.0932    0.8107 H   0  0  0  0  0  0  0  0  0  0  0  0
   -6.7276   -0.2066    0.1014 H   0  0  0  0  0  0  0  0  0  0  0  0
   -5.5311   -0.9887   -0.9450 H   0  0  0  0  0  0  0  0  0  0  0  0
   -5.0436    1.4486    0.8791 H   0  0  0  0  0  0  0  0  0  0  0  0
   -5.2071    1.4803   -0.8491 H   0  0  0  0  0  0  0  0  0  0  0  0
   -3.7584    0.2741   -2.2554 H   0  0  0  0  0  0  0  0  0  0  0  0
   -2.1687   -0.2010   -1.7428 H   0  0  0  0  0  0  0  0  0  0  0  0
   -3.2323    2.6870   -1.9188 H   0  0  0  0  0  0  0  0  0  0  0  0
   -2.1027    1.9155   -3.0447 H   0  0  0  0  0  0  0  0  0  0  0  0
   -1.6008    2.2715   -1.3840 H   0  0  0  0  0  0  0  0  0  0  0  0
   -4.1283    0.2590    2.4110 H   0  0  0  0  0  0  0  0  0  0  0  0
   -2.6503   -0.1496    4.2885 H   0  0  0  0  0  0  0  0  0  0  0  0
   -0.2037   -0.3430    3.9534 H   0  0  0  0  0  0  0  0  0  0  0  0
    1.2793   -0.8299   -0.1580 H   0  0  0  0  0  0  0  0  0  0  0  0
    1.4625    0.9586    0.0850 H   0  0  0  0  0  0  0  0  0  0  0  0
    2.2822    0.2277   -1.9077 H   0  0  0  0  0  0  0  0  0  0  0  0
    3.8924    0.5818   -2.5526 H   0  0  0  0  0  0  0  0  0  0  0  0
    3.3670   -1.1130   -2.3362 H   0  0  0  0  0  0  0  0  0  0  0  0
    5.8271    0.1214   -1.3882 H   0  0  0  0  0  0  0  0  0  0  0  0
    5.7436    0.2132    0.3639 H   0  0  0  0  0  0  0  0  0  0  0  0
    5.3443   -2.2380    0.5414 H   0  0  0  0  0  0  0  0  0  0  0  0
    5.2942   -2.3810   -1.2091 H   0  0  0  0  0  0  0  0  0  0  0  0
   -0.7439    0.3268   -0.2410 H   0  0  0  0  0  0  0  0  0  0  0  0
  1  2  1  0
  2  3  1  0
  3  4  1  0
  4  5  1  0
  3  6  1  0
  6  7  2  0
  7  8  1  0
  8  9  2  0
  9 10  1  0
 10 11  1  0
 11 12  1  0
 12 13  1  0
 13 14  2  0
 13 15  1  0
 15 16  1  0
 15 17  1  0
 17 18  1  0
 18 19  1  0
 19 20  3  0
 10 21  2  0
 21  6  1  0
  1 22  1  0
  1 23  1  0
  1 24  1  0
  2 25  1  0
  2 26  1  0
  4 27  1  0
  4 28  1  0
  5 29  1  0
  5 30  1  0
  5 31  1  0
  7 32  1  0
  8 33  1  0
  9 34  1  0
 12 35  1  0
 12 36  1  0
 16 37  1  0
 16 38  1  0
 16 39  1  0
 17 40  1  0
 17 41  1  0
 18 42  1  0
 18 43  1  0
 21 44  1  0
M  END
$$$$
