
     RDKit          3D

 36 37  0  0  0  0  0  0  0  0999 V2000
   -0.6618    1.2272   -2.8991 O   0  0  0  0  0  0  0  0  0  0  0  0
   -0.6263    1.5780   -1.7238 C   0  0  0  0  0  0  0  0  0  0  0  0
    0.2618    2.7250   -1.2348 C   0  0  0  0  0  0  0  0  0  0  0  0
    1.5604    2.2969   -0.8185 O   0  0  0  0  0  0  0  0  0  0  0  0
    1.6080    1.6459    0.3665 C   0  0  0  0  0  0  0  0  0  0  0  0
    0.6477    1.3934    1.0796 O   0  0  0  0  0  0  0  0  0  0  0  0
    3.0045    1.2630    0.7029 C   0  0  0  0  0  0  0  0  0  0  0  0
    4.0731    1.4769   -0.1776 C   0  0  0  0  0  0  0  0  0  0  0  0
    5.3620    1.0926    0.1935 C   0  0  0  0  0  0  0  0  0  0  0  0
    6.6726    1.3578   -0.8894 Cl  0  0  0  0  0  0  0  0  0  0  0  0
    5.6011    0.4967    1.4293 C   0  0  0  0  0  0  0  0  0  0  0  0
    4.5360    0.2845    2.3000 C   0  0  0  0  0  0  0  0  0  0  0  0
    4.8190   -0.4520    3.8288 Cl  0  0  0  0  0  0  0  0  0  0  0  0
    3.2414    0.6624    1.9466 C   0  0  0  0  0  0  0  0  0  0  0  0
   -1.3627    0.9727   -0.7229 N   0  0  0  0  0  0  0  0  0  0  0  0
   -2.1205   -0.2329   -1.0031 C   0  0  0  0  0  0  0  0  0  0  0  0
   -3.0821   -0.5857    0.1351 C   0  0  0  0  0  0  0  0  0  0  0  0
   -3.7977   -1.8238   -0.1081 N   0  0  0  0  0  0  0  0  0  0  0  0
   -3.2947   -3.0885    0.0899 C   0  0  0  0  0  0  0  0  0  0  0  0
   -2.0928   -3.2929    0.6971 O   0  0  0  0  0  0  0  0  0  0  0  0
   -4.0716   -4.0771   -0.3613 C   0  0  0  0  0  0  0  0  0  0  0  0
   -5.5258   -3.4653   -1.0812 S   0  0  0  0  0  0  0  0  0  0  0  0
   -5.0165   -1.7949   -0.7820 C   0  0  0  0  0  0  0  0  0  0  0  0
   -5.6536   -0.8173   -1.1371 O   0  0  0  0  0  0  0  0  0  0  0  0
    0.3927    3.4259   -2.0664 H   0  0  0  0  0  0  0  0  0  0  0  0
   -0.2371    3.2828   -0.4327 H   0  0  0  0  0  0  0  0  0  0  0  0
    3.9134    1.9359   -1.1506 H   0  0  0  0  0  0  0  0  0  0  0  0
    6.6083    0.1999    1.7102 H   0  0  0  0  0  0  0  0  0  0  0  0
    2.4197    0.4903    2.6392 H   0  0  0  0  0  0  0  0  0  0  0  0
   -0.9677    1.0795    0.2133 H   0  0  0  0  0  0  0  0  0  0  0  0
   -1.3971   -1.0406   -1.1641 H   0  0  0  0  0  0  0  0  0  0  0  0
   -2.6693   -0.0979   -1.9425 H   0  0  0  0  0  0  0  0  0  0  0  0
   -2.5513   -0.6501    1.0914 H   0  0  0  0  0  0  0  0  0  0  0  0
   -3.8098    0.2276    0.2503 H   0  0  0  0  0  0  0  0  0  0  0  0
   -1.9433   -2.5649    1.3188 H   0  0  0  0  0  0  0  0  0  0  0  0
   -3.8402   -5.1308   -0.2973 H   0  0  0  0  0  0  0  0  0  0  0  0
  1  2  2  0
  2  3  1  0
  3  4  1  0
  4  5  1  0
  5  6  2  0
  5  7  1  0
  7  8  2  0
  8  9  1  0
  9 10  1  0
  9 11  2  0
 11 12  1  0
 12 13  1  0
 12 14  2  0
  2 15  1  0
 15 16  1  0
 16 17  1  0
 17 18  1  0
 18 19  1  0
 19 20  1  0
 19 21  2  0
 21 22  1  0
 22 23  1  0
 23 24  2  0
 14  7  1  0
 23 18  1  0
  3 25  1  0
  3 26  1  0
  8 27  1  0
 11 28  1  0
 14 29  1  0
 15 30  1  0
 16 31  1  0
 16 32  1  0
 17 33  1  0
 17 34  1  0
 20 35  1  0
 21 36  1  0
M  END
$$$$
