
     RDKit          3D

 54 57  0  0  0  0  0  0  0  0999 V2000
   -5.0358    4.5504   -1.6395 C   0  0  0  0  0  0  0  0  0  0  0  0
   -4.2123    3.3262   -1.3721 C   0  0  0  0  0  0  0  0  0  0  0  0
   -4.1686    2.2937   -2.3103 C   0  0  0  0  0  0  0  0  0  0  0  0
   -3.4102    1.1254   -2.0923 C   0  0  0  0  0  0  0  0  0  0  0  0
   -3.5511    0.0397   -3.1259 C   0  0  0  0  0  0  0  0  0  0  0  0
   -2.6193    1.0248   -0.9284 C   0  0  0  0  0  0  0  0  0  0  0  0
   -1.7859   -0.0851   -0.6434 N   0  0  0  0  0  0  0  0  0  0  0  0
   -0.9844   -0.7674   -1.5474 C   0  0  0  0  0  0  0  0  0  0  0  0
   -0.8065   -0.4839   -2.7290 O   0  0  0  0  0  0  0  0  0  0  0  0
   -0.2036   -1.9081   -0.8914 C   0  0  0  0  0  0  0  0  0  0  0  0
    1.0615   -1.4192   -0.3402 N   0  0  0  0  0  0  0  0  0  0  0  0
    1.0171   -0.9010    0.9484 C   0  0  0  0  0  0  0  0  0  0  0  0
   -0.0662   -0.7667    1.5267 O   0  0  0  0  0  0  0  0  0  0  0  0
    2.2175   -0.5206    1.5193 N   0  0  0  0  0  0  0  0  0  0  0  0
    2.2006   -0.0637    2.9014 C   0  0  0  0  0  0  0  0  0  0  0  0
    2.4460   -1.2195    3.8091 C   0  0  0  0  0  0  0  0  0  0  0  0
    3.5909   -1.8644    4.2321 C   0  0  0  0  0  0  0  0  0  0  0  0
    3.1696   -2.9007    5.0984 C   0  0  0  0  0  0  0  0  0  0  0  0
    1.7979   -2.8222    5.1504 C   0  0  0  0  0  0  0  0  0  0  0  0
    1.3494   -1.8048    4.3716 O   0  0  0  0  0  0  0  0  0  0  0  0
    3.4446   -0.5544    0.8744 C   0  0  0  0  0  0  0  0  0  0  0  0
    4.5046   -0.2239    1.4025 O   0  0  0  0  0  0  0  0  0  0  0  0
    3.4467   -1.0042   -0.5263 C   0  0  0  0  0  0  0  0  0  0  0  0
    4.6516   -1.0014   -1.2469 C   0  0  0  0  0  0  0  0  0  0  0  0
    4.6689   -1.4073   -2.5772 C   0  0  0  0  0  0  0  0  0  0  0  0
    3.4842   -1.8076   -3.1846 C   0  0  0  0  0  0  0  0  0  0  0  0
    2.2858   -1.8127   -2.4610 C   0  0  0  0  0  0  0  0  0  0  0  0
    2.2522   -1.4201   -1.1142 C   0  0  0  0  0  0  0  0  0  0  0  0
   -2.6925    2.0510    0.0464 C   0  0  0  0  0  0  0  0  0  0  0  0
   -1.9161    1.9967    1.3379 C   0  0  0  0  0  0  0  0  0  0  0  0
   -3.4827    3.1900   -0.1924 C   0  0  0  0  0  0  0  0  0  0  0  0
   -5.0311    5.2332   -0.7838 H   0  0  0  0  0  0  0  0  0  0  0  0
   -6.0759    4.2709   -1.8361 H   0  0  0  0  0  0  0  0  0  0  0  0
   -4.6382    5.0895   -2.5052 H   0  0  0  0  0  0  0  0  0  0  0  0
   -4.7549    2.3859   -3.2241 H   0  0  0  0  0  0  0  0  0  0  0  0
   -4.5647    0.0391   -3.5446 H   0  0  0  0  0  0  0  0  0  0  0  0
   -2.8495    0.1998   -3.9492 H   0  0  0  0  0  0  0  0  0  0  0  0
   -3.4113   -0.9555   -2.6946 H   0  0  0  0  0  0  0  0  0  0  0  0
   -1.4776   -0.1807    0.3244 H   0  0  0  0  0  0  0  0  0  0  0  0
   -0.0538   -2.7229   -1.6061 H   0  0  0  0  0  0  0  0  0  0  0  0
   -0.8147   -2.3446   -0.0904 H   0  0  0  0  0  0  0  0  0  0  0  0
    1.2407    0.4083    3.1395 H   0  0  0  0  0  0  0  0  0  0  0  0
    2.9753    0.6965    3.0554 H   0  0  0  0  0  0  0  0  0  0  0  0
    4.6028   -1.6137    3.9414 H   0  0  0  0  0  0  0  0  0  0  0  0
    3.7881   -3.6170    5.6206 H   0  0  0  0  0  0  0  0  0  0  0  0
    1.0337   -3.3861    5.6671 H   0  0  0  0  0  0  0  0  0  0  0  0
    5.5759   -0.6771   -0.7730 H   0  0  0  0  0  0  0  0  0  0  0  0
    5.5991   -1.4008   -3.1399 H   0  0  0  0  0  0  0  0  0  0  0  0
    3.4848   -2.1088   -4.2301 H   0  0  0  0  0  0  0  0  0  0  0  0
    1.3898   -2.1054   -3.0011 H   0  0  0  0  0  0  0  0  0  0  0  0
   -2.0731    2.8957    1.9434 H   0  0  0  0  0  0  0  0  0  0  0  0
   -0.8429    1.9284    1.1339 H   0  0  0  0  0  0  0  0  0  0  0  0
   -2.2377    1.1409    1.9398 H   0  0  0  0  0  0  0  0  0  0  0  0
   -3.5185    3.9855    0.5498 H   0  0  0  0  0  0  0  0  0  0  0  0
  1  2  1  0
  2  3  2  0
  3  4  1  0
  4  5  1  0
  4  6  2  0
  6  7  1  0
  7  8  1  0
  8  9  2  0
  8 10  1  0
 10 11  1  0
 11 12  1  0
 12 13  2  0
 12 14  1  0
 14 15  1  0
 15 16  1  0
 16 17  2  0
 17 18  1  0
 18 19  2  0
 19 20  1  0
 14 21  1  0
 21 22  2  0
 21 23  1  0
 23 24  2  0
 24 25  1  0
 25 26  2  0
 26 27  1  0
 27 28  2  0
  6 29  1  0
 29 30  1  0
 29 31  2  0
 31  2  1  0
 28 11  1  0
 20 16  1  0
 28 23  1  0
  1 32  1  0
  1 33  1  0
  1 34  1  0
  3 35  1  0
  5 36  1  0
  5 37  1  0
  5 38  1  0
  7 39  1  0
 10 40  1  0
 10 41  1  0
 15 42  1  0
 15 43  1  0
 17 44  1  0
 18 45  1  0
 19 46  1  0
 24 47  1  0
 25 48  1  0
 26 49  1  0
 27 50  1  0
 30 51  1  0
 30 52  1  0
 30 53  1  0
 31 54  1  0
M  END
$$$$
