
     RDKit          3D

 56 61  0  0  0  0  0  0  0  0999 V2000
    7.9990   -0.4486    1.2651 C   0  0  0  0  0  0  0  0  0  0  0  0
    6.5777   -0.4351    0.7785 C   0  0  0  0  0  0  0  0  0  0  0  0
    5.6201    0.3604    1.4175 C   0  0  0  0  0  0  0  0  0  0  0  0
    4.3032    0.4016    0.9480 C   0  0  0  0  0  0  0  0  0  0  0  0
    3.9288   -0.3547   -0.1696 C   0  0  0  0  0  0  0  0  0  0  0  0
    2.4497   -0.2954   -0.6962 C   0  0  0  0  0  0  0  0  0  0  0  0
    1.4314    0.5180   -0.2100 C   0  0  0  0  0  0  0  0  0  0  0  0
    0.2800    0.3058   -0.9690 N   0  0  0  0  0  4  0  0  0  0  0  0
   -1.0444    0.9179   -0.7659 C   0  0  0  0  0  0  0  0  0  0  0  0
   -2.0362   -0.0877   -0.1439 C   0  0  0  0  0  0  0  0  0  0  0  0
   -1.8481   -1.3014   -0.2554 O   0  0  0  0  0  0  0  0  0  0  0  0
   -3.1662    0.5202    0.4221 N   0  0  0  0  0  0  0  0  0  0  0  0
   -3.0038    1.4100    1.5476 C   0  0  0  0  0  0  0  0  0  0  0  0
   -1.8321    1.3182    2.3372 C   0  0  0  0  0  0  0  0  0  0  0  0
   -1.6212    2.1528    3.4395 C   0  0  0  0  0  0  0  0  0  0  0  0
   -2.5804    3.0951    3.7844 C   0  0  0  0  0  0  0  0  0  0  0  0
   -3.7541    3.1861    3.0374 C   0  0  0  0  0  0  0  0  0  0  0  0
   -3.9772    2.3433    1.9345 C   0  0  0  0  0  0  0  0  0  0  0  0
   -5.4996    2.5545    1.0585 S   0  0  0  0  0  0  0  0  0  0  0  0
   -5.6217    0.9659    0.2766 C   0  0  0  0  0  0  0  0  0  0  0  0
   -6.9074    0.5870   -0.1562 C   0  0  0  0  0  0  0  0  0  0  0  0
   -7.1024   -0.5919   -0.8685 C   0  0  0  0  0  0  0  0  0  0  0  0
   -6.0105   -1.3950   -1.1626 C   0  0  0  0  0  0  0  0  0  0  0  0
   -4.7292   -1.0225   -0.7362 C   0  0  0  0  0  0  0  0  0  0  0  0
   -4.5013    0.1546    0.0081 C   0  0  0  0  0  0  0  0  0  0  0  0
    0.5666   -0.6238   -1.8766 C   0  0  0  0  0  0  0  0  0  0  0  0
    1.8356   -0.9940   -1.7209 N   0  0  0  0  0  0  0  0  0  0  0  0
    2.2094   -2.0500   -2.6517 C   0  0  0  0  0  0  0  0  0  0  0  0
    0.8475   -2.5128   -3.2380 C   0  0  0  0  0  0  0  0  0  0  0  0
   -0.1150   -1.3371   -2.9830 C   0  0  0  0  0  0  0  0  0  0  0  0
    4.8841   -1.1423   -0.8153 C   0  0  0  0  0  0  0  0  0  0  0  0
    6.2019   -1.1767   -0.3464 C   0  0  0  0  0  0  0  0  0  0  0  0
    8.5509    0.3958    0.8345 H   0  0  0  0  0  0  0  0  0  0  0  0
    8.0349   -0.3785    2.3597 H   0  0  0  0  0  0  0  0  0  0  0  0
    8.5017   -1.3805    0.9820 H   0  0  0  0  0  0  0  0  0  0  0  0
    5.8977    0.9513    2.2918 H   0  0  0  0  0  0  0  0  0  0  0  0
    3.5985    1.0308    1.4841 H   0  0  0  0  0  0  0  0  0  0  0  0
    1.3846    1.2423    0.5859 H   0  0  0  0  0  0  0  0  0  0  0  0
   -0.9228    1.8198   -0.1612 H   0  0  0  0  0  0  0  0  0  0  0  0
   -1.4315    1.2166   -1.7466 H   0  0  0  0  0  0  0  0  0  0  0  0
   -1.0805    0.5528    2.1511 H   0  0  0  0  0  0  0  0  0  0  0  0
   -0.7220    2.0504    4.0455 H   0  0  0  0  0  0  0  0  0  0  0  0
   -2.4321    3.7435    4.6462 H   0  0  0  0  0  0  0  0  0  0  0  0
   -4.5068    3.9186    3.3317 H   0  0  0  0  0  0  0  0  0  0  0  0
   -7.7702    1.2209    0.0507 H   0  0  0  0  0  0  0  0  0  0  0  0
   -8.1017   -0.8772   -1.1957 H   0  0  0  0  0  0  0  0  0  0  0  0
   -6.1517   -2.3209   -1.7182 H   0  0  0  0  0  0  0  0  0  0  0  0
   -3.9313   -1.7175   -0.9817 H   0  0  0  0  0  0  0  0  0  0  0  0
    2.7140   -2.8699   -2.1355 H   0  0  0  0  0  0  0  0  0  0  0  0
    2.8494   -1.6254   -3.4302 H   0  0  0  0  0  0  0  0  0  0  0  0
    0.9103   -2.7976   -4.2901 H   0  0  0  0  0  0  0  0  0  0  0  0
    0.5004   -3.3831   -2.6720 H   0  0  0  0  0  0  0  0  0  0  0  0
   -1.1106   -1.6501   -2.6741 H   0  0  0  0  0  0  0  0  0  0  0  0
   -0.1521   -0.6402   -3.8225 H   0  0  0  0  0  0  0  0  0  0  0  0
    4.6486   -1.7351   -1.6887 H   0  0  0  0  0  0  0  0  0  0  0  0
    6.9379   -1.7896   -0.8659 H   0  0  0  0  0  0  0  0  0  0  0  0
  1  2  1  0
  2  3  2  0
  3  4  1  0
  4  5  2  0
  5  6  1  0
  6  7  2  0
  7  8  1  0
  8  9  1  0
  9 10  1  0
 10 11  2  0
 10 12  1  0
 12 13  1  0
 13 14  2  0
 14 15  1  0
 15 16  2  0
 16 17  1  0
 17 18  2  0
 18 19  1  0
 19 20  1  0
 20 21  2  0
 21 22  1  0
 22 23  2  0
 23 24  1  0
 24 25  2  0
  8 26  2  0
 26 27  1  0
 27 28  1  0
 28 29  1  0
 29 30  1  0
  5 31  1  0
 31 32  2  0
 32  2  1  0
 27  6  1  0
 25 12  1  0
 30 26  1  0
 18 13  1  0
 25 20  1  0
  1 33  1  0
  1 34  1  0
  1 35  1  0
  3 36  1  0
  4 37  1  0
  7 38  1  0
  9 39  1  0
  9 40  1  0
 14 41  1  0
 15 42  1  0
 16 43  1  0
 17 44  1  0
 21 45  1  0
 22 46  1  0
 23 47  1  0
 24 48  1  0
 28 49  1  0
 28 50  1  0
 29 51  1  0
 29 52  1  0
 30 53  1  0
 30 54  1  0
 31 55  1  0
 32 56  1  0
M  CHG  1   8   1
M  END
$$$$
