
     RDKit          3D

 31 33  0  0  0  0  0  0  0  0999 V2000
    4.9106    1.2307   -2.2478 C   0  0  0  0  0  0  0  0  0  0  0  0
    4.1780    1.5733   -1.0522 N   0  0  0  0  0  0  0  0  0  0  0  0
    4.5939    2.3888   -0.0434 C   0  0  0  0  0  0  0  0  0  0  0  0
    3.5682    2.4136    0.8706 C   0  0  0  0  0  0  0  0  0  0  0  0
    2.5607    1.5761    0.3283 C   0  0  0  0  0  0  0  0  0  0  0  0
    1.2447    1.2578    0.9159 C   0  0  0  0  0  0  0  0  0  0  0  0
    0.9004    1.7271    1.9930 O   0  0  0  0  0  0  0  0  0  0  0  0
    0.5343    0.4035    0.0926 N   0  0  0  0  0  0  0  0  0  0  0  0
   -0.7297   -0.1220    0.2901 C   0  0  0  0  0  0  0  0  0  0  0  0
   -1.6401    0.2592    1.6995 S   0  0  0  0  0  0  0  0  0  0  0  0
   -2.9069   -0.6958    1.1843 C   0  0  0  0  0  0  0  0  0  0  0  0
   -2.6899   -1.3057   -0.0185 C   0  0  0  0  0  0  0  0  0  0  0  0
   -1.4235   -0.9816   -0.5561 C   0  0  0  0  0  0  0  0  0  0  0  0
   -0.9163   -1.4672   -1.8023 C   0  0  0  0  0  0  0  0  0  0  0  0
   -0.4987   -1.8575   -2.8124 N   0  0  0  0  0  0  0  0  0  0  0  0
   -3.8567   -2.1335   -0.4154 C   0  0  0  0  0  0  0  0  0  0  0  0
   -4.6786   -2.2048    0.9109 C   0  0  0  0  0  0  0  0  0  0  0  0
   -4.2227   -1.0003    1.7916 C   0  0  0  0  0  0  0  0  0  0  0  0
    2.9466    1.0614   -0.8600 N   0  0  0  0  0  0  0  0  0  0  0  0
    4.3301    1.5603   -3.1131 H   0  0  0  0  0  0  0  0  0  0  0  0
    5.0496    0.1469   -2.2673 H   0  0  0  0  0  0  0  0  0  0  0  0
    5.8815    1.7320   -2.2361 H   0  0  0  0  0  0  0  0  0  0  0  0
    5.5602    2.8738   -0.0551 H   0  0  0  0  0  0  0  0  0  0  0  0
    3.5327    2.9554    1.8060 H   0  0  0  0  0  0  0  0  0  0  0  0
    1.0411    0.1533   -0.7562 H   0  0  0  0  0  0  0  0  0  0  0  0
   -4.4351   -1.6303   -1.1972 H   0  0  0  0  0  0  0  0  0  0  0  0
   -3.5728   -3.1323   -0.7581 H   0  0  0  0  0  0  0  0  0  0  0  0
   -5.7582   -2.2037    0.7312 H   0  0  0  0  0  0  0  0  0  0  0  0
   -4.4327   -3.1399    1.4316 H   0  0  0  0  0  0  0  0  0  0  0  0
   -4.9106   -0.1568    1.6744 H   0  0  0  0  0  0  0  0  0  0  0  0
   -4.1601   -1.2817    2.8462 H   0  0  0  0  0  0  0  0  0  0  0  0
  1  2  1  0
  2  3  1  0
  3  4  2  0
  4  5  1  0
  5  6  1  0
  6  7  2  0
  6  8  1  0
  8  9  1  0
  9 10  1  0
 10 11  1  0
 11 12  2  0
 12 13  1  0
 13 14  1  0
 14 15  3  0
 12 16  1  0
 16 17  1  0
 17 18  1  0
  5 19  2  0
 19  2  1  0
 13  9  2  0
 18 11  1  0
  1 20  1  0
  1 21  1  0
  1 22  1  0
  3 23  1  0
  4 24  1  0
  8 25  1  0
 16 26  1  0
 16 27  1  0
 17 28  1  0
 17 29  1  0
 18 30  1  0
 18 31  1  0
M  END
$$$$
