
     RDKit          3D

 98102  0  0  0  0  0  0  0  0999 V2000
    7.0875   -0.1781    2.0139 C   0  0  0  0  0  0  0  0  0  0  0  0
    8.3978   -0.7013    1.4882 C   0  0  0  0  0  0  0  0  0  0  0  0
    9.5814   -0.4186    2.3766 C   0  0  0  0  0  0  0  0  0  0  0  0
    8.5651   -1.3844    0.3360 C   0  0  0  0  0  0  0  0  0  0  0  0
    7.5729   -1.7233   -0.7115 C   0  0  0  0  0  0  0  0  0  0  0  0
    7.7759   -2.6065   -1.5321 O   0  0  0  0  0  0  0  0  0  0  0  0
    6.4987   -0.9103   -0.6687 O   0  0  0  0  0  0  0  0  0  0  0  0
    5.5268   -1.1542   -1.6876 C   0  0  0  0  0  0  0  0  0  0  0  0
    4.3303   -0.2816   -1.3953 C   0  0  0  0  0  0  0  0  0  0  0  0
    3.1367   -0.8098   -1.0709 C   0  0  0  0  0  0  0  0  0  0  0  0
    1.9353    0.0465   -0.7829 C   0  0  0  0  0  0  0  0  0  0  0  0
    0.9339   -0.6781    0.1168 C   0  0  0  0  0  0  0  0  0  0  0  0
    1.0986   -1.0056    1.2815 O   0  0  0  0  0  0  0  0  0  0  0  0
   -0.2027   -0.9233   -0.6007 O   0  0  0  0  0  0  0  0  0  0  0  0
   -1.3387   -1.4624    0.1087 C   0  0  1  0  0  0  0  0  0  0  0  0
   -2.1563   -0.2916    0.6437 C   0  0  0  0  0  0  0  0  0  0  0  0
   -3.5443   -0.7337    1.1066 C   0  0  1  0  0  0  0  0  0  0  0  0
   -4.4499    0.4534    1.5099 C   0  0  0  0  0  0  0  0  0  0  0  0
   -4.5348    1.5265    0.4512 C   0  0  0  0  0  0  0  0  0  0  0  0
   -4.3990    2.8590    0.6121 C   0  0  0  0  0  0  0  0  0  0  0  0
   -4.2908    3.5329    1.9522 C   0  0  0  0  0  0  0  0  0  0  0  0
   -4.3677    3.7671   -0.6125 C   0  0  0  0  0  0  0  0  0  0  0  0
   -3.0295    4.5050   -0.9072 C   0  0  1  0  0  0  0  0  0  0  0  0
   -2.9421    5.8473   -0.1674 C   0  0  0  0  0  0  0  0  0  0  0  0
   -1.8193    3.5998   -0.7431 C   0  0  0  0  0  0  0  0  0  0  0  0
   -0.8816    3.6923    0.2144 C   0  0  0  0  0  0  0  0  0  0  0  0
    0.1883    2.7447    0.4077 C   0  0  0  0  0  0  0  0  0  0  0  0
    1.1244    2.3947   -0.4898 C   0  0  0  0  0  0  0  0  0  0  0  0
    1.3084    2.9317   -1.8832 C   0  0  0  0  0  0  0  0  0  0  0  0
    2.6241    2.4944   -2.3134 O   0  0  0  0  0  0  0  0  0  0  0  0
    3.3597    2.1401   -1.1049 C   0  0  2  0  0  0  0  0  0  0  0  0
    3.9328    3.4561   -0.5231 C   0  0  0  0  0  0  0  0  0  0  0  0
    4.5661    1.2084   -1.4379 C   0  0  2  0  0  0  0  0  0  0  0  0
    5.0682    1.5457   -2.7354 O   0  0  0  0  0  0  0  0  0  0  0  0
    2.2837    1.4581   -0.2327 C   0  0  2  0  0  0  0  0  0  0  0  0
    2.6779    1.4342    1.1327 O   0  0  0  0  0  0  0  0  0  0  0  0
   -4.2129   -1.4731    0.0754 O   0  0  0  0  0  0  0  0  0  0  0  0
   -3.5161   -2.6571   -0.3296 C   0  0  2  0  0  0  0  0  0  0  0  0
   -4.3773   -3.3391   -1.4169 C   0  0  0  0  0  0  0  0  0  0  0  0
   -4.2433   -4.8547   -1.3599 C   0  0  0  0  0  0  0  0  0  0  0  0
   -4.6537   -5.3869    0.0259 C   0  0  2  0  0  0  0  0  0  0  0  0
   -6.1068   -5.8698    0.0257 C   0  0  0  0  0  0  0  0  0  0  0  0
   -4.4331   -4.3179    1.1173 C   0  0  1  0  0  0  0  0  0  0  0  0
   -4.1764   -4.9437    2.4832 C   0  0  0  0  0  0  0  0  0  0  0  0
   -3.2873   -3.5328    0.7818 O   0  0  0  0  0  0  0  0  0  0  0  0
   -2.1529   -2.2637   -0.9039 C   0  0  0  0  0  0  0  0  0  0  0  0
    6.9257    0.8520    1.6777 H   0  0  0  0  0  0  0  0  0  0  0  0
    7.0851   -0.1818    3.1107 H   0  0  0  0  0  0  0  0  0  0  0  0
    6.2386   -0.7984    1.7121 H   0  0  0  0  0  0  0  0  0  0  0  0
   10.5147   -0.8146    1.9643 H   0  0  0  0  0  0  0  0  0  0  0  0
    9.4351   -0.8721    3.3617 H   0  0  0  0  0  0  0  0  0  0  0  0
    9.7062    0.6612    2.5059 H   0  0  0  0  0  0  0  0  0  0  0  0
    9.5512   -1.7668    0.0797 H   0  0  0  0  0  0  0  0  0  0  0  0
    5.2434   -2.2145   -1.6856 H   0  0  0  0  0  0  0  0  0  0  0  0
    5.9473   -0.9064   -2.6692 H   0  0  0  0  0  0  0  0  0  0  0  0
    3.0043   -1.8893   -1.0398 H   0  0  0  0  0  0  0  0  0  0  0  0
    1.4410    0.1539   -1.7617 H   0  0  0  0  0  0  0  0  0  0  0  0
   -1.0161   -2.1204    0.9243 H   0  0  0  0  0  0  0  0  0  0  0  0
   -2.2339    0.4464   -0.1637 H   0  0  0  0  0  0  0  0  0  0  0  0
   -1.6193    0.2089    1.4570 H   0  0  0  0  0  0  0  0  0  0  0  0
   -3.4510   -1.3809    1.9880 H   0  0  0  0  0  0  0  0  0  0  0  0
   -5.4660    0.0833    1.6920 H   0  0  0  0  0  0  0  0  0  0  0  0
   -4.0688    0.8593    2.4508 H   0  0  0  0  0  0  0  0  0  0  0  0
   -4.6721    1.1353   -0.5585 H   0  0  0  0  0  0  0  0  0  0  0  0
   -4.6517    2.9056    2.7718 H   0  0  0  0  0  0  0  0  0  0  0  0
   -3.2537    3.7996    2.1687 H   0  0  0  0  0  0  0  0  0  0  0  0
   -4.8988    4.4434    1.9712 H   0  0  0  0  0  0  0  0  0  0  0  0
   -5.1862    4.4953   -0.5314 H   0  0  0  0  0  0  0  0  0  0  0  0
   -4.6066    3.1713   -1.5062 H   0  0  0  0  0  0  0  0  0  0  0  0
   -3.0568    4.7739   -1.9729 H   0  0  0  0  0  0  0  0  0  0  0  0
   -2.0417    6.3952   -0.4670 H   0  0  0  0  0  0  0  0  0  0  0  0
   -3.8020    6.4778   -0.4164 H   0  0  0  0  0  0  0  0  0  0  0  0
   -2.9174    5.7303    0.9183 H   0  0  0  0  0  0  0  0  0  0  0  0
   -1.7649    2.7819   -1.4624 H   0  0  0  0  0  0  0  0  0  0  0  0
   -0.9536    4.4545    0.9887 H   0  0  0  0  0  0  0  0  0  0  0  0
    0.2241    2.3164    1.4107 H   0  0  0  0  0  0  0  0  0  0  0  0
    1.2863    4.0255   -1.9141 H   0  0  0  0  0  0  0  0  0  0  0  0
    0.5789    2.5208   -2.5867 H   0  0  0  0  0  0  0  0  0  0  0  0
    4.5833    3.9443   -1.2578 H   0  0  0  0  0  0  0  0  0  0  0  0
    3.1536    4.1846   -0.2794 H   0  0  0  0  0  0  0  0  0  0  0  0
    4.5164    3.2752    0.3843 H   0  0  0  0  0  0  0  0  0  0  0  0
    5.3689    1.4110   -0.7196 H   0  0  0  0  0  0  0  0  0  0  0  0
    4.2909    1.8553   -3.2392 H   0  0  0  0  0  0  0  0  0  0  0  0
    2.6029    2.3322    1.4969 H   0  0  0  0  0  0  0  0  0  0  0  0
   -5.4335   -3.0722   -1.2784 H   0  0  0  0  0  0  0  0  0  0  0  0
   -4.1158   -2.9671   -2.4144 H   0  0  0  0  0  0  0  0  0  0  0  0
   -4.8339   -5.3208   -2.1566 H   0  0  0  0  0  0  0  0  0  0  0  0
   -3.1970   -5.1255   -1.5499 H   0  0  0  0  0  0  0  0  0  0  0  0
   -4.0179   -6.2596    0.2331 H   0  0  0  0  0  0  0  0  0  0  0  0
   -6.3895   -6.2703    1.0036 H   0  0  0  0  0  0  0  0  0  0  0  0
   -6.7969   -5.0563   -0.2229 H   0  0  0  0  0  0  0  0  0  0  0  0
   -6.2488   -6.6677   -0.7113 H   0  0  0  0  0  0  0  0  0  0  0  0
   -5.3048   -3.6567    1.2066 H   0  0  0  0  0  0  0  0  0  0  0  0
   -5.0230   -5.5513    2.8146 H   0  0  0  0  0  0  0  0  0  0  0  0
   -3.9969   -4.1624    3.2297 H   0  0  0  0  0  0  0  0  0  0  0  0
   -3.2770   -5.5690    2.4661 H   0  0  0  0  0  0  0  0  0  0  0  0
   -2.2818   -1.6562   -1.8102 H   0  0  0  0  0  0  0  0  0  0  0  0
   -1.5786   -3.1503   -1.1991 H   0  0  0  0  0  0  0  0  0  0  0  0
  1  2  1  0
  2  3  1  0
  2  4  2  3
  4  5  1  0
  5  6  2  0
  5  7  1  0
  7  8  1  0
  8  9  1  0
  9 10  2  0
 10 11  1  0
 11 12  1  0
 12 13  2  0
 12 14  1  0
 14 15  1  0
 15 16  1  0
 16 17  1  0
 17 18  1  0
 18 19  1  0
 19 20  2  0
 20 21  1  0
 20 22  1  0
 22 23  1  0
 23 24  1  0
 23 25  1  0
 25 26  2  0
 26 27  1  0
 27 28  2  0
 28 29  1  0
 29 30  1  0
 30 31  1  0
 31 32  1  1
 31 33  1  0
 33 34  1  0
 31 35  1  0
 35 36  1  1
 17 37  1  0
 38 37  1  1
 38 39  1  0
 39 40  1  0
 40 41  1  0
 41 42  1  0
 41 43  1  0
 43 44  1  0
 43 45  1  0
 38 46  1  0
 33  9  1  0
 45 38  1  0
 35 11  1  0
 46 15  1  0
 35 28  1  0
  1 47  1  0
  1 48  1  0
  1 49  1  0
  3 50  1  0
  3 51  1  0
  3 52  1  0
  4 53  1  0
  8 54  1  0
  8 55  1  0
 10 56  1  0
 11 57  1  0
 15 58  1  1
 16 59  1  0
 16 60  1  0
 17 61  1  1
 18 62  1  0
 18 63  1  0
 19 64  1  0
 21 65  1  0
 21 66  1  0
 21 67  1  0
 22 68  1  0
 22 69  1  0
 23 70  1  6
 24 71  1  0
 24 72  1  0
 24 73  1  0
 25 74  1  0
 26 75  1  0
 27 76  1  0
 29 77  1  0
 29 78  1  0
 32 79  1  0
 32 80  1  0
 32 81  1  0
 33 82  1  1
 34 83  1  0
 36 84  1  0
 39 85  1  0
 39 86  1  0
 40 87  1  0
 40 88  1  0
 41 89  1  1
 42 90  1  0
 42 91  1  0
 42 92  1  0
 43 93  1  1
 44 94  1  0
 44 95  1  0
 44 96  1  0
 46 97  1  0
 46 98  1  0
M  END
$$$$
