
     RDKit          3D

 39 40  0  0  0  0  0  0  0  0999 V2000
   -1.5607   -0.4492   -2.3393 C   0  0  0  0  0  0  0  0  0  0  0  0
   -2.4343   -0.1101   -1.1486 C   0  0  0  0  0  0  0  0  0  0  0  0
   -1.9260    0.1640    0.0683 C   0  0  0  0  0  0  0  0  0  0  0  0
   -0.4643    0.2340    0.3349 C   0  0  0  0  0  0  0  0  0  0  0  0
    0.3733    0.8549   -0.4371 N   0  0  0  0  0  0  0  0  0  0  0  0
    1.6988    0.7908   -0.0883 N   0  0  0  0  0  0  0  0  0  0  0  0
    2.3442   -0.3687    0.3246 C   0  0  0  0  0  0  0  0  0  0  0  0
    1.7768   -1.4297    0.5791 O   0  0  0  0  0  0  0  0  0  0  0  0
    3.8362   -0.2907    0.4502 C   0  0  0  0  0  0  0  0  0  0  0  0
    4.4847   -1.3880    1.0427 C   0  0  0  0  0  0  0  0  0  0  0  0
    5.8701   -1.3889    1.1976 C   0  0  0  0  0  0  0  0  0  0  0  0
    6.7251   -2.8719    1.9994 Br  0  0  0  0  0  0  0  0  0  0  0  0
    6.6313   -0.3053    0.7667 C   0  0  0  0  0  0  0  0  0  0  0  0
    6.0030    0.7896    0.1726 C   0  0  0  0  0  0  0  0  0  0  0  0
    4.6134    0.7956    0.0140 C   0  0  0  0  0  0  0  0  0  0  0  0
    4.0273    1.8796   -0.5861 O   0  0  0  0  0  0  0  0  0  0  0  0
   -2.8418    0.3727    1.2123 C   0  0  0  0  0  0  0  0  0  0  0  0
   -2.3804    0.6519    2.3190 O   0  0  0  0  0  0  0  0  0  0  0  0
   -4.1914    0.2451    0.9608 N   0  0  0  0  0  0  0  0  0  0  0  0
   -5.1152    0.4369    2.0629 C   0  0  0  0  0  0  0  0  0  0  0  0
   -4.7346    0.0783   -0.3039 C   0  0  0  0  0  0  0  0  0  0  0  0
   -5.9533    0.0912   -0.4894 O   0  0  0  0  0  0  0  0  0  0  0  0
   -3.8207   -0.1048   -1.3447 N   0  0  0  0  0  0  0  0  0  0  0  0
   -4.3787   -0.3083   -2.6812 C   0  0  0  0  0  0  0  0  0  0  0  0
   -1.9713   -1.2924   -2.9047 H   0  0  0  0  0  0  0  0  0  0  0  0
   -0.5546   -0.7727   -2.0608 H   0  0  0  0  0  0  0  0  0  0  0  0
   -1.4740    0.4135   -3.0074 H   0  0  0  0  0  0  0  0  0  0  0  0
   -0.1557   -0.2299    1.2892 H   0  0  0  0  0  0  0  0  0  0  0  0
    2.2838    1.5114   -0.5127 H   0  0  0  0  0  0  0  0  0  0  0  0
    3.9024   -2.2419    1.3852 H   0  0  0  0  0  0  0  0  0  0  0  0
    7.7121   -0.3057    0.8876 H   0  0  0  0  0  0  0  0  0  0  0  0
    6.6136    1.6243   -0.1608 H   0  0  0  0  0  0  0  0  0  0  0  0
    4.7166    2.5275   -0.8208 H   0  0  0  0  0  0  0  0  0  0  0  0
   -5.4711    1.4719    2.0379 H   0  0  0  0  0  0  0  0  0  0  0  0
   -5.9751   -0.2326    1.9605 H   0  0  0  0  0  0  0  0  0  0  0  0
   -4.6382    0.2473    3.0286 H   0  0  0  0  0  0  0  0  0  0  0  0
   -5.4447   -0.0681   -2.7262 H   0  0  0  0  0  0  0  0  0  0  0  0
   -4.2577   -1.3597   -2.9598 H   0  0  0  0  0  0  0  0  0  0  0  0
   -3.8688    0.3383   -3.4019 H   0  0  0  0  0  0  0  0  0  0  0  0
  1  2  1  0
  2  3  2  0
  3  4  1  0
  4  5  2  3
  5  6  1  0
  6  7  1  0
  7  8  2  0
  7  9  1  0
  9 10  2  0
 10 11  1  0
 11 12  1  0
 11 13  2  0
 13 14  1  0
 14 15  2  0
 15 16  1  0
  3 17  1  0
 17 18  2  0
 17 19  1  0
 19 20  1  0
 19 21  1  0
 21 22  2  0
 21 23  1  0
 23 24  1  0
 23  2  1  0
 15  9  1  0
  1 25  1  0
  1 26  1  0
  1 27  1  0
  4 28  1  0
  6 29  1  0
 10 30  1  0
 13 31  1  0
 14 32  1  0
 16 33  1  0
 20 34  1  0
 20 35  1  0
 20 36  1  0
 24 37  1  0
 24 38  1  0
 24 39  1  0
M  END
$$$$
