
     RDKit          3D

 38 40  0  0  0  0  0  0  0  0999 V2000
   -7.5656    0.3477   -2.0044 C   0  0  0  0  0  0  0  0  0  0  0  0
   -6.1995   -0.2856   -1.8083 C   0  0  0  0  0  0  0  0  0  0  0  0
   -6.0233   -0.7017   -0.4543 O   0  0  0  0  0  0  0  0  0  0  0  0
   -5.5673    0.3372    0.4186 C   0  0  0  0  0  0  0  0  0  0  0  0
   -4.0805    0.4401    0.3267 C   0  0  0  0  0  0  0  0  0  0  0  0
   -3.4300    1.3997   -0.3017 N   0  0  0  0  0  0  0  0  0  0  0  0
   -2.0623    1.2331   -0.2198 N   0  0  0  0  0  0  0  0  0  0  0  0
   -1.7317    0.1634    0.4698 C   0  0  0  0  0  0  0  0  0  0  0  0
   -0.4265   -0.1960    0.6765 N   0  0  0  0  0  0  0  0  0  0  0  0
    0.0461   -1.2720    1.3902 C   0  0  0  0  0  0  0  0  0  0  0  0
   -0.6188   -2.1137    1.9870 O   0  0  0  0  0  0  0  0  0  0  0  0
    1.5758   -1.3578    1.3914 C   0  0  0  0  0  0  0  0  0  0  0  0
    2.1547   -0.2727    0.6707 O   0  0  0  0  0  0  0  0  0  0  0  0
    3.5212   -0.2362    0.5938 C   0  0  0  0  0  0  0  0  0  0  0  0
    4.4014   -1.1740    1.1667 C   0  0  0  0  0  0  0  0  0  0  0  0
    5.7878   -1.0333    1.0213 C   0  0  0  0  0  0  0  0  0  0  0  0
    6.2547    0.0458    0.3044 C   0  0  0  0  0  0  0  0  0  0  0  0
    5.3991    0.9624   -0.2556 C   0  0  0  0  0  0  0  0  0  0  0  0
    4.0310    0.8492   -0.1287 C   0  0  0  0  0  0  0  0  0  0  0  0
    6.0582    1.9489   -0.9201 O   0  0  0  0  0  0  0  0  0  0  0  0
    7.4286    1.5469   -0.7132 C   0  0  0  0  0  0  0  0  0  0  0  0
    7.5600    0.3380    0.0640 O   0  0  0  0  0  0  0  0  0  0  0  0
   -3.0561   -0.7209    1.0719 S   0  0  0  0  0  0  0  0  0  0  0  0
   -7.7331    0.5850   -3.0590 H   0  0  0  0  0  0  0  0  0  0  0  0
   -7.6655    1.2693   -1.4234 H   0  0  0  0  0  0  0  0  0  0  0  0
   -8.3556   -0.3304   -1.6652 H   0  0  0  0  0  0  0  0  0  0  0  0
   -6.1356   -1.1858   -2.4283 H   0  0  0  0  0  0  0  0  0  0  0  0
   -5.3987    0.3893   -2.1290 H   0  0  0  0  0  0  0  0  0  0  0  0
   -6.0453    1.2942    0.1850 H   0  0  0  0  0  0  0  0  0  0  0  0
   -5.8635    0.0658    1.4376 H   0  0  0  0  0  0  0  0  0  0  0  0
    0.2554    0.4220    0.2502 H   0  0  0  0  0  0  0  0  0  0  0  0
    1.8429   -2.3105    0.9197 H   0  0  0  0  0  0  0  0  0  0  0  0
    1.8973   -1.3288    2.4389 H   0  0  0  0  0  0  0  0  0  0  0  0
    4.0406   -2.0270    1.7333 H   0  0  0  0  0  0  0  0  0  0  0  0
    6.4744   -1.7500    1.4584 H   0  0  0  0  0  0  0  0  0  0  0  0
    3.3737    1.5846   -0.5790 H   0  0  0  0  0  0  0  0  0  0  0  0
    7.8988    1.3881   -1.6905 H   0  0  0  0  0  0  0  0  0  0  0  0
    7.9570    2.3558   -0.1956 H   0  0  0  0  0  0  0  0  0  0  0  0
  1  2  1  0
  2  3  1  0
  3  4  1  0
  4  5  1  0
  5  6  2  0
  6  7  1  0
  7  8  2  0
  8  9  1  0
  9 10  1  0
 10 11  2  0
 10 12  1  0
 12 13  1  0
 13 14  1  0
 14 15  2  0
 15 16  1  0
 16 17  2  0
 17 18  1  0
 18 19  2  0
 18 20  1  0
 20 21  1  0
 21 22  1  0
  8 23  1  0
 23  5  1  0
 19 14  1  0
 22 17  1  0
  1 24  1  0
  1 25  1  0
  1 26  1  0
  2 27  1  0
  2 28  1  0
  4 29  1  0
  4 30  1  0
  9 31  1  0
 12 32  1  0
 12 33  1  0
 15 34  1  0
 16 35  1  0
 19 36  1  0
 21 37  1  0
 21 38  1  0
M  END
$$$$
