
     RDKit          3D

 57 59  0  0  0  0  0  0  0  0999 V2000
    4.2744   -3.2990    1.2548 C   0  0  0  0  0  0  0  0  0  0  0  0
    5.1402   -2.2722    0.7976 O   0  0  0  0  0  0  0  0  0  0  0  0
    4.5494   -1.2012    0.1896 C   0  0  0  0  0  0  0  0  0  0  0  0
    5.4340   -0.3254   -0.4412 C   0  0  0  0  0  0  0  0  0  0  0  0
    4.9656    0.8088   -1.1115 C   0  0  0  0  0  0  0  0  0  0  0  0
    3.6006    1.0787   -1.1479 C   0  0  0  0  0  0  0  0  0  0  0  0
    3.0183    2.1572   -1.7574 O   0  0  0  0  0  0  0  0  0  0  0  0
    3.7966    2.8094   -2.7677 C   0  0  0  0  0  0  0  0  0  0  0  0
    2.9354    3.8651   -3.4580 C   0  0  0  0  0  0  0  0  0  0  0  0
    1.8669    3.2356   -4.7934 S   0  0  0  0  0  0  0  0  0  0  0  0
    0.9382    2.0068   -4.0137 C   0  0  0  0  0  0  0  0  0  0  0  0
    0.9651    0.7321   -4.3321 N   0  0  0  0  0  0  0  0  0  0  0  0
    0.0781    0.0774   -3.5145 N   0  0  0  0  0  0  0  0  0  0  0  0
   -0.4874    0.9661   -2.7236 C   0  0  0  0  0  0  0  0  0  0  0  0
   -1.4973    0.6960   -1.6618 C   0  0  0  0  0  0  0  0  0  0  0  0
   -1.4610   -0.7618   -1.1928 C   0  0  0  0  0  0  0  0  0  0  0  0
   -2.4442   -1.0400   -0.1576 N   0  0  0  0  0  0  0  0  0  0  0  0
   -2.2623   -0.5895    1.1343 C   0  0  0  0  0  0  0  0  0  0  0  0
   -1.3364    0.1446    1.4689 O   0  0  0  0  0  0  0  0  0  0  0  0
   -3.2507   -1.0608    2.1423 C   0  0  0  0  0  0  0  0  0  0  0  0
   -2.8494   -1.1663    3.4743 C   0  0  0  0  0  0  0  0  0  0  0  0
   -3.7483   -1.5951    4.4580 C   0  0  0  0  0  0  0  0  0  0  0  0
   -5.0595   -1.9085    4.1177 C   0  0  0  0  0  0  0  0  0  0  0  0
   -6.0359   -2.3253    4.9777 O   0  0  0  0  0  0  0  0  0  0  0  0
   -5.6881   -2.4219    6.3529 C   0  0  0  0  0  0  0  0  0  0  0  0
   -5.4622   -1.7912    2.7876 C   0  0  0  0  0  0  0  0  0  0  0  0
   -4.5687   -1.3691    1.7994 C   0  0  0  0  0  0  0  0  0  0  0  0
    0.0006    2.2139   -3.0409 N   0  0  0  0  0  0  0  0  0  0  0  0
   -0.4289    3.4668   -2.4760 C   0  0  0  0  0  0  0  0  0  0  0  0
    2.7200    0.2173   -0.4933 C   0  0  0  0  0  0  0  0  0  0  0  0
    3.1869   -0.9227    0.1678 C   0  0  0  0  0  0  0  0  0  0  0  0
    3.6476   -2.9493    2.0821 H   0  0  0  0  0  0  0  0  0  0  0  0
    3.6652   -3.6966    0.4368 H   0  0  0  0  0  0  0  0  0  0  0  0
    4.8980   -4.1130    1.6313 H   0  0  0  0  0  0  0  0  0  0  0  0
    6.5008   -0.5302   -0.4172 H   0  0  0  0  0  0  0  0  0  0  0  0
    5.6947    1.4587   -1.5803 H   0  0  0  0  0  0  0  0  0  0  0  0
    4.1966    2.0916   -3.4958 H   0  0  0  0  0  0  0  0  0  0  0  0
    4.6285    3.3329   -2.2767 H   0  0  0  0  0  0  0  0  0  0  0  0
    2.3174    4.4000   -2.7303 H   0  0  0  0  0  0  0  0  0  0  0  0
    3.5932    4.5989   -3.9308 H   0  0  0  0  0  0  0  0  0  0  0  0
   -2.4933    0.9296   -2.0487 H   0  0  0  0  0  0  0  0  0  0  0  0
   -1.3251    1.3692   -0.8073 H   0  0  0  0  0  0  0  0  0  0  0  0
   -1.6829   -1.4400   -2.0282 H   0  0  0  0  0  0  0  0  0  0  0  0
   -0.4677   -1.0265   -0.8013 H   0  0  0  0  0  0  0  0  0  0  0  0
   -3.0476   -1.8362   -0.3035 H   0  0  0  0  0  0  0  0  0  0  0  0
   -1.8277   -0.9087    3.7533 H   0  0  0  0  0  0  0  0  0  0  0  0
   -3.3900   -1.6618    5.4810 H   0  0  0  0  0  0  0  0  0  0  0  0
   -6.5866   -2.7197    6.9026 H   0  0  0  0  0  0  0  0  0  0  0  0
   -4.9258   -3.1940    6.5118 H   0  0  0  0  0  0  0  0  0  0  0  0
   -5.3612   -1.4555    6.7516 H   0  0  0  0  0  0  0  0  0  0  0  0
   -6.4872   -2.0190    2.5210 H   0  0  0  0  0  0  0  0  0  0  0  0
   -4.9286   -1.2614    0.7792 H   0  0  0  0  0  0  0  0  0  0  0  0
   -0.4446    4.2359   -3.2513 H   0  0  0  0  0  0  0  0  0  0  0  0
   -1.4393    3.3687   -2.0719 H   0  0  0  0  0  0  0  0  0  0  0  0
    0.2641    3.7363   -1.6756 H   0  0  0  0  0  0  0  0  0  0  0  0
    1.6541    0.4248   -0.5036 H   0  0  0  0  0  0  0  0  0  0  0  0
    2.4574   -1.5605    0.6529 H   0  0  0  0  0  0  0  0  0  0  0  0
  1  2  1  0
  2  3  1  0
  3  4  2  0
  4  5  1  0
  5  6  2  0
  6  7  1  0
  7  8  1  0
  8  9  1  0
  9 10  1  0
 10 11  1  0
 11 12  2  0
 12 13  1  0
 13 14  2  0
 14 15  1  0
 15 16  1  0
 16 17  1  0
 17 18  1  0
 18 19  2  0
 18 20  1  0
 20 21  2  0
 21 22  1  0
 22 23  2  0
 23 24  1  0
 24 25  1  0
 23 26  1  0
 26 27  2  0
 14 28  1  0
 28 29  1  0
  6 30  1  0
 30 31  2  0
 31  3  1  0
 28 11  1  0
 27 20  1  0
  1 32  1  0
  1 33  1  0
  1 34  1  0
  4 35  1  0
  5 36  1  0
  8 37  1  0
  8 38  1  0
  9 39  1  0
  9 40  1  0
 15 41  1  0
 15 42  1  0
 16 43  1  0
 16 44  1  0
 17 45  1  0
 21 46  1  0
 22 47  1  0
 25 48  1  0
 25 49  1  0
 25 50  1  0
 26 51  1  0
 27 52  1  0
 29 53  1  0
 29 54  1  0
 29 55  1  0
 30 56  1  0
 31 57  1  0
M  END
$$$$
