
     RDKit          3D

 44 46  0  0  0  0  0  0  0  0999 V2000
   -4.7290   -0.6126    4.3846 C   0  0  0  0  0  0  0  0  0  0  0  0
   -3.6891   -0.3110    3.3398 C   0  0  0  0  0  0  0  0  0  0  0  0
   -4.0019   -0.5119    1.9837 C   0  0  0  0  0  0  0  0  0  0  0  0
   -3.0723   -0.2575    0.9598 C   0  0  0  0  0  0  0  0  0  0  0  0
   -3.5008   -0.4737   -0.4648 C   0  0  0  0  0  0  0  0  0  0  0  0
   -1.8044    0.2251    1.3244 C   0  0  0  0  0  0  0  0  0  0  0  0
   -0.5565    0.6155    0.1056 S   0  0  0  0  0  6  0  0  0  0  0  0
    0.5863    1.1745    0.7988 O   0  0  0  0  0  0  0  0  0  0  0  0
   -1.1917    1.3163   -0.9880 O   0  0  0  0  0  0  0  0  0  0  0  0
   -0.0927   -0.9538   -0.3870 N   0  0  0  0  0  0  0  0  0  0  0  0
    0.7777   -0.9681   -1.5269 C   0  0  0  0  0  0  0  0  0  0  0  0
    0.2300   -0.9392   -2.8064 C   0  0  0  0  0  0  0  0  0  0  0  0
    1.0718   -0.9211   -3.9167 C   0  0  0  0  0  0  0  0  0  0  0  0
    2.4559   -0.9069   -3.7432 C   0  0  0  0  0  0  0  0  0  0  0  0
    3.1992   -0.8825   -4.8914 O   0  0  0  0  0  0  0  0  0  0  0  0
    3.0213   -0.9165   -2.4601 C   0  0  0  0  0  0  0  0  0  0  0  0
    4.7786   -0.9764   -2.1446 S   0  0  0  0  0  0  0  0  0  0  0  0
    5.3094    0.5422   -2.8045 C   0  0  0  0  0  0  0  0  0  0  0  0
    5.2334    0.8188   -4.1470 N   0  0  0  0  0  0  0  0  0  0  0  0
    5.7338    2.0314   -4.2221 C   0  0  0  0  0  0  0  0  0  0  0  0
    6.0948    2.4524   -2.9791 N   0  0  0  0  0  0  0  0  0  0  0  0
    5.8502    1.5076   -2.0574 N   0  0  0  0  0  0  0  0  0  0  0  0
    2.1643   -0.9435   -1.3502 C   0  0  0  0  0  0  0  0  0  0  0  0
   -1.4809    0.4289    2.6759 C   0  0  0  0  0  0  0  0  0  0  0  0
   -2.4086    0.1513    3.6912 C   0  0  0  0  0  0  0  0  0  0  0  0
   -2.0231    0.3920    5.1252 C   0  0  0  0  0  0  0  0  0  0  0  0
   -4.8657    0.2468    5.0491 H   0  0  0  0  0  0  0  0  0  0  0  0
   -5.7017   -0.8313    3.9320 H   0  0  0  0  0  0  0  0  0  0  0  0
   -4.4291   -1.4852    4.9719 H   0  0  0  0  0  0  0  0  0  0  0  0
   -4.9955   -0.8728    1.7196 H   0  0  0  0  0  0  0  0  0  0  0  0
   -3.6976    0.4868   -0.9527 H   0  0  0  0  0  0  0  0  0  0  0  0
   -4.4229   -1.0650   -0.5155 H   0  0  0  0  0  0  0  0  0  0  0  0
   -2.7479   -1.0316   -1.0281 H   0  0  0  0  0  0  0  0  0  0  0  0
    0.3402   -1.4095    0.4186 H   0  0  0  0  0  0  0  0  0  0  0  0
   -0.8473   -0.9315   -2.9459 H   0  0  0  0  0  0  0  0  0  0  0  0
    0.6521   -0.9063   -4.9181 H   0  0  0  0  0  0  0  0  0  0  0  0
    4.0670   -0.4786   -4.6854 H   0  0  0  0  0  0  0  0  0  0  0  0
    5.8568    2.6320   -5.1132 H   0  0  0  0  0  0  0  0  0  0  0  0
    6.5130    3.3305   -2.6949 H   0  0  0  0  0  0  0  0  0  0  0  0
    2.5811   -0.9377   -0.3461 H   0  0  0  0  0  0  0  0  0  0  0  0
   -0.4985    0.8117    2.9476 H   0  0  0  0  0  0  0  0  0  0  0  0
   -2.5588    1.2615    5.5198 H   0  0  0  0  0  0  0  0  0  0  0  0
   -0.9509    0.5838    5.2233 H   0  0  0  0  0  0  0  0  0  0  0  0
   -2.2499   -0.4849    5.7387 H   0  0  0  0  0  0  0  0  0  0  0  0
  1  2  1  0
  2  3  2  0
  3  4  1  0
  4  5  1  0
  4  6  2  0
  6  7  1  0
  7  8  2  0
  7  9  2  0
  7 10  1  0
 10 11  1  0
 11 12  2  0
 12 13  1  0
 13 14  2  0
 14 15  1  0
 14 16  1  0
 16 17  1  0
 17 18  1  0
 18 19  1  0
 19 20  2  0
 20 21  1  0
 21 22  1  0
 16 23  2  0
  6 24  1  0
 24 25  2  0
 25 26  1  0
 25  2  1  0
 23 11  1  0
 22 18  2  0
  1 27  1  0
  1 28  1  0
  1 29  1  0
  3 30  1  0
  5 31  1  0
  5 32  1  0
  5 33  1  0
 10 34  1  0
 12 35  1  0
 13 36  1  0
 15 37  1  0
 20 38  1  0
 21 39  1  0
 23 40  1  0
 24 41  1  0
 26 42  1  0
 26 43  1  0
 26 44  1  0
M  END
$$$$
