
     RDKit          3D

 52 51  0  0  0  0  0  0  0  0999 V2000
   -7.1689    1.4274    0.5380 C   0  0  0  0  0  0  0  0  0  0  0  0
   -5.9771    1.3313    0.6563 C   0  0  0  0  0  0  0  0  0  0  0  0
   -4.5248    1.2117    0.8210 C   0  0  0  0  0  0  0  0  0  0  0  0
   -3.7967    1.0507   -0.5238 N   0  0  0  0  0  4  0  0  0  0  0  0
   -4.1334    2.2470   -1.4347 C   0  0  0  0  0  0  0  0  0  0  0  0
   -4.2579   -0.2136   -1.2432 C   0  0  0  0  0  0  0  0  0  0  0  0
   -2.2672    1.0737   -0.3319 C   0  0  0  0  0  0  0  0  0  0  0  0
   -1.6780    0.2300    0.8054 C   0  0  0  0  0  0  0  0  0  0  0  0
   -1.7826   -1.2853    0.6417 C   0  0  0  0  0  0  0  0  0  0  0  0
   -0.9326   -2.0725    1.6481 C   0  0  0  0  0  0  0  0  0  0  0  0
    0.5837   -1.8655    1.5616 C   0  0  0  0  0  0  0  0  0  0  0  0
    1.1637   -2.1858    0.1821 C   0  0  0  0  0  0  0  0  0  0  0  0
    2.6956   -2.1877    0.1546 C   0  0  0  0  0  0  0  0  0  0  0  0
    3.3083   -0.8104    0.4234 C   0  0  0  0  0  0  0  0  0  0  0  0
    4.8300   -0.8427    0.2612 C   0  0  0  0  0  0  0  0  0  0  0  0
    5.5107    0.4778    0.6349 C   0  0  0  0  0  0  0  0  0  0  0  0
    5.0820    1.7006   -0.1798 C   0  0  0  0  0  0  0  0  0  0  0  0
    5.3393    1.5582   -1.6716 C   0  0  0  0  0  0  0  0  0  0  0  0
   -8.2297    1.5132    0.4480 H   0  0  0  0  0  0  0  0  0  0  0  0
   -4.1093    2.1010    1.3077 H   0  0  0  0  0  0  0  0  0  0  0  0
   -4.2948    0.3305    1.4275 H   0  0  0  0  0  0  0  0  0  0  0  0
   -3.5277    2.1631   -2.3427 H   0  0  0  0  0  0  0  0  0  0  0  0
   -5.1943    2.2201   -1.6976 H   0  0  0  0  0  0  0  0  0  0  0  0
   -3.8944    3.1699   -0.8977 H   0  0  0  0  0  0  0  0  0  0  0  0
   -4.2623   -1.0494   -0.5449 H   0  0  0  0  0  0  0  0  0  0  0  0
   -5.2733   -0.0594   -1.6213 H   0  0  0  0  0  0  0  0  0  0  0  0
   -3.5811   -0.4055   -2.0805 H   0  0  0  0  0  0  0  0  0  0  0  0
   -2.0033    2.1205   -0.1333 H   0  0  0  0  0  0  0  0  0  0  0  0
   -1.8152    0.7985   -1.2925 H   0  0  0  0  0  0  0  0  0  0  0  0
   -0.6172    0.5033    0.8515 H   0  0  0  0  0  0  0  0  0  0  0  0
   -2.0941    0.5304    1.7733 H   0  0  0  0  0  0  0  0  0  0  0  0
   -2.8180   -1.5941    0.8079 H   0  0  0  0  0  0  0  0  0  0  0  0
   -1.5216   -1.5774   -0.3810 H   0  0  0  0  0  0  0  0  0  0  0  0
   -1.2602   -1.8211    2.6647 H   0  0  0  0  0  0  0  0  0  0  0  0
   -1.1462   -3.1405    1.5129 H   0  0  0  0  0  0  0  0  0  0  0  0
    1.0562   -2.5147    2.3095 H   0  0  0  0  0  0  0  0  0  0  0  0
    0.8313   -0.8386    1.8489 H   0  0  0  0  0  0  0  0  0  0  0  0
    0.8144   -3.1768   -0.1327 H   0  0  0  0  0  0  0  0  0  0  0  0
    0.7949   -1.4673   -0.5588 H   0  0  0  0  0  0  0  0  0  0  0  0
    3.0188   -2.5366   -0.8341 H   0  0  0  0  0  0  0  0  0  0  0  0
    3.0759   -2.9122    0.8849 H   0  0  0  0  0  0  0  0  0  0  0  0
    3.0632   -0.4825    1.4396 H   0  0  0  0  0  0  0  0  0  0  0  0
    2.8725   -0.0832   -0.2706 H   0  0  0  0  0  0  0  0  0  0  0  0
    5.2418   -1.6298    0.9056 H   0  0  0  0  0  0  0  0  0  0  0  0
    5.0892   -1.1209   -0.7668 H   0  0  0  0  0  0  0  0  0  0  0  0
    6.5955    0.3476    0.5336 H   0  0  0  0  0  0  0  0  0  0  0  0
    5.3242    0.6855    1.6959 H   0  0  0  0  0  0  0  0  0  0  0  0
    5.6394    2.5707    0.1879 H   0  0  0  0  0  0  0  0  0  0  0  0
    4.0224    1.9204   -0.0101 H   0  0  0  0  0  0  0  0  0  0  0  0
    6.3879    1.3137   -1.8682 H   0  0  0  0  0  0  0  0  0  0  0  0
    5.1089    2.4980   -2.1837 H   0  0  0  0  0  0  0  0  0  0  0  0
    4.7123    0.7785   -2.1139 H   0  0  0  0  0  0  0  0  0  0  0  0
  1  2  3  0
  2  3  1  0
  3  4  1  0
  4  5  1  0
  4  6  1  0
  4  7  1  0
  7  8  1  0
  8  9  1  0
  9 10  1  0
 10 11  1  0
 11 12  1  0
 12 13  1  0
 13 14  1  0
 14 15  1  0
 15 16  1  0
 16 17  1  0
 17 18  1  0
  1 19  1  0
  3 20  1  0
  3 21  1  0
  5 22  1  0
  5 23  1  0
  5 24  1  0
  6 25  1  0
  6 26  1  0
  6 27  1  0
  7 28  1  0
  7 29  1  0
  8 30  1  0
  8 31  1  0
  9 32  1  0
  9 33  1  0
 10 34  1  0
 10 35  1  0
 11 36  1  0
 11 37  1  0
 12 38  1  0
 12 39  1  0
 13 40  1  0
 13 41  1  0
 14 42  1  0
 14 43  1  0
 15 44  1  0
 15 45  1  0
 16 46  1  0
 16 47  1  0
 17 48  1  0
 17 49  1  0
 18 50  1  0
 18 51  1  0
 18 52  1  0
M  CHG  1   4   1
M  END
$$$$
