
     RDKit          3D

 53 55  0  0  0  0  0  0  0  0999 V2000
   -6.0199   -4.9453    0.1944 C   0  0  0  0  0  0  0  0  0  0  0  0
   -6.2959   -3.9906    1.2119 O   0  0  0  0  0  0  0  0  0  0  0  0
   -5.2335   -3.2842    1.7033 C   0  0  0  0  0  0  0  0  0  0  0  0
   -3.9056   -3.4033    1.2880 C   0  0  0  0  0  0  0  0  0  0  0  0
   -2.9114   -2.6139    1.8760 C   0  0  0  0  0  0  0  0  0  0  0  0
   -3.2522   -1.6888    2.8673 C   0  0  0  0  0  0  0  0  0  0  0  0
   -1.9830   -0.6980    3.6319 S   0  0  0  0  0  6  0  0  0  0  0  0
   -0.7207   -1.3711    3.4164 O   0  0  0  0  0  0  0  0  0  0  0  0
   -2.4398   -0.3659    4.9643 O   0  0  0  0  0  0  0  0  0  0  0  0
   -1.9680    0.7142    2.7296 N   0  0  0  0  0  0  0  0  0  0  0  0
   -3.1267    1.6109    2.7437 C   0  0  0  0  0  0  0  0  0  0  0  0
   -3.4986    1.7074    1.2811 C   0  0  0  0  0  0  0  0  0  0  0  0
   -2.2448    1.6062    0.5994 O   0  0  0  0  0  0  0  0  0  0  0  0
   -1.4630    0.6523    1.3530 C   0  0  0  0  0  0  0  0  0  0  0  0
    0.0183    1.0564    1.2751 C   0  0  0  0  0  0  0  0  0  0  0  0
    0.5098    1.0696   -0.0935 N   0  0  0  0  0  0  0  0  0  0  0  0
    1.8539    1.0490   -0.3816 C   0  0  0  0  0  0  0  0  0  0  0  0
    2.7612    0.8436    0.4119 O   0  0  0  0  0  0  0  0  0  0  0  0
    2.1746    1.3284   -1.8676 C   0  0  0  0  0  0  0  0  0  0  0  0
    1.2704    1.5316   -2.6651 O   0  0  0  0  0  0  0  0  0  0  0  0
    3.5176    1.3126   -2.1532 N   0  0  0  0  0  0  0  0  0  0  0  0
    4.0030    1.4019   -3.5036 C   0  0  0  0  0  0  0  0  0  0  0  0
    5.4876    1.6480   -3.5254 C   0  0  0  0  0  0  0  0  0  0  0  0
    5.9882    2.9583   -3.4531 C   0  0  0  0  0  0  0  0  0  0  0  0
    7.3648    3.1885   -3.4472 C   0  0  0  0  0  0  0  0  0  0  0  0
    8.2399    2.1110   -3.5057 C   0  0  0  0  0  0  0  0  0  0  0  0
    9.5608    2.3329   -3.4991 F   0  0  0  0  0  0  0  0  0  0  0  0
    7.7656    0.8060   -3.5656 C   0  0  0  0  0  0  0  0  0  0  0  0
    6.3891    0.5727   -3.5715 C   0  0  0  0  0  0  0  0  0  0  0  0
   -4.5715   -1.5883    3.3127 C   0  0  0  0  0  0  0  0  0  0  0  0
   -5.5571   -2.3798    2.7201 C   0  0  0  0  0  0  0  0  0  0  0  0
   -6.9656   -5.4206   -0.0836 H   0  0  0  0  0  0  0  0  0  0  0  0
   -5.3481   -5.7290    0.5595 H   0  0  0  0  0  0  0  0  0  0  0  0
   -5.6145   -4.4617   -0.7006 H   0  0  0  0  0  0  0  0  0  0  0  0
   -3.6082   -4.1073    0.5171 H   0  0  0  0  0  0  0  0  0  0  0  0
   -1.8774   -2.7356    1.5594 H   0  0  0  0  0  0  0  0  0  0  0  0
   -3.9617    1.2757    3.3602 H   0  0  0  0  0  0  0  0  0  0  0  0
   -2.7921    2.5827    3.1230 H   0  0  0  0  0  0  0  0  0  0  0  0
   -3.9923    2.6494    1.0276 H   0  0  0  0  0  0  0  0  0  0  0  0
   -4.1339    0.8720    0.9659 H   0  0  0  0  0  0  0  0  0  0  0  0
   -1.6216   -0.3236    0.8861 H   0  0  0  0  0  0  0  0  0  0  0  0
    0.1565    2.0737    1.6608 H   0  0  0  0  0  0  0  0  0  0  0  0
    0.6451    0.3868    1.8732 H   0  0  0  0  0  0  0  0  0  0  0  0
   -0.0948    1.4455   -0.8224 H   0  0  0  0  0  0  0  0  0  0  0  0
    4.1425    1.0366   -1.3999 H   0  0  0  0  0  0  0  0  0  0  0  0
    3.4681    2.2000   -4.0325 H   0  0  0  0  0  0  0  0  0  0  0  0
    3.7564    0.4649   -4.0173 H   0  0  0  0  0  0  0  0  0  0  0  0
    5.3052    3.8040   -3.3979 H   0  0  0  0  0  0  0  0  0  0  0  0
    7.7582    4.1989   -3.3947 H   0  0  0  0  0  0  0  0  0  0  0  0
    8.4693   -0.0191   -3.6036 H   0  0  0  0  0  0  0  0  0  0  0  0
    6.0238   -0.4516   -3.6108 H   0  0  0  0  0  0  0  0  0  0  0  0
   -4.8406   -0.9129    4.1217 H   0  0  0  0  0  0  0  0  0  0  0  0
   -6.5876   -2.3029    3.0610 H   0  0  0  0  0  0  0  0  0  0  0  0
  1  2  1  0
  2  3  1  0
  3  4  2  0
  4  5  1  0
  5  6  2  0
  6  7  1  0
  7  8  2  0
  7  9  2  0
  7 10  1  0
 10 11  1  0
 11 12  1  0
 12 13  1  0
 13 14  1  0
 14 15  1  0
 15 16  1  0
 16 17  1  0
 17 18  2  0
 17 19  1  0
 19 20  2  0
 19 21  1  0
 21 22  1  0
 22 23  1  0
 23 24  2  0
 24 25  1  0
 25 26  2  0
 26 27  1  0
 26 28  1  0
 28 29  2  0
  6 30  1  0
 30 31  2  0
 31  3  1  0
 14 10  1  0
 29 23  1  0
  1 32  1  0
  1 33  1  0
  1 34  1  0
  4 35  1  0
  5 36  1  0
 11 37  1  0
 11 38  1  0
 12 39  1  0
 12 40  1  0
 14 41  1  0
 15 42  1  0
 15 43  1  0
 16 44  1  0
 21 45  1  0
 22 46  1  0
 22 47  1  0
 24 48  1  0
 25 49  1  0
 28 50  1  0
 29 51  1  0
 30 52  1  0
 31 53  1  0
M  END
$$$$
