
     RDKit          3D

 33 34  0  0  0  0  0  0  0  0999 V2000
   -2.2292    1.8823    1.3372 C   0  0  0  0  0  0  0  0  0  0  0  0
   -2.1697    0.4062    0.9658 C   0  0  0  0  0  0  0  0  0  0  0  0
   -1.5869    0.2158   -0.3817 N   0  0  0  0  0  0  0  0  0  0  0  0
   -1.9510   -1.0713   -1.0107 C   0  0  0  0  0  0  0  0  0  0  0  0
   -3.2714   -0.9182   -1.7557 C   0  0  0  0  0  0  0  0  0  0  0  0
   -0.1629    0.3982   -0.3727 C   0  0  0  0  0  0  0  0  0  0  0  0
    0.2873    1.5488   -1.0496 C   0  0  0  0  0  0  0  0  0  0  0  0
    1.6366    1.8485   -1.1165 C   0  0  0  0  0  0  0  0  0  0  0  0
    2.5386    0.9831   -0.4965 C   0  0  0  0  0  0  0  0  0  0  0  0
    3.9416    1.3445   -0.5810 N   0  0  0  0  0  4  0  0  0  0  0  0
    4.4394    1.4034   -1.7130 O   0  0  0  0  0  0  0  0  0  0  0  0
    4.5322    1.5848    0.4803 O   0  0  0  0  0  1  0  0  0  0  0  0
    2.1391   -0.1966    0.1846 C   0  0  0  0  0  0  0  0  0  0  0  0
    3.0306   -1.1126    0.7996 C   0  0  0  0  0  0  0  0  0  0  0  0
    2.5585   -2.2471    1.4437 C   0  0  0  0  0  0  0  0  0  0  0  0
    1.2001   -2.4495    1.4585 C   0  0  0  0  0  0  0  0  0  0  0  0
    0.3170   -1.6096    0.8816 N   0  0  0  0  0  0  0  0  0  0  0  0
    0.7570   -0.4942    0.2477 C   0  0  0  0  0  0  0  0  0  0  0  0
   -2.7491    2.4607    0.5661 H   0  0  0  0  0  0  0  0  0  0  0  0
   -1.2287    2.3076    1.4632 H   0  0  0  0  0  0  0  0  0  0  0  0
   -2.7666    2.0117    2.2820 H   0  0  0  0  0  0  0  0  0  0  0  0
   -3.1996    0.0294    0.9690 H   0  0  0  0  0  0  0  0  0  0  0  0
   -1.6358   -0.1568    1.7394 H   0  0  0  0  0  0  0  0  0  0  0  0
   -1.1969   -1.3835   -1.7453 H   0  0  0  0  0  0  0  0  0  0  0  0
   -2.0416   -1.8703   -0.2649 H   0  0  0  0  0  0  0  0  0  0  0  0
   -3.5337   -1.8547   -2.2578 H   0  0  0  0  0  0  0  0  0  0  0  0
   -3.2024   -0.1308   -2.5138 H   0  0  0  0  0  0  0  0  0  0  0  0
   -4.0895   -0.6578   -1.0770 H   0  0  0  0  0  0  0  0  0  0  0  0
   -0.4406    2.2053   -1.5226 H   0  0  0  0  0  0  0  0  0  0  0  0
    1.9713    2.7400   -1.6412 H   0  0  0  0  0  0  0  0  0  0  0  0
    4.1072   -0.9519    0.7866 H   0  0  0  0  0  0  0  0  0  0  0  0
    3.2346   -2.9485    1.9191 H   0  0  0  0  0  0  0  0  0  0  0  0
    0.7647   -3.3167    1.9463 H   0  0  0  0  0  0  0  0  0  0  0  0
  1  2  1  0
  2  3  1  0
  3  4  1  0
  4  5  1  0
  3  6  1  0
  6  7  2  0
  7  8  1  0
  8  9  2  0
  9 10  1  0
 10 11  2  0
 10 12  1  0
  9 13  1  0
 13 14  2  0
 14 15  1  0
 15 16  2  0
 16 17  1  0
 17 18  2  0
 18  6  1  0
 18 13  1  0
  1 19  1  0
  1 20  1  0
  1 21  1  0
  2 22  1  0
  2 23  1  0
  4 24  1  0
  4 25  1  0
  5 26  1  0
  5 27  1  0
  5 28  1  0
  7 29  1  0
  8 30  1  0
 14 31  1  0
 15 32  1  0
 16 33  1  0
M  CHG  2  10   1  12  -1
M  END
$$$$
