
     RDKit          3D

 51 54  0  0  0  0  0  0  0  0999 V2000
    5.6858    1.6441   -4.3510 C   0  0  0  0  0  0  0  0  0  0  0  0
    5.7821    1.5309   -2.8373 C   0  0  0  0  0  0  0  0  0  0  0  0
    4.4270    1.5990   -2.1828 C   0  0  0  0  0  0  0  0  0  0  0  0
    3.6788    0.4392   -1.9705 C   0  0  0  0  0  0  0  0  0  0  0  0
    2.4117    0.5069   -1.3775 C   0  0  0  0  0  0  0  0  0  0  0  0
    1.8507    1.7323   -0.9814 C   0  0  0  0  0  0  0  0  0  0  0  0
    0.5353    1.7952   -0.3710 N   0  0  0  0  0  0  0  0  0  0  0  0
   -0.2914    2.8825   -0.6791 C   0  0  0  0  0  0  0  0  0  0  0  0
   -0.0092    3.8188   -1.4282 O   0  0  0  0  0  0  0  0  0  0  0  0
   -1.6455    2.8912   -0.1019 C   0  0  0  0  0  0  0  0  0  0  0  0
   -2.5286    3.9352   -0.4338 C   0  0  0  0  0  0  0  0  0  0  0  0
   -3.8258    3.9480    0.0688 C   0  0  0  0  0  0  0  0  0  0  0  0
   -4.2447    2.9141    0.8952 C   0  0  0  0  0  0  0  0  0  0  0  0
   -3.3635    1.8785    1.2261 C   0  0  0  0  0  0  0  0  0  0  0  0
   -2.0446    1.8604    0.7399 C   0  0  0  0  0  0  0  0  0  0  0  0
   -1.1159    0.8459    1.0764 N   0  0  0  0  0  0  0  0  0  0  0  0
   -1.4860   -0.2363    1.9927 C   0  0  0  0  0  0  0  0  0  0  0  0
   -2.1523   -1.4066    1.2605 C   0  0  0  0  0  0  0  0  0  0  0  0
   -2.6735   -1.3115    0.1523 O   0  0  0  0  0  0  0  0  0  0  0  0
   -2.1703   -2.5765    1.9866 N   0  0  0  0  0  0  0  0  0  0  0  0
   -2.8565   -3.7464    1.4914 C   0  0  0  0  0  0  0  0  0  0  0  0
   -2.5019   -4.9029    2.3475 C   0  0  0  0  0  0  0  0  0  0  0  0
   -1.8978   -6.1176    2.0978 C   0  0  0  0  0  0  0  0  0  0  0  0
   -1.8328   -6.7948    3.3393 C   0  0  0  0  0  0  0  0  0  0  0  0
   -2.3981   -5.9519    4.2667 C   0  0  0  0  0  0  0  0  0  0  0  0
   -2.8048   -4.7987    3.6764 O   0  0  0  0  0  0  0  0  0  0  0  0
    0.1616    0.7749    0.5177 C   0  0  0  0  0  0  0  0  0  0  0  0
    0.9151   -0.1414    0.8661 O   0  0  0  0  0  0  0  0  0  0  0  0
    2.6118    2.8896   -1.2105 C   0  0  0  0  0  0  0  0  0  0  0  0
    3.8796    2.8263   -1.8029 C   0  0  0  0  0  0  0  0  0  0  0  0
    6.6833    1.5916   -4.7986 H   0  0  0  0  0  0  0  0  0  0  0  0
    5.2292    2.5937   -4.6503 H   0  0  0  0  0  0  0  0  0  0  0  0
    5.0815    0.8336   -4.7725 H   0  0  0  0  0  0  0  0  0  0  0  0
    6.2755    0.5895   -2.5667 H   0  0  0  0  0  0  0  0  0  0  0  0
    6.4216    2.3315   -2.4458 H   0  0  0  0  0  0  0  0  0  0  0  0
    4.0701   -0.5308   -2.2694 H   0  0  0  0  0  0  0  0  0  0  0  0
    1.8618   -0.4245   -1.2632 H   0  0  0  0  0  0  0  0  0  0  0  0
   -2.2078    4.7376   -1.0961 H   0  0  0  0  0  0  0  0  0  0  0  0
   -4.5071    4.7527   -0.1955 H   0  0  0  0  0  0  0  0  0  0  0  0
   -5.2625    2.9036    1.2788 H   0  0  0  0  0  0  0  0  0  0  0  0
   -3.7586    1.0862    1.8536 H   0  0  0  0  0  0  0  0  0  0  0  0
   -2.1451    0.1276    2.7866 H   0  0  0  0  0  0  0  0  0  0  0  0
   -0.5936   -0.6155    2.5050 H   0  0  0  0  0  0  0  0  0  0  0  0
   -1.8764   -2.5857    2.9556 H   0  0  0  0  0  0  0  0  0  0  0  0
   -2.5716   -3.9183    0.4481 H   0  0  0  0  0  0  0  0  0  0  0  0
   -3.9338   -3.5534    1.5274 H   0  0  0  0  0  0  0  0  0  0  0  0
   -1.5464   -6.4686    1.1370 H   0  0  0  0  0  0  0  0  0  0  0  0
   -1.4238   -7.7761    3.5352 H   0  0  0  0  0  0  0  0  0  0  0  0
   -2.5761   -6.0212    5.3309 H   0  0  0  0  0  0  0  0  0  0  0  0
    2.2498    3.8696   -0.9092 H   0  0  0  0  0  0  0  0  0  0  0  0
    4.4336    3.7489   -1.9621 H   0  0  0  0  0  0  0  0  0  0  0  0
  1  2  1  0
  2  3  1  0
  3  4  2  0
  4  5  1  0
  5  6  2  0
  6  7  1  0
  7  8  1  0
  8  9  2  0
  8 10  1  0
 10 11  2  0
 11 12  1  0
 12 13  2  0
 13 14  1  0
 14 15  2  0
 15 16  1  0
 16 17  1  0
 17 18  1  0
 18 19  2  0
 18 20  1  0
 20 21  1  0
 21 22  1  0
 22 23  2  0
 23 24  1  0
 24 25  2  0
 25 26  1  0
 16 27  1  0
 27 28  2  0
  6 29  1  0
 29 30  2  0
 30  3  1  0
 27  7  1  0
 15 10  1  0
 26 22  1  0
  1 31  1  0
  1 32  1  0
  1 33  1  0
  2 34  1  0
  2 35  1  0
  4 36  1  0
  5 37  1  0
 11 38  1  0
 12 39  1  0
 13 40  1  0
 14 41  1  0
 17 42  1  0
 17 43  1  0
 20 44  1  0
 21 45  1  0
 21 46  1  0
 23 47  1  0
 24 48  1  0
 25 49  1  0
 29 50  1  0
 30 51  1  0
M  END
$$$$
