
     RDKit          3D

 35 36  0  0  0  0  0  0  0  0999 V2000
    5.7573    0.7896   -0.7136 C   0  0  0  0  0  0  0  0  0  0  0  0
    4.7119    0.0784    0.0920 C   0  0  0  0  0  0  0  0  0  0  0  0
    5.0569   -1.0263    0.8606 C   0  0  0  0  0  0  0  0  0  0  0  0
    4.0618   -1.6600    1.5939 C   0  0  0  0  0  0  0  0  0  0  0  0
    2.7568   -1.1766    1.5400 C   0  0  0  0  0  0  0  0  0  0  0  0
    2.4904   -0.0695    0.7500 C   0  0  0  0  0  0  0  0  0  0  0  0
    1.2328    0.5153    0.6071 N   0  0  0  0  0  0  0  0  0  0  0  0
    0.0385    0.1360    1.1848 C   0  0  0  0  0  0  0  0  0  0  0  0
   -0.1157   -0.8116    1.9493 O   0  0  0  0  0  0  0  0  0  0  0  0
   -1.1159    1.0597    0.7667 C   0  0  0  0  0  0  0  0  0  0  0  0
   -2.4101    0.6270    1.1752 O   0  0  0  0  0  0  0  0  0  0  0  0
   -3.0568   -0.0166    0.1526 C   0  0  0  0  0  0  0  0  0  0  0  0
   -2.7898   -1.3662   -0.0827 C   0  0  0  0  0  0  0  0  0  0  0  0
   -3.4494   -2.0332   -1.1129 C   0  0  0  0  0  0  0  0  0  0  0  0
   -4.3832   -1.3544   -1.8942 C   0  0  0  0  0  0  0  0  0  0  0  0
   -4.6686   -0.0109   -1.6383 C   0  0  0  0  0  0  0  0  0  0  0  0
   -4.0186    0.6706   -0.6002 C   0  0  0  0  0  0  0  0  0  0  0  0
   -4.3368    2.1105   -0.3233 C   0  0  0  0  0  0  0  0  0  0  0  0
    3.4463    0.5593    0.0308 N   0  0  0  0  0  0  0  0  0  0  0  0
    6.5418    1.1777   -0.0565 H   0  0  0  0  0  0  0  0  0  0  0  0
    5.3218    1.6328   -1.2593 H   0  0  0  0  0  0  0  0  0  0  0  0
    6.2034    0.1058   -1.4425 H   0  0  0  0  0  0  0  0  0  0  0  0
    6.0788   -1.3898    0.8911 H   0  0  0  0  0  0  0  0  0  0  0  0
    4.2961   -2.5264    2.2062 H   0  0  0  0  0  0  0  0  0  0  0  0
    1.9880   -1.6770    2.1158 H   0  0  0  0  0  0  0  0  0  0  0  0
    1.2616    1.3108   -0.0163 H   0  0  0  0  0  0  0  0  0  0  0  0
   -1.0645    1.2411   -0.3161 H   0  0  0  0  0  0  0  0  0  0  0  0
   -0.9401    2.0237    1.2590 H   0  0  0  0  0  0  0  0  0  0  0  0
   -2.0796   -1.9025    0.5413 H   0  0  0  0  0  0  0  0  0  0  0  0
   -3.2412   -3.0833   -1.2997 H   0  0  0  0  0  0  0  0  0  0  0  0
   -4.8998   -1.8751   -2.6964 H   0  0  0  0  0  0  0  0  0  0  0  0
   -5.4104    0.4973   -2.2502 H   0  0  0  0  0  0  0  0  0  0  0  0
   -3.4898    2.7444   -0.6041 H   0  0  0  0  0  0  0  0  0  0  0  0
   -5.2121    2.4434   -0.8909 H   0  0  0  0  0  0  0  0  0  0  0  0
   -4.5618    2.2560    0.7383 H   0  0  0  0  0  0  0  0  0  0  0  0
  1  2  1  0
  2  3  2  0
  3  4  1  0
  4  5  2  0
  5  6  1  0
  6  7  1  0
  7  8  1  0
  8  9  2  0
  8 10  1  0
 10 11  1  0
 11 12  1  0
 12 13  2  0
 13 14  1  0
 14 15  2  0
 15 16  1  0
 16 17  2  0
 17 18  1  0
  6 19  2  0
 19  2  1  0
 17 12  1  0
  1 20  1  0
  1 21  1  0
  1 22  1  0
  3 23  1  0
  4 24  1  0
  5 25  1  0
  7 26  1  0
 10 27  1  0
 10 28  1  0
 13 29  1  0
 14 30  1  0
 15 31  1  0
 16 32  1  0
 18 33  1  0
 18 34  1  0
 18 35  1  0
M  END
$$$$
