
     RDKit          3D

 51 54  0  0  0  0  0  0  0  0999 V2000
   -6.9504   -1.0243    0.8606 C   0  0  0  0  0  0  0  0  0  0  0  0
   -6.6108   -0.9345   -0.6211 C   0  0  0  0  0  0  0  0  0  0  0  0
   -5.6735    0.1644   -0.8965 N   0  0  0  0  0  0  0  0  0  0  0  0
   -6.2074    1.3118   -1.6474 C   0  0  0  0  0  0  0  0  0  0  0  0
   -6.8209    2.3558   -0.7224 C   0  0  0  0  0  0  0  0  0  0  0  0
   -4.3315    0.1054   -0.5332 C   0  0  0  0  0  0  0  0  0  0  0  0
   -3.6986   -1.1048   -0.1859 C   0  0  0  0  0  0  0  0  0  0  0  0
   -2.3419   -1.1754    0.1781 C   0  0  0  0  0  0  0  0  0  0  0  0
   -1.5710   -0.0213    0.2210 C   0  0  0  0  0  0  0  0  0  0  0  0
   -0.1696   -0.0252    0.6028 C   0  0  0  0  0  0  0  0  0  0  0  0
    0.5134    1.1276    0.6870 C   0  0  0  0  0  0  0  0  0  0  0  0
    1.8823    1.0806    1.0841 C   0  0  0  0  0  0  0  0  0  0  0  0
    2.8153    0.3001    0.5640 N   0  0  0  0  0  0  0  0  0  0  0  0
    4.0369    0.4942    1.1938 C   0  0  0  0  0  0  0  0  0  0  0  0
    5.2383   -0.1986    0.7378 C   0  0  0  0  0  0  0  0  0  0  0  0
    5.3338   -0.6063   -0.6013 C   0  0  0  0  0  0  0  0  0  0  0  0
    6.4842   -1.2443   -1.0820 C   0  0  0  0  0  0  0  0  0  0  0  0
    7.5542   -1.4960   -0.2261 C   0  0  0  0  0  0  0  0  0  0  0  0
    8.7302   -2.1075   -0.5651 O   0  0  0  0  0  0  0  0  0  0  0  0
    8.9418   -2.3686   -1.9452 C   0  0  0  0  0  0  0  0  0  0  0  0
    7.4567   -1.1153    1.1123 C   0  0  0  0  0  0  0  0  0  0  0  0
    6.3116   -0.4696    1.5944 C   0  0  0  0  0  0  0  0  0  0  0  0
    4.0100    1.3988    2.2355 C   0  0  0  0  0  0  0  0  0  0  0  0
    2.4304    2.0238    2.4348 S   0  0  0  0  0  0  0  0  0  0  0  0
   -0.1153    2.4251    0.3252 C   0  0  0  0  0  0  0  0  0  0  0  0
    0.4972    3.4885    0.3312 O   0  0  0  0  0  0  0  0  0  0  0  0
   -1.4564    2.3859   -0.0524 O   0  0  0  0  0  0  0  0  0  0  0  0
   -2.1778    1.1795   -0.1035 C   0  0  0  0  0  0  0  0  0  0  0  0
   -3.5211    1.2524   -0.4842 C   0  0  0  0  0  0  0  0  0  0  0  0
   -7.3472   -0.0740    1.2321 H   0  0  0  0  0  0  0  0  0  0  0  0
   -7.7096   -1.7963    1.0271 H   0  0  0  0  0  0  0  0  0  0  0  0
   -6.0753   -1.2809    1.4658 H   0  0  0  0  0  0  0  0  0  0  0  0
   -7.5494   -0.7754   -1.1660 H   0  0  0  0  0  0  0  0  0  0  0  0
   -6.2257   -1.8889   -0.9968 H   0  0  0  0  0  0  0  0  0  0  0  0
   -5.4387    1.7636   -2.2880 H   0  0  0  0  0  0  0  0  0  0  0  0
   -6.9814    0.9666   -2.3449 H   0  0  0  0  0  0  0  0  0  0  0  0
   -7.1935    3.2010   -1.3095 H   0  0  0  0  0  0  0  0  0  0  0  0
   -7.6626    1.9390   -0.1579 H   0  0  0  0  0  0  0  0  0  0  0  0
   -6.0940    2.7424   -0.0006 H   0  0  0  0  0  0  0  0  0  0  0  0
   -4.2458   -2.0432   -0.2078 H   0  0  0  0  0  0  0  0  0  0  0  0
   -1.9121   -2.1445    0.4216 H   0  0  0  0  0  0  0  0  0  0  0  0
    0.3011   -0.9790    0.8194 H   0  0  0  0  0  0  0  0  0  0  0  0
    4.5088   -0.4175   -1.2866 H   0  0  0  0  0  0  0  0  0  0  0  0
    6.5054   -1.5319   -2.1281 H   0  0  0  0  0  0  0  0  0  0  0  0
    8.9096   -1.4443   -2.5291 H   0  0  0  0  0  0  0  0  0  0  0  0
    8.2212   -3.1005   -2.3237 H   0  0  0  0  0  0  0  0  0  0  0  0
    9.9421   -2.7981   -2.0550 H   0  0  0  0  0  0  0  0  0  0  0  0
    8.2829   -1.3185    1.7881 H   0  0  0  0  0  0  0  0  0  0  0  0
    6.2759   -0.1946    2.6470 H   0  0  0  0  0  0  0  0  0  0  0  0
    4.8169    1.7369    2.8708 H   0  0  0  0  0  0  0  0  0  0  0  0
   -3.9189    2.2362   -0.7193 H   0  0  0  0  0  0  0  0  0  0  0  0
  1  2  1  0
  2  3  1  0
  3  4  1  0
  4  5  1  0
  3  6  1  0
  6  7  2  0
  7  8  1  0
  8  9  2  0
  9 10  1  0
 10 11  2  0
 11 12  1  0
 12 13  2  0
 13 14  1  0
 14 15  1  0
 15 16  2  0
 16 17  1  0
 17 18  2  0
 18 19  1  0
 19 20  1  0
 18 21  1  0
 21 22  2  0
 14 23  2  0
 23 24  1  0
 11 25  1  0
 25 26  2  0
 25 27  1  0
 27 28  1  0
 28 29  2  0
 29  6  1  0
 28  9  1  0
 24 12  1  0
 22 15  1  0
  1 30  1  0
  1 31  1  0
  1 32  1  0
  2 33  1  0
  2 34  1  0
  4 35  1  0
  4 36  1  0
  5 37  1  0
  5 38  1  0
  5 39  1  0
  7 40  1  0
  8 41  1  0
 10 42  1  0
 16 43  1  0
 17 44  1  0
 20 45  1  0
 20 46  1  0
 20 47  1  0
 21 48  1  0
 22 49  1  0
 23 50  1  0
 29 51  1  0
M  END
$$$$
