
     RDKit          3D

 53 55  0  0  0  0  0  0  0  0999 V2000
    6.9483   -1.5027    4.0844 C   0  0  0  0  0  0  0  0  0  0  0  0
    7.1159   -1.2199    2.7009 O   0  0  0  0  0  0  0  0  0  0  0  0
    5.9843   -0.9432    1.9858 C   0  0  0  0  0  0  0  0  0  0  0  0
    4.6949   -0.8055    2.5082 C   0  0  0  0  0  0  0  0  0  0  0  0
    3.6242   -0.4998    1.6618 C   0  0  0  0  0  0  0  0  0  0  0  0
    3.8511   -0.3228    0.2944 C   0  0  0  0  0  0  0  0  0  0  0  0
    2.4863    0.1110   -0.7566 S   0  0  0  0  0  6  0  0  0  0  0  0
    2.9714    0.2210   -2.1167 O   0  0  0  0  0  0  0  0  0  0  0  0
    1.3855   -0.7661   -0.4260 O   0  0  0  0  0  0  0  0  0  0  0  0
    2.1132    1.6559   -0.2353 N   0  0  0  0  0  0  0  0  0  0  0  0
    3.1326    2.7111   -0.3648 C   0  0  0  0  0  0  0  0  0  0  0  0
    2.3974    3.8421   -1.0447 C   0  0  0  0  0  0  0  0  0  0  0  0
    1.0451    3.6834   -0.6143 O   0  0  0  0  0  0  0  0  0  0  0  0
    0.8061    2.2588   -0.5853 C   0  0  0  0  0  0  0  0  0  0  0  0
    0.1835    1.8337   -1.9402 C   0  0  0  0  0  0  0  0  0  0  0  0
   -0.6128    0.6218   -1.8855 N   0  0  0  0  0  0  0  0  0  0  0  0
   -1.8698    0.6223   -1.3201 C   0  0  0  0  0  0  0  0  0  0  0  0
   -2.4639    1.6128   -0.9135 O   0  0  0  0  0  0  0  0  0  0  0  0
   -2.5233   -0.7742   -1.2067 C   0  0  0  0  0  0  0  0  0  0  0  0
   -1.9213   -1.7752   -1.5637 O   0  0  0  0  0  0  0  0  0  0  0  0
   -3.7967   -0.7390   -0.6892 N   0  0  0  0  0  0  0  0  0  0  0  0
   -4.5170   -1.9422   -0.3690 C   0  0  0  0  0  0  0  0  0  0  0  0
   -5.9924   -1.6672   -0.2375 C   0  0  0  0  0  0  0  0  0  0  0  0
   -6.7847   -1.6664   -1.4022 C   0  0  0  0  0  0  0  0  0  0  0  0
   -8.1501   -1.3834   -1.3406 C   0  0  0  0  0  0  0  0  0  0  0  0
   -8.7485   -1.0994   -0.1166 C   0  0  0  0  0  0  0  0  0  0  0  0
   -7.9783   -1.0855    1.0466 C   0  0  0  0  0  0  0  0  0  0  0  0
   -6.6084   -1.3639    0.9876 C   0  0  0  0  0  0  0  0  0  0  0  0
   -5.7175   -1.2958    2.4682 Cl  0  0  0  0  0  0  0  0  0  0  0  0
    5.1298   -0.4738   -0.2392 C   0  0  0  0  0  0  0  0  0  0  0  0
    6.1921   -0.7806    0.6133 C   0  0  0  0  0  0  0  0  0  0  0  0
    6.5536   -0.6327    4.6222 H   0  0  0  0  0  0  0  0  0  0  0  0
    7.9336   -1.7317    4.5008 H   0  0  0  0  0  0  0  0  0  0  0  0
    6.3107   -2.3801    4.2342 H   0  0  0  0  0  0  0  0  0  0  0  0
    4.4919   -0.9189    3.5653 H   0  0  0  0  0  0  0  0  0  0  0  0
    2.6213   -0.3931    2.0721 H   0  0  0  0  0  0  0  0  0  0  0  0
    3.4425    3.0045    0.6445 H   0  0  0  0  0  0  0  0  0  0  0  0
    4.0215    2.4185   -0.9275 H   0  0  0  0  0  0  0  0  0  0  0  0
    2.7731    4.8279   -0.7551 H   0  0  0  0  0  0  0  0  0  0  0  0
    2.4350    3.7533   -2.1368 H   0  0  0  0  0  0  0  0  0  0  0  0
    0.1033    2.0731    0.2339 H   0  0  0  0  0  0  0  0  0  0  0  0
   -0.4779    2.6374   -2.2883 H   0  0  0  0  0  0  0  0  0  0  0  0
    0.9411    1.7059   -2.7175 H   0  0  0  0  0  0  0  0  0  0  0  0
   -0.1620   -0.2941   -1.9511 H   0  0  0  0  0  0  0  0  0  0  0  0
   -4.1054    0.1569   -0.3146 H   0  0  0  0  0  0  0  0  0  0  0  0
   -4.0871   -2.3676    0.5465 H   0  0  0  0  0  0  0  0  0  0  0  0
   -4.3396   -2.6884   -1.1524 H   0  0  0  0  0  0  0  0  0  0  0  0
   -6.3326   -1.8780   -2.3693 H   0  0  0  0  0  0  0  0  0  0  0  0
   -8.7467   -1.3873   -2.2512 H   0  0  0  0  0  0  0  0  0  0  0  0
   -9.8118   -0.8797   -0.0675 H   0  0  0  0  0  0  0  0  0  0  0  0
   -8.4498   -0.8507    1.9992 H   0  0  0  0  0  0  0  0  0  0  0  0
    5.3140   -0.3466   -1.3028 H   0  0  0  0  0  0  0  0  0  0  0  0
    7.1944   -0.8959    0.2039 H   0  0  0  0  0  0  0  0  0  0  0  0
  1  2  1  0
  2  3  1  0
  3  4  2  0
  4  5  1  0
  5  6  2  0
  6  7  1  0
  7  8  2  0
  7  9  2  0
  7 10  1  0
 10 11  1  0
 11 12  1  0
 12 13  1  0
 13 14  1  0
 14 15  1  0
 15 16  1  0
 16 17  1  0
 17 18  2  0
 17 19  1  0
 19 20  2  0
 19 21  1  0
 21 22  1  0
 22 23  1  0
 23 24  2  0
 24 25  1  0
 25 26  2  0
 26 27  1  0
 27 28  2  0
 28 29  1  0
  6 30  1  0
 30 31  2  0
 31  3  1  0
 14 10  1  0
 28 23  1  0
  1 32  1  0
  1 33  1  0
  1 34  1  0
  4 35  1  0
  5 36  1  0
 11 37  1  0
 11 38  1  0
 12 39  1  0
 12 40  1  0
 14 41  1  0
 15 42  1  0
 15 43  1  0
 16 44  1  0
 21 45  1  0
 22 46  1  0
 22 47  1  0
 24 48  1  0
 25 49  1  0
 26 50  1  0
 27 51  1  0
 30 52  1  0
 31 53  1  0
M  END
$$$$
