
     RDKit          3D

 41 42  0  0  0  0  0  0  0  0999 V2000
   -4.8956    2.0215   -0.7116 C   0  0  0  0  0  0  0  0  0  0  0  0
   -4.7018    0.6891   -0.0003 C   0  0  0  0  0  0  0  0  0  0  0  0
   -3.5041   -0.0087   -0.4908 N   0  0  0  0  0  0  0  0  0  0  0  0
   -3.6220   -1.4763   -0.5958 C   0  0  0  0  0  0  0  0  0  0  0  0
   -3.5612   -2.1550    0.7669 C   0  0  0  0  0  0  0  0  0  0  0  0
   -2.2255    0.4766   -0.1868 C   0  0  0  0  0  0  0  0  0  0  0  0
   -1.9649    1.3496    0.8786 C   0  0  0  0  0  0  0  0  0  0  0  0
   -0.6691    1.8093    1.1575 C   0  0  0  0  0  0  0  0  0  0  0  0
    0.4133    1.4062    0.3750 C   0  0  0  0  0  0  0  0  0  0  0  0
    1.7469    1.9461    0.6592 C   0  0  0  0  0  0  0  0  0  0  0  0
    2.8948    1.2701    0.8251 C   0  0  0  0  0  0  0  0  0  0  0  0
    3.0396   -0.2129    0.8394 C   0  0  0  0  0  0  0  0  0  0  0  0
    2.1530   -0.9577    1.2377 O   0  0  0  0  0  0  0  0  0  0  0  0
    4.3407   -0.7800    0.4139 C   0  0  0  0  0  0  0  0  0  0  0  0
    5.2451   -0.1107   -0.4152 C   0  0  0  0  0  0  0  0  0  0  0  0
    6.4421   -0.7340   -0.7671 C   0  0  0  0  0  0  0  0  0  0  0  0
    6.6916   -2.0083   -0.2826 C   0  0  0  0  0  0  0  0  0  0  0  0
    5.8358   -2.6876    0.5098 N   0  0  0  0  0  0  0  0  0  0  0  0
    4.6754   -2.0625    0.8337 C   0  0  0  0  0  0  0  0  0  0  0  0
    0.1728    0.5624   -0.7080 C   0  0  0  0  0  0  0  0  0  0  0  0
   -1.1248    0.1065   -0.9774 C   0  0  0  0  0  0  0  0  0  0  0  0
   -5.8333    2.4866   -0.3910 H   0  0  0  0  0  0  0  0  0  0  0  0
   -4.0845    2.7236   -0.4978 H   0  0  0  0  0  0  0  0  0  0  0  0
   -4.9388    1.8811   -1.7970 H   0  0  0  0  0  0  0  0  0  0  0  0
   -4.6841    0.8163    1.0877 H   0  0  0  0  0  0  0  0  0  0  0  0
   -5.5913    0.0822   -0.2123 H   0  0  0  0  0  0  0  0  0  0  0  0
   -4.5776   -1.7247   -1.0744 H   0  0  0  0  0  0  0  0  0  0  0  0
   -2.8563   -1.9022   -1.2531 H   0  0  0  0  0  0  0  0  0  0  0  0
   -3.6910   -3.2360    0.6545 H   0  0  0  0  0  0  0  0  0  0  0  0
   -4.3499   -1.7873    1.4310 H   0  0  0  0  0  0  0  0  0  0  0  0
   -2.5988   -1.9812    1.2587 H   0  0  0  0  0  0  0  0  0  0  0  0
   -2.7603    1.6796    1.5381 H   0  0  0  0  0  0  0  0  0  0  0  0
   -0.5199    2.4756    2.0034 H   0  0  0  0  0  0  0  0  0  0  0  0
    1.7754    3.0322    0.7292 H   0  0  0  0  0  0  0  0  0  0  0  0
    3.8041    1.8343    1.0069 H   0  0  0  0  0  0  0  0  0  0  0  0
    5.0320    0.8770   -0.8120 H   0  0  0  0  0  0  0  0  0  0  0  0
    7.1620   -0.2404   -1.4112 H   0  0  0  0  0  0  0  0  0  0  0  0
    7.6099   -2.5337   -0.5302 H   0  0  0  0  0  0  0  0  0  0  0  0
    4.0059   -2.6434    1.4646 H   0  0  0  0  0  0  0  0  0  0  0  0
    0.9834    0.2473   -1.3586 H   0  0  0  0  0  0  0  0  0  0  0  0
   -1.2689   -0.5304   -1.8459 H   0  0  0  0  0  0  0  0  0  0  0  0
  1  2  1  0
  2  3  1  0
  3  4  1  0
  4  5  1  0
  3  6  1  0
  6  7  2  0
  7  8  1  0
  8  9  2  0
  9 10  1  0
 10 11  2  3
 11 12  1  0
 12 13  2  0
 12 14  1  0
 14 15  2  0
 15 16  1  0
 16 17  2  0
 17 18  1  0
 18 19  2  0
  9 20  1  0
 20 21  2  0
 21  6  1  0
 19 14  1  0
  1 22  1  0
  1 23  1  0
  1 24  1  0
  2 25  1  0
  2 26  1  0
  4 27  1  0
  4 28  1  0
  5 29  1  0
  5 30  1  0
  5 31  1  0
  7 32  1  0
  8 33  1  0
 10 34  1  0
 11 35  1  0
 15 36  1  0
 16 37  1  0
 17 38  1  0
 19 39  1  0
 20 40  1  0
 21 41  1  0
M  END
$$$$
