
     RDKit          3D

 42 41  0  0  0  0  0  0  0  0999 V2000
   -5.4557   -1.5685    1.0022 C   0  0  0  0  0  0  0  0  0  0  0  0
   -4.3193   -0.7015    1.4796 C   0  0  0  0  0  0  0  0  0  0  0  0
   -3.4895   -1.3231    2.5690 C   0  0  0  0  0  0  0  0  0  0  0  0
   -4.1096    0.5128    0.9340 C   0  0  0  0  0  0  0  0  0  0  0  0
   -3.0522    1.5254    1.2885 C   0  0  0  0  0  0  0  0  0  0  0  0
   -2.1172    1.8753    0.1196 C   0  0  0  0  0  0  0  0  0  0  0  0
   -0.9975    0.8737   -0.1106 C   0  0  0  0  0  0  0  0  0  0  0  0
   -1.3888   -0.4062   -0.7989 C   0  0  0  0  0  0  0  0  0  0  0  0
    0.2676    1.1738    0.2481 C   0  0  0  0  0  0  0  0  0  0  0  0
    1.4843    0.2966    0.1170 C   0  0  0  0  0  0  0  0  0  0  0  0
    2.3688    0.7373   -1.0552 C   0  0  0  0  0  0  0  0  0  0  0  0
    3.6484   -0.0749   -1.1633 C   0  0  0  0  0  0  0  0  0  0  0  0
    3.4658   -1.5062   -1.5930 C   0  0  0  0  0  0  0  0  0  0  0  0
    4.8417    0.5021   -0.9144 C   0  0  0  0  0  0  0  0  0  0  0  0
    6.1979   -0.1248   -0.9443 C   0  0  0  0  0  0  0  0  0  0  0  0
    6.9244    0.4399   -2.0235 O   0  0  0  0  0  0  0  0  0  0  0  0
   -5.0709   -2.5134    0.6053 H   0  0  0  0  0  0  0  0  0  0  0  0
   -6.0410   -1.0897    0.2100 H   0  0  0  0  0  0  0  0  0  0  0  0
   -6.1368   -1.7895    1.8304 H   0  0  0  0  0  0  0  0  0  0  0  0
   -3.1019   -2.2923    2.2375 H   0  0  0  0  0  0  0  0  0  0  0  0
   -4.1030   -1.4861    3.4613 H   0  0  0  0  0  0  0  0  0  0  0  0
   -2.6297   -0.7192    2.8644 H   0  0  0  0  0  0  0  0  0  0  0  0
   -4.7867    0.8448    0.1462 H   0  0  0  0  0  0  0  0  0  0  0  0
   -3.5834    2.4411    1.5804 H   0  0  0  0  0  0  0  0  0  0  0  0
   -2.4639    1.2348    2.1632 H   0  0  0  0  0  0  0  0  0  0  0  0
   -1.6803    2.8606    0.3326 H   0  0  0  0  0  0  0  0  0  0  0  0
   -2.6870    2.0082   -0.8092 H   0  0  0  0  0  0  0  0  0  0  0  0
   -1.7865   -1.1248   -0.0777 H   0  0  0  0  0  0  0  0  0  0  0  0
   -2.1516   -0.2168   -1.5617 H   0  0  0  0  0  0  0  0  0  0  0  0
   -0.5482   -0.8753   -1.3183 H   0  0  0  0  0  0  0  0  0  0  0  0
    0.4641    2.1399    0.7132 H   0  0  0  0  0  0  0  0  0  0  0  0
    2.0507    0.3616    1.0549 H   0  0  0  0  0  0  0  0  0  0  0  0
    1.2012   -0.7562    0.0146 H   0  0  0  0  0  0  0  0  0  0  0  0
    1.8137    0.6516   -1.9988 H   0  0  0  0  0  0  0  0  0  0  0  0
    2.6055    1.8046   -0.9469 H   0  0  0  0  0  0  0  0  0  0  0  0
    3.0614   -2.1036   -0.7703 H   0  0  0  0  0  0  0  0  0  0  0  0
    4.3943   -1.9744   -1.9277 H   0  0  0  0  0  0  0  0  0  0  0  0
    2.7681   -1.5627   -2.4357 H   0  0  0  0  0  0  0  0  0  0  0  0
    4.8626    1.5548   -0.6334 H   0  0  0  0  0  0  0  0  0  0  0  0
    6.7306    0.1001   -0.0151 H   0  0  0  0  0  0  0  0  0  0  0  0
    6.1834   -1.2104   -1.0598 H   0  0  0  0  0  0  0  0  0  0  0  0
    6.3664    0.3405   -2.8139 H   0  0  0  0  0  0  0  0  0  0  0  0
  1  2  1  0
  2  3  1  0
  2  4  2  3
  4  5  1  0
  5  6  1  0
  6  7  1  0
  7  8  1  0
  7  9  2  3
  9 10  1  0
 10 11  1  0
 11 12  1  0
 12 13  1  0
 12 14  2  3
 14 15  1  0
 15 16  1  0
  1 17  1  0
  1 18  1  0
  1 19  1  0
  3 20  1  0
  3 21  1  0
  3 22  1  0
  4 23  1  0
  5 24  1  0
  5 25  1  0
  6 26  1  0
  6 27  1  0
  8 28  1  0
  8 29  1  0
  8 30  1  0
  9 31  1  0
 10 32  1  0
 10 33  1  0
 11 34  1  0
 11 35  1  0
 13 36  1  0
 13 37  1  0
 13 38  1  0
 14 39  1  0
 15 40  1  0
 15 41  1  0
 16 42  1  0
M  END
$$$$
