
     RDKit          3D

 46 49  0  0  0  0  0  0  0  0999 V2000
    2.0195    3.1989   -2.3899 O   0  0  0  0  0  0  0  0  0  0  0  0
    1.4859    2.1182   -2.6316 C   0  0  0  0  0  0  0  0  0  0  0  0
    0.1322    2.0672   -3.3270 C   0  0  0  0  0  0  0  0  0  0  0  0
   -1.2098    2.1180   -2.1042 S   0  0  0  0  0  0  0  0  0  0  0  0
   -1.1573    0.4929   -1.5215 C   0  0  0  0  0  0  0  0  0  0  0  0
   -0.6207   -0.5186   -2.1628 N   0  0  0  0  0  0  0  0  0  0  0  0
   -0.7471   -1.6257   -1.3675 N   0  0  0  0  0  0  0  0  0  0  0  0
   -1.3709   -1.2747   -0.2564 C   0  0  0  0  0  0  0  0  0  0  0  0
   -1.6776   -2.1926    0.8828 C   0  0  0  0  0  0  0  0  0  0  0  0
   -3.1465   -2.4465    1.0904 C   0  0  0  0  0  0  0  0  0  0  0  0
   -3.9116   -2.1827    2.2133 C   0  0  0  0  0  0  0  0  0  0  0  0
   -5.2770   -2.5517    2.0398 C   0  0  0  0  0  0  0  0  0  0  0  0
   -5.5048   -3.1193    0.8048 C   0  0  0  0  0  0  0  0  0  0  0  0
   -4.0811   -3.2008   -0.1376 S   0  0  0  0  0  0  0  0  0  0  0  0
   -1.6403    0.0791   -0.3118 N   0  0  0  0  0  0  0  0  0  0  0  0
   -2.2595    0.8927    0.7163 C   0  0  0  0  0  0  0  0  0  0  0  0
   -1.2899    1.2217    1.7923 C   0  0  0  0  0  0  0  0  0  0  0  0
   -1.2957    1.0605    3.1647 C   0  0  0  0  0  0  0  0  0  0  0  0
   -0.0598    1.5762    3.6326 C   0  0  0  0  0  0  0  0  0  0  0  0
    0.6141    2.0276    2.5211 C   0  0  0  0  0  0  0  0  0  0  0  0
   -0.1281    1.8237    1.4033 O   0  0  0  0  0  0  0  0  0  0  0  0
    2.0152    0.8706   -2.3433 N   0  0  0  0  0  0  0  0  0  0  0  0
    3.2628    0.5711   -1.7412 C   0  0  0  0  0  0  0  0  0  0  0  0
    4.1579    1.5553   -1.3019 C   0  0  0  0  0  0  0  0  0  0  0  0
    5.3844    1.2038   -0.7220 C   0  0  0  0  0  0  0  0  0  0  0  0
    5.7275   -0.1371   -0.5754 C   0  0  0  0  0  0  0  0  0  0  0  0
    7.2400   -0.5621    0.1317 Cl  0  0  0  0  0  0  0  0  0  0  0  0
    4.8566   -1.1342   -1.0011 C   0  0  0  0  0  0  0  0  0  0  0  0
    3.6322   -0.7800   -1.5807 C   0  0  0  0  0  0  0  0  0  0  0  0
    2.6045   -2.0645   -2.1299 Cl  0  0  0  0  0  0  0  0  0  0  0  0
    0.0514    2.9494   -3.9705 H   0  0  0  0  0  0  0  0  0  0  0  0
    0.0542    1.1934   -3.9821 H   0  0  0  0  0  0  0  0  0  0  0  0
   -1.2323   -1.7901    1.8020 H   0  0  0  0  0  0  0  0  0  0  0  0
   -1.1775   -3.1546    0.7065 H   0  0  0  0  0  0  0  0  0  0  0  0
   -3.5131   -1.7392    3.1185 H   0  0  0  0  0  0  0  0  0  0  0  0
   -6.0550   -2.4219    2.7852 H   0  0  0  0  0  0  0  0  0  0  0  0
   -6.4398   -3.4984    0.4101 H   0  0  0  0  0  0  0  0  0  0  0  0
   -2.6567    1.8084    0.2690 H   0  0  0  0  0  0  0  0  0  0  0  0
   -3.1189    0.3455    1.1087 H   0  0  0  0  0  0  0  0  0  0  0  0
   -2.0888    0.6244    3.7593 H   0  0  0  0  0  0  0  0  0  0  0  0
    0.2980    1.6193    4.6538 H   0  0  0  0  0  0  0  0  0  0  0  0
    1.5763    2.4966    2.3624 H   0  0  0  0  0  0  0  0  0  0  0  0
    1.4203    0.0600   -2.5275 H   0  0  0  0  0  0  0  0  0  0  0  0
    3.9351    2.6141   -1.3917 H   0  0  0  0  0  0  0  0  0  0  0  0
    6.0642    1.9869   -0.3888 H   0  0  0  0  0  0  0  0  0  0  0  0
    5.1277   -2.1808   -0.8926 H   0  0  0  0  0  0  0  0  0  0  0  0
  1  2  2  0
  2  3  1  0
  3  4  1  0
  4  5  1  0
  5  6  2  0
  6  7  1  0
  7  8  2  0
  8  9  1  0
  9 10  1  0
 10 11  2  0
 11 12  1  0
 12 13  2  0
 13 14  1  0
  8 15  1  0
 15 16  1  0
 16 17  1  0
 17 18  2  0
 18 19  1  0
 19 20  2  0
 20 21  1  0
  2 22  1  0
 22 23  1  0
 23 24  2  0
 24 25  1  0
 25 26  2  0
 26 27  1  0
 26 28  1  0
 28 29  2  0
 29 30  1  0
 15  5  1  0
 21 17  1  0
 29 23  1  0
 14 10  1  0
  3 31  1  0
  3 32  1  0
  9 33  1  0
  9 34  1  0
 11 35  1  0
 12 36  1  0
 13 37  1  0
 16 38  1  0
 16 39  1  0
 18 40  1  0
 19 41  1  0
 20 42  1  0
 22 43  1  0
 24 44  1  0
 25 45  1  0
 28 46  1  0
M  END
$$$$
