
     RDKit          3D

 53 58  0  0  0  0  0  0  0  0999 V2000
   -0.4851    1.6057   -1.0352 O   0  0  0  0  0  0  0  0  0  0  0  0
   -1.2661    1.0844   -0.2327 C   0  0  0  0  0  0  0  0  0  0  0  0
   -0.7162    0.7047    1.1596 C   0  0  0  0  0  0  0  0  0  0  0  0
    0.6802    0.2410    1.0437 N   0  0  0  0  0  4  0  0  0  0  0  0
    1.8339    0.9644    1.3423 C   0  0  0  0  0  0  0  0  0  0  0  0
    2.9455    0.1904    1.0244 C   0  0  0  0  0  0  0  0  0  0  0  0
    4.4535    0.5865    1.2322 C   0  0  0  0  0  0  0  0  0  0  0  0
    5.4734   -0.3314    0.9766 C   0  0  0  0  0  0  0  0  0  0  0  0
    6.8117    0.0292    1.1735 C   0  0  0  0  0  0  0  0  0  0  0  0
    7.1418    1.3079    1.6291 C   0  0  0  0  0  0  0  0  0  0  0  0
    8.8107    1.6772    1.8554 Cl  0  0  0  0  0  0  0  0  0  0  0  0
    6.1235    2.2287    1.8876 C   0  0  0  0  0  0  0  0  0  0  0  0
    6.4426    3.8299    2.4525 Cl  0  0  0  0  0  0  0  0  0  0  0  0
    4.7828    1.8685    1.6910 C   0  0  0  0  0  0  0  0  0  0  0  0
    2.3907   -0.9650    0.5001 N   0  0  0  0  0  0  0  0  0  0  0  0
    1.0619   -0.9092    0.5004 C   0  0  0  0  0  0  0  0  0  0  0  0
    0.4220   -2.1068   -0.0917 C   0  0  0  0  0  0  0  0  0  0  0  0
    1.6143   -2.7970   -0.7837 C   0  0  0  0  0  0  0  0  0  0  0  0
    2.8793   -2.1937   -0.1120 C   0  0  0  0  0  0  0  0  0  0  0  0
   -2.5693    0.6462   -0.5277 N   0  0  0  0  0  0  0  0  0  0  0  0
   -3.5567    0.4049    0.4896 C   0  0  0  0  0  0  0  0  0  0  0  0
   -3.6459    1.2783    1.5916 C   0  0  0  0  0  0  0  0  0  0  0  0
   -4.5793    1.0640    2.6093 C   0  0  0  0  0  0  0  0  0  0  0  0
   -5.4449   -0.0205    2.5403 C   0  0  0  0  0  0  0  0  0  0  0  0
   -5.4025   -0.8697    1.4354 C   0  0  0  0  0  0  0  0  0  0  0  0
   -4.4768   -0.6530    0.4055 C   0  0  0  0  0  0  0  0  0  0  0  0
   -4.4756   -1.7718   -0.9694 S   0  0  0  0  0  0  0  0  0  0  0  0
   -3.8668   -0.6499   -2.2101 C   0  0  0  0  0  0  0  0  0  0  0  0
   -4.2425   -0.8910   -3.5406 C   0  0  0  0  0  0  0  0  0  0  0  0
   -3.7609   -0.0855   -4.5679 C   0  0  0  0  0  0  0  0  0  0  0  0
   -2.8945    0.9580   -4.2709 C   0  0  0  0  0  0  0  0  0  0  0  0
   -2.5053    1.1938   -2.9475 C   0  0  0  0  0  0  0  0  0  0  0  0
   -2.9814    0.3987   -1.8898 C   0  0  0  0  0  0  0  0  0  0  0  0
   -0.7412    1.5836    1.8097 H   0  0  0  0  0  0  0  0  0  0  0  0
   -1.2703   -0.1179    1.6189 H   0  0  0  0  0  0  0  0  0  0  0  0
    1.7134    1.9518    1.7559 H   0  0  0  0  0  0  0  0  0  0  0  0
    5.2693   -1.3411    0.6403 H   0  0  0  0  0  0  0  0  0  0  0  0
    7.5959   -0.6970    0.9703 H   0  0  0  0  0  0  0  0  0  0  0  0
    4.0178    2.6119    1.8969 H   0  0  0  0  0  0  0  0  0  0  0  0
    0.0230   -2.6911    0.7401 H   0  0  0  0  0  0  0  0  0  0  0  0
   -0.3606   -1.7944   -0.7853 H   0  0  0  0  0  0  0  0  0  0  0  0
    1.5761   -3.8877   -0.7104 H   0  0  0  0  0  0  0  0  0  0  0  0
    1.6149   -2.5311   -1.8476 H   0  0  0  0  0  0  0  0  0  0  0  0
    3.6537   -1.9814   -0.8531 H   0  0  0  0  0  0  0  0  0  0  0  0
    3.2602   -2.8507    0.6755 H   0  0  0  0  0  0  0  0  0  0  0  0
   -3.0433    2.1815    1.6473 H   0  0  0  0  0  0  0  0  0  0  0  0
   -4.6488    1.7575    3.4455 H   0  0  0  0  0  0  0  0  0  0  0  0
   -6.1784   -0.1887    3.3267 H   0  0  0  0  0  0  0  0  0  0  0  0
   -6.1056   -1.6995    1.3814 H   0  0  0  0  0  0  0  0  0  0  0  0
   -4.9204   -1.7078   -3.7859 H   0  0  0  0  0  0  0  0  0  0  0  0
   -4.0663   -0.2697   -5.5957 H   0  0  0  0  0  0  0  0  0  0  0  0
   -2.5281    1.6033   -5.0662 H   0  0  0  0  0  0  0  0  0  0  0  0
   -1.8597    2.0507   -2.7717 H   0  0  0  0  0  0  0  0  0  0  0  0
  1  2  2  0
  2  3  1  0
  3  4  1  0
  4  5  1  0
  5  6  2  0
  6  7  1  0
  7  8  2  0
  8  9  1  0
  9 10  2  0
 10 11  1  0
 10 12  1  0
 12 13  1  0
 12 14  2  0
  6 15  1  0
 15 16  1  0
 16 17  1  0
 17 18  1  0
 18 19  1  0
  2 20  1  0
 20 21  1  0
 21 22  2  0
 22 23  1  0
 23 24  2  0
 24 25  1  0
 25 26  2  0
 26 27  1  0
 27 28  1  0
 28 29  2  0
 29 30  1  0
 30 31  2  0
 31 32  1  0
 32 33  2  0
 16  4  2  0
 33 20  1  0
 14  7  1  0
 19 15  1  0
 26 21  1  0
 33 28  1  0
  3 34  1  0
  3 35  1  0
  5 36  1  0
  8 37  1  0
  9 38  1  0
 14 39  1  0
 17 40  1  0
 17 41  1  0
 18 42  1  0
 18 43  1  0
 19 44  1  0
 19 45  1  0
 22 46  1  0
 23 47  1  0
 24 48  1  0
 25 49  1  0
 29 50  1  0
 30 51  1  0
 31 52  1  0
 32 53  1  0
M  CHG  1   4   1
M  END
$$$$
