
     RDKit          3D

 42 44  0  0  0  0  0  0  0  0999 V2000
   -4.9714    3.2507   -0.4423 C   0  0  0  0  0  0  0  0  0  0  0  0
   -5.0293    2.2797    0.5945 O   0  0  0  0  0  0  0  0  0  0  0  0
   -4.1556    1.2294    0.5241 C   0  0  0  0  0  0  0  0  0  0  0  0
   -4.2671    0.3146    1.5706 C   0  0  0  0  0  0  0  0  0  0  0  0
   -3.4380   -0.8006    1.6161 C   0  0  0  0  0  0  0  0  0  0  0  0
   -3.6420   -1.6712    2.6554 O   0  0  0  0  0  0  0  0  0  0  0  0
   -2.4553   -1.0011    0.6364 C   0  0  0  0  0  0  0  0  0  0  0  0
   -1.5714   -2.1818    0.7806 C   0  0  0  0  0  0  0  0  0  0  0  0
   -2.0608   -3.2414    1.1745 O   0  0  0  0  0  0  0  0  0  0  0  0
   -0.1057   -2.1009    0.5536 C   0  0  0  0  0  0  0  0  0  0  0  0
    0.6254   -0.9935    0.7550 C   0  0  0  0  0  0  0  0  0  0  0  0
    2.0673   -0.9125    0.5561 C   0  0  0  0  0  0  0  0  0  0  0  0
    2.6146    0.3089    0.3312 C   0  0  0  0  0  0  0  0  0  0  0  0
    4.1027    0.4162    0.2508 C   0  0  2  0  0  0  0  0  0  0  0  0
    4.6579    1.4680   -0.5265 O   0  0  0  0  0  0  0  0  0  0  0  0
    5.9948    0.9613   -0.7715 C   0  0  0  0  0  0  0  0  0  0  0  0
    6.0540   -0.4595   -0.4885 O   0  0  0  0  0  0  0  0  0  0  0  0
    4.6751   -0.7952   -0.4628 C   0  0  1  0  0  0  0  0  0  0  0  0
    4.2579   -2.0275    0.2647 C   0  0  0  0  0  0  0  0  0  0  0  0
    2.9932   -2.0578    0.7361 C   0  0  0  0  0  0  0  0  0  0  0  0
   -2.3632   -0.1073   -0.4466 C   0  0  0  0  0  0  0  0  0  0  0  0
   -1.4587   -0.4152   -1.4296 O   0  0  0  0  0  0  0  0  0  0  0  0
   -1.2726    0.5147   -2.4892 C   0  0  0  0  0  0  0  0  0  0  0  0
   -3.2133    1.0105   -0.4870 C   0  0  0  0  0  0  0  0  0  0  0  0
   -5.7219    4.0169   -0.2256 H   0  0  0  0  0  0  0  0  0  0  0  0
   -3.9927    3.7410   -0.4697 H   0  0  0  0  0  0  0  0  0  0  0  0
   -5.2191    2.8066   -1.4120 H   0  0  0  0  0  0  0  0  0  0  0  0
   -5.0125    0.4644    2.3478 H   0  0  0  0  0  0  0  0  0  0  0  0
   -3.2138   -2.5254    2.4223 H   0  0  0  0  0  0  0  0  0  0  0  0
    0.3454   -3.0442    0.2645 H   0  0  0  0  0  0  0  0  0  0  0  0
    0.1408   -0.0744    1.0787 H   0  0  0  0  0  0  0  0  0  0  0  0
    2.0279    1.2170    0.2575 H   0  0  0  0  0  0  0  0  0  0  0  0
    4.5006    0.5352    1.2702 H   0  0  0  0  0  0  0  0  0  0  0  0
    6.7066    1.4822   -0.1239 H   0  0  0  0  0  0  0  0  0  0  0  0
    6.2533    1.1355   -1.8204 H   0  0  0  0  0  0  0  0  0  0  0  0
    4.3457   -0.8689   -1.5101 H   0  0  0  0  0  0  0  0  0  0  0  0
    4.9363   -2.8657    0.3604 H   0  0  0  0  0  0  0  0  0  0  0  0
    2.6227   -2.9387    1.2535 H   0  0  0  0  0  0  0  0  0  0  0  0
   -2.1797    0.6060   -3.0951 H   0  0  0  0  0  0  0  0  0  0  0  0
   -0.4781    0.1293   -3.1354 H   0  0  0  0  0  0  0  0  0  0  0  0
   -0.9483    1.4888   -2.1083 H   0  0  0  0  0  0  0  0  0  0  0  0
   -3.1518    1.7061   -1.3140 H   0  0  0  0  0  0  0  0  0  0  0  0
  1  2  1  0
  2  3  1  0
  3  4  2  0
  4  5  1  0
  5  6  1  0
  5  7  2  0
  7  8  1  0
  8  9  2  0
  8 10  1  0
 10 11  2  0
 11 12  1  0
 12 13  2  0
 13 14  1  0
 14 15  1  0
 15 16  1  0
 16 17  1  0
 17 18  1  0
 18 19  1  0
 19 20  2  0
  7 21  1  0
 21 22  1  0
 22 23  1  0
 21 24  2  0
 24  3  1  0
 20 12  1  0
 18 14  1  0
  1 25  1  0
  1 26  1  0
  1 27  1  0
  4 28  1  0
  6 29  1  0
 10 30  1  0
 11 31  1  0
 13 32  1  0
 14 33  1  1
 16 34  1  0
 16 35  1  0
 18 36  1  6
 19 37  1  0
 20 38  1  0
 23 39  1  0
 23 40  1  0
 23 41  1  0
 24 42  1  0
M  END
$$$$
