
     RDKit          3D

 43 46  0  0  0  0  0  0  0  0999 V2000
    6.5677    1.1045    1.3791 C   0  0  0  0  0  0  0  0  0  0  0  0
    5.1169    0.9572    1.0226 C   0  0  0  0  0  0  0  0  0  0  0  0
    4.7130    0.0209    0.0662 C   0  0  0  0  0  0  0  0  0  0  0  0
    3.3659   -0.0976   -0.2914 C   0  0  0  0  0  0  0  0  0  0  0  0
    2.4083    0.7295    0.2960 C   0  0  0  0  0  0  0  0  0  0  0  0
    0.8916    0.6048   -0.0931 C   0  0  0  0  0  0  0  0  0  0  0  0
   -0.1650    1.3115    0.4699 C   0  0  0  0  0  0  0  0  0  0  0  0
   -1.3601    0.8896   -0.1161 N   0  0  0  0  0  4  0  0  0  0  0  0
   -2.7016    1.3807    0.1851 C   0  0  0  0  0  0  0  0  0  0  0  0
   -3.5417    0.2436    0.7102 C   0  0  0  0  0  0  0  0  0  0  0  0
   -3.1846   -0.4317    1.8868 C   0  0  0  0  0  0  0  0  0  0  0  0
   -3.9635   -1.4903    2.3636 C   0  0  0  0  0  0  0  0  0  0  0  0
   -5.1116   -1.8900    1.6746 C   0  0  0  0  0  0  0  0  0  0  0  0
   -6.0150   -3.2135    2.3134 Cl  0  0  0  0  0  0  0  0  0  0  0  0
   -5.4831   -1.2201    0.5060 C   0  0  0  0  0  0  0  0  0  0  0  0
   -6.8792   -1.6554   -0.4113 Cl  0  0  0  0  0  0  0  0  0  0  0  0
   -4.7038   -0.1564    0.0308 C   0  0  0  0  0  0  0  0  0  0  0  0
   -1.0484   -0.0275   -1.0268 C   0  0  0  0  0  0  0  0  0  0  0  0
    0.2706   -0.1947   -1.0357 N   0  0  0  0  0  0  0  0  0  0  0  0
    0.6877   -1.1715   -2.0323 C   0  0  0  0  0  0  0  0  0  0  0  0
   -0.5875   -1.3747   -2.8962 C   0  0  0  0  0  0  0  0  0  0  0  0
   -1.7511   -0.8781   -2.0156 C   0  0  0  0  0  0  0  0  0  0  0  0
    2.8086    1.6752    1.2470 C   0  0  0  0  0  0  0  0  0  0  0  0
    4.1561    1.7912    1.6013 C   0  0  0  0  0  0  0  0  0  0  0  0
    6.6830    1.4438    2.4139 H   0  0  0  0  0  0  0  0  0  0  0  0
    7.0444    1.8302    0.7131 H   0  0  0  0  0  0  0  0  0  0  0  0
    7.0904    0.1461    1.2917 H   0  0  0  0  0  0  0  0  0  0  0  0
    5.4504   -0.6278   -0.4047 H   0  0  0  0  0  0  0  0  0  0  0  0
    3.1072   -0.8530   -1.0214 H   0  0  0  0  0  0  0  0  0  0  0  0
   -0.2205    2.0635    1.2388 H   0  0  0  0  0  0  0  0  0  0  0  0
   -3.1191    1.8022   -0.7360 H   0  0  0  0  0  0  0  0  0  0  0  0
   -2.6502    2.1823    0.9298 H   0  0  0  0  0  0  0  0  0  0  0  0
   -2.2973   -0.1418    2.4478 H   0  0  0  0  0  0  0  0  0  0  0  0
   -3.6715   -2.0026    3.2791 H   0  0  0  0  0  0  0  0  0  0  0  0
   -5.0162    0.3584   -0.8772 H   0  0  0  0  0  0  0  0  0  0  0  0
    1.5127   -0.7883   -2.6369 H   0  0  0  0  0  0  0  0  0  0  0  0
    0.9712   -2.0966   -1.5221 H   0  0  0  0  0  0  0  0  0  0  0  0
   -0.5173   -0.7406   -3.7880 H   0  0  0  0  0  0  0  0  0  0  0  0
   -0.7147   -2.4085   -3.2283 H   0  0  0  0  0  0  0  0  0  0  0  0
   -2.2232   -1.6878   -1.4555 H   0  0  0  0  0  0  0  0  0  0  0  0
   -2.4782   -0.2714   -2.5564 H   0  0  0  0  0  0  0  0  0  0  0  0
    2.1038    2.3462    1.7286 H   0  0  0  0  0  0  0  0  0  0  0  0
    4.4550    2.5387    2.3349 H   0  0  0  0  0  0  0  0  0  0  0  0
  1  2  1  0
  2  3  2  0
  3  4  1  0
  4  5  2  0
  5  6  1  0
  6  7  2  0
  7  8  1  0
  8  9  1  0
  9 10  1  0
 10 11  2  0
 11 12  1  0
 12 13  2  0
 13 14  1  0
 13 15  1  0
 15 16  1  0
 15 17  2  0
  8 18  2  0
 18 19  1  0
 19 20  1  0
 20 21  1  0
 21 22  1  0
  5 23  1  0
 23 24  2  0
 24  2  1  0
 19  6  1  0
 17 10  1  0
 22 18  1  0
  1 25  1  0
  1 26  1  0
  1 27  1  0
  3 28  1  0
  4 29  1  0
  7 30  1  0
  9 31  1  0
  9 32  1  0
 11 33  1  0
 12 34  1  0
 17 35  1  0
 20 36  1  0
 20 37  1  0
 21 38  1  0
 21 39  1  0
 22 40  1  0
 22 41  1  0
 23 42  1  0
 24 43  1  0
M  CHG  1   8   1
M  END
$$$$
