
     RDKit          3D

 34 36  0  0  0  0  0  0  0  0999 V2000
    4.4219   -1.0207   -0.5418 N   0  0  0  0  0  0  0  0  0  0  0  0
    3.3902   -0.8498    0.4729 C   0  0  0  0  0  0  0  0  0  0  0  0
    2.0500   -0.5124   -0.1770 C   0  0  0  0  0  0  0  0  0  0  0  0
    0.9522   -0.3872    0.8892 C   0  0  0  0  0  0  0  0  0  0  0  0
   -0.3517   -0.0024    0.2996 N   0  0  0  0  0  0  0  0  0  0  0  0
   -1.2407   -1.0598   -0.0552 C   0  0  0  0  0  0  0  0  0  0  0  0
   -0.8017   -2.3952   -0.2076 C   0  0  0  0  0  0  0  0  0  0  0  0
   -1.6641   -3.4382   -0.5682 C   0  0  0  0  0  0  0  0  0  0  0  0
   -3.0050   -3.1807   -0.7940 C   0  0  0  0  0  0  0  0  0  0  0  0
   -3.4742   -1.8795   -0.6613 C   0  0  0  0  0  0  0  0  0  0  0  0
   -2.6091   -0.8263   -0.3015 C   0  0  0  0  0  0  0  0  0  0  0  0
   -3.3768    0.7687   -0.1491 S   0  0  0  0  0  0  0  0  0  0  0  0
   -1.9769    1.8472    0.0274 C   0  0  0  0  0  0  0  0  0  0  0  0
   -2.2682    3.2254   -0.0339 C   0  0  0  0  0  0  0  0  0  0  0  0
   -1.2660    4.1773    0.1128 C   0  0  0  0  0  0  0  0  0  0  0  0
    0.0336    3.7503    0.3211 C   0  0  0  0  0  0  0  0  0  0  0  0
    1.2949    4.9090    0.4976 Cl  0  0  0  0  0  0  0  0  0  0  0  0
    0.3322    2.3853    0.3859 C   0  0  0  0  0  0  0  0  0  0  0  0
   -0.6608    1.3887    0.2477 C   0  0  0  0  0  0  0  0  0  0  0  0
    5.3229   -1.1825   -0.0928 H   0  0  0  0  0  0  0  0  0  0  0  0
    4.5246   -0.1643   -1.0861 H   0  0  0  0  0  0  0  0  0  0  0  0
    3.6878   -0.0514    1.1616 H   0  0  0  0  0  0  0  0  0  0  0  0
    3.3062   -1.7760    1.0514 H   0  0  0  0  0  0  0  0  0  0  0  0
    1.7875   -1.2860   -0.9076 H   0  0  0  0  0  0  0  0  0  0  0  0
    2.1407    0.4186   -0.7486 H   0  0  0  0  0  0  0  0  0  0  0  0
    1.2556    0.3280    1.6652 H   0  0  0  0  0  0  0  0  0  0  0  0
    0.8673   -1.3223    1.4585 H   0  0  0  0  0  0  0  0  0  0  0  0
    0.2382   -2.6724   -0.0696 H   0  0  0  0  0  0  0  0  0  0  0  0
   -1.2767   -4.4483   -0.6764 H   0  0  0  0  0  0  0  0  0  0  0  0
   -3.6819   -3.9824   -1.0747 H   0  0  0  0  0  0  0  0  0  0  0  0
   -4.5299   -1.6848   -0.8406 H   0  0  0  0  0  0  0  0  0  0  0  0
   -3.2903    3.5633   -0.1969 H   0  0  0  0  0  0  0  0  0  0  0  0
   -1.5068    5.2350    0.0615 H   0  0  0  0  0  0  0  0  0  0  0  0
    1.3748    2.1260    0.5305 H   0  0  0  0  0  0  0  0  0  0  0  0
  1  2  1  0
  2  3  1  0
  3  4  1  0
  4  5  1  0
  5  6  1  0
  6  7  2  0
  7  8  1  0
  8  9  2  0
  9 10  1  0
 10 11  2  0
 11 12  1  0
 12 13  1  0
 13 14  2  0
 14 15  1  0
 15 16  2  0
 16 17  1  0
 16 18  1  0
 18 19  2  0
 19  5  1  0
 11  6  1  0
 19 13  1  0
  1 20  1  0
  1 21  1  0
  2 22  1  0
  2 23  1  0
  3 24  1  0
  3 25  1  0
  4 26  1  0
  4 27  1  0
  7 28  1  0
  8 29  1  0
  9 30  1  0
 10 31  1  0
 14 32  1  0
 15 33  1  0
 18 34  1  0
M  END
$$$$
