
     RDKit          3D

 43 45  0  0  0  0  0  0  0  0999 V2000
   -2.0637    3.9398    0.0108 C   0  0  0  0  0  0  0  0  0  0  0  0
   -1.4702    2.8793   -0.7275 O   0  0  0  0  0  0  0  0  0  0  0  0
   -1.8868    1.6102   -0.4356 C   0  0  0  0  0  0  0  0  0  0  0  0
   -2.7883    1.2557    0.5701 C   0  0  0  0  0  0  0  0  0  0  0  0
   -3.1304   -0.0862    0.7711 C   0  0  0  0  0  0  0  0  0  0  0  0
   -2.5851   -1.0800   -0.0431 C   0  0  0  0  0  0  0  0  0  0  0  0
   -2.8743   -2.3945    0.2075 O   0  0  0  0  0  0  0  0  0  0  0  0
   -4.2295   -2.6956   -0.1394 C   0  0  0  0  0  0  0  0  0  0  0  0
   -1.6680   -0.7283   -1.0339 C   0  0  0  0  0  0  0  0  0  0  0  0
   -0.9424   -1.9763   -2.0615 S   0  0  0  0  0  6  0  0  0  0  0  0
    0.0088   -1.3375   -2.9474 O   0  0  0  0  0  0  0  0  0  0  0  0
   -2.0202   -2.7813   -2.5988 O   0  0  0  0  0  0  0  0  0  0  0  0
   -0.0933   -2.9490   -0.9581 N   0  0  0  0  0  0  0  0  0  0  0  0
    0.8800   -2.3228   -0.1232 C   0  0  0  0  0  0  0  0  0  0  0  0
    0.6415   -2.2396    1.2488 C   0  0  0  0  0  0  0  0  0  0  0  0
    1.5603   -1.5940    2.0740 C   0  0  0  0  0  0  0  0  0  0  0  0
    2.7114   -1.0328    1.5248 C   0  0  0  0  0  0  0  0  0  0  0  0
    3.5450   -0.3943    2.4024 O   0  0  0  0  0  0  0  0  0  0  0  0
    2.9769   -1.1261    0.1509 C   0  0  0  0  0  0  0  0  0  0  0  0
    4.4849   -0.5336   -0.6023 S   0  0  0  0  0  0  0  0  0  0  0  0
    4.3314    1.1908   -0.4274 C   0  0  0  0  0  0  0  0  0  0  0  0
    4.2876    2.0546   -1.4843 N   0  0  0  0  0  0  0  0  0  0  0  0
    4.1902    3.2274   -0.9059 C   0  0  0  0  0  0  0  0  0  0  0  0
    4.1941    3.0688    0.4432 N   0  0  0  0  0  0  0  0  0  0  0  0
    4.3010    1.7709    0.7807 N   0  0  0  0  0  0  0  0  0  0  0  0
    2.0462   -1.7805   -0.6678 C   0  0  0  0  0  0  0  0  0  0  0  0
   -1.3240    0.6133   -1.2355 C   0  0  0  0  0  0  0  0  0  0  0  0
   -3.1482    3.9668   -0.1368 H   0  0  0  0  0  0  0  0  0  0  0  0
   -1.8101    3.8691    1.0736 H   0  0  0  0  0  0  0  0  0  0  0  0
   -1.6530    4.8810   -0.3671 H   0  0  0  0  0  0  0  0  0  0  0  0
   -3.2351    1.9978    1.2241 H   0  0  0  0  0  0  0  0  0  0  0  0
   -3.8107   -0.3482    1.5773 H   0  0  0  0  0  0  0  0  0  0  0  0
   -4.3296   -3.7844   -0.1768 H   0  0  0  0  0  0  0  0  0  0  0  0
   -4.4966   -2.2954   -1.1243 H   0  0  0  0  0  0  0  0  0  0  0  0
   -4.9160   -2.3182    0.6251 H   0  0  0  0  0  0  0  0  0  0  0  0
   -0.7475   -3.5829   -0.4966 H   0  0  0  0  0  0  0  0  0  0  0  0
   -0.2592   -2.6608    1.6867 H   0  0  0  0  0  0  0  0  0  0  0  0
    1.3787   -1.5179    3.1427 H   0  0  0  0  0  0  0  0  0  0  0  0
    4.0678    0.2576    1.8859 H   0  0  0  0  0  0  0  0  0  0  0  0
    4.1191    4.1882   -1.3956 H   0  0  0  0  0  0  0  0  0  0  0  0
    4.1364    3.7731    1.1708 H   0  0  0  0  0  0  0  0  0  0  0  0
    2.2352   -1.8769   -1.7354 H   0  0  0  0  0  0  0  0  0  0  0  0
   -0.6143    0.8927   -2.0123 H   0  0  0  0  0  0  0  0  0  0  0  0
  1  2  1  0
  2  3  1  0
  3  4  2  0
  4  5  1  0
  5  6  2  0
  6  7  1  0
  7  8  1  0
  6  9  1  0
  9 10  1  0
 10 11  2  0
 10 12  2  0
 10 13  1  0
 13 14  1  0
 14 15  2  0
 15 16  1  0
 16 17  2  0
 17 18  1  0
 17 19  1  0
 19 20  1  0
 20 21  1  0
 21 22  1  0
 22 23  2  0
 23 24  1  0
 24 25  1  0
 19 26  2  0
  9 27  2  0
 27  3  1  0
 26 14  1  0
 25 21  2  0
  1 28  1  0
  1 29  1  0
  1 30  1  0
  4 31  1  0
  5 32  1  0
  8 33  1  0
  8 34  1  0
  8 35  1  0
 13 36  1  0
 15 37  1  0
 16 38  1  0
 18 39  1  0
 23 40  1  0
 24 41  1  0
 26 42  1  0
 27 43  1  0
M  END
$$$$
