
     RDKit          3D

 55 59  0  0  0  0  0  0  0  0999 V2000
    8.3595    1.0184    0.5962 C   0  0  0  0  0  0  0  0  0  0  0  0
    7.1490    0.2887    0.4361 O   0  0  0  0  0  0  0  0  0  0  0  0
    6.0542    0.9929    0.0152 C   0  0  0  0  0  0  0  0  0  0  0  0
    6.0027    2.3667   -0.2187 C   0  0  0  0  0  0  0  0  0  0  0  0
    4.8152    2.9574   -0.6565 C   0  0  0  0  0  0  0  0  0  0  0  0
    3.6737    2.1788   -0.8508 C   0  0  0  0  0  0  0  0  0  0  0  0
    3.7023    0.8024   -0.6000 C   0  0  0  0  0  0  0  0  0  0  0  0
    2.4947    0.0075   -0.8133 C   0  0  0  0  0  0  0  0  0  0  0  0
    1.6937    0.1061   -1.8620 N   0  0  0  0  0  0  0  0  0  0  0  0
    0.6833   -0.8137   -1.7320 N   0  0  0  0  0  0  0  0  0  0  0  0
    0.8721   -1.4424   -0.5983 C   0  0  0  0  0  0  0  0  0  0  0  0
   -0.1370   -2.6948    0.0312 S   0  0  0  0  0  0  0  0  0  0  0  0
   -1.7806   -1.9340   -0.3168 C   0  0  0  0  0  0  0  0  0  0  0  0
   -1.9448   -0.6115    0.4611 C   0  0  0  0  0  0  0  0  0  0  0  0
   -1.3470   -0.4096    1.5234 O   0  0  0  0  0  0  0  0  0  0  0  0
   -2.8677    0.4044   -0.0725 C   0  0  0  0  0  0  0  0  0  0  0  0
   -3.6442    0.2991   -1.2146 C   0  0  0  0  0  0  0  0  0  0  0  0
   -4.3615    1.4564   -1.3649 N   0  0  0  0  0  0  0  0  0  0  0  0
   -4.0816    2.3263   -0.3403 C   0  0  0  0  0  0  0  0  0  0  0  0
   -4.5812    3.6103   -0.0899 C   0  0  0  0  0  0  0  0  0  0  0  0
   -4.1138    4.2793    1.0441 C   0  0  0  0  0  0  0  0  0  0  0  0
   -3.1835    3.6855    1.8917 C   0  0  0  0  0  0  0  0  0  0  0  0
   -2.6950    2.4014    1.6251 C   0  0  0  0  0  0  0  0  0  0  0  0
   -3.1487    1.6992    0.4872 C   0  0  0  0  0  0  0  0  0  0  0  0
   -2.8875   -2.9339   -0.0127 C   0  0  0  0  0  0  0  0  0  0  0  0
   -3.3286   -3.1730    1.2995 C   0  0  0  0  0  0  0  0  0  0  0  0
   -4.3421   -4.0996    1.5510 C   0  0  0  0  0  0  0  0  0  0  0  0
   -4.9213   -4.8056    0.4990 C   0  0  0  0  0  0  0  0  0  0  0  0
   -4.4847   -4.5910   -0.8060 C   0  0  0  0  0  0  0  0  0  0  0  0
   -3.4724   -3.6644   -1.0613 C   0  0  0  0  0  0  0  0  0  0  0  0
    1.9665   -0.9370    0.0435 N   0  0  0  0  0  0  0  0  0  0  0  0
    2.4116   -1.2506    1.3773 C   0  0  0  0  0  0  0  0  0  0  0  0
    4.9059    0.2181   -0.1824 C   0  0  0  0  0  0  0  0  0  0  0  0
    8.6774    1.4700   -0.3495 H   0  0  0  0  0  0  0  0  0  0  0  0
    9.1364    0.3126    0.9057 H   0  0  0  0  0  0  0  0  0  0  0  0
    8.2626    1.7735    1.3831 H   0  0  0  0  0  0  0  0  0  0  0  0
    6.8681    3.0057   -0.0780 H   0  0  0  0  0  0  0  0  0  0  0  0
    4.7784    4.0267   -0.8504 H   0  0  0  0  0  0  0  0  0  0  0  0
    2.7561    2.6500   -1.2000 H   0  0  0  0  0  0  0  0  0  0  0  0
   -1.7895   -1.7037   -1.3882 H   0  0  0  0  0  0  0  0  0  0  0  0
   -3.7568   -0.4937   -1.9418 H   0  0  0  0  0  0  0  0  0  0  0  0
   -5.0069    1.6499   -2.1186 H   0  0  0  0  0  0  0  0  0  0  0  0
   -5.3058    4.0766   -0.7492 H   0  0  0  0  0  0  0  0  0  0  0  0
   -4.4819    5.2780    1.2664 H   0  0  0  0  0  0  0  0  0  0  0  0
   -2.8303    4.2207    2.7694 H   0  0  0  0  0  0  0  0  0  0  0  0
   -1.9681    1.9499    2.2954 H   0  0  0  0  0  0  0  0  0  0  0  0
   -2.8835   -2.6449    2.1420 H   0  0  0  0  0  0  0  0  0  0  0  0
   -4.6759   -4.2733    2.5709 H   0  0  0  0  0  0  0  0  0  0  0  0
   -5.7078   -5.5290    0.6978 H   0  0  0  0  0  0  0  0  0  0  0  0
   -4.9292   -5.1500   -1.6256 H   0  0  0  0  0  0  0  0  0  0  0  0
   -3.1383   -3.5214   -2.0873 H   0  0  0  0  0  0  0  0  0  0  0  0
    2.9568   -0.4030    1.7987 H   0  0  0  0  0  0  0  0  0  0  0  0
    3.0563   -2.1313    1.3261 H   0  0  0  0  0  0  0  0  0  0  0  0
    1.5499   -1.4454    2.0201 H   0  0  0  0  0  0  0  0  0  0  0  0
    4.9713   -0.8556   -0.0232 H   0  0  0  0  0  0  0  0  0  0  0  0
  1  2  1  0
  2  3  1  0
  3  4  2  0
  4  5  1  0
  5  6  2  0
  6  7  1  0
  7  8  1  0
  8  9  2  0
  9 10  1  0
 10 11  2  0
 11 12  1  0
 12 13  1  0
 13 14  1  0
 14 15  2  0
 14 16  1  0
 16 17  2  0
 17 18  1  0
 18 19  1  0
 19 20  2  0
 20 21  1  0
 21 22  2  0
 22 23  1  0
 23 24  2  0
 13 25  1  0
 25 26  2  0
 26 27  1  0
 27 28  2  0
 28 29  1  0
 29 30  2  0
 11 31  1  0
 31 32  1  0
  7 33  2  0
 33  3  1  0
 31  8  1  0
 24 16  1  0
 30 25  1  0
 24 19  1  0
  1 34  1  0
  1 35  1  0
  1 36  1  0
  4 37  1  0
  5 38  1  0
  6 39  1  0
 13 40  1  0
 17 41  1  0
 18 42  1  0
 20 43  1  0
 21 44  1  0
 22 45  1  0
 23 46  1  0
 26 47  1  0
 27 48  1  0
 28 49  1  0
 29 50  1  0
 30 51  1  0
 32 52  1  0
 32 53  1  0
 32 54  1  0
 33 55  1  0
M  END
$$$$
