
     RDKit          3D

 58 62  0  0  0  0  0  0  0  0999 V2000
    8.2528    1.5621    2.2978 C   0  0  0  0  0  0  0  0  0  0  0  0
    7.6708    1.0565    1.1014 O   0  0  0  0  0  0  0  0  0  0  0  0
    6.3373    0.7795    1.1218 C   0  0  0  0  0  0  0  0  0  0  0  0
    5.4724    1.0011    2.1958 C   0  0  0  0  0  0  0  0  0  0  0  0
    4.1235    0.6353    2.0992 C   0  0  0  0  0  0  0  0  0  0  0  0
    3.6206    0.0485    0.9365 C   0  0  0  0  0  0  0  0  0  0  0  0
    2.2643   -0.3389    0.9122 N   0  0  0  0  0  0  0  0  0  0  0  0
    1.7502   -0.9080   -0.1514 C   0  0  0  0  0  0  0  0  0  0  0  0
    0.4175   -1.3149   -0.1317 N   0  0  0  0  0  0  0  0  0  0  0  0
   -0.5141   -0.8689   -1.1735 C   0  0  0  0  0  0  0  0  0  0  0  0
   -1.5037    0.2011   -0.6514 C   0  0  0  0  0  0  0  0  0  0  0  0
   -2.2229   -0.1505    0.5918 N   0  0  0  0  0  0  0  0  0  0  0  0
   -3.2052   -1.2402    0.4254 C   0  0  0  0  0  0  0  0  0  0  0  0
   -4.3576   -0.9731   -0.5761 C   0  0  0  0  0  0  0  0  0  0  0  0
   -5.2042    0.2706   -0.3695 C   0  0  0  0  0  0  0  0  0  0  0  0
   -5.5030    0.7134    0.9294 C   0  0  0  0  0  0  0  0  0  0  0  0
   -6.3006    1.8366    1.1466 C   0  0  0  0  0  0  0  0  0  0  0  0
   -6.8304    2.5307    0.0688 C   0  0  0  0  0  0  0  0  0  0  0  0
   -6.5644    2.0994   -1.2277 C   0  0  0  0  0  0  0  0  0  0  0  0
   -5.7605    0.9700   -1.4676 C   0  0  0  0  0  0  0  0  0  0  0  0
   -5.4975    0.5597   -2.8987 C   0  0  0  0  0  0  0  0  0  0  0  0
   -6.2203    1.2654   -3.8171 F   0  0  0  0  0  0  0  0  0  0  0  0
   -4.1932    0.7226   -3.2572 F   0  0  0  0  0  0  0  0  0  0  0  0
   -5.7883   -0.7489   -3.1400 F   0  0  0  0  0  0  0  0  0  0  0  0
   -1.1958   -0.5043    1.6070 C   0  0  0  0  0  0  0  0  0  0  0  0
   -0.2254   -1.6199    1.1605 C   0  0  0  0  0  0  0  0  0  0  0  0
    2.6136   -1.1356   -1.3025 C   0  0  0  0  0  0  0  0  0  0  0  0
    2.3831   -1.7666   -2.5135 C   0  0  0  0  0  0  0  0  0  0  0  0
    3.5945   -1.7161   -3.2623 C   0  0  0  0  0  0  0  0  0  0  0  0
    4.5390   -1.0857   -2.4748 C   0  0  0  0  0  0  0  0  0  0  0  0
    3.9419   -0.7506   -1.2778 N   0  0  0  0  0  0  0  0  0  0  0  0
    4.4993   -0.1459   -0.1386 C   0  0  0  0  0  0  0  0  0  0  0  0
    5.8445    0.2124   -0.0577 C   0  0  0  0  0  0  0  0  0  0  0  0
    9.3299    1.6634    2.1336 H   0  0  0  0  0  0  0  0  0  0  0  0
    7.8552    2.5516    2.5372 H   0  0  0  0  0  0  0  0  0  0  0  0
    8.1152    0.8670    3.1310 H   0  0  0  0  0  0  0  0  0  0  0  0
    5.8104    1.4455    3.1280 H   0  0  0  0  0  0  0  0  0  0  0  0
    3.4573    0.7920    2.9466 H   0  0  0  0  0  0  0  0  0  0  0  0
    0.0193   -0.4384   -2.0269 H   0  0  0  0  0  0  0  0  0  0  0  0
   -1.0659   -1.7338   -1.5502 H   0  0  0  0  0  0  0  0  0  0  0  0
   -2.2106    0.4620   -1.4473 H   0  0  0  0  0  0  0  0  0  0  0  0
   -0.9423    1.1254   -0.4576 H   0  0  0  0  0  0  0  0  0  0  0  0
   -3.6535   -1.4615    1.4046 H   0  0  0  0  0  0  0  0  0  0  0  0
   -2.7133   -2.1705    0.1079 H   0  0  0  0  0  0  0  0  0  0  0  0
   -5.0417   -1.8392   -0.5410 H   0  0  0  0  0  0  0  0  0  0  0  0
   -3.9229   -0.9736   -1.5829 H   0  0  0  0  0  0  0  0  0  0  0  0
   -5.1037    0.1972    1.7974 H   0  0  0  0  0  0  0  0  0  0  0  0
   -6.4966    2.1787    2.1606 H   0  0  0  0  0  0  0  0  0  0  0  0
   -7.4455    3.4079    0.2349 H   0  0  0  0  0  0  0  0  0  0  0  0
   -6.9892    2.6545   -2.0617 H   0  0  0  0  0  0  0  0  0  0  0  0
   -1.6893   -0.7950    2.5450 H   0  0  0  0  0  0  0  0  0  0  0  0
   -0.6182    0.3998    1.8421 H   0  0  0  0  0  0  0  0  0  0  0  0
   -0.7699   -2.5653    1.0485 H   0  0  0  0  0  0  0  0  0  0  0  0
    0.5147   -1.8054    1.9493 H   0  0  0  0  0  0  0  0  0  0  0  0
    1.4443   -2.2212   -2.8275 H   0  0  0  0  0  0  0  0  0  0  0  0
    3.7642   -2.1121   -4.2570 H   0  0  0  0  0  0  0  0  0  0  0  0
    5.5853   -0.8730   -2.6779 H   0  0  0  0  0  0  0  0  0  0  0  0
    6.5286    0.0469   -0.8839 H   0  0  0  0  0  0  0  0  0  0  0  0
  1  2  1  0
  2  3  1  0
  3  4  2  0
  4  5  1  0
  5  6  2  0
  6  7  1  0
  7  8  2  0
  8  9  1  0
  9 10  1  0
 10 11  1  0
 11 12  1  0
 12 13  1  0
 13 14  1  0
 14 15  1  0
 15 16  2  0
 16 17  1  0
 17 18  2  0
 18 19  1  0
 19 20  2  0
 20 21  1  0
 21 22  1  0
 21 23  1  0
 21 24  1  0
 12 25  1  0
 25 26  1  0
  8 27  1  0
 27 28  2  0
 28 29  1  0
 29 30  2  0
 30 31  1  0
 31 32  1  0
 32 33  2  0
 33  3  1  0
 32  6  1  0
 26  9  1  0
 31 27  1  0
 20 15  1  0
  1 34  1  0
  1 35  1  0
  1 36  1  0
  4 37  1  0
  5 38  1  0
 10 39  1  0
 10 40  1  0
 11 41  1  0
 11 42  1  0
 13 43  1  0
 13 44  1  0
 14 45  1  0
 14 46  1  0
 16 47  1  0
 17 48  1  0
 18 49  1  0
 19 50  1  0
 25 51  1  0
 25 52  1  0
 26 53  1  0
 26 54  1  0
 28 55  1  0
 29 56  1  0
 30 57  1  0
 33 58  1  0
M  END
$$$$
