
     RDKit          3D

 49 50  0  0  0  0  0  0  0  0999 V2000
    6.1122   -0.7807    1.0406 C   0  0  0  0  0  0  0  0  0  0  0  0
    4.9540   -1.7551    1.1455 C   0  0  0  0  0  0  0  0  0  0  0  0
    3.9111   -1.3855    0.2342 O   0  0  0  0  0  0  0  0  0  0  0  0
    3.0088   -0.4686    0.6939 C   0  0  0  0  0  0  0  0  0  0  0  0
    3.0651    0.0300    1.8133 O   0  0  0  0  0  0  0  0  0  0  0  0
    1.9719   -0.1393   -0.2970 C   0  0  0  0  0  0  0  0  0  0  0  0
    1.6744   -0.7941   -1.5443 C   0  0  0  0  0  0  0  0  0  0  0  0
    2.3765   -1.9860   -2.1060 C   0  0  0  0  0  0  0  0  0  0  0  0
    0.6224   -0.1072   -2.1363 C   0  0  0  0  0  0  0  0  0  0  0  0
   -0.0256   -0.3270   -3.4645 C   0  0  0  0  0  0  0  0  0  0  0  0
    0.1927    0.8620   -1.2466 N   0  0  0  0  0  0  0  0  0  0  0  0
   -0.9675    1.7407   -1.4545 C   0  0  0  0  0  0  0  0  0  0  0  0
   -2.0320    1.6283   -0.3856 C   0  0  0  0  0  0  0  0  0  0  0  0
   -2.3301    2.7463    0.4101 C   0  0  0  0  0  0  0  0  0  0  0  0
   -3.3210    2.6825    1.3879 C   0  0  0  0  0  0  0  0  0  0  0  0
   -4.0528    1.5089    1.5721 C   0  0  0  0  0  0  0  0  0  0  0  0
   -3.8000    0.3864    0.7792 C   0  0  0  0  0  0  0  0  0  0  0  0
   -4.5033   -0.7878    0.8551 O   0  0  0  0  0  0  0  0  0  0  0  0
   -5.5927   -0.8470    1.7652 C   0  0  0  0  0  0  0  0  0  0  0  0
   -2.7717    0.4482   -0.1837 C   0  0  0  0  0  0  0  0  0  0  0  0
   -2.5153   -0.6113   -1.0224 O   0  0  0  0  0  0  0  0  0  0  0  0
   -1.9678   -1.7222   -0.3081 C   0  0  0  0  0  0  0  0  0  0  0  0
    1.0760    0.9242   -0.1835 C   0  0  0  0  0  0  0  0  0  0  0  0
    0.9989    1.9701    0.8805 C   0  0  0  0  0  0  0  0  0  0  0  0
    6.9385   -1.0897    1.6869 H   0  0  0  0  0  0  0  0  0  0  0  0
    6.4733   -0.7227    0.0086 H   0  0  0  0  0  0  0  0  0  0  0  0
    5.8037    0.2296    1.3271 H   0  0  0  0  0  0  0  0  0  0  0  0
    5.2903   -2.7561    0.8559 H   0  0  0  0  0  0  0  0  0  0  0  0
    4.5807   -1.8285    2.1733 H   0  0  0  0  0  0  0  0  0  0  0  0
    3.3864   -1.7154   -2.4298 H   0  0  0  0  0  0  0  0  0  0  0  0
    1.8498   -2.4081   -2.9661 H   0  0  0  0  0  0  0  0  0  0  0  0
    2.4437   -2.7822   -1.3575 H   0  0  0  0  0  0  0  0  0  0  0  0
    0.5462   -1.0222   -4.0851 H   0  0  0  0  0  0  0  0  0  0  0  0
   -0.0911    0.6120   -4.0239 H   0  0  0  0  0  0  0  0  0  0  0  0
   -1.0315   -0.7386   -3.3430 H   0  0  0  0  0  0  0  0  0  0  0  0
   -0.5665    2.7592   -1.5219 H   0  0  0  0  0  0  0  0  0  0  0  0
   -1.4228    1.5246   -2.4250 H   0  0  0  0  0  0  0  0  0  0  0  0
   -1.7871    3.6798    0.2758 H   0  0  0  0  0  0  0  0  0  0  0  0
   -3.5323    3.5541    2.0028 H   0  0  0  0  0  0  0  0  0  0  0  0
   -4.8228    1.5091    2.3360 H   0  0  0  0  0  0  0  0  0  0  0  0
   -6.0533   -1.8352    1.6706 H   0  0  0  0  0  0  0  0  0  0  0  0
   -6.3554   -0.1004    1.5203 H   0  0  0  0  0  0  0  0  0  0  0  0
   -5.2485   -0.7391    2.7991 H   0  0  0  0  0  0  0  0  0  0  0  0
   -1.3260   -1.4134    0.5253 H   0  0  0  0  0  0  0  0  0  0  0  0
   -1.3567   -2.3000   -1.0081 H   0  0  0  0  0  0  0  0  0  0  0  0
   -2.7657   -2.3795    0.0487 H   0  0  0  0  0  0  0  0  0  0  0  0
    0.3609    1.6316    1.7024 H   0  0  0  0  0  0  0  0  0  0  0  0
    1.9897    2.1980    1.2846 H   0  0  0  0  0  0  0  0  0  0  0  0
    0.6124    2.9169    0.4946 H   0  0  0  0  0  0  0  0  0  0  0  0
  1  2  1  0
  2  3  1  0
  3  4  1  0
  4  5  2  0
  4  6  1  0
  6  7  1  0
  7  8  1  0
  7  9  2  0
  9 10  1  0
  9 11  1  0
 11 12  1  0
 12 13  1  0
 13 14  2  0
 14 15  1  0
 15 16  2  0
 16 17  1  0
 17 18  1  0
 18 19  1  0
 17 20  2  0
 20 21  1  0
 21 22  1  0
 11 23  1  0
 23 24  1  0
 23  6  2  0
 20 13  1  0
  1 25  1  0
  1 26  1  0
  1 27  1  0
  2 28  1  0
  2 29  1  0
  8 30  1  0
  8 31  1  0
  8 32  1  0
 10 33  1  0
 10 34  1  0
 10 35  1  0
 12 36  1  0
 12 37  1  0
 14 38  1  0
 15 39  1  0
 16 40  1  0
 19 41  1  0
 19 42  1  0
 19 43  1  0
 22 44  1  0
 22 45  1  0
 22 46  1  0
 24 47  1  0
 24 48  1  0
 24 49  1  0
M  END
$$$$
