
     RDKit          3D

 74 75  0  0  0  0  0  0  0  0999 V2000
    1.1139    6.1309    1.2989 C   0  0  0  0  0  0  0  0  0  0  0  0
    0.2102    5.1135    1.7124 O   0  0  0  0  0  0  0  0  0  0  0  0
   -0.1036    4.1403    0.7999 C   0  0  0  0  0  0  0  0  0  0  0  0
    0.2183    4.2069   -0.5557 C   0  0  0  0  0  0  0  0  0  0  0  0
   -0.1139    3.1556   -1.4071 C   0  0  0  0  0  0  0  0  0  0  0  0
   -0.7491    2.0182   -0.9093 C   0  0  0  0  0  0  0  0  0  0  0  0
   -1.0728    1.9021    0.4556 C   0  0  0  0  0  0  0  0  0  0  0  0
   -1.7303    0.6386    1.0264 C   0  0  0  0  0  0  0  0  0  0  0  0
   -2.3851   -0.3129   -0.0285 C   0  0  0  0  0  0  0  0  0  0  0  0
   -3.1816    0.0940   -0.8731 O   0  0  0  0  0  0  0  0  0  0  0  0
   -1.9854   -1.6336    0.0453 N   0  0  0  0  0  0  0  0  0  0  0  0
   -2.4660   -2.7288   -0.8075 C   0  0  0  0  0  0  0  0  0  0  0  0
   -2.1624   -2.4508   -2.2876 C   0  0  0  0  0  0  0  0  0  0  0  0
   -3.9703   -2.9568   -0.6041 C   0  0  0  0  0  0  0  0  0  0  0  0
   -1.7143   -4.0084   -0.3961 C   0  0  0  0  0  0  0  0  0  0  0  0
   -0.9175   -0.1143    2.0580 N   0  0  0  0  0  0  0  0  0  0  0  0
    0.3957   -0.5598    1.8161 C   0  0  0  0  0  0  0  0  0  0  0  0
    1.0167   -1.2443    2.6330 O   0  0  0  0  0  0  0  0  0  0  0  0
    1.0748   -0.2326    0.4988 C   0  0  0  0  0  0  0  0  0  0  0  0
    2.3181   -1.0948    0.2836 C   0  0  0  0  0  0  0  0  0  0  0  0
    2.9144   -0.8928   -1.0954 C   0  0  0  0  0  0  0  0  0  0  0  0
    2.5300   -0.0125   -1.8605 O   0  0  0  0  0  0  0  0  0  0  0  0
    3.9139   -1.8040   -1.3531 N   0  0  0  0  0  0  0  0  0  0  0  0
    4.6452   -1.8772   -2.5168 C   0  0  0  0  0  0  0  0  0  0  0  0
    4.6309   -1.0265   -3.6455 C   0  0  0  0  0  0  0  0  0  0  0  0
    5.5464   -1.5803   -4.5050 C   0  0  0  0  0  0  0  0  0  0  0  0
    6.0221   -1.2465   -5.8578 C   0  0  0  0  0  0  0  0  0  0  0  0
    6.0794   -2.6927   -3.9314 O   0  0  0  0  0  0  0  0  0  0  0  0
    5.5315   -2.8668   -2.6745 N   0  0  0  0  0  0  0  0  0  0  0  0
   -1.5610   -0.4794    3.3930 C   0  0  0  0  0  0  0  0  0  0  0  0
   -0.7373    0.1004    4.5685 C   0  0  0  0  0  0  0  0  0  0  0  0
   -1.6750   -2.0166    3.5617 C   0  0  0  0  0  0  0  0  0  0  0  0
   -3.0078    0.0471    3.5845 C   0  0  0  0  0  0  0  0  0  0  0  0
   -0.7910    3.0074    1.2868 C   0  0  0  0  0  0  0  0  0  0  0  0
   -1.1633    2.9147    2.6084 O   0  0  0  0  0  0  0  0  0  0  0  0
   -2.1263    3.9129    2.9589 C   0  0  0  0  0  0  0  0  0  0  0  0
    1.3441    6.7462    2.1745 H   0  0  0  0  0  0  0  0  0  0  0  0
    2.0556    5.7059    0.9346 H   0  0  0  0  0  0  0  0  0  0  0  0
    0.6554    6.7841    0.5494 H   0  0  0  0  0  0  0  0  0  0  0  0
    0.7264    5.0634   -0.9837 H   0  0  0  0  0  0  0  0  0  0  0  0
    0.1379    3.2115   -2.4636 H   0  0  0  0  0  0  0  0  0  0  0  0
   -0.9663    1.2167   -1.6139 H   0  0  0  0  0  0  0  0  0  0  0  0
   -2.6129    1.0463    1.5229 H   0  0  0  0  0  0  0  0  0  0  0  0
   -1.4852   -1.8895    0.8871 H   0  0  0  0  0  0  0  0  0  0  0  0
   -1.0953   -2.2467   -2.4365 H   0  0  0  0  0  0  0  0  0  0  0  0
   -2.4335   -3.3086   -2.9153 H   0  0  0  0  0  0  0  0  0  0  0  0
   -2.7162   -1.5862   -2.6669 H   0  0  0  0  0  0  0  0  0  0  0  0
   -4.2018   -3.1332    0.4535 H   0  0  0  0  0  0  0  0  0  0  0  0
   -4.5606   -2.0926   -0.9268 H   0  0  0  0  0  0  0  0  0  0  0  0
   -4.3202   -3.8240   -1.1764 H   0  0  0  0  0  0  0  0  0  0  0  0
   -2.0102   -4.8654   -1.0102 H   0  0  0  0  0  0  0  0  0  0  0  0
   -0.6318   -3.8765   -0.4993 H   0  0  0  0  0  0  0  0  0  0  0  0
   -1.9073   -4.2619    0.6524 H   0  0  0  0  0  0  0  0  0  0  0  0
    1.3790    0.8175    0.5139 H   0  0  0  0  0  0  0  0  0  0  0  0
    0.3905   -0.4158   -0.3303 H   0  0  0  0  0  0  0  0  0  0  0  0
    3.0852   -0.8524    1.0293 H   0  0  0  0  0  0  0  0  0  0  0  0
    2.0588   -2.1552    0.3948 H   0  0  0  0  0  0  0  0  0  0  0  0
    4.1423   -2.5236   -0.6806 H   0  0  0  0  0  0  0  0  0  0  0  0
    4.0354   -0.1411   -3.8152 H   0  0  0  0  0  0  0  0  0  0  0  0
    5.7404   -0.2251   -6.1325 H   0  0  0  0  0  0  0  0  0  0  0  0
    5.5863   -1.9320   -6.5905 H   0  0  0  0  0  0  0  0  0  0  0  0
    7.1130   -1.3284   -5.9175 H   0  0  0  0  0  0  0  0  0  0  0  0
   -1.2443   -0.0691    5.5261 H   0  0  0  0  0  0  0  0  0  0  0  0
   -0.5926    1.1801    4.4564 H   0  0  0  0  0  0  0  0  0  0  0  0
    0.2532   -0.3538    4.6605 H   0  0  0  0  0  0  0  0  0  0  0  0
   -2.0977   -2.2727    4.5412 H   0  0  0  0  0  0  0  0  0  0  0  0
   -2.3349   -2.4473    2.8016 H   0  0  0  0  0  0  0  0  0  0  0  0
   -0.7165   -2.5349    3.4905 H   0  0  0  0  0  0  0  0  0  0  0  0
   -3.0506    1.1391    3.5816 H   0  0  0  0  0  0  0  0  0  0  0  0
   -3.6842   -0.3336    2.8103 H   0  0  0  0  0  0  0  0  0  0  0  0
   -3.4198   -0.2755    4.5494 H   0  0  0  0  0  0  0  0  0  0  0  0
   -2.7119    3.5276    3.7994 H   0  0  0  0  0  0  0  0  0  0  0  0
   -2.8232    4.1287    2.1389 H   0  0  0  0  0  0  0  0  0  0  0  0
   -1.6339    4.8282    3.2995 H   0  0  0  0  0  0  0  0  0  0  0  0
  1  2  1  0
  2  3  1  0
  3  4  2  0
  4  5  1  0
  5  6  2  0
  6  7  1  0
  7  8  1  0
  8  9  1  0
  9 10  2  0
  9 11  1  0
 11 12  1  0
 12 13  1  0
 12 14  1  0
 12 15  1  0
  8 16  1  0
 16 17  1  0
 17 18  2  0
 17 19  1  0
 19 20  1  0
 20 21  1  0
 21 22  2  0
 21 23  1  0
 23 24  1  0
 24 25  1  0
 25 26  2  0
 26 27  1  0
 26 28  1  0
 28 29  1  0
 16 30  1  0
 30 31  1  0
 30 32  1  0
 30 33  1  0
  7 34  2  0
 34 35  1  0
 35 36  1  0
 34  3  1  0
 29 24  2  0
  1 37  1  0
  1 38  1  0
  1 39  1  0
  4 40  1  0
  5 41  1  0
  6 42  1  0
  8 43  1  0
 11 44  1  0
 13 45  1  0
 13 46  1  0
 13 47  1  0
 14 48  1  0
 14 49  1  0
 14 50  1  0
 15 51  1  0
 15 52  1  0
 15 53  1  0
 19 54  1  0
 19 55  1  0
 20 56  1  0
 20 57  1  0
 23 58  1  0
 25 59  1  0
 27 60  1  0
 27 61  1  0
 27 62  1  0
 31 63  1  0
 31 64  1  0
 31 65  1  0
 32 66  1  0
 32 67  1  0
 32 68  1  0
 33 69  1  0
 33 70  1  0
 33 71  1  0
 36 72  1  0
 36 73  1  0
 36 74  1  0
M  END
$$$$
