
     RDKit          3D

 39 39  0  0  0  0  0  0  0  0999 V2000
   -4.8789    3.1817    0.0016 C   0  0  0  0  0  0  0  0  0  0  0  0
   -3.9503    2.0083    0.0664 C   0  0  0  0  0  0  0  0  0  0  0  0
   -4.0880    1.0570    0.8226 O   0  0  0  0  0  0  0  0  0  0  0  0
   -2.9341    2.1685   -0.8257 O   0  0  0  0  0  0  0  0  0  0  0  0
   -1.9854    1.0891   -0.8868 C   0  0  0  0  0  0  0  0  0  0  0  0
   -0.9616    1.2190    0.2400 C   0  0  0  0  0  0  0  0  0  0  0  0
    0.1244    0.1317    0.1839 C   0  0  0  0  0  0  0  0  0  0  0  0
    1.1249    0.3960    1.2283 N   0  0  0  0  0  0  0  0  0  0  0  0
    2.5165    1.1977    0.8084 S   0  0  0  0  0  6  0  0  0  0  0  0
    2.1540    2.3215   -0.0229 O   0  0  0  0  0  0  0  0  0  0  0  0
    3.2795    1.3757    2.0208 O   0  0  0  0  0  0  0  0  0  0  0  0
    3.2921    0.1261   -0.1225 O   0  0  0  0  0  0  0  0  0  0  0  0
    4.6146    0.4566   -0.5379 C   0  0  0  0  0  0  0  0  0  0  0  0
    5.0918   -0.4755   -1.6587 C   0  0  0  0  0  0  0  0  0  0  0  0
    6.7499   -0.0162   -2.1568 Cl  0  0  0  0  0  0  0  0  0  0  0  0
    4.0110   -0.3478   -3.0834 Cl  0  0  0  0  0  0  0  0  0  0  0  0
    5.1125   -2.1782   -1.1038 Cl  0  0  0  0  0  0  0  0  0  0  0  0
   -0.3735   -1.2966    0.3414 C   0  0  0  0  0  0  0  0  0  0  0  0
    0.2927   -2.3274   -0.3457 C   0  0  0  0  0  0  0  0  0  0  0  0
   -0.1137   -3.6565   -0.2147 C   0  0  0  0  0  0  0  0  0  0  0  0
   -1.1859   -3.9783    0.6126 C   0  0  0  0  0  0  0  0  0  0  0  0
   -1.8455   -2.9730    1.3151 C   0  0  0  0  0  0  0  0  0  0  0  0
   -1.4382   -1.6424    1.1882 C   0  0  0  0  0  0  0  0  0  0  0  0
   -5.7060    3.0282    0.7006 H   0  0  0  0  0  0  0  0  0  0  0  0
   -5.2900    3.2742   -1.0068 H   0  0  0  0  0  0  0  0  0  0  0  0
   -4.3454    4.0922    0.2854 H   0  0  0  0  0  0  0  0  0  0  0  0
   -2.5112    0.1281   -0.8774 H   0  0  0  0  0  0  0  0  0  0  0  0
   -1.4831    1.1675   -1.8573 H   0  0  0  0  0  0  0  0  0  0  0  0
   -0.5008    2.2127    0.1666 H   0  0  0  0  0  0  0  0  0  0  0  0
   -1.4625    1.2289    1.2153 H   0  0  0  0  0  0  0  0  0  0  0  0
    0.5995    0.1968   -0.8047 H   0  0  0  0  0  0  0  0  0  0  0  0
    0.7776    0.6215    2.1573 H   0  0  0  0  0  0  0  0  0  0  0  0
    5.2780    0.3812    0.3325 H   0  0  0  0  0  0  0  0  0  0  0  0
    4.6360    1.4979   -0.8845 H   0  0  0  0  0  0  0  0  0  0  0  0
    1.1435   -2.1017   -0.9863 H   0  0  0  0  0  0  0  0  0  0  0  0
    0.4111   -4.4408   -0.7543 H   0  0  0  0  0  0  0  0  0  0  0  0
   -1.5031   -5.0126    0.7161 H   0  0  0  0  0  0  0  0  0  0  0  0
   -2.6788   -3.2232    1.9671 H   0  0  0  0  0  0  0  0  0  0  0  0
   -1.9737   -0.8877    1.7599 H   0  0  0  0  0  0  0  0  0  0  0  0
  1  2  1  0
  2  3  2  0
  2  4  1  0
  4  5  1  0
  5  6  1  0
  6  7  1  0
  7  8  1  0
  8  9  1  0
  9 10  2  0
  9 11  2  0
  9 12  1  0
 12 13  1  0
 13 14  1  0
 14 15  1  0
 14 16  1  0
 14 17  1  0
  7 18  1  0
 18 19  2  0
 19 20  1  0
 20 21  2  0
 21 22  1  0
 22 23  2  0
 23 18  1  0
  1 24  1  0
  1 25  1  0
  1 26  1  0
  5 27  1  0
  5 28  1  0
  6 29  1  0
  6 30  1  0
  7 31  1  0
  8 32  1  0
 13 33  1  0
 13 34  1  0
 19 35  1  0
 20 36  1  0
 21 37  1  0
 22 38  1  0
 23 39  1  0
M  END
$$$$
