
     RDKit          3D

 46 49  0  0  0  0  0  0  0  0999 V2000
   -3.9533    5.3920    1.3659 N   0  0  0  0  0  0  0  0  0  0  0  0
   -4.3481    4.1372    1.0835 C   0  0  0  0  0  0  0  0  0  0  0  0
   -5.6113    3.7151    1.1439 N   0  0  0  0  0  0  0  0  0  0  0  0
   -5.5767    2.3790    0.7644 O   0  0  0  0  0  0  0  0  0  0  0  0
   -4.2753    1.9695    0.4752 N   0  0  0  0  0  0  0  0  0  0  0  0
   -3.5364    3.0597    0.6800 C   0  0  0  0  0  0  0  0  0  0  0  0
   -2.1278    3.0407    0.5064 N   0  0  0  0  0  0  0  0  0  0  0  0
   -1.3703    4.1428    0.7713 N   0  0  0  0  0  0  0  0  0  0  0  0
   -0.0979    3.8593    0.5634 N   0  0  0  0  0  0  0  0  0  0  0  0
   -0.0032    2.5483    0.1830 C   0  0  0  0  0  0  0  0  0  0  0  0
    1.2913    1.9299   -0.1113 C   0  0  0  0  0  0  0  0  0  0  0  0
    2.1716    2.5634   -0.6856 O   0  0  0  0  0  0  0  0  0  0  0  0
    1.3888    0.6110    0.3241 N   0  0  0  0  0  0  0  0  0  0  0  0
    2.4048   -0.2861    0.1131 N   0  0  0  0  0  0  0  0  0  0  0  0
    3.5748    0.1225   -0.2612 C   0  0  0  0  0  0  0  0  0  0  0  0
    4.6773   -0.8320   -0.5167 C   0  0  0  0  0  0  0  0  0  0  0  0
    4.4958   -2.2065   -0.3428 C   0  0  0  0  0  0  0  0  0  0  0  0
    5.5535   -3.0838   -0.5882 C   0  0  0  0  0  0  0  0  0  0  0  0
    6.7894   -2.5879   -1.0062 C   0  0  0  0  0  0  0  0  0  0  0  0
    6.9696   -1.2153   -1.1825 C   0  0  0  0  0  0  0  0  0  0  0  0
    5.9128   -0.3347   -0.9415 C   0  0  0  0  0  0  0  0  0  0  0  0
   -1.2824    2.0113    0.0870 C   0  0  0  0  0  0  0  0  0  0  0  0
   -1.7320    0.6816   -0.3995 C   0  0  0  0  0  0  0  0  0  0  0  0
   -1.7724   -0.4994    0.9883 S   0  0  0  0  0  0  0  0  0  0  0  0
   -2.4171   -1.9083    0.1105 C   0  0  0  0  0  0  0  0  0  0  0  0
   -1.6000   -2.6464   -0.7547 C   0  0  0  0  0  0  0  0  0  0  0  0
   -2.1251   -3.7343   -1.4547 C   0  0  0  0  0  0  0  0  0  0  0  0
   -3.4625   -4.0934   -1.2868 C   0  0  0  0  0  0  0  0  0  0  0  0
   -4.2744   -3.3701   -0.4132 C   0  0  0  0  0  0  0  0  0  0  0  0
   -3.7547   -2.2791    0.2862 C   0  0  0  0  0  0  0  0  0  0  0  0
   -4.5968    6.0205    1.8353 H   0  0  0  0  0  0  0  0  0  0  0  0
   -2.9666    5.6265    1.4823 H   0  0  0  0  0  0  0  0  0  0  0  0
    0.5927    0.1941    0.8012 H   0  0  0  0  0  0  0  0  0  0  0  0
    3.8445    1.1822   -0.3833 H   0  0  0  0  0  0  0  0  0  0  0  0
    3.5356   -2.6006   -0.0172 H   0  0  0  0  0  0  0  0  0  0  0  0
    5.4149   -4.1523   -0.4454 H   0  0  0  0  0  0  0  0  0  0  0  0
    7.6127   -3.2723   -1.1960 H   0  0  0  0  0  0  0  0  0  0  0  0
    7.9316   -0.8331   -1.5135 H   0  0  0  0  0  0  0  0  0  0  0  0
    6.0630    0.7304   -1.0921 H   0  0  0  0  0  0  0  0  0  0  0  0
   -1.0223    0.3115   -1.1491 H   0  0  0  0  0  0  0  0  0  0  0  0
   -2.6987    0.7230   -0.9073 H   0  0  0  0  0  0  0  0  0  0  0  0
   -0.5523   -2.3863   -0.8887 H   0  0  0  0  0  0  0  0  0  0  0  0
   -1.4865   -4.3073   -2.1244 H   0  0  0  0  0  0  0  0  0  0  0  0
   -3.8686   -4.9428   -1.8313 H   0  0  0  0  0  0  0  0  0  0  0  0
   -5.3147   -3.6544   -0.2745 H   0  0  0  0  0  0  0  0  0  0  0  0
   -4.3969   -1.7249    0.9667 H   0  0  0  0  0  0  0  0  0  0  0  0
  1  2  1  0
  2  3  2  0
  3  4  1  0
  4  5  1  0
  5  6  2  0
  6  7  1  0
  7  8  1  0
  8  9  2  0
  9 10  1  0
 10 11  1  0
 11 12  2  0
 11 13  1  0
 13 14  1  0
 14 15  2  3
 15 16  1  0
 16 17  2  0
 17 18  1  0
 18 19  2  0
 19 20  1  0
 20 21  2  0
 10 22  2  0
 22 23  1  0
 23 24  1  0
 24 25  1  0
 25 26  2  0
 26 27  1  0
 27 28  2  0
 28 29  1  0
 29 30  2  0
  6  2  1  0
 22  7  1  0
 30 25  1  0
 21 16  1  0
  1 31  1  0
  1 32  1  0
 13 33  1  0
 15 34  1  0
 17 35  1  0
 18 36  1  0
 19 37  1  0
 20 38  1  0
 21 39  1  0
 23 40  1  0
 23 41  1  0
 26 42  1  0
 27 43  1  0
 28 44  1  0
 29 45  1  0
 30 46  1  0
M  END
$$$$
