
     RDKit          3D

130132  0  0  0  0  0  0  0  0999 V2000
    2.5865    5.2947    3.5753 C   0  0  0  0  0  0  0  0  0  0  0  0
    2.5350    4.6101    2.2167 C   0  0  0  0  0  0  0  0  0  0  0  0
    2.0705    3.1350    2.2260 C   0  0  0  0  0  0  0  0  0  0  0  0
    0.6557    3.0102    2.7518 C   0  0  0  0  0  0  0  0  0  0  0  0
   -0.4816    2.9650    2.0364 C   0  0  0  0  0  0  0  0  0  0  0  0
   -0.5827    3.1006    0.6009 C   0  0  0  0  0  0  0  0  0  0  0  0
   -1.6693    2.8590   -0.1502 C   0  0  0  0  0  0  0  0  0  0  0  0
   -3.0063    2.3147    0.2787 C   0  0  0  0  0  0  0  0  0  0  0  0
   -4.1630    3.3208    0.1014 C   0  0  0  0  0  0  0  0  0  0  0  0
   -3.9913    4.4749    1.1118 C   0  0  0  0  0  0  0  0  0  0  0  0
   -5.5839    2.7162    0.2807 C   0  0  0  0  0  0  0  0  0  0  0  0
   -5.6981    1.9209    1.4701 O   0  0  0  0  0  0  0  0  0  0  0  0
   -6.2563    1.9736   -0.9094 C   0  0  0  0  0  0  0  0  0  0  0  0
   -6.4289    2.8921   -2.1225 C   0  0  0  0  0  0  0  0  0  0  0  0
   -7.5957    1.6310   -0.4977 O   0  0  0  0  0  0  0  0  0  0  0  0
   -5.5202    0.6901   -1.3526 C   0  0  0  0  0  0  0  0  0  0  0  0
   -4.6667    0.7091   -2.2487 O   0  0  0  0  0  0  0  0  0  0  0  0
   -5.8675   -0.6321   -0.6649 C   0  0  0  0  0  0  0  0  0  0  0  0
   -6.4991   -1.5346   -1.7208 C   0  0  0  0  0  0  0  0  0  0  0  0
   -4.5822   -1.1870   -0.0263 C   0  0  0  0  0  0  0  0  0  0  0  0
   -4.3408   -0.3836    1.1449 O   0  0  0  0  0  0  0  0  0  0  0  0
   -4.6036   -2.6885    0.3539 C   0  0  0  0  0  0  0  0  0  0  0  0
   -5.5596   -2.9657    1.5167 C   0  0  0  0  0  0  0  0  0  0  0  0
   -3.1759   -3.0949    0.7399 C   0  0  0  0  0  0  0  0  0  0  0  0
   -2.4739   -2.3068    1.3880 O   0  0  0  0  0  0  0  0  0  0  0  0
   -2.6263   -4.4751    0.3805 C   0  0  0  0  0  0  0  0  0  0  0  0
   -3.4533   -5.5630    1.0732 C   0  0  0  0  0  0  0  0  0  0  0  0
   -2.4972   -4.7246   -1.1377 C   0  0  0  0  0  0  0  0  0  0  0  0
   -2.1967   -6.1137   -1.3612 O   0  0  0  0  0  0  0  0  0  0  0  0
   -1.4596   -3.8651   -1.9379 C   0  0  0  0  0  0  0  0  0  0  0  0
   -0.0663   -3.8953   -1.3197 C   0  0  0  0  0  0  0  0  0  0  0  0
   -2.0270   -2.5195   -2.3430 C   0  0  0  0  0  0  0  0  0  0  0  0
   -1.5892   -1.2490   -2.3836 C   0  0  0  0  0  0  0  0  0  0  0  0
   -0.3606   -0.5045   -2.0334 C   0  0  0  0  0  0  0  0  0  0  0  0
   -0.0761    0.5307   -2.6245 O   0  0  0  0  0  0  0  0  0  0  0  0
    0.3241   -1.0352   -0.9958 O   0  0  0  0  0  0  0  0  0  0  0  0
    1.4303   -0.2454   -0.5075 C   0  0  0  0  0  0  0  0  0  0  0  0
    1.4734   -0.2990    1.0400 C   0  0  0  0  0  0  0  0  0  0  0  0
    1.0218   -1.6370    1.6356 C   0  0  0  0  0  0  0  0  0  0  0  0
    2.8809    0.0548    1.5668 C   0  0  0  0  0  0  0  0  0  0  0  0
    2.8304    0.7287    2.9548 C   0  0  0  0  0  0  0  0  0  0  0  0
    3.0658    2.2496    3.0097 C   0  0  0  0  0  0  0  0  0  0  0  0
    3.5654    0.8952    0.6496 O   0  0  0  0  0  0  0  0  0  0  0  0
    3.8873    0.2982   -0.6154 C   0  0  0  0  0  0  0  0  0  0  0  0
    4.0723    1.4833   -1.5890 C   0  0  0  0  0  0  0  0  0  0  0  0
    5.2801    2.3356   -1.2049 C   0  0  0  0  0  0  0  0  0  0  0  0
    6.5446    1.4683   -1.0721 C   0  0  0  0  0  0  0  0  0  0  0  0
    7.0237    1.0233   -2.4548 C   0  0  0  0  0  0  0  0  0  0  0  0
    6.2419    0.3065   -0.0981 C   0  0  0  0  0  0  0  0  0  0  0  0
    7.4196   -0.6368    0.2087 C   0  0  0  0  0  0  0  0  0  0  0  0
    7.7862   -1.7521   -0.7835 C   0  0  0  0  0  0  0  0  0  0  0  0
    6.7217   -2.8242   -0.9865 C   0  0  0  0  0  0  0  0  0  0  0  0
    8.9655   -2.3992   -0.2781 O   0  0  0  0  0  0  0  0  0  0  0  0
    5.1073   -0.4512   -0.5188 O   0  0  0  0  0  0  0  0  0  0  0  0
    2.7848   -0.7090   -1.0662 C   0  0  0  0  0  0  0  0  0  0  0  0
    2.7901   -0.9937   -2.5731 C   0  0  0  0  0  0  0  0  0  0  0  0
    2.9190    6.3339    3.4567 H   0  0  0  0  0  0  0  0  0  0  0  0
    1.6037    5.3145    4.0559 H   0  0  0  0  0  0  0  0  0  0  0  0
    3.2925    4.8050    4.2535 H   0  0  0  0  0  0  0  0  0  0  0  0
    3.5303    4.6656    1.7596 H   0  0  0  0  0  0  0  0  0  0  0  0
    1.8697    5.1906    1.5629 H   0  0  0  0  0  0  0  0  0  0  0  0
    2.0940    2.8023    1.1824 H   0  0  0  0  0  0  0  0  0  0  0  0
    0.5620    2.9439    3.8355 H   0  0  0  0  0  0  0  0  0  0  0  0
   -1.4150    2.8488    2.5852 H   0  0  0  0  0  0  0  0  0  0  0  0
    0.3012    3.4576    0.0785 H   0  0  0  0  0  0  0  0  0  0  0  0
   -1.5710    3.0247   -1.2253 H   0  0  0  0  0  0  0  0  0  0  0  0
   -2.9754    1.9520    1.3089 H   0  0  0  0  0  0  0  0  0  0  0  0
   -3.1822    1.4378   -0.3463 H   0  0  0  0  0  0  0  0  0  0  0  0
   -4.0958    3.7667   -0.8967 H   0  0  0  0  0  0  0  0  0  0  0  0
   -4.7916    5.2145    0.9937 H   0  0  0  0  0  0  0  0  0  0  0  0
   -3.0454    5.0026    0.9625 H   0  0  0  0  0  0  0  0  0  0  0  0
   -4.0190    4.1095    2.1452 H   0  0  0  0  0  0  0  0  0  0  0  0
   -6.2559    3.5618    0.4865 H   0  0  0  0  0  0  0  0  0  0  0  0
   -5.0829    1.1563    1.4101 H   0  0  0  0  0  0  0  0  0  0  0  0
   -7.0079    2.3863   -2.9042 H   0  0  0  0  0  0  0  0  0  0  0  0
   -6.9903    3.7940   -1.8559 H   0  0  0  0  0  0  0  0  0  0  0  0
   -5.4747    3.1935   -2.5632 H   0  0  0  0  0  0  0  0  0  0  0  0
   -7.5531    1.5057    0.4722 H   0  0  0  0  0  0  0  0  0  0  0  0
   -6.6021   -0.4482    0.1244 H   0  0  0  0  0  0  0  0  0  0  0  0
   -6.9173   -2.4386   -1.2695 H   0  0  0  0  0  0  0  0  0  0  0  0
   -7.3170   -1.0211   -2.2382 H   0  0  0  0  0  0  0  0  0  0  0  0
   -5.7666   -1.8325   -2.4783 H   0  0  0  0  0  0  0  0  0  0  0  0
   -3.7355   -1.0037   -0.6928 H   0  0  0  0  0  0  0  0  0  0  0  0
   -3.4871   -0.7123    1.5167 H   0  0  0  0  0  0  0  0  0  0  0  0
   -4.8984   -3.2816   -0.5160 H   0  0  0  0  0  0  0  0  0  0  0  0
   -6.5764   -2.6290    1.2859 H   0  0  0  0  0  0  0  0  0  0  0  0
   -5.2361   -2.4633    2.4354 H   0  0  0  0  0  0  0  0  0  0  0  0
   -5.6196   -4.0332    1.7421 H   0  0  0  0  0  0  0  0  0  0  0  0
   -1.6268   -4.5404    0.8337 H   0  0  0  0  0  0  0  0  0  0  0  0
   -3.6261   -5.3128    2.1250 H   0  0  0  0  0  0  0  0  0  0  0  0
   -2.9349   -6.5283    1.0470 H   0  0  0  0  0  0  0  0  0  0  0  0
   -4.4281   -5.6937    0.5924 H   0  0  0  0  0  0  0  0  0  0  0  0
   -3.4817   -4.5881   -1.6011 H   0  0  0  0  0  0  0  0  0  0  0  0
   -1.3389   -6.3176   -0.9496 H   0  0  0  0  0  0  0  0  0  0  0  0
   -1.3372   -4.3916   -2.8987 H   0  0  0  0  0  0  0  0  0  0  0  0
    0.6629   -3.4040   -1.9698 H   0  0  0  0  0  0  0  0  0  0  0  0
    0.2849   -4.9227   -1.1829 H   0  0  0  0  0  0  0  0  0  0  0  0
   -0.0494   -3.4135   -0.3425 H   0  0  0  0  0  0  0  0  0  0  0  0
   -3.0219   -2.6323   -2.7860 H   0  0  0  0  0  0  0  0  0  0  0  0
   -2.2834   -0.5371   -2.8400 H   0  0  0  0  0  0  0  0  0  0  0  0
    1.2795    0.8086   -0.7773 H   0  0  0  0  0  0  0  0  0  0  0  0
    0.7495    0.4429    1.3918 H   0  0  0  0  0  0  0  0  0  0  0  0
    1.1000   -1.6346    2.7269 H   0  0  0  0  0  0  0  0  0  0  0  0
   -0.0237   -1.8377    1.3946 H   0  0  0  0  0  0  0  0  0  0  0  0
    1.6258   -2.4684    1.2601 H   0  0  0  0  0  0  0  0  0  0  0  0
    3.4670   -0.8686    1.6750 H   0  0  0  0  0  0  0  0  0  0  0  0
    3.6313    0.2791    3.5604 H   0  0  0  0  0  0  0  0  0  0  0  0
    1.9052    0.4690    3.4834 H   0  0  0  0  0  0  0  0  0  0  0  0
    3.0542    2.5403    4.0688 H   0  0  0  0  0  0  0  0  0  0  0  0
    4.0862    2.4549    2.6549 H   0  0  0  0  0  0  0  0  0  0  0  0
    3.1811    2.1208   -1.5947 H   0  0  0  0  0  0  0  0  0  0  0  0
    4.2341    1.1363   -2.6129 H   0  0  0  0  0  0  0  0  0  0  0  0
    5.4259    3.1304   -1.9460 H   0  0  0  0  0  0  0  0  0  0  0  0
    5.0869    2.8416   -0.2515 H   0  0  0  0  0  0  0  0  0  0  0  0
    7.3330    2.0965   -0.6376 H   0  0  0  0  0  0  0  0  0  0  0  0
    6.4170    0.2115   -2.8670 H   0  0  0  0  0  0  0  0  0  0  0  0
    8.0641    0.6860   -2.4048 H   0  0  0  0  0  0  0  0  0  0  0  0
    7.0050    1.8551   -3.1689 H   0  0  0  0  0  0  0  0  0  0  0  0
    5.9925    0.7623    0.8710 H   0  0  0  0  0  0  0  0  0  0  0  0
    7.1957   -1.1370    1.1630 H   0  0  0  0  0  0  0  0  0  0  0  0
    8.3139   -0.0354    0.4172 H   0  0  0  0  0  0  0  0  0  0  0  0
    8.0665   -1.3431   -1.7556 H   0  0  0  0  0  0  0  0  0  0  0  0
    7.1502   -3.7044   -1.4796 H   0  0  0  0  0  0  0  0  0  0  0  0
    5.8950   -2.4687   -1.6067 H   0  0  0  0  0  0  0  0  0  0  0  0
    6.3203   -3.1673   -0.0275 H   0  0  0  0  0  0  0  0  0  0  0  0
    8.7104   -2.8854    0.5257 H   0  0  0  0  0  0  0  0  0  0  0  0
    3.0076   -1.6841   -0.6114 H   0  0  0  0  0  0  0  0  0  0  0  0
    2.4492   -0.1305   -3.1536 H   0  0  0  0  0  0  0  0  0  0  0  0
    2.1405   -1.8387   -2.8156 H   0  0  0  0  0  0  0  0  0  0  0  0
    3.7951   -1.2594   -2.9111 H   0  0  0  0  0  0  0  0  0  0  0  0
  1  2  1  0
  2  3  1  0
  3  4  1  0
  4  5  2  3
  5  6  1  0
  6  7  2  3
  7  8  1  0
  8  9  1  0
  9 10  1  0
  9 11  1  0
 11 12  1  0
 11 13  1  0
 13 14  1  0
 13 15  1  0
 13 16  1  0
 16 17  2  0
 16 18  1  0
 18 19  1  0
 18 20  1  0
 20 21  1  0
 20 22  1  0
 22 23  1  0
 22 24  1  0
 24 25  2  0
 24 26  1  0
 26 27  1  0
 26 28  1  0
 28 29  1  0
 28 30  1  0
 30 31  1  0
 30 32  1  0
 32 33  2  3
 33 34  1  0
 34 35  2  0
 34 36  1  0
 36 37  1  0
 37 38  1  0
 38 39  1  0
 38 40  1  0
 40 41  1  0
 41 42  1  0
 40 43  1  0
 43 44  1  0
 44 45  1  0
 45 46  1  0
 46 47  1  0
 47 48  1  0
 47 49  1  0
 49 50  1  0
 50 51  1  0
 51 52  1  0
 51 53  1  0
 49 54  1  0
 44 55  1  0
 55 56  1  0
 42  3  1  0
 54 44  1  0
 55 37  1  0
  1 57  1  0
  1 58  1  0
  1 59  1  0
  2 60  1  0
  2 61  1  0
  3 62  1  0
  4 63  1  0
  5 64  1  0
  6 65  1  0
  7 66  1  0
  8 67  1  0
  8 68  1  0
  9 69  1  0
 10 70  1  0
 10 71  1  0
 10 72  1  0
 11 73  1  0
 12 74  1  0
 14 75  1  0
 14 76  1  0
 14 77  1  0
 15 78  1  0
 18 79  1  0
 19 80  1  0
 19 81  1  0
 19 82  1  0
 20 83  1  0
 21 84  1  0
 22 85  1  0
 23 86  1  0
 23 87  1  0
 23 88  1  0
 26 89  1  0
 27 90  1  0
 27 91  1  0
 27 92  1  0
 28 93  1  0
 29 94  1  0
 30 95  1  0
 31 96  1  0
 31 97  1  0
 31 98  1  0
 32 99  1  0
 33100  1  0
 37101  1  0
 38102  1  0
 39103  1  0
 39104  1  0
 39105  1  0
 40106  1  0
 41107  1  0
 41108  1  0
 42109  1  0
 42110  1  0
 45111  1  0
 45112  1  0
 46113  1  0
 46114  1  0
 47115  1  0
 48116  1  0
 48117  1  0
 48118  1  0
 49119  1  0
 50120  1  0
 50121  1  0
 51122  1  0
 52123  1  0
 52124  1  0
 52125  1  0
 53126  1  0
 55127  1  0
 56128  1  0
 56129  1  0
 56130  1  0
M  END
$$$$
