
     RDKit          3D

 58 61  0  0  0  0  0  0  0  0999 V2000
   -4.5801    5.6202   -0.9769 C   0  0  0  0  0  0  0  0  0  0  0  0
   -3.6461    4.5482   -0.9907 O   0  0  0  0  0  0  0  0  0  0  0  0
   -3.7222    3.6454    0.0347 C   0  0  0  0  0  0  0  0  0  0  0  0
   -4.6245    3.6809    1.0889 C   0  0  0  0  0  0  0  0  0  0  0  0
   -4.5992    2.6956    2.0827 C   0  0  0  0  0  0  0  0  0  0  0  0
   -3.6473    1.6608    2.0035 C   0  0  0  0  0  0  0  0  0  0  0  0
   -3.4406    0.3646    3.1106 S   0  0  0  0  0  0  0  0  0  0  0  0
   -2.1415   -0.3051    2.2214 C   0  0  0  0  0  0  0  0  0  0  0  0
   -1.5157   -1.5380    2.7235 C   0  0  0  0  0  0  0  0  0  0  0  0
   -0.7005   -1.4706    3.8668 C   0  0  0  0  0  0  0  0  0  0  0  0
   -0.0714   -2.6126    4.3606 C   0  0  0  0  0  0  0  0  0  0  0  0
   -0.2522   -3.8336    3.7182 C   0  0  0  0  0  0  0  0  0  0  0  0
   -1.0586   -3.9167    2.5800 C   0  0  0  0  0  0  0  0  0  0  0  0
   -1.6877   -2.7747    2.0690 C   0  0  0  0  0  0  0  0  0  0  0  0
   -2.5125   -2.7863    0.9717 O   0  0  0  0  0  0  0  0  0  0  0  0
   -2.3516   -3.8681    0.0637 C   0  0  0  0  0  0  0  0  0  0  0  0
   -1.8589    0.4434    1.0891 C   0  0  0  0  0  0  0  0  0  0  0  0
   -0.7981    0.0645    0.1613 C   0  0  0  0  0  0  0  0  0  0  0  0
    0.5455    0.1638    0.5351 C   0  0  0  0  0  0  0  0  0  0  0  0
    1.5592   -0.1959   -0.3612 C   0  0  0  0  0  0  0  0  0  0  0  0
    1.2372   -0.6551   -1.6385 C   0  0  0  0  0  0  0  0  0  0  0  0
    2.1182   -1.0328   -2.6126 O   0  0  0  0  0  0  0  0  0  0  0  0
    3.5181   -1.0279   -2.3163 C   0  0  0  0  0  0  0  0  0  0  0  0
    4.1297    0.3628   -2.5713 C   0  0  0  0  0  0  0  0  0  0  0  0
    5.5758    0.5239   -2.3434 N   0  0  0  0  0  0  0  0  0  0  0  0
    5.9516    0.3194   -0.9481 C   0  0  0  0  0  0  0  0  0  0  0  0
    6.3818   -0.3060   -3.2337 C   0  0  0  0  0  0  0  0  0  0  0  0
   -0.1069   -0.7465   -2.0111 C   0  0  0  0  0  0  0  0  0  0  0  0
   -1.1212   -0.3891   -1.1200 C   0  0  0  0  0  0  0  0  0  0  0  0
   -2.7294    1.5914    0.9552 C   0  0  0  0  0  0  0  0  0  0  0  0
   -2.7814    2.6108   -0.0321 C   0  0  0  0  0  0  0  0  0  0  0  0
   -4.3871    6.2428   -1.8558 H   0  0  0  0  0  0  0  0  0  0  0  0
   -4.4482    6.2475   -0.0891 H   0  0  0  0  0  0  0  0  0  0  0  0
   -5.6078    5.2494   -1.0509 H   0  0  0  0  0  0  0  0  0  0  0  0
   -5.3696    4.4648    1.1772 H   0  0  0  0  0  0  0  0  0  0  0  0
   -5.3076    2.7303    2.9061 H   0  0  0  0  0  0  0  0  0  0  0  0
   -0.5517   -0.5206    4.3757 H   0  0  0  0  0  0  0  0  0  0  0  0
    0.5542   -2.5486    5.2470 H   0  0  0  0  0  0  0  0  0  0  0  0
    0.2298   -4.7275    4.1065 H   0  0  0  0  0  0  0  0  0  0  0  0
   -1.1905   -4.8906    2.1204 H   0  0  0  0  0  0  0  0  0  0  0  0
   -2.7799   -4.7874    0.4753 H   0  0  0  0  0  0  0  0  0  0  0  0
   -1.3011   -4.0109   -0.2133 H   0  0  0  0  0  0  0  0  0  0  0  0
   -2.9044   -3.6230   -0.8479 H   0  0  0  0  0  0  0  0  0  0  0  0
    0.8135    0.5246    1.5253 H   0  0  0  0  0  0  0  0  0  0  0  0
    2.5850   -0.0947   -0.0257 H   0  0  0  0  0  0  0  0  0  0  0  0
    3.9675   -1.7490   -3.0082 H   0  0  0  0  0  0  0  0  0  0  0  0
    3.7187   -1.4142   -1.3115 H   0  0  0  0  0  0  0  0  0  0  0  0
    3.9012    0.6553   -3.6054 H   0  0  0  0  0  0  0  0  0  0  0  0
    3.6000    1.1119   -1.9697 H   0  0  0  0  0  0  0  0  0  0  0  0
    5.8229   -0.7189   -0.6246 H   0  0  0  0  0  0  0  0  0  0  0  0
    7.0012    0.5937   -0.7928 H   0  0  0  0  0  0  0  0  0  0  0  0
    5.3597    0.9635   -0.2884 H   0  0  0  0  0  0  0  0  0  0  0  0
    6.1112   -0.1285   -4.2803 H   0  0  0  0  0  0  0  0  0  0  0  0
    7.4424   -0.0481   -3.1374 H   0  0  0  0  0  0  0  0  0  0  0  0
    6.2745   -1.3756   -3.0240 H   0  0  0  0  0  0  0  0  0  0  0  0
   -0.3678   -1.0998   -3.0056 H   0  0  0  0  0  0  0  0  0  0  0  0
   -2.1608   -0.4752   -1.4271 H   0  0  0  0  0  0  0  0  0  0  0  0
   -2.0747    2.5918   -0.8590 H   0  0  0  0  0  0  0  0  0  0  0  0
  1  2  1  0
  2  3  1  0
  3  4  2  0
  4  5  1  0
  5  6  2  0
  6  7  1  0
  7  8  1  0
  8  9  1  0
  9 10  2  0
 10 11  1  0
 11 12  2  0
 12 13  1  0
 13 14  2  0
 14 15  1  0
 15 16  1  0
  8 17  2  0
 17 18  1  0
 18 19  2  0
 19 20  1  0
 20 21  2  0
 21 22  1  0
 22 23  1  0
 23 24  1  0
 24 25  1  0
 25 26  1  0
 25 27  1  0
 21 28  1  0
 28 29  2  0
 17 30  1  0
 30 31  2  0
 31  3  1  0
 30  6  1  0
 14  9  1  0
 29 18  1  0
  1 32  1  0
  1 33  1  0
  1 34  1  0
  4 35  1  0
  5 36  1  0
 10 37  1  0
 11 38  1  0
 12 39  1  0
 13 40  1  0
 16 41  1  0
 16 42  1  0
 16 43  1  0
 19 44  1  0
 20 45  1  0
 23 46  1  0
 23 47  1  0
 24 48  1  0
 24 49  1  0
 26 50  1  0
 26 51  1  0
 26 52  1  0
 27 53  1  0
 27 54  1  0
 27 55  1  0
 28 56  1  0
 29 57  1  0
 31 58  1  0
M  END
$$$$
