
     RDKit          3D

 51 55  0  0  0  0  0  0  0  0999 V2000
    9.0250    2.1240   -0.3778 Cl  0  0  0  0  0  0  0  0  0  0  0  0
    7.5273    1.4000    0.0890 C   0  0  0  0  0  0  0  0  0  0  0  0
    7.4643    0.0045    0.1306 C   0  0  0  0  0  0  0  0  0  0  0  0
    6.2793   -0.6364    0.5001 C   0  0  0  0  0  0  0  0  0  0  0  0
    5.1442    0.1114    0.8365 C   0  0  0  0  0  0  0  0  0  0  0  0
    3.8562   -0.5810    1.2192 C   0  0  0  0  0  0  0  0  0  0  0  0
    2.9441   -0.7998   -0.0009 C   0  0  0  0  0  0  0  0  0  0  0  0
    1.7271   -1.5706    0.3105 N   0  0  0  0  0  0  0  0  0  0  0  0
    0.8588   -0.8672    1.2828 C   0  0  0  0  0  0  0  0  0  0  0  0
   -0.6230   -1.3042    1.2384 C   0  0  0  0  0  0  0  0  0  0  0  0
   -1.2159   -1.0670   -0.0855 N   0  0  0  0  0  0  0  0  0  0  0  0
   -2.4629   -0.4680   -0.2337 C   0  0  0  0  0  0  0  0  0  0  0  0
   -2.6181    0.3918   -1.2116 N   0  0  0  0  0  0  0  0  0  0  0  0
   -3.8400    1.0659   -1.3950 C   0  0  0  0  0  0  0  0  0  0  0  0
   -3.9403    1.9832   -2.4430 C   0  0  0  0  0  0  0  0  0  0  0  0
   -5.1260    2.6895   -2.6627 C   0  0  0  0  0  0  0  0  0  0  0  0
   -6.2273    2.4837   -1.8312 C   0  0  0  0  0  0  0  0  0  0  0  0
   -6.1495    1.5714   -0.7782 C   0  0  0  0  0  0  0  0  0  0  0  0
   -4.9562    0.8728   -0.5708 C   0  0  0  0  0  0  0  0  0  0  0  0
   -4.7956   -0.0732    0.4542 N   0  0  0  0  0  0  0  0  0  0  0  0
   -5.7022   -0.5002    1.3955 C   0  0  0  0  0  0  0  0  0  0  0  0
   -5.1133   -1.4991    2.1384 C   0  0  0  0  0  0  0  0  0  0  0  0
   -3.8007   -1.6708    1.6408 C   0  0  0  0  0  0  0  0  0  0  0  0
   -3.6061   -0.7498    0.6253 C   0  0  0  0  0  0  0  0  0  0  0  0
   -0.2517   -1.0043   -1.1973 C   0  0  0  0  0  0  0  0  0  0  0  0
    0.9710   -1.9028   -0.9213 C   0  0  0  0  0  0  0  0  0  0  0  0
    5.2113    1.5116    0.7876 C   0  0  0  0  0  0  0  0  0  0  0  0
    6.3976    2.1558    0.4176 C   0  0  0  0  0  0  0  0  0  0  0  0
    6.3963    3.8836    0.3848 Cl  0  0  0  0  0  0  0  0  0  0  0  0
    8.3368   -0.5924   -0.1250 H   0  0  0  0  0  0  0  0  0  0  0  0
    6.2486   -1.7246    0.5239 H   0  0  0  0  0  0  0  0  0  0  0  0
    3.3510    0.0202    1.9849 H   0  0  0  0  0  0  0  0  0  0  0  0
    4.0887   -1.5435    1.6930 H   0  0  0  0  0  0  0  0  0  0  0  0
    2.6834    0.1655   -0.4554 H   0  0  0  0  0  0  0  0  0  0  0  0
    3.5241   -1.3518   -0.7528 H   0  0  0  0  0  0  0  0  0  0  0  0
    1.2419   -1.0475    2.2937 H   0  0  0  0  0  0  0  0  0  0  0  0
    0.8919    0.2172    1.1086 H   0  0  0  0  0  0  0  0  0  0  0  0
   -0.7029   -2.3700    1.4821 H   0  0  0  0  0  0  0  0  0  0  0  0
   -1.1553   -0.7403    2.0127 H   0  0  0  0  0  0  0  0  0  0  0  0
   -3.0834    2.1470   -3.0909 H   0  0  0  0  0  0  0  0  0  0  0  0
   -5.1874    3.4000   -3.4830 H   0  0  0  0  0  0  0  0  0  0  0  0
   -7.1482    3.0348   -2.0061 H   0  0  0  0  0  0  0  0  0  0  0  0
   -7.0200    1.4262   -0.1474 H   0  0  0  0  0  0  0  0  0  0  0  0
   -6.6974   -0.0850    1.4582 H   0  0  0  0  0  0  0  0  0  0  0  0
   -5.5836   -2.0517    2.9416 H   0  0  0  0  0  0  0  0  0  0  0  0
   -3.0795   -2.3964    1.9900 H   0  0  0  0  0  0  0  0  0  0  0  0
    0.0766    0.0308   -1.3538 H   0  0  0  0  0  0  0  0  0  0  0  0
   -0.7342   -1.3488   -2.1198 H   0  0  0  0  0  0  0  0  0  0  0  0
    1.6240   -1.9135   -1.8027 H   0  0  0  0  0  0  0  0  0  0  0  0
    0.6169   -2.9358   -0.8063 H   0  0  0  0  0  0  0  0  0  0  0  0
    4.3345    2.1049    1.0403 H   0  0  0  0  0  0  0  0  0  0  0  0
  1  2  1  0
  2  3  2  0
  3  4  1  0
  4  5  2  0
  5  6  1  0
  6  7  1  0
  7  8  1  0
  8  9  1  0
  9 10  1  0
 10 11  1  0
 11 12  1  0
 12 13  2  0
 13 14  1  0
 14 15  2  0
 15 16  1  0
 16 17  2  0
 17 18  1  0
 18 19  2  0
 19 20  1  0
 20 21  1  0
 21 22  2  0
 22 23  1  0
 23 24  2  0
 11 25  1  0
 25 26  1  0
  5 27  1  0
 27 28  2  0
 28 29  1  0
 28  2  1  0
 26  8  1  0
 24 12  1  0
 19 14  1  0
 24 20  1  0
  3 30  1  0
  4 31  1  0
  6 32  1  0
  6 33  1  0
  7 34  1  0
  7 35  1  0
  9 36  1  0
  9 37  1  0
 10 38  1  0
 10 39  1  0
 15 40  1  0
 16 41  1  0
 17 42  1  0
 18 43  1  0
 21 44  1  0
 22 45  1  0
 23 46  1  0
 25 47  1  0
 25 48  1  0
 26 49  1  0
 26 50  1  0
 27 51  1  0
M  END
$$$$
