
     RDKit          3D

 40 41  0  0  0  0  0  0  0  0999 V2000
    6.0729   -0.5206   -4.3992 C   0  0  0  0  0  0  0  0  0  0  0  0
    5.4148    0.8502   -4.4731 C   0  0  0  0  0  0  0  0  0  0  0  0
    3.8954    0.7793   -4.3328 C   0  0  0  0  0  0  0  0  0  0  0  0
    3.4201    0.4961   -2.9131 C   0  0  0  0  0  0  0  0  0  0  0  0
    4.1854    0.4759   -1.9572 O   0  0  0  0  0  0  0  0  0  0  0  0
    2.0475    0.2995   -2.8728 N   0  0  0  0  0  0  0  0  0  0  0  0
    1.2526    0.0164   -1.7433 C   0  0  0  0  0  0  0  0  0  0  0  0
    1.7549   -0.1311   -0.4499 C   0  0  0  0  0  0  0  0  0  0  0  0
    0.8951   -0.4127    0.6194 C   0  0  0  0  0  0  0  0  0  0  0  0
   -0.4816   -0.5421    0.4099 C   0  0  0  0  0  0  0  0  0  0  0  0
   -1.3517   -0.8405    1.5808 C   0  0  0  0  0  0  0  0  0  0  0  0
   -0.8884   -1.3234    2.6117 O   0  0  0  0  0  0  0  0  0  0  0  0
   -2.6907   -0.5163    1.4574 N   0  0  0  0  0  0  0  0  0  0  0  0
   -3.4590   -0.5647    2.6406 N   0  0  0  0  0  0  0  0  0  0  0  0
   -4.3810    0.4539    2.8441 C   0  0  0  0  0  0  0  0  0  0  0  0
   -4.6494    1.2294    1.9225 O   0  0  0  0  0  0  0  0  0  0  0  0
   -4.9522    0.5166    4.1828 C   0  0  0  0  0  0  0  0  0  0  0  0
   -4.8415   -0.3631    5.2472 C   0  0  0  0  0  0  0  0  0  0  0  0
   -5.5619    0.0735    6.3991 C   0  0  0  0  0  0  0  0  0  0  0  0
   -6.2055    1.2693    6.1810 C   0  0  0  0  0  0  0  0  0  0  0  0
   -5.9453    1.8566    4.5987 S   0  0  0  0  0  0  0  0  0  0  0  0
   -0.9896   -0.4099   -0.8865 C   0  0  0  0  0  0  0  0  0  0  0  0
   -0.1254   -0.1296   -1.9524 C   0  0  0  0  0  0  0  0  0  0  0  0
    7.1547   -0.4264   -4.5373 H   0  0  0  0  0  0  0  0  0  0  0  0
    5.8984   -0.9998   -3.4314 H   0  0  0  0  0  0  0  0  0  0  0  0
    5.6891   -1.1816   -5.1830 H   0  0  0  0  0  0  0  0  0  0  0  0
    5.6572    1.2969   -5.4446 H   0  0  0  0  0  0  0  0  0  0  0  0
    5.8437    1.5037   -3.7048 H   0  0  0  0  0  0  0  0  0  0  0  0
    3.4708    1.7474   -4.6257 H   0  0  0  0  0  0  0  0  0  0  0  0
    3.4904    0.0162   -5.0079 H   0  0  0  0  0  0  0  0  0  0  0  0
    1.5561    0.3734   -3.7546 H   0  0  0  0  0  0  0  0  0  0  0  0
    2.8147   -0.0371   -0.2323 H   0  0  0  0  0  0  0  0  0  0  0  0
    1.3122   -0.5268    1.6187 H   0  0  0  0  0  0  0  0  0  0  0  0
   -3.0044    0.1773    0.7781 H   0  0  0  0  0  0  0  0  0  0  0  0
   -2.9956   -1.0162    3.4270 H   0  0  0  0  0  0  0  0  0  0  0  0
   -4.2793   -1.2885    5.2184 H   0  0  0  0  0  0  0  0  0  0  0  0
   -5.6072   -0.4650    7.3382 H   0  0  0  0  0  0  0  0  0  0  0  0
   -6.8207    1.8277    6.8735 H   0  0  0  0  0  0  0  0  0  0  0  0
   -2.0471   -0.5428   -1.0975 H   0  0  0  0  0  0  0  0  0  0  0  0
   -0.5486   -0.0337   -2.9496 H   0  0  0  0  0  0  0  0  0  0  0  0
  1  2  1  0
  2  3  1  0
  3  4  1  0
  4  5  2  0
  4  6  1  0
  6  7  1  0
  7  8  2  0
  8  9  1  0
  9 10  2  0
 10 11  1  0
 11 12  2  0
 11 13  1  0
 13 14  1  0
 14 15  1  0
 15 16  2  0
 15 17  1  0
 17 18  2  0
 18 19  1  0
 19 20  2  0
 20 21  1  0
 10 22  1  0
 22 23  2  0
 23  7  1  0
 21 17  1  0
  1 24  1  0
  1 25  1  0
  1 26  1  0
  2 27  1  0
  2 28  1  0
  3 29  1  0
  3 30  1  0
  6 31  1  0
  8 32  1  0
  9 33  1  0
 13 34  1  0
 14 35  1  0
 18 36  1  0
 19 37  1  0
 20 38  1  0
 22 39  1  0
 23 40  1  0
M  END
$$$$
