
     RDKit          3D

 37 37  0  0  0  0  0  0  0  0999 V2000
   -0.3391   -3.6487    2.3636 C   0  0  0  0  0  0  0  0  0  0  0  0
   -0.5030   -2.3889    1.7117 O   0  0  0  0  0  0  0  0  0  0  0  0
   -1.7601   -2.1798    1.2162 C   0  0  0  0  0  0  0  0  0  0  0  0
   -2.7007   -2.9488    1.3785 O   0  0  0  0  0  0  0  0  0  0  0  0
   -1.8739   -0.8132    0.5131 C   0  0  0  0  0  0  0  0  0  0  0  0
   -2.7813    0.0898    1.3615 C   0  0  0  0  0  0  0  0  0  0  0  0
   -3.1586    1.4089    0.6855 C   0  0  0  0  0  0  0  0  0  0  0  0
   -4.3094    1.1570   -0.7029 S   0  0  0  0  0  0  0  0  0  0  0  0
   -4.4485    2.8728   -1.2571 C   0  0  0  0  0  0  0  0  0  0  0  0
   -0.5598   -0.1788    0.3311 N   0  0  0  0  0  0  0  0  0  0  0  0
    0.1939   -0.5096   -0.7674 C   0  0  0  0  0  0  0  0  0  0  0  0
   -0.1820   -1.2337   -1.6763 O   0  0  0  0  0  0  0  0  0  0  0  0
    1.4300    0.0753   -0.7033 N   0  0  0  0  0  0  0  0  0  0  0  0
    2.3246   -0.0590   -1.8296 C   0  0  0  0  0  0  0  0  0  0  0  0
    3.6478    0.5185   -1.4457 C   0  0  0  0  0  0  0  0  0  0  0  0
    4.7116   -0.1153   -0.8327 C   0  0  0  0  0  0  0  0  0  0  0  0
    5.8153    0.7598   -0.6195 C   0  0  0  0  0  0  0  0  0  0  0  0
    5.5580    2.0333   -1.0747 C   0  0  0  0  0  0  0  0  0  0  0  0
    3.9941    2.1696   -1.7519 S   0  0  0  0  0  0  0  0  0  0  0  0
   -0.5610   -4.4707    1.6757 H   0  0  0  0  0  0  0  0  0  0  0  0
    0.7049   -3.7338    2.6776 H   0  0  0  0  0  0  0  0  0  0  0  0
   -0.9740   -3.7034    3.2532 H   0  0  0  0  0  0  0  0  0  0  0  0
   -2.3089   -1.0091   -0.4729 H   0  0  0  0  0  0  0  0  0  0  0  0
   -3.6934   -0.4478    1.6523 H   0  0  0  0  0  0  0  0  0  0  0  0
   -2.2642    0.3262    2.3018 H   0  0  0  0  0  0  0  0  0  0  0  0
   -2.2661    1.9322    0.3286 H   0  0  0  0  0  0  0  0  0  0  0  0
   -3.6554    2.0527    1.4191 H   0  0  0  0  0  0  0  0  0  0  0  0
   -3.4719    3.2526   -1.5682 H   0  0  0  0  0  0  0  0  0  0  0  0
   -5.1285    2.9213   -2.1118 H   0  0  0  0  0  0  0  0  0  0  0  0
   -4.8503    3.4999   -0.4571 H   0  0  0  0  0  0  0  0  0  0  0  0
    0.0055   -0.1363    1.1692 H   0  0  0  0  0  0  0  0  0  0  0  0
    1.4399    0.9719   -0.2399 H   0  0  0  0  0  0  0  0  0  0  0  0
    2.4212   -1.1202   -2.0864 H   0  0  0  0  0  0  0  0  0  0  0  0
    1.8826    0.4544   -2.6911 H   0  0  0  0  0  0  0  0  0  0  0  0
    4.6963   -1.1615   -0.5499 H   0  0  0  0  0  0  0  0  0  0  0  0
    6.7507    0.4695   -0.1568 H   0  0  0  0  0  0  0  0  0  0  0  0
    6.2136    2.8928   -1.0433 H   0  0  0  0  0  0  0  0  0  0  0  0
  1  2  1  0
  2  3  1  0
  3  4  2  0
  3  5  1  0
  5  6  1  0
  6  7  1  0
  7  8  1  0
  8  9  1  0
  5 10  1  0
 10 11  1  0
 11 12  2  0
 11 13  1  0
 13 14  1  0
 14 15  1  0
 15 16  2  0
 16 17  1  0
 17 18  2  0
 18 19  1  0
 19 15  1  0
  1 20  1  0
  1 21  1  0
  1 22  1  0
  5 23  1  0
  6 24  1  0
  6 25  1  0
  7 26  1  0
  7 27  1  0
  9 28  1  0
  9 29  1  0
  9 30  1  0
 10 31  1  0
 13 32  1  0
 14 33  1  0
 14 34  1  0
 16 35  1  0
 17 36  1  0
 18 37  1  0
M  END
$$$$
