
     RDKit          3D

 35 37  0  0  0  0  0  0  0  0999 V2000
   -1.6673    4.0938    4.7343 C   0  0  0  0  0  0  0  0  0  0  0  0
   -2.5246    3.4485    3.8010 O   0  0  0  0  0  0  0  0  0  0  0  0
   -1.9290    2.6408    2.8724 C   0  0  0  0  0  0  0  0  0  0  0  0
   -0.5696    2.3393    2.7968 C   0  0  0  0  0  0  0  0  0  0  0  0
   -0.0902    1.4917    1.7901 C   0  0  0  0  0  0  0  0  0  0  0  0
   -0.9632    0.9468    0.8420 C   0  0  0  0  0  0  0  0  0  0  0  0
   -0.4935    0.0366   -0.2104 C   0  0  0  0  0  0  0  0  0  0  0  0
    0.4375    0.3008   -1.1520 C   0  0  0  0  0  0  0  0  0  0  0  0
    1.0765    1.5824   -1.2335 C   0  0  0  0  0  0  0  0  0  0  0  0
    1.6023    2.6163   -1.2998 N   0  0  0  0  0  0  0  0  0  0  0  0
    0.8136   -0.6765   -2.1374 C   0  0  0  0  0  0  0  0  0  0  0  0
    0.9075   -0.4255   -3.4918 C   0  0  0  0  0  0  0  0  0  0  0  0
    1.2786   -1.5878   -4.1139 N   0  0  0  0  0  0  0  0  0  0  0  0
    1.4367   -2.5945   -3.1892 C   0  0  0  0  0  0  0  0  0  0  0  0
    1.8090   -3.9317   -3.3738 C   0  0  0  0  0  0  0  0  0  0  0  0
    1.9059   -4.7416   -2.2394 C   0  0  0  0  0  0  0  0  0  0  0  0
    1.6448   -4.2315   -0.9710 C   0  0  0  0  0  0  0  0  0  0  0  0
    1.2736   -2.8922   -0.8033 C   0  0  0  0  0  0  0  0  0  0  0  0
    1.1575   -2.0519   -1.9324 C   0  0  0  0  0  0  0  0  0  0  0  0
   -2.3271    1.2384    0.9301 C   0  0  0  0  0  0  0  0  0  0  0  0
   -2.8029    2.0824    1.9374 C   0  0  0  0  0  0  0  0  0  0  0  0
   -2.2887    4.7219    5.3799 H   0  0  0  0  0  0  0  0  0  0  0  0
   -1.1580    3.3633    5.3713 H   0  0  0  0  0  0  0  0  0  0  0  0
   -0.9489    4.7461    4.2268 H   0  0  0  0  0  0  0  0  0  0  0  0
    0.1467    2.7433    3.5043 H   0  0  0  0  0  0  0  0  0  0  0  0
    0.9737    1.2652    1.7619 H   0  0  0  0  0  0  0  0  0  0  0  0
   -0.9985   -0.9283   -0.2129 H   0  0  0  0  0  0  0  0  0  0  0  0
    0.7393    0.4738   -4.0712 H   0  0  0  0  0  0  0  0  0  0  0  0
    1.4237   -1.6962   -5.1085 H   0  0  0  0  0  0  0  0  0  0  0  0
    2.0203   -4.3317   -4.3603 H   0  0  0  0  0  0  0  0  0  0  0  0
    2.1947   -5.7845   -2.3499 H   0  0  0  0  0  0  0  0  0  0  0  0
    1.7330   -4.8771   -0.1004 H   0  0  0  0  0  0  0  0  0  0  0  0
    1.0840   -2.5102    0.1956 H   0  0  0  0  0  0  0  0  0  0  0  0
   -3.0324    0.8210    0.2152 H   0  0  0  0  0  0  0  0  0  0  0  0
   -3.8650    2.3092    1.9923 H   0  0  0  0  0  0  0  0  0  0  0  0
  1  2  1  0
  2  3  1  0
  3  4  2  0
  4  5  1  0
  5  6  2  0
  6  7  1  0
  7  8  2  3
  8  9  1  0
  9 10  3  0
  8 11  1  0
 11 12  2  0
 12 13  1  0
 13 14  1  0
 14 15  2  0
 15 16  1  0
 16 17  2  0
 17 18  1  0
 18 19  2  0
  6 20  1  0
 20 21  2  0
 21  3  1  0
 19 11  1  0
 19 14  1  0
  1 22  1  0
  1 23  1  0
  1 24  1  0
  4 25  1  0
  5 26  1  0
  7 27  1  0
 12 28  1  0
 13 29  1  0
 15 30  1  0
 16 31  1  0
 17 32  1  0
 18 33  1  0
 20 34  1  0
 21 35  1  0
M  END
$$$$
