
     RDKit          3D

 38 40  0  0  0  0  0  0  0  0999 V2000
   -7.2231    1.0747   -0.8200 C   0  0  0  0  0  0  0  0  0  0  0  0
   -6.1158    0.1095   -0.4353 C   0  0  0  0  0  0  0  0  0  0  0  0
   -5.2865   -0.1848   -1.5594 O   0  0  0  0  0  0  0  0  0  0  0  0
   -4.2449    0.7727   -1.7794 C   0  0  0  0  0  0  0  0  0  0  0  0
   -3.0781    0.4405   -0.9088 C   0  0  0  0  0  0  0  0  0  0  0  0
   -2.7277    1.1145    0.1691 N   0  0  0  0  0  0  0  0  0  0  0  0
   -1.6090    0.5754    0.7719 N   0  0  0  0  0  0  0  0  0  0  0  0
   -1.1538   -0.4756    0.1260 C   0  0  0  0  0  0  0  0  0  0  0  0
   -0.0529   -1.1713    0.5510 N   0  0  0  0  0  0  0  0  0  0  0  0
    0.5481   -2.2441   -0.0670 C   0  0  0  0  0  0  0  0  0  0  0  0
    0.2038   -2.7893   -1.1109 O   0  0  0  0  0  0  0  0  0  0  0  0
    1.7496   -2.7730    0.7245 C   0  0  0  0  0  0  0  0  0  0  0  0
    2.3807   -1.8049    1.5534 O   0  0  0  0  0  0  0  0  0  0  0  0
    3.2631   -0.9343    0.9706 C   0  0  0  0  0  0  0  0  0  0  0  0
    3.5236   -0.8210   -0.4083 C   0  0  0  0  0  0  0  0  0  0  0  0
    4.4404    0.1254   -0.8855 C   0  0  0  0  0  0  0  0  0  0  0  0
    5.0703    0.9348    0.0333 C   0  0  0  0  0  0  0  0  0  0  0  0
    4.8169    0.8284    1.3787 C   0  0  0  0  0  0  0  0  0  0  0  0
    3.9200   -0.0925    1.8765 C   0  0  0  0  0  0  0  0  0  0  0  0
    5.5379    1.7158    2.1145 O   0  0  0  0  0  0  0  0  0  0  0  0
    6.2736    2.3951    1.0753 C   0  0  0  0  0  0  0  0  0  0  0  0
    5.9826    1.9015   -0.2492 O   0  0  0  0  0  0  0  0  0  0  0  0
   -2.0502   -0.8907   -1.2605 S   0  0  0  0  0  0  0  0  0  0  0  0
   -7.7965    0.6824   -1.6664 H   0  0  0  0  0  0  0  0  0  0  0  0
   -7.9031    1.2373    0.0212 H   0  0  0  0  0  0  0  0  0  0  0  0
   -6.8195    2.0428   -1.1308 H   0  0  0  0  0  0  0  0  0  0  0  0
   -5.5300    0.4918    0.4076 H   0  0  0  0  0  0  0  0  0  0  0  0
   -6.5668   -0.8363   -0.1168 H   0  0  0  0  0  0  0  0  0  0  0  0
   -4.5964    1.7938   -1.5977 H   0  0  0  0  0  0  0  0  0  0  0  0
   -3.9561    0.7103   -2.8343 H   0  0  0  0  0  0  0  0  0  0  0  0
    0.3835   -0.7921    1.3838 H   0  0  0  0  0  0  0  0  0  0  0  0
    2.4669   -3.2583    0.0525 H   0  0  0  0  0  0  0  0  0  0  0  0
    1.3631   -3.5559    1.3875 H   0  0  0  0  0  0  0  0  0  0  0  0
    3.0292   -1.4484   -1.1444 H   0  0  0  0  0  0  0  0  0  0  0  0
    4.6477    0.2207   -1.9460 H   0  0  0  0  0  0  0  0  0  0  0  0
    3.7339   -0.1599    2.9426 H   0  0  0  0  0  0  0  0  0  0  0  0
    7.3458    2.2723    1.2674 H   0  0  0  0  0  0  0  0  0  0  0  0
    6.0295    3.4629    1.1132 H   0  0  0  0  0  0  0  0  0  0  0  0
  1  2  1  0
  2  3  1  0
  3  4  1  0
  4  5  1  0
  5  6  2  0
  6  7  1  0
  7  8  2  0
  8  9  1  0
  9 10  1  0
 10 11  2  0
 10 12  1  0
 12 13  1  0
 13 14  1  0
 14 15  2  0
 15 16  1  0
 16 17  2  0
 17 18  1  0
 18 19  2  0
 18 20  1  0
 20 21  1  0
 21 22  1  0
  8 23  1  0
 23  5  1  0
 19 14  1  0
 22 17  1  0
  1 24  1  0
  1 25  1  0
  1 26  1  0
  2 27  1  0
  2 28  1  0
  4 29  1  0
  4 30  1  0
  9 31  1  0
 12 32  1  0
 12 33  1  0
 15 34  1  0
 16 35  1  0
 19 36  1  0
 21 37  1  0
 21 38  1  0
M  END
$$$$
