
     RDKit          3D

 59 62  0  0  0  0  0  0  0  0999 V2000
    7.8440    3.0007   -1.4220 C   0  0  0  0  0  0  0  0  0  0  0  0
    7.1315    1.8629   -1.8902 O   0  0  0  0  0  0  0  0  0  0  0  0
    6.4007    1.1694   -0.9657 C   0  0  0  0  0  0  0  0  0  0  0  0
    6.4125    1.3784    0.4133 C   0  0  0  0  0  0  0  0  0  0  0  0
    5.6152    0.5915    1.2566 C   0  0  0  0  0  0  0  0  0  0  0  0
    4.7919   -0.4075    0.7247 C   0  0  0  0  0  0  0  0  0  0  0  0
    3.9273   -1.2769    1.5762 C   0  0  0  0  0  0  0  0  0  0  0  0
    3.5504   -2.3564    1.1180 O   0  0  0  0  0  0  0  0  0  0  0  0
    3.5955   -0.8256    2.9884 C   0  0  0  0  0  0  0  0  0  0  0  0
    1.8867   -1.2453    3.4436 S   0  0  0  0  0  0  0  0  0  0  0  0
    1.0216   -0.1338    2.4402 C   0  0  0  0  0  0  0  0  0  0  0  0
    1.5377    0.9235    1.8577 N   0  0  0  0  0  0  0  0  0  0  0  0
    0.5270    1.5798    1.2064 N   0  0  0  0  0  0  0  0  0  0  0  0
   -0.5930    0.9136    1.4106 C   0  0  0  0  0  0  0  0  0  0  0  0
   -1.9476    1.3123    0.9189 C   0  0  0  0  0  0  0  0  0  0  0  0
   -2.5583    0.3414    0.0120 N   0  0  0  0  0  0  0  0  0  0  0  0
   -3.7651    0.6758   -0.6281 C   0  0  0  0  0  0  0  0  0  0  0  0
   -4.7000    1.5489   -0.0495 C   0  0  0  0  0  0  0  0  0  0  0  0
   -5.9254    1.8263   -0.6673 C   0  0  0  0  0  0  0  0  0  0  0  0
   -6.2655    1.2154   -1.8715 C   0  0  0  0  0  0  0  0  0  0  0  0
   -7.5894    1.4979   -2.5179 C   0  0  0  0  0  0  0  0  0  0  0  0
   -5.3737    0.2994   -2.4325 C   0  0  0  0  0  0  0  0  0  0  0  0
   -4.1367    0.0138   -1.8198 C   0  0  0  0  0  0  0  0  0  0  0  0
   -3.2340   -0.9954   -2.4858 C   0  0  0  0  0  0  0  0  0  0  0  0
   -0.3188   -0.2026    2.1748 N   0  0  0  0  0  0  0  0  0  0  0  0
   -1.2761   -1.1777    2.6636 C   0  0  0  0  0  0  0  0  0  0  0  0
   -1.4030   -2.3387    1.7468 C   0  0  0  0  0  0  0  0  0  0  0  0
   -2.4492   -2.8544    1.0079 C   0  0  0  0  0  0  0  0  0  0  0  0
   -1.9404   -3.9893    0.3309 C   0  0  0  0  0  0  0  0  0  0  0  0
   -0.6243   -4.1038    0.7090 C   0  0  0  0  0  0  0  0  0  0  0  0
   -0.2946   -3.1149    1.5761 O   0  0  0  0  0  0  0  0  0  0  0  0
    4.7947   -0.6245   -0.6577 C   0  0  0  0  0  0  0  0  0  0  0  0
    5.5938    0.1605   -1.4942 C   0  0  0  0  0  0  0  0  0  0  0  0
    8.6426    2.7106   -0.7329 H   0  0  0  0  0  0  0  0  0  0  0  0
    7.1685    3.7290   -0.9587 H   0  0  0  0  0  0  0  0  0  0  0  0
    8.3121    3.4824   -2.2874 H   0  0  0  0  0  0  0  0  0  0  0  0
    7.0355    2.1417    0.8679 H   0  0  0  0  0  0  0  0  0  0  0  0
    5.6703    0.7775    2.3237 H   0  0  0  0  0  0  0  0  0  0  0  0
    3.7227    0.2488    3.1203 H   0  0  0  0  0  0  0  0  0  0  0  0
    4.2767   -1.3378    3.6742 H   0  0  0  0  0  0  0  0  0  0  0  0
   -1.8518    2.2788    0.4081 H   0  0  0  0  0  0  0  0  0  0  0  0
   -2.5849    1.4672    1.7982 H   0  0  0  0  0  0  0  0  0  0  0  0
   -1.8696    0.0187   -0.6654 H   0  0  0  0  0  0  0  0  0  0  0  0
   -4.5040    2.0362    0.9015 H   0  0  0  0  0  0  0  0  0  0  0  0
   -6.6165    2.5188   -0.1893 H   0  0  0  0  0  0  0  0  0  0  0  0
   -7.7913    2.5736   -2.5235 H   0  0  0  0  0  0  0  0  0  0  0  0
   -8.3886    0.9875   -1.9726 H   0  0  0  0  0  0  0  0  0  0  0  0
   -7.6051    1.1565   -3.5590 H   0  0  0  0  0  0  0  0  0  0  0  0
   -5.6439   -0.2057   -3.3593 H   0  0  0  0  0  0  0  0  0  0  0  0
   -2.3063   -0.5156   -2.8151 H   0  0  0  0  0  0  0  0  0  0  0  0
   -3.7042   -1.4402   -3.3682 H   0  0  0  0  0  0  0  0  0  0  0  0
   -3.0025   -1.8133   -1.7997 H   0  0  0  0  0  0  0  0  0  0  0  0
   -0.9678   -1.5063    3.6625 H   0  0  0  0  0  0  0  0  0  0  0  0
   -2.2406   -0.6749    2.7911 H   0  0  0  0  0  0  0  0  0  0  0  0
   -3.4495   -2.4464    0.9490 H   0  0  0  0  0  0  0  0  0  0  0  0
   -2.4648   -4.6430   -0.3536 H   0  0  0  0  0  0  0  0  0  0  0  0
    0.1721   -4.7924    0.4642 H   0  0  0  0  0  0  0  0  0  0  0  0
    4.1727   -1.4020   -1.0942 H   0  0  0  0  0  0  0  0  0  0  0  0
    5.5825   -0.0143   -2.5679 H   0  0  0  0  0  0  0  0  0  0  0  0
  1  2  1  0
  2  3  1  0
  3  4  2  0
  4  5  1  0
  5  6  2  0
  6  7  1  0
  7  8  2  0
  7  9  1  0
  9 10  1  0
 10 11  1  0
 11 12  2  0
 12 13  1  0
 13 14  2  0
 14 15  1  0
 15 16  1  0
 16 17  1  0
 17 18  2  0
 18 19  1  0
 19 20  2  0
 20 21  1  0
 20 22  1  0
 22 23  2  0
 23 24  1  0
 14 25  1  0
 25 26  1  0
 26 27  1  0
 27 28  2  0
 28 29  1  0
 29 30  2  0
 30 31  1  0
  6 32  1  0
 32 33  2  0
 33  3  1  0
 25 11  1  0
 31 27  1  0
 23 17  1  0
  1 34  1  0
  1 35  1  0
  1 36  1  0
  4 37  1  0
  5 38  1  0
  9 39  1  0
  9 40  1  0
 15 41  1  0
 15 42  1  0
 16 43  1  0
 18 44  1  0
 19 45  1  0
 21 46  1  0
 21 47  1  0
 21 48  1  0
 22 49  1  0
 24 50  1  0
 24 51  1  0
 24 52  1  0
 26 53  1  0
 26 54  1  0
 28 55  1  0
 29 56  1  0
 30 57  1  0
 32 58  1  0
 33 59  1  0
M  END
$$$$
