
     RDKit          3D

 40 42  0  0  0  0  0  0  0  0999 V2000
   -7.2491   -0.7068   -0.7339 C   0  0  0  0  0  0  0  0  0  0  0  0
   -6.4422   -0.6916    0.8520 S   0  0  0  0  0  6  0  0  0  0  0  0
   -7.4361   -0.3493    1.8478 O   0  0  0  0  0  0  0  0  0  0  0  0
   -5.6247   -1.8756    0.9864 O   0  0  0  0  0  0  0  0  0  0  0  0
   -5.4602    0.6837    0.7171 N   0  0  0  0  0  0  0  0  0  0  0  0
   -4.1104    0.4773    0.3120 C   0  0  0  0  0  0  0  0  0  0  0  0
   -3.1360    0.1521    1.2568 C   0  0  0  0  0  0  0  0  0  0  0  0
   -1.8216   -0.0943    0.8478 C   0  0  0  0  0  0  0  0  0  0  0  0
   -1.4823   -0.0087   -0.5097 C   0  0  0  0  0  0  0  0  0  0  0  0
   -0.0952   -0.2654   -0.9967 C   0  0  0  0  0  0  0  0  0  0  0  0
    0.0434   -0.7629   -2.1075 O   0  0  0  0  0  0  0  0  0  0  0  0
    0.9107    0.1358   -0.1361 N   0  0  0  0  0  0  0  0  0  0  0  0
    2.3025   -0.0170   -0.3161 C   0  0  0  0  0  0  0  0  0  0  0  0
    2.8809   -0.7029   -1.3874 C   0  0  0  0  0  0  0  0  0  0  0  0
    4.2724   -0.8102   -1.4960 C   0  0  0  0  0  0  0  0  0  0  0  0
    5.0936   -0.2321   -0.5339 C   0  0  0  0  0  0  0  0  0  0  0  0
    4.5243    0.4278    0.5566 C   0  0  0  0  0  0  0  0  0  0  0  0
    3.1375    0.5467    0.6580 C   0  0  0  0  0  0  0  0  0  0  0  0
    5.2654    0.9922    1.5644 O   0  0  0  0  0  0  0  0  0  0  0  0
    6.6193    0.5236    1.5397 C   0  0  0  0  0  0  0  0  0  0  0  0
    7.1710    0.5477    0.1238 C   0  0  0  0  0  0  0  0  0  0  0  0
    6.4462   -0.3579   -0.7159 O   0  0  0  0  0  0  0  0  0  0  0  0
   -2.4744    0.2912   -1.4532 C   0  0  0  0  0  0  0  0  0  0  0  0
   -3.7877    0.5319   -1.0424 C   0  0  0  0  0  0  0  0  0  0  0  0
   -7.7499    0.2508   -0.8872 H   0  0  0  0  0  0  0  0  0  0  0  0
   -6.5080   -0.8942   -1.5120 H   0  0  0  0  0  0  0  0  0  0  0  0
   -7.9865   -1.5126   -0.7262 H   0  0  0  0  0  0  0  0  0  0  0  0
   -5.5782    1.2463    1.5625 H   0  0  0  0  0  0  0  0  0  0  0  0
   -3.3965    0.0553    2.3077 H   0  0  0  0  0  0  0  0  0  0  0  0
   -1.0898   -0.3925    1.5938 H   0  0  0  0  0  0  0  0  0  0  0  0
    0.6349    0.6571    0.6853 H   0  0  0  0  0  0  0  0  0  0  0  0
    2.2769   -1.1689   -2.1599 H   0  0  0  0  0  0  0  0  0  0  0  0
    4.7089   -1.3385   -2.3393 H   0  0  0  0  0  0  0  0  0  0  0  0
    2.7242    1.0772    1.5108 H   0  0  0  0  0  0  0  0  0  0  0  0
    6.6454   -0.4879    1.9639 H   0  0  0  0  0  0  0  0  0  0  0  0
    7.2089    1.1804    2.1869 H   0  0  0  0  0  0  0  0  0  0  0  0
    7.1119    1.5522   -0.3134 H   0  0  0  0  0  0  0  0  0  0  0  0
    8.2199    0.2354    0.1209 H   0  0  0  0  0  0  0  0  0  0  0  0
   -2.2243    0.3350   -2.5120 H   0  0  0  0  0  0  0  0  0  0  0  0
   -4.5445    0.7696   -1.7841 H   0  0  0  0  0  0  0  0  0  0  0  0
  1  2  1  0
  2  3  2  0
  2  4  2  0
  2  5  1  0
  5  6  1  0
  6  7  2  0
  7  8  1  0
  8  9  2  0
  9 10  1  0
 10 11  2  0
 10 12  1  0
 12 13  1  0
 13 14  2  0
 14 15  1  0
 15 16  2  0
 16 17  1  0
 17 18  2  0
 17 19  1  0
 19 20  1  0
 20 21  1  0
 21 22  1  0
  9 23  1  0
 23 24  2  0
 24  6  1  0
 18 13  1  0
 22 16  1  0
  1 25  1  0
  1 26  1  0
  1 27  1  0
  5 28  1  0
  7 29  1  0
  8 30  1  0
 12 31  1  0
 14 32  1  0
 15 33  1  0
 18 34  1  0
 20 35  1  0
 20 36  1  0
 21 37  1  0
 21 38  1  0
 23 39  1  0
 24 40  1  0
M  END
$$$$
