
     RDKit          3D

 59 62  0  0  0  0  0  0  0  0999 V2000
    8.0780    4.4595    0.0018 C   0  0  0  0  0  0  0  0  0  0  0  0
    8.4689    3.2750    0.6850 O   0  0  0  0  0  0  0  0  0  0  0  0
    7.5967    2.2233    0.6518 C   0  0  0  0  0  0  0  0  0  0  0  0
    6.3539    2.2058    0.0191 C   0  0  0  0  0  0  0  0  0  0  0  0
    5.5523    1.0557    0.0604 C   0  0  0  0  0  0  0  0  0  0  0  0
    5.9891   -0.0910    0.7348 C   0  0  0  0  0  0  0  0  0  0  0  0
    5.1802   -1.3492    0.8132 C   0  0  0  0  0  0  0  0  0  0  0  0
    5.5584   -2.2592    1.5527 O   0  0  0  0  0  0  0  0  0  0  0  0
    3.9206   -1.4851   -0.0144 C   0  0  0  0  0  0  0  0  0  0  0  0
    2.5042   -0.8590    0.9333 S   0  0  0  0  0  0  0  0  0  0  0  0
    1.2767   -0.9186   -0.2801 C   0  0  0  0  0  0  0  0  0  0  0  0
    1.4890   -0.9347   -1.5751 N   0  0  0  0  0  0  0  0  0  0  0  0
    0.2691   -0.9654   -2.2000 N   0  0  0  0  0  0  0  0  0  0  0  0
   -0.6675   -0.9720   -1.2709 C   0  0  0  0  0  0  0  0  0  0  0  0
   -2.1420   -1.0384   -1.5074 C   0  0  0  0  0  0  0  0  0  0  0  0
   -2.8653    0.1121   -0.9649 N   0  0  0  0  0  0  0  0  0  0  0  0
   -4.2677    0.1554   -1.0010 C   0  0  0  0  0  0  0  0  0  0  0  0
   -5.0595   -0.9893   -1.1735 C   0  0  0  0  0  0  0  0  0  0  0  0
   -6.4573   -0.9280   -1.1407 C   0  0  0  0  0  0  0  0  0  0  0  0
   -7.1078    0.2837   -0.9178 C   0  0  0  0  0  0  0  0  0  0  0  0
   -8.6044    0.3479   -0.8534 C   0  0  0  0  0  0  0  0  0  0  0  0
   -6.3358    1.4246   -0.6870 C   0  0  0  0  0  0  0  0  0  0  0  0
   -4.9287    1.3713   -0.7113 C   0  0  0  0  0  0  0  0  0  0  0  0
   -4.1623    2.6392   -0.4340 C   0  0  0  0  0  0  0  0  0  0  0  0
   -0.0680   -0.9207   -0.0279 N   0  0  0  0  0  0  0  0  0  0  0  0
   -0.7385   -0.8220    1.2561 C   0  0  0  0  0  0  0  0  0  0  0  0
   -1.4065   -2.0931    1.6283 C   0  0  0  0  0  0  0  0  0  0  0  0
   -2.7224   -2.4316    1.8715 C   0  0  0  0  0  0  0  0  0  0  0  0
   -2.7266   -3.8104    2.1901 C   0  0  0  0  0  0  0  0  0  0  0  0
   -1.4163   -4.2225    2.1293 C   0  0  0  0  0  0  0  0  0  0  0  0
   -0.6073   -3.1858    1.7930 O   0  0  0  0  0  0  0  0  0  0  0  0
    7.2352   -0.0659    1.3733 C   0  0  0  0  0  0  0  0  0  0  0  0
    8.0306    1.0826    1.3289 C   0  0  0  0  0  0  0  0  0  0  0  0
    7.1703    4.8868    0.4410 H   0  0  0  0  0  0  0  0  0  0  0  0
    7.9497    4.2732   -1.0696 H   0  0  0  0  0  0  0  0  0  0  0  0
    8.8814    5.1935    0.1183 H   0  0  0  0  0  0  0  0  0  0  0  0
    5.9738    3.0712   -0.5146 H   0  0  0  0  0  0  0  0  0  0  0  0
    4.5881    1.0964   -0.4382 H   0  0  0  0  0  0  0  0  0  0  0  0
    4.0400   -0.9761   -0.9749 H   0  0  0  0  0  0  0  0  0  0  0  0
    3.7721   -2.5475   -0.2384 H   0  0  0  0  0  0  0  0  0  0  0  0
   -2.3212   -1.0964   -2.5881 H   0  0  0  0  0  0  0  0  0  0  0  0
   -2.4981   -1.9762   -1.0691 H   0  0  0  0  0  0  0  0  0  0  0  0
   -2.4775    0.9775   -1.3384 H   0  0  0  0  0  0  0  0  0  0  0  0
   -4.6164   -1.9652   -1.3446 H   0  0  0  0  0  0  0  0  0  0  0  0
   -7.0310   -1.8403   -1.2899 H   0  0  0  0  0  0  0  0  0  0  0  0
   -8.9682    1.3249   -1.1886 H   0  0  0  0  0  0  0  0  0  0  0  0
   -9.0564   -0.4074   -1.5049 H   0  0  0  0  0  0  0  0  0  0  0  0
   -8.9425    0.1774    0.1734 H   0  0  0  0  0  0  0  0  0  0  0  0
   -6.8347    2.3692   -0.4771 H   0  0  0  0  0  0  0  0  0  0  0  0
   -3.6465    2.9737   -1.3397 H   0  0  0  0  0  0  0  0  0  0  0  0
   -3.4327    2.4788    0.3665 H   0  0  0  0  0  0  0  0  0  0  0  0
   -4.8248    3.4486   -0.1090 H   0  0  0  0  0  0  0  0  0  0  0  0
   -0.0161   -0.5448    2.0286 H   0  0  0  0  0  0  0  0  0  0  0  0
   -1.4533    0.0044    1.1977 H   0  0  0  0  0  0  0  0  0  0  0  0
   -3.5727   -1.7638    1.8172 H   0  0  0  0  0  0  0  0  0  0  0  0
   -3.5782   -4.4286    2.4368 H   0  0  0  0  0  0  0  0  0  0  0  0
   -0.9193   -5.1691    2.2909 H   0  0  0  0  0  0  0  0  0  0  0  0
    7.5982   -0.9407    1.9103 H   0  0  0  0  0  0  0  0  0  0  0  0
    8.9968    1.0862    1.8285 H   0  0  0  0  0  0  0  0  0  0  0  0
  1  2  1  0
  2  3  1  0
  3  4  2  0
  4  5  1  0
  5  6  2  0
  6  7  1  0
  7  8  2  0
  7  9  1  0
  9 10  1  0
 10 11  1  0
 11 12  2  0
 12 13  1  0
 13 14  2  0
 14 15  1  0
 15 16  1  0
 16 17  1  0
 17 18  2  0
 18 19  1  0
 19 20  2  0
 20 21  1  0
 20 22  1  0
 22 23  2  0
 23 24  1  0
 14 25  1  0
 25 26  1  0
 26 27  1  0
 27 28  2  0
 28 29  1  0
 29 30  2  0
 30 31  1  0
  6 32  1  0
 32 33  2  0
 33  3  1  0
 25 11  1  0
 31 27  1  0
 23 17  1  0
  1 34  1  0
  1 35  1  0
  1 36  1  0
  4 37  1  0
  5 38  1  0
  9 39  1  0
  9 40  1  0
 15 41  1  0
 15 42  1  0
 16 43  1  0
 18 44  1  0
 19 45  1  0
 21 46  1  0
 21 47  1  0
 21 48  1  0
 22 49  1  0
 24 50  1  0
 24 51  1  0
 24 52  1  0
 26 53  1  0
 26 54  1  0
 28 55  1  0
 29 56  1  0
 30 57  1  0
 32 58  1  0
 33 59  1  0
M  END
$$$$
