
     RDKit          3D

 54 57  0  0  0  0  0  0  0  0999 V2000
   -5.5487    2.9505   -2.9150 C   0  0  0  0  0  0  0  0  0  0  0  0
   -4.4769    2.2055   -2.1744 C   0  0  0  0  0  0  0  0  0  0  0  0
   -4.3435    0.8250   -2.3384 C   0  0  0  0  0  0  0  0  0  0  0  0
   -3.3576    0.0899   -1.6483 C   0  0  0  0  0  0  0  0  0  0  0  0
   -3.2222   -1.3571   -2.0413 C   0  0  0  0  0  0  0  0  0  0  0  0
   -2.5496    0.7449   -0.6945 C   0  0  0  0  0  0  0  0  0  0  0  0
   -1.5896    0.0783    0.1061 N   0  0  0  0  0  0  0  0  0  0  0  0
   -1.7003   -1.1882    0.6558 C   0  0  0  0  0  0  0  0  0  0  0  0
   -2.7134   -1.8835    0.6687 O   0  0  0  0  0  0  0  0  0  0  0  0
   -0.4632   -1.6280    1.4450 C   0  0  0  0  0  0  0  0  0  0  0  0
    0.8113   -1.2526    0.8196 N   0  0  0  0  0  0  0  0  0  0  0  0
    1.3953   -0.0612    1.2253 C   0  0  0  0  0  0  0  0  0  0  0  0
    0.7706    0.7272    1.9419 O   0  0  0  0  0  0  0  0  0  0  0  0
    2.6683    0.2120    0.7661 N   0  0  0  0  0  0  0  0  0  0  0  0
    3.3601    1.3656    1.3231 C   0  0  0  0  0  0  0  0  0  0  0  0
    4.0072    0.9677    2.6058 C   0  0  0  0  0  0  0  0  0  0  0  0
    3.5597    0.8890    3.9128 C   0  0  0  0  0  0  0  0  0  0  0  0
    4.6472    0.4060    4.6790 C   0  0  0  0  0  0  0  0  0  0  0  0
    5.6874    0.2322    3.8007 C   0  0  0  0  0  0  0  0  0  0  0  0
    5.3101    0.5755    2.5411 O   0  0  0  0  0  0  0  0  0  0  0  0
    3.3285   -0.5290   -0.1993 C   0  0  0  0  0  0  0  0  0  0  0  0
    4.4267   -0.2331   -0.6611 O   0  0  0  0  0  0  0  0  0  0  0  0
    2.6338   -1.7231   -0.7112 C   0  0  0  0  0  0  0  0  0  0  0  0
    3.2389   -2.4998   -1.7111 C   0  0  0  0  0  0  0  0  0  0  0  0
    2.5923   -3.6291   -2.2082 C   0  0  0  0  0  0  0  0  0  0  0  0
    1.3430   -3.9779   -1.7090 C   0  0  0  0  0  0  0  0  0  0  0  0
    0.7438   -3.2038   -0.7090 C   0  0  0  0  0  0  0  0  0  0  0  0
    1.3877   -2.0671   -0.1908 C   0  0  0  0  0  0  0  0  0  0  0  0
   -2.6580    2.1525   -0.5474 C   0  0  0  0  0  0  0  0  0  0  0  0
   -1.7943    2.9337    0.4102 C   0  0  0  0  0  0  0  0  0  0  0  0
   -3.6193    2.8623   -1.2903 C   0  0  0  0  0  0  0  0  0  0  0  0
   -5.3382    4.0245   -2.9474 H   0  0  0  0  0  0  0  0  0  0  0  0
   -5.6142    2.6005   -3.9500 H   0  0  0  0  0  0  0  0  0  0  0  0
   -6.5157    2.7999   -2.4254 H   0  0  0  0  0  0  0  0  0  0  0  0
   -5.0052    0.3084   -3.0332 H   0  0  0  0  0  0  0  0  0  0  0  0
   -3.3707   -1.4679   -3.1218 H   0  0  0  0  0  0  0  0  0  0  0  0
   -3.9696   -1.9734   -1.5296 H   0  0  0  0  0  0  0  0  0  0  0  0
   -2.2167   -1.7428   -1.8509 H   0  0  0  0  0  0  0  0  0  0  0  0
   -0.9379    0.6783    0.6106 H   0  0  0  0  0  0  0  0  0  0  0  0
   -0.5400   -1.1774    2.4399 H   0  0  0  0  0  0  0  0  0  0  0  0
   -0.4920   -2.7122    1.6072 H   0  0  0  0  0  0  0  0  0  0  0  0
    2.6493    2.1767    1.5050 H   0  0  0  0  0  0  0  0  0  0  0  0
    4.1109    1.7472    0.6255 H   0  0  0  0  0  0  0  0  0  0  0  0
    2.5655    1.1344    4.2600 H   0  0  0  0  0  0  0  0  0  0  0  0
    4.6701    0.2038    5.7410 H   0  0  0  0  0  0  0  0  0  0  0  0
    6.7057   -0.1128    3.9040 H   0  0  0  0  0  0  0  0  0  0  0  0
    4.2158   -2.2241   -2.1045 H   0  0  0  0  0  0  0  0  0  0  0  0
    3.0597   -4.2302   -2.9845 H   0  0  0  0  0  0  0  0  0  0  0  0
    0.8271   -4.8537   -2.1003 H   0  0  0  0  0  0  0  0  0  0  0  0
   -0.2408   -3.5156   -0.3728 H   0  0  0  0  0  0  0  0  0  0  0  0
   -0.7498    2.8802    0.0994 H   0  0  0  0  0  0  0  0  0  0  0  0
   -1.8992    2.5394    1.4291 H   0  0  0  0  0  0  0  0  0  0  0  0
   -2.0776    3.9905    0.4423 H   0  0  0  0  0  0  0  0  0  0  0  0
   -3.7117    3.9417   -1.1624 H   0  0  0  0  0  0  0  0  0  0  0  0
  1  2  1  0
  2  3  2  0
  3  4  1  0
  4  5  1  0
  4  6  2  0
  6  7  1  0
  7  8  1  0
  8  9  2  0
  8 10  1  0
 10 11  1  0
 11 12  1  0
 12 13  2  0
 12 14  1  0
 14 15  1  0
 15 16  1  0
 16 17  2  0
 17 18  1  0
 18 19  2  0
 19 20  1  0
 14 21  1  0
 21 22  2  0
 21 23  1  0
 23 24  2  0
 24 25  1  0
 25 26  2  0
 26 27  1  0
 27 28  2  0
  6 29  1  0
 29 30  1  0
 29 31  2  0
 31  2  1  0
 28 11  1  0
 20 16  1  0
 28 23  1  0
  1 32  1  0
  1 33  1  0
  1 34  1  0
  3 35  1  0
  5 36  1  0
  5 37  1  0
  5 38  1  0
  7 39  1  0
 10 40  1  0
 10 41  1  0
 15 42  1  0
 15 43  1  0
 17 44  1  0
 18 45  1  0
 19 46  1  0
 24 47  1  0
 25 48  1  0
 26 49  1  0
 27 50  1  0
 30 51  1  0
 30 52  1  0
 30 53  1  0
 31 54  1  0
M  END
$$$$
