
     RDKit          3D

 36 37  0  0  0  0  0  0  0  0999 V2000
   -0.1194   -2.1123    0.6357 O   0  0  0  0  0  0  0  0  0  0  0  0
   -0.5372   -1.0816    0.1218 C   0  0  0  0  0  0  0  0  0  0  0  0
   -1.9919   -0.7889    0.1306 C   0  0  0  0  0  0  0  0  0  0  0  0
   -2.6194   -0.0368   -0.7874 C   0  0  0  0  0  0  0  0  0  0  0  0
   -4.0757    0.1959   -0.7794 C   0  0  0  0  0  0  0  0  0  0  0  0
   -4.7171    0.5555    0.4186 C   0  0  0  0  0  0  0  0  0  0  0  0
   -6.0906    0.8132    0.4495 C   0  0  0  0  0  0  0  0  0  0  0  0
   -6.8442    0.7253   -0.7174 C   0  0  0  0  0  0  0  0  0  0  0  0
   -6.2245    0.3822   -1.9180 C   0  0  0  0  0  0  0  0  0  0  0  0
   -4.8494    0.1239   -1.9529 C   0  0  0  0  0  0  0  0  0  0  0  0
   -4.1599   -0.2962   -3.4848 Cl  0  0  0  0  0  0  0  0  0  0  0  0
    0.2626   -0.1103   -0.4212 N   0  0  0  0  0  0  0  0  0  0  0  0
    1.7079   -0.2386   -0.4309 C   0  0  0  0  0  0  0  0  0  0  0  0
    2.3299    0.1143    0.9220 C   0  0  0  0  0  0  0  0  0  0  0  0
    3.8350    0.0293    0.8816 C   0  0  0  0  0  0  0  0  0  0  0  0
    4.6086    1.1677    0.6199 C   0  0  0  0  0  0  0  0  0  0  0  0
    6.0003    1.0771    0.5612 C   0  0  0  0  0  0  0  0  0  0  0  0
    6.6297   -0.1506    0.7600 C   0  0  0  0  0  0  0  0  0  0  0  0
    5.8686   -1.2891    1.0173 C   0  0  0  0  0  0  0  0  0  0  0  0
    4.4773   -1.2011    1.0763 C   0  0  0  0  0  0  0  0  0  0  0  0
   -2.5341   -1.3096    0.9140 H   0  0  0  0  0  0  0  0  0  0  0  0
   -2.0789    0.4044   -1.6202 H   0  0  0  0  0  0  0  0  0  0  0  0
   -4.1524    0.6473    1.3443 H   0  0  0  0  0  0  0  0  0  0  0  0
   -6.5701    1.0863    1.3869 H   0  0  0  0  0  0  0  0  0  0  0  0
   -7.9126    0.9256   -0.6936 H   0  0  0  0  0  0  0  0  0  0  0  0
   -6.8182    0.3177   -2.8266 H   0  0  0  0  0  0  0  0  0  0  0  0
   -0.1370    0.7797   -0.6821 H   0  0  0  0  0  0  0  0  0  0  0  0
    2.0813    0.4294   -1.2153 H   0  0  0  0  0  0  0  0  0  0  0  0
    1.9651   -1.2654   -0.7179 H   0  0  0  0  0  0  0  0  0  0  0  0
    2.0243    1.1252    1.2215 H   0  0  0  0  0  0  0  0  0  0  0  0
    1.9494   -0.5506    1.7076 H   0  0  0  0  0  0  0  0  0  0  0  0
    4.1332    2.1329    0.4613 H   0  0  0  0  0  0  0  0  0  0  0  0
    6.5942    1.9646    0.3598 H   0  0  0  0  0  0  0  0  0  0  0  0
    7.7131   -0.2205    0.7142 H   0  0  0  0  0  0  0  0  0  0  0  0
    6.3578   -2.2473    1.1719 H   0  0  0  0  0  0  0  0  0  0  0  0
    3.8942   -2.0987    1.2744 H   0  0  0  0  0  0  0  0  0  0  0  0
  1  2  2  0
  2  3  1  0
  3  4  2  3
  4  5  1  0
  5  6  2  0
  6  7  1  0
  7  8  2  0
  8  9  1  0
  9 10  2  0
 10 11  1  0
  2 12  1  0
 12 13  1  0
 13 14  1  0
 14 15  1  0
 15 16  2  0
 16 17  1  0
 17 18  2  0
 18 19  1  0
 19 20  2  0
 10  5  1  0
 20 15  1  0
  3 21  1  0
  4 22  1  0
  6 23  1  0
  7 24  1  0
  8 25  1  0
  9 26  1  0
 12 27  1  0
 13 28  1  0
 13 29  1  0
 14 30  1  0
 14 31  1  0
 16 32  1  0
 17 33  1  0
 18 34  1  0
 19 35  1  0
 20 36  1  0
M  END
$$$$
