
     RDKit          3D

 61 65  0  0  0  0  0  0  0  0999 V2000
   -7.5429    2.4629   -4.5308 C   0  0  0  0  0  0  0  0  0  0  0  0
   -6.7554    1.6887   -3.5168 C   0  0  0  0  0  0  0  0  0  0  0  0
   -5.3815    1.8939   -3.3692 C   0  0  0  0  0  0  0  0  0  0  0  0
   -4.6462    1.1437   -2.4407 C   0  0  0  0  0  0  0  0  0  0  0  0
   -5.2558    0.1611   -1.6400 C   0  0  0  0  0  0  0  0  0  0  0  0
   -4.4959   -0.6425   -0.6571 C   0  0  0  0  0  0  0  0  0  0  0  0
   -3.1549   -0.9474   -0.8071 C   0  0  0  0  0  0  0  0  0  0  0  0
   -2.5195   -1.6819    0.1949 C   0  0  0  0  0  0  0  0  0  0  0  0
   -1.0616   -1.8783    0.0194 C   0  0  0  0  0  0  0  0  0  0  0  0
   -0.6717   -2.4097   -1.0122 O   0  0  0  0  0  0  0  0  0  0  0  0
   -0.2991   -1.3587    1.0500 N   0  0  0  0  0  0  0  0  0  0  0  0
    1.1068   -1.3109    1.1343 C   0  0  0  0  0  0  0  0  0  0  0  0
    1.6559   -0.7612    2.3029 C   0  0  0  0  0  0  0  0  0  0  0  0
    3.0404   -0.6676    2.4681 C   0  0  0  0  0  0  0  0  0  0  0  0
    3.8829   -1.1117    1.4460 C   0  0  0  0  0  0  0  0  0  0  0  0
    5.6409   -1.0041    1.6575 S   0  0  0  0  0  6  0  0  0  0  0  0
    6.2989   -1.5303    0.4854 O   0  0  0  0  0  0  0  0  0  0  0  0
    5.9445   -1.5243    2.9745 O   0  0  0  0  0  0  0  0  0  0  0  0
    5.9039    0.6561    1.7570 N   0  0  0  0  0  0  0  0  0  0  0  0
    6.1383    1.3192    0.4895 C   0  0  0  0  0  0  0  0  0  0  0  0
    5.3037    1.2388   -0.5905 O   0  0  0  0  0  0  0  0  0  0  0  0
    5.7867    2.0337   -1.6116 N   0  0  0  0  0  0  0  0  0  0  0  0
    6.9087    2.5910   -1.1341 C   0  0  0  0  0  0  0  0  0  0  0  0
    7.6817    3.5152   -1.9988 C   0  0  0  0  0  0  0  0  0  0  0  0
    7.1870    2.1623    0.1983 C   0  0  0  0  0  0  0  0  0  0  0  0
    8.3469    2.5354    1.0424 C   0  0  0  0  0  0  0  0  0  0  0  0
    3.3515   -1.6640    0.2800 C   0  0  0  0  0  0  0  0  0  0  0  0
    1.9644   -1.7624    0.1275 C   0  0  0  0  0  0  0  0  0  0  0  0
   -3.2311   -2.1634    1.3139 C   0  0  0  0  0  0  0  0  0  0  0  0
   -2.6859   -2.9758    2.3412 C   0  0  0  0  0  0  0  0  0  0  0  0
   -3.4653   -3.3891    3.4199 C   0  0  0  0  0  0  0  0  0  0  0  0
   -4.7976   -3.0079    3.4838 C   0  0  0  0  0  0  0  0  0  0  0  0
   -5.3441   -2.2280    2.4624 C   0  0  0  0  0  0  0  0  0  0  0  0
   -4.5893   -1.8046    1.3757 C   0  0  0  0  0  0  0  0  0  0  0  0
   -5.1928   -1.0646    0.4293 N   0  0  0  0  0  0  0  0  0  0  0  0
   -6.6398   -0.0304   -1.8058 C   0  0  0  0  0  0  0  0  0  0  0  0
   -7.3784    0.7150   -2.7323 C   0  0  0  0  0  0  0  0  0  0  0  0
   -7.0208    3.3755   -4.8241 H   0  0  0  0  0  0  0  0  0  0  0  0
   -8.5128    2.7613   -4.1220 H   0  0  0  0  0  0  0  0  0  0  0  0
   -7.7061    1.8552   -5.4249 H   0  0  0  0  0  0  0  0  0  0  0  0
   -4.8702    2.6381   -3.9732 H   0  0  0  0  0  0  0  0  0  0  0  0
   -3.5858    1.3508   -2.3510 H   0  0  0  0  0  0  0  0  0  0  0  0
   -2.5948   -0.6285   -1.6807 H   0  0  0  0  0  0  0  0  0  0  0  0
   -0.8024   -0.9327    1.8201 H   0  0  0  0  0  0  0  0  0  0  0  0
    1.0125   -0.4052    3.1053 H   0  0  0  0  0  0  0  0  0  0  0  0
    3.4480   -0.2450    3.3838 H   0  0  0  0  0  0  0  0  0  0  0  0
    6.4883    0.9010    2.5598 H   0  0  0  0  0  0  0  0  0  0  0  0
    8.0832    2.9845   -2.8669 H   0  0  0  0  0  0  0  0  0  0  0  0
    7.0413    4.3310   -2.3578 H   0  0  0  0  0  0  0  0  0  0  0  0
    8.5217    3.9653   -1.4580 H   0  0  0  0  0  0  0  0  0  0  0  0
    8.2676    3.5757    1.3798 H   0  0  0  0  0  0  0  0  0  0  0  0
    9.2802    2.4298    0.4742 H   0  0  0  0  0  0  0  0  0  0  0  0
    8.4315    1.8946    1.9252 H   0  0  0  0  0  0  0  0  0  0  0  0
    4.0017   -2.0130   -0.5220 H   0  0  0  0  0  0  0  0  0  0  0  0
    1.5852   -2.1854   -0.8000 H   0  0  0  0  0  0  0  0  0  0  0  0
   -1.6517   -3.3130    2.2981 H   0  0  0  0  0  0  0  0  0  0  0  0
   -3.0343   -4.0135    4.1991 H   0  0  0  0  0  0  0  0  0  0  0  0
   -5.4211   -3.3226    4.3169 H   0  0  0  0  0  0  0  0  0  0  0  0
   -6.3935   -1.9450    2.5140 H   0  0  0  0  0  0  0  0  0  0  0  0
   -7.1575   -0.7811   -1.2069 H   0  0  0  0  0  0  0  0  0  0  0  0
   -8.4445    0.5241   -2.8328 H   0  0  0  0  0  0  0  0  0  0  0  0
  1  2  1  0
  2  3  2  0
  3  4  1  0
  4  5  2  0
  5  6  1  0
  6  7  2  0
  7  8  1  0
  8  9  1  0
  9 10  2  0
  9 11  1  0
 11 12  1  0
 12 13  2  0
 13 14  1  0
 14 15  2  0
 15 16  1  0
 16 17  2  0
 16 18  2  0
 16 19  1  0
 19 20  1  0
 20 21  1  0
 21 22  1  0
 22 23  2  0
 23 24  1  0
 23 25  1  0
 25 26  1  0
 15 27  1  0
 27 28  2  0
  8 29  2  0
 29 30  1  0
 30 31  2  0
 31 32  1  0
 32 33  2  0
 33 34  1  0
 34 35  2  0
  5 36  1  0
 36 37  2  0
 37  2  1  0
 35  6  1  0
 28 12  1  0
 34 29  1  0
 25 20  2  0
  1 38  1  0
  1 39  1  0
  1 40  1  0
  3 41  1  0
  4 42  1  0
  7 43  1  0
 11 44  1  0
 13 45  1  0
 14 46  1  0
 19 47  1  0
 24 48  1  0
 24 49  1  0
 24 50  1  0
 26 51  1  0
 26 52  1  0
 26 53  1  0
 27 54  1  0
 28 55  1  0
 30 56  1  0
 31 57  1  0
 32 58  1  0
 33 59  1  0
 36 60  1  0
 37 61  1  0
M  END
$$$$
