
     RDKit          3D

 45 47  0  0  0  0  0  0  0  0999 V2000
   -4.5721   -0.9408    0.8572 O   0  0  0  0  0  0  0  0  0  0  0  0
   -3.6471   -0.3251    0.3291 C   0  0  0  0  0  0  0  0  0  0  0  0
   -3.8572    0.9749   -0.4386 C   0  0  0  0  0  0  0  0  0  0  0  0
   -5.2963    1.4310   -0.5181 C   0  0  0  0  0  0  0  0  0  0  0  0
   -5.8364    2.2567    0.4790 C   0  0  0  0  0  0  0  0  0  0  0  0
   -7.1694    2.6684    0.4108 C   0  0  0  0  0  0  0  0  0  0  0  0
   -7.9695    2.2519   -0.6506 C   0  0  0  0  0  0  0  0  0  0  0  0
   -9.6114    2.7605   -0.7344 Cl  0  0  0  0  0  0  0  0  0  0  0  0
   -7.4496    1.4247   -1.6433 C   0  0  0  0  0  0  0  0  0  0  0  0
   -6.1168    1.0124   -1.5761 C   0  0  0  0  0  0  0  0  0  0  0  0
   -2.2712   -0.8288    0.4234 C   0  0  0  0  0  0  0  0  0  0  0  0
   -1.9055   -2.0050    1.0517 C   0  0  0  0  0  0  0  0  0  0  0  0
   -0.5528   -2.1683    0.9297 N   0  0  0  0  0  0  0  0  0  0  0  0
   -0.0039   -1.0980    0.2599 C   0  0  0  0  0  0  0  0  0  0  0  0
    1.3960   -0.9131   -0.0626 C   0  0  0  0  0  0  0  0  0  0  0  0
    1.7798   -0.1519   -0.9440 O   0  0  0  0  0  0  0  0  0  0  0  0
    2.2736   -1.6309    0.7256 N   0  0  0  0  0  0  0  0  0  0  0  0
    3.7090   -1.5123    0.5521 C   0  0  0  0  0  0  0  0  0  0  0  0
    4.2510   -0.2141    1.1501 C   0  0  0  0  0  0  0  0  0  0  0  0
    5.7782   -0.1587    1.1653 C   0  0  0  0  0  0  0  0  0  0  0  0
    6.3911   -0.2547   -0.1414 N   0  0  0  0  0  0  0  0  0  0  0  0
    6.2934    0.6579   -1.1528 C   0  0  0  0  0  0  0  0  0  0  0  0
    7.0438    0.1307   -2.1780 C   0  0  0  0  0  0  0  0  0  0  0  0
    7.6023   -1.0654   -1.8067 N   0  0  0  0  0  0  0  0  0  0  0  0
    7.1972   -1.2684   -0.5738 C   0  0  0  0  0  0  0  0  0  0  0  0
   -1.0634   -0.2709   -0.0846 C   0  0  0  0  0  0  0  0  0  0  0  0
   -3.2604    1.7623    0.0383 H   0  0  0  0  0  0  0  0  0  0  0  0
   -3.4686    0.8467   -1.4565 H   0  0  0  0  0  0  0  0  0  0  0  0
   -5.2260    2.5792    1.3197 H   0  0  0  0  0  0  0  0  0  0  0  0
   -7.5772    3.3067    1.1898 H   0  0  0  0  0  0  0  0  0  0  0  0
   -8.0757    1.0928   -2.4669 H   0  0  0  0  0  0  0  0  0  0  0  0
   -5.7266    0.3567   -2.3518 H   0  0  0  0  0  0  0  0  0  0  0  0
   -2.5117   -2.7459    1.5592 H   0  0  0  0  0  0  0  0  0  0  0  0
   -0.0401   -2.9792    1.2495 H   0  0  0  0  0  0  0  0  0  0  0  0
    1.9364   -2.0299    1.5882 H   0  0  0  0  0  0  0  0  0  0  0  0
    3.9329   -1.5711   -0.5186 H   0  0  0  0  0  0  0  0  0  0  0  0
    4.1588   -2.3807    1.0448 H   0  0  0  0  0  0  0  0  0  0  0  0
    3.8897   -0.1099    2.1811 H   0  0  0  0  0  0  0  0  0  0  0  0
    3.8517    0.6451    0.5979 H   0  0  0  0  0  0  0  0  0  0  0  0
    6.1800   -0.9660    1.7887 H   0  0  0  0  0  0  0  0  0  0  0  0
    6.1141    0.7888    1.6027 H   0  0  0  0  0  0  0  0  0  0  0  0
    5.7132    1.5667   -1.0739 H   0  0  0  0  0  0  0  0  0  0  0  0
    7.2118    0.5490   -3.1620 H   0  0  0  0  0  0  0  0  0  0  0  0
    7.4564   -2.1230    0.0375 H   0  0  0  0  0  0  0  0  0  0  0  0
   -0.9513    0.6492   -0.6472 H   0  0  0  0  0  0  0  0  0  0  0  0
  1  2  2  0
  2  3  1  0
  3  4  1  0
  4  5  2  0
  5  6  1  0
  6  7  2  0
  7  8  1  0
  7  9  1  0
  9 10  2  0
  2 11  1  0
 11 12  2  0
 12 13  1  0
 13 14  1  0
 14 15  1  0
 15 16  2  0
 15 17  1  0
 17 18  1  0
 18 19  1  0
 19 20  1  0
 20 21  1  0
 21 22  1  0
 22 23  2  0
 23 24  1  0
 24 25  2  0
 14 26  2  0
 10  4  1  0
 26 11  1  0
 25 21  1  0
  3 27  1  0
  3 28  1  0
  5 29  1  0
  6 30  1  0
  9 31  1  0
 10 32  1  0
 12 33  1  0
 13 34  1  0
 17 35  1  0
 18 36  1  0
 18 37  1  0
 19 38  1  0
 19 39  1  0
 20 40  1  0
 20 41  1  0
 22 42  1  0
 23 43  1  0
 25 44  1  0
 26 45  1  0
M  END
$$$$
