
     RDKit          3D

 49 50  0  0  0  0  0  0  0  0999 V2000
    6.3533   -0.4336    1.0899 C   0  0  0  0  0  0  0  0  0  0  0  0
    6.0839   -0.6778   -0.3831 C   0  0  0  0  0  0  0  0  0  0  0  0
    4.7921   -0.1727   -0.7451 O   0  0  0  0  0  0  0  0  0  0  0  0
    3.7366   -1.0106   -0.5233 C   0  0  0  0  0  0  0  0  0  0  0  0
    3.8528   -2.1286   -0.0314 O   0  0  0  0  0  0  0  0  0  0  0  0
    2.4470   -0.4202   -0.9141 C   0  0  0  0  0  0  0  0  0  0  0  0
    2.1933    0.7775   -1.6741 C   0  0  0  0  0  0  0  0  0  0  0  0
    3.2199    1.6908   -2.2567 C   0  0  0  0  0  0  0  0  0  0  0  0
    0.8166    0.9275   -1.7729 C   0  0  0  0  0  0  0  0  0  0  0  0
    0.0233    2.0093   -2.4304 C   0  0  0  0  0  0  0  0  0  0  0  0
    0.2259   -0.1551   -1.1502 N   0  0  0  0  0  0  0  0  0  0  0  0
   -1.2175   -0.4305   -1.1329 C   0  0  0  0  0  0  0  0  0  0  0  0
   -1.9632    0.1250    0.0636 C   0  0  0  0  0  0  0  0  0  0  0  0
   -1.3455    0.8705    1.0794 C   0  0  0  0  0  0  0  0  0  0  0  0
   -2.0870    1.3698    2.1493 C   0  0  0  0  0  0  0  0  0  0  0  0
   -3.4628    1.1486    2.2198 C   0  0  0  0  0  0  0  0  0  0  0  0
   -4.1127    0.4163    1.2240 C   0  0  0  0  0  0  0  0  0  0  0  0
   -5.4639    0.1896    1.1924 O   0  0  0  0  0  0  0  0  0  0  0  0
   -6.2626    0.8258    2.1806 C   0  0  0  0  0  0  0  0  0  0  0  0
   -3.3497   -0.1180    0.1652 C   0  0  0  0  0  0  0  0  0  0  0  0
   -3.9139   -0.8407   -0.8638 O   0  0  0  0  0  0  0  0  0  0  0  0
   -4.6001   -2.0075   -0.4095 C   0  0  0  0  0  0  0  0  0  0  0  0
    1.2014   -0.9592   -0.5923 C   0  0  0  0  0  0  0  0  0  0  0  0
    0.8899   -2.1865    0.2042 C   0  0  0  0  0  0  0  0  0  0  0  0
    5.6409   -0.9781    1.7158 H   0  0  0  0  0  0  0  0  0  0  0  0
    7.3651   -0.7513    1.3565 H   0  0  0  0  0  0  0  0  0  0  0  0
    6.2418    0.6293    1.3290 H   0  0  0  0  0  0  0  0  0  0  0  0
    6.8175   -0.1300   -0.9831 H   0  0  0  0  0  0  0  0  0  0  0  0
    6.1852   -1.7374   -0.6445 H   0  0  0  0  0  0  0  0  0  0  0  0
    2.7769    2.4257   -2.9345 H   0  0  0  0  0  0  0  0  0  0  0  0
    3.7389    2.2375   -1.4629 H   0  0  0  0  0  0  0  0  0  0  0  0
    3.9544    1.1252   -2.8388 H   0  0  0  0  0  0  0  0  0  0  0  0
   -0.8688    2.2636   -1.8508 H   0  0  0  0  0  0  0  0  0  0  0  0
   -0.2869    1.6945   -3.4316 H   0  0  0  0  0  0  0  0  0  0  0  0
    0.6077    2.9287   -2.5271 H   0  0  0  0  0  0  0  0  0  0  0  0
   -1.3342   -1.5192   -1.1857 H   0  0  0  0  0  0  0  0  0  0  0  0
   -1.6345   -0.0182   -2.0591 H   0  0  0  0  0  0  0  0  0  0  0  0
   -0.2774    1.0792    1.0552 H   0  0  0  0  0  0  0  0  0  0  0  0
   -1.5894    1.9452    2.9257 H   0  0  0  0  0  0  0  0  0  0  0  0
   -3.9971    1.5701    3.0641 H   0  0  0  0  0  0  0  0  0  0  0  0
   -7.3085    0.5797    1.9736 H   0  0  0  0  0  0  0  0  0  0  0  0
   -6.1616    1.9155    2.1334 H   0  0  0  0  0  0  0  0  0  0  0  0
   -6.0248    0.4482    3.1804 H   0  0  0  0  0  0  0  0  0  0  0  0
   -5.6632   -1.7935   -0.2675 H   0  0  0  0  0  0  0  0  0  0  0  0
   -4.1619   -2.4290    0.5031 H   0  0  0  0  0  0  0  0  0  0  0  0
   -4.5201   -2.7637   -1.1972 H   0  0  0  0  0  0  0  0  0  0  0  0
    1.0030   -3.0776   -0.4214 H   0  0  0  0  0  0  0  0  0  0  0  0
   -0.1243   -2.1797    0.6135 H   0  0  0  0  0  0  0  0  0  0  0  0
    1.5640   -2.2741    1.0619 H   0  0  0  0  0  0  0  0  0  0  0  0
  1  2  1  0
  2  3  1  0
  3  4  1  0
  4  5  2  0
  4  6  1  0
  6  7  1  0
  7  8  1  0
  7  9  2  0
  9 10  1  0
  9 11  1  0
 11 12  1  0
 12 13  1  0
 13 14  2  0
 14 15  1  0
 15 16  2  0
 16 17  1  0
 17 18  1  0
 18 19  1  0
 17 20  2  0
 20 21  1  0
 21 22  1  0
 11 23  1  0
 23 24  1  0
 23  6  2  0
 20 13  1  0
  1 25  1  0
  1 26  1  0
  1 27  1  0
  2 28  1  0
  2 29  1  0
  8 30  1  0
  8 31  1  0
  8 32  1  0
 10 33  1  0
 10 34  1  0
 10 35  1  0
 12 36  1  0
 12 37  1  0
 14 38  1  0
 15 39  1  0
 16 40  1  0
 19 41  1  0
 19 42  1  0
 19 43  1  0
 22 44  1  0
 22 45  1  0
 22 46  1  0
 24 47  1  0
 24 48  1  0
 24 49  1  0
M  END
$$$$
