
     RDKit          3D

 23 24  0  0  0  0  0  0  0  0999 V2000
    0.6878    0.9013    1.9195 O   0  0  0  0  0  0  0  0  0  0  0  0
    1.5185    0.8973    1.0331 C   0  0  0  0  0  0  0  0  0  0  0  0
    2.6965    1.5867    1.0683 O   0  0  0  0  0  0  0  0  0  0  0  0
    3.3609    1.4715   -0.1899 C   0  0  0  0  0  0  0  0  0  0  0  0
    2.8552    0.1962   -0.8115 C   0  0  0  0  0  0  0  0  0  0  0  0
    1.4828    0.1419   -0.2460 C   0  0  0  0  0  0  0  0  0  0  0  0
    0.4397   -0.4725   -0.8245 C   0  0  0  0  0  0  0  0  0  0  0  0
   -0.9420   -0.5350   -0.3365 C   0  0  0  0  0  0  0  0  0  0  0  0
   -1.6805    0.6205   -0.0578 C   0  0  0  0  0  0  0  0  0  0  0  0
   -3.0105    0.5267    0.3594 C   0  0  0  0  0  0  0  0  0  0  0  0
   -3.6165   -0.7215    0.4882 C   0  0  0  0  0  0  0  0  0  0  0  0
   -2.8942   -1.8772    0.1988 C   0  0  0  0  0  0  0  0  0  0  0  0
   -1.5638   -1.7842   -0.2168 C   0  0  0  0  0  0  0  0  0  0  0  0
    4.4431    1.4419   -0.0304 H   0  0  0  0  0  0  0  0  0  0  0  0
    3.1224    2.3548   -0.7935 H   0  0  0  0  0  0  0  0  0  0  0  0
    3.4339   -0.6636   -0.4553 H   0  0  0  0  0  0  0  0  0  0  0  0
    2.8957    0.2279   -1.9036 H   0  0  0  0  0  0  0  0  0  0  0  0
    0.5977   -1.0058   -1.7605 H   0  0  0  0  0  0  0  0  0  0  0  0
   -1.2275    1.6041   -0.1512 H   0  0  0  0  0  0  0  0  0  0  0  0
   -3.5697    1.4298    0.5893 H   0  0  0  0  0  0  0  0  0  0  0  0
   -4.6496   -0.7926    0.8180 H   0  0  0  0  0  0  0  0  0  0  0  0
   -3.3647   -2.8515    0.3002 H   0  0  0  0  0  0  0  0  0  0  0  0
   -1.0150   -2.6968   -0.4365 H   0  0  0  0  0  0  0  0  0  0  0  0
  1  2  2  0
  2  3  1  0
  3  4  1  0
  4  5  1  0
  5  6  1  0
  6  7  2  3
  7  8  1  0
  8  9  2  0
  9 10  1  0
 10 11  2  0
 11 12  1  0
 12 13  2  0
  6  2  1  0
 13  8  1  0
  4 14  1  0
  4 15  1  0
  5 16  1  0
  5 17  1  0
  7 18  1  0
  9 19  1  0
 10 20  1  0
 11 21  1  0
 12 22  1  0
 13 23  1  0
M  END
$$$$
