
     RDKit          3D

 42 44  0  0  0  0  0  0  0  0999 V2000
   -5.0042   -0.5011    3.8166 C   0  0  0  0  0  0  0  0  0  0  0  0
   -4.8439    0.1541    2.5655 O   0  0  0  0  0  0  0  0  0  0  0  0
   -4.4431   -0.6147    1.5002 C   0  0  0  0  0  0  0  0  0  0  0  0
   -4.3616   -2.0121    1.5189 C   0  0  0  0  0  0  0  0  0  0  0  0
   -3.9587   -2.7141    0.3795 C   0  0  0  0  0  0  0  0  0  0  0  0
   -3.6417   -2.0292   -0.7896 C   0  0  0  0  0  0  0  0  0  0  0  0
   -3.7232   -0.6379   -0.8223 C   0  0  0  0  0  0  0  0  0  0  0  0
   -4.1106    0.0802    0.3197 C   0  0  0  0  0  0  0  0  0  0  0  0
   -4.2101    1.5474    0.2579 C   0  0  0  0  0  0  0  0  0  0  0  0
   -3.2194    2.4128   -0.0050 C   0  0  0  0  0  0  0  0  0  0  0  0
   -1.8237    2.0340   -0.2452 C   0  0  0  0  0  0  0  0  0  0  0  0
   -1.0998    1.1145    0.2899 N   0  0  0  0  0  0  0  0  0  0  0  0
    0.1099    1.2624   -0.3400 C   0  0  0  0  0  0  0  0  0  0  0  0
    1.1647    0.4754   -0.0866 C   0  0  0  0  0  0  0  0  0  0  0  0
    2.4755    0.5387   -0.6978 C   0  0  0  0  0  0  0  0  0  0  0  0
    3.4721   -0.2932   -0.3535 C   0  0  0  0  0  0  0  0  0  0  0  0
    4.8149   -0.2701   -0.9540 C   0  0  0  0  0  0  0  0  0  0  0  0
    5.4443    0.9192   -1.3453 C   0  0  0  0  0  0  0  0  0  0  0  0
    6.7338    0.8986   -1.8840 C   0  0  0  0  0  0  0  0  0  0  0  0
    7.4120   -0.3097   -2.0275 C   0  0  0  0  0  0  0  0  0  0  0  0
    6.8040   -1.4976   -1.6281 C   0  0  0  0  0  0  0  0  0  0  0  0
    5.5149   -1.4769   -1.0892 C   0  0  0  0  0  0  0  0  0  0  0  0
    0.0385    2.3966   -1.3068 C   0  0  0  0  0  0  0  0  0  0  0  0
    0.8838    2.8574   -2.0465 O   0  0  0  0  0  0  0  0  0  0  0  0
   -1.2452    2.8322   -1.1727 O   0  0  0  0  0  0  0  0  0  0  0  0
   -5.2352    0.2623    4.5659 H   0  0  0  0  0  0  0  0  0  0  0  0
   -5.8447   -1.2019    3.7872 H   0  0  0  0  0  0  0  0  0  0  0  0
   -4.0803   -1.0012    4.1257 H   0  0  0  0  0  0  0  0  0  0  0  0
   -4.6103   -2.5875    2.4040 H   0  0  0  0  0  0  0  0  0  0  0  0
   -3.8969   -3.7992    0.4055 H   0  0  0  0  0  0  0  0  0  0  0  0
   -3.3326   -2.5767   -1.6761 H   0  0  0  0  0  0  0  0  0  0  0  0
   -3.4819   -0.1181   -1.7461 H   0  0  0  0  0  0  0  0  0  0  0  0
   -5.2041    1.9341    0.4739 H   0  0  0  0  0  0  0  0  0  0  0  0
   -3.4281    3.4770   -0.0311 H   0  0  0  0  0  0  0  0  0  0  0  0
    1.0222   -0.3035    0.6616 H   0  0  0  0  0  0  0  0  0  0  0  0
    2.6388    1.2835   -1.4732 H   0  0  0  0  0  0  0  0  0  0  0  0
    3.3134   -1.0598    0.4019 H   0  0  0  0  0  0  0  0  0  0  0  0
    4.9440    1.8776   -1.2281 H   0  0  0  0  0  0  0  0  0  0  0  0
    7.2081    1.8283   -2.1874 H   0  0  0  0  0  0  0  0  0  0  0  0
    8.4146   -0.3247   -2.4466 H   0  0  0  0  0  0  0  0  0  0  0  0
    7.3320   -2.4414   -1.7350 H   0  0  0  0  0  0  0  0  0  0  0  0
    5.0581   -2.4157   -0.7843 H   0  0  0  0  0  0  0  0  0  0  0  0
  1  2  1  0
  2  3  1  0
  3  4  2  0
  4  5  1  0
  5  6  2  0
  6  7  1  0
  7  8  2  0
  8  9  1  0
  9 10  2  3
 10 11  1  0
 11 12  2  0
 12 13  1  0
 13 14  2  3
 14 15  1  0
 15 16  2  3
 16 17  1  0
 17 18  2  0
 18 19  1  0
 19 20  2  0
 20 21  1  0
 21 22  2  0
 13 23  1  0
 23 24  2  0
 23 25  1  0
  8  3  1  0
 25 11  1  0
 22 17  1  0
  1 26  1  0
  1 27  1  0
  1 28  1  0
  4 29  1  0
  5 30  1  0
  6 31  1  0
  7 32  1  0
  9 33  1  0
 10 34  1  0
 14 35  1  0
 15 36  1  0
 16 37  1  0
 18 38  1  0
 19 39  1  0
 20 40  1  0
 21 41  1  0
 22 42  1  0
M  END
$$$$
