
     RDKit          3D

 56 61  0  0  0  0  0  0  0  0999 V2000
   -6.0293   -2.4376    0.5174 C   0  0  0  0  0  0  0  0  0  0  0  0
   -4.6493   -2.4362   -0.0674 C   0  0  0  0  0  0  0  0  0  0  0  0
   -4.3905   -2.9605   -1.3481 C   0  0  0  0  0  0  0  0  0  0  0  0
   -5.6600   -3.6358   -2.3126 Cl  0  0  0  0  0  0  0  0  0  0  0  0
   -3.0926   -2.9670   -1.8973 C   0  0  0  0  0  0  0  0  0  0  0  0
   -2.0117   -2.4469   -1.1851 C   0  0  0  0  0  0  0  0  0  0  0  0
   -2.2537   -1.9249    0.0751 C   0  0  0  0  0  0  0  0  0  0  0  0
   -3.5490   -1.9357    0.6188 C   0  0  0  0  0  0  0  0  0  0  0  0
   -3.5195   -1.4032    1.9076 N   0  0  0  0  0  0  0  0  0  0  0  0
   -2.2297   -1.0283    2.2803 C   0  0  0  0  0  0  0  0  0  0  0  0
   -1.9023   -0.6127    3.3830 O   0  0  0  0  0  0  0  0  0  0  0  0
   -1.3099   -1.3047    1.0678 C   0  0  0  0  0  0  0  0  0  0  0  0
   -0.1355   -2.1656    1.4393 N   0  0  0  0  0  0  0  0  0  0  0  0
    1.1280   -1.5672    0.8521 C   0  0  2  0  0  0  0  0  0  0  0  0
    2.2239   -1.5094    1.9350 C   0  0  0  0  0  0  0  0  0  0  0  0
    3.5926   -1.1234    1.4226 C   0  0  0  0  0  0  0  0  0  0  0  0
    4.2774   -1.9461    0.5168 C   0  0  0  0  0  0  0  0  0  0  0  0
    5.5283   -1.5683    0.0254 C   0  0  0  0  0  0  0  0  0  0  0  0
    6.1094   -0.3704    0.4397 C   0  0  0  0  0  0  0  0  0  0  0  0
    5.4456    0.4464    1.3530 C   0  0  0  0  0  0  0  0  0  0  0  0
    4.1955    0.0704    1.8468 C   0  0  0  0  0  0  0  0  0  0  0  0
    0.6729   -0.2519    0.3341 C   0  0  0  0  0  0  0  0  0  0  0  0
   -0.7051   -0.1069    0.4776 C   0  0  0  0  0  0  0  0  0  0  0  0
   -1.0882    1.1014   -0.0367 C   0  0  0  0  0  0  0  0  0  0  0  0
   -2.3259    1.5705   -0.1908 O   0  0  0  0  0  0  0  0  0  0  0  0
    0.0819    1.7574   -0.4630 N   0  0  0  0  0  0  0  0  0  0  0  0
    0.1573    3.1060   -0.9379 C   0  0  0  0  0  0  0  0  0  0  0  0
    1.0966    3.4760   -1.9076 C   0  0  0  0  0  0  0  0  0  0  0  0
    1.1514    4.7949   -2.3675 C   0  0  0  0  0  0  0  0  0  0  0  0
    0.2817    5.7543   -1.8542 C   0  0  0  0  0  0  0  0  0  0  0  0
   -0.6420    5.4000   -0.8737 C   0  0  0  0  0  0  0  0  0  0  0  0
   -0.7059    4.0821   -0.4150 C   0  0  0  0  0  0  0  0  0  0  0  0
    1.1550    0.8542   -0.3234 C   0  0  0  0  0  0  0  0  0  0  0  0
    2.3853    1.1481   -0.7355 O   0  0  0  0  0  0  0  0  0  0  0  0
   -6.0763   -1.9219    1.4815 H   0  0  0  0  0  0  0  0  0  0  0  0
   -6.7290   -1.9203   -0.1501 H   0  0  0  0  0  0  0  0  0  0  0  0
   -6.3715   -3.4659    0.6768 H   0  0  0  0  0  0  0  0  0  0  0  0
   -2.9239   -3.3825   -2.8882 H   0  0  0  0  0  0  0  0  0  0  0  0
   -1.0115   -2.4518   -1.6061 H   0  0  0  0  0  0  0  0  0  0  0  0
   -4.3022   -1.3204    2.5368 H   0  0  0  0  0  0  0  0  0  0  0  0
   -0.0632   -2.0739    2.4557 H   0  0  0  0  0  0  0  0  0  0  0  0
    1.4329   -2.2049    0.0145 H   0  0  0  0  0  0  0  0  0  0  0  0
    1.9222   -0.8212    2.7375 H   0  0  0  0  0  0  0  0  0  0  0  0
    2.3241   -2.4963    2.4084 H   0  0  0  0  0  0  0  0  0  0  0  0
    3.8448   -2.8903    0.1898 H   0  0  0  0  0  0  0  0  0  0  0  0
    6.0531   -2.2107   -0.6777 H   0  0  0  0  0  0  0  0  0  0  0  0
    7.0837   -0.0771    0.0566 H   0  0  0  0  0  0  0  0  0  0  0  0
    5.8996    1.3796    1.6805 H   0  0  0  0  0  0  0  0  0  0  0  0
    3.6880    0.7260    2.5529 H   0  0  0  0  0  0  0  0  0  0  0  0
   -2.3184    2.2401   -0.8988 H   0  0  0  0  0  0  0  0  0  0  0  0
    1.7776    2.7528   -2.3461 H   0  0  0  0  0  0  0  0  0  0  0  0
    1.8756    5.0706   -3.1304 H   0  0  0  0  0  0  0  0  0  0  0  0
    0.3324    6.7803   -2.2092 H   0  0  0  0  0  0  0  0  0  0  0  0
   -1.3016    6.1557   -0.4527 H   0  0  0  0  0  0  0  0  0  0  0  0
   -1.4005    3.8528    0.3908 H   0  0  0  0  0  0  0  0  0  0  0  0
    2.9814    0.4204   -0.4824 H   0  0  0  0  0  0  0  0  0  0  0  0
  1  2  1  0
  2  3  2  0
  3  4  1  0
  3  5  1  0
  5  6  2  0
  6  7  1  0
  7  8  2  0
  8  9  1  0
  9 10  1  0
 10 11  2  0
 10 12  1  0
 12 13  1  0
 13 14  1  0
 14 15  1  0
 15 16  1  0
 16 17  2  0
 17 18  1  0
 18 19  2  0
 19 20  1  0
 20 21  2  0
 14 22  1  0
 22 23  1  0
 23 24  2  0
 24 25  1  0
 24 26  1  0
 26 27  1  0
 27 28  2  0
 28 29  1  0
 29 30  2  0
 30 31  1  0
 31 32  2  0
 26 33  1  0
 33 34  1  0
  8  2  1  0
 23 12  1  0
 32 27  1  0
 12  7  1  0
 21 16  1  0
 33 22  2  0
  1 35  1  0
  1 36  1  0
  1 37  1  0
  5 38  1  0
  6 39  1  0
  9 40  1  0
 13 41  1  0
 14 42  1  6
 15 43  1  0
 15 44  1  0
 17 45  1  0
 18 46  1  0
 19 47  1  0
 20 48  1  0
 21 49  1  0
 25 50  1  0
 28 51  1  0
 29 52  1  0
 30 53  1  0
 31 54  1  0
 32 55  1  0
 34 56  1  0
M  END
$$$$
