
     RDKit          3D

 55 60  0  0  0  0  0  0  0  0999 V2000
    5.0527    0.1146    1.6298 O   0  0  0  0  0  0  0  0  0  0  0  0
    4.1140    0.8422    1.3114 C   0  0  0  0  0  0  0  0  0  0  0  0
    4.2545    2.2878    1.4047 C   0  0  0  0  0  0  0  0  0  0  0  0
    5.4421    3.0520    1.2015 C   0  0  0  0  0  0  0  0  0  0  0  0
    5.1127    4.3657    1.4339 C   0  0  0  0  0  0  0  0  0  0  0  0
    3.8090    4.4669    1.7964 O   0  0  0  0  0  0  0  0  0  0  0  0
    3.3034    3.2069    1.8020 C   0  0  0  0  0  0  0  0  0  0  0  0
    2.8989    0.3103    0.8617 N   0  0  0  0  0  0  0  0  0  0  0  0
    2.7309   -1.1369    0.9579 C   0  0  0  0  0  0  0  0  0  0  0  0
    1.2617   -1.5277    0.8614 C   0  0  0  0  0  0  0  0  0  0  0  0
    0.6732   -1.1377   -0.5206 C   0  0  0  0  0  0  0  0  0  0  0  0
    1.3287    0.1669   -1.0545 C   0  0  0  0  0  0  0  0  0  0  0  0
    1.9375    1.0414    0.0392 C   0  0  0  0  0  0  0  0  0  0  0  0
    1.1262   -2.2246   -1.3804 O   0  0  0  0  0  0  0  0  0  0  0  0
    0.4611   -2.4390   -2.5494 C   0  0  0  0  0  0  0  0  0  0  0  0
    1.0785   -3.3012   -3.4560 C   0  0  0  0  0  0  0  0  0  0  0  0
    0.4820   -3.5650   -4.6916 C   0  0  0  0  0  0  0  0  0  0  0  0
   -0.7350   -2.9664   -5.0165 C   0  0  0  0  0  0  0  0  0  0  0  0
   -1.4630   -3.2872   -6.5411 Cl  0  0  0  0  0  0  0  0  0  0  0  0
   -1.3644   -2.1139   -4.1139 C   0  0  0  0  0  0  0  0  0  0  0  0
   -0.7620   -1.8657   -2.8762 C   0  0  0  0  0  0  0  0  0  0  0  0
   -1.4099   -0.9880   -1.8948 C   0  0  0  0  0  0  0  0  0  0  0  0
   -2.3096   -0.2325   -2.2540 O   0  0  0  0  0  0  0  0  0  0  0  0
   -0.8795   -1.0713   -0.4666 C   0  0  0  0  0  0  0  0  0  0  0  0
   -1.4604    0.0452    0.3906 C   0  0  0  0  0  0  0  0  0  0  0  0
   -2.6263   -0.6917    0.9600 C   0  0  0  0  0  0  0  0  0  0  0  0
   -3.7371    0.0006    1.6555 C   0  0  0  0  0  0  0  0  0  0  0  0
   -4.8291   -0.7550    2.1050 C   0  0  0  0  0  0  0  0  0  0  0  0
   -5.8923   -0.1355    2.7678 C   0  0  0  0  0  0  0  0  0  0  0  0
   -5.8646    1.2400    2.9831 C   0  0  0  0  0  0  0  0  0  0  0  0
   -7.1704    2.0057    3.7993 Cl  0  0  0  0  0  0  0  0  0  0  0  0
   -4.7827    2.0006    2.5416 C   0  0  0  0  0  0  0  0  0  0  0  0
   -3.7171    1.3827    1.8779 C   0  0  0  0  0  0  0  0  0  0  0  0
   -2.5681   -1.9789    0.8294 N   0  0  0  0  0  0  0  0  0  0  0  0
   -1.3915   -2.2831    0.1116 O   0  0  0  0  0  0  0  0  0  0  0  0
    6.4157    2.6748    0.9187 H   0  0  0  0  0  0  0  0  0  0  0  0
    5.6642    5.2952    1.4002 H   0  0  0  0  0  0  0  0  0  0  0  0
    2.2731    3.1293    2.1185 H   0  0  0  0  0  0  0  0  0  0  0  0
    3.3204   -1.6004    0.1577 H   0  0  0  0  0  0  0  0  0  0  0  0
    3.1457   -1.4823    1.9121 H   0  0  0  0  0  0  0  0  0  0  0  0
    0.7247   -1.0413    1.6821 H   0  0  0  0  0  0  0  0  0  0  0  0
    1.1757   -2.6102    1.0199 H   0  0  0  0  0  0  0  0  0  0  0  0
    0.6093    0.7658   -1.6246 H   0  0  0  0  0  0  0  0  0  0  0  0
    2.1273   -0.0879   -1.7651 H   0  0  0  0  0  0  0  0  0  0  0  0
    1.1563    1.4178    0.7066 H   0  0  0  0  0  0  0  0  0  0  0  0
    2.4208    1.9019   -0.4336 H   0  0  0  0  0  0  0  0  0  0  0  0
    2.0295   -3.7655   -3.2046 H   0  0  0  0  0  0  0  0  0  0  0  0
    0.9714   -4.2355   -5.3940 H   0  0  0  0  0  0  0  0  0  0  0  0
   -2.3183   -1.6548   -4.3631 H   0  0  0  0  0  0  0  0  0  0  0  0
   -0.8210    0.3418    1.2248 H   0  0  0  0  0  0  0  0  0  0  0  0
   -1.7503    0.9359   -0.1710 H   0  0  0  0  0  0  0  0  0  0  0  0
   -4.8618   -1.8309    1.9404 H   0  0  0  0  0  0  0  0  0  0  0  0
   -6.7341   -0.7320    3.1100 H   0  0  0  0  0  0  0  0  0  0  0  0
   -4.7638    3.0746    2.7105 H   0  0  0  0  0  0  0  0  0  0  0  0
   -2.8889    2.0020    1.5481 H   0  0  0  0  0  0  0  0  0  0  0  0
  1  2  2  0
  2  3  1  0
  3  4  1  0
  4  5  2  0
  5  6  1  0
  6  7  1  0
  2  8  1  0
  8  9  1  0
  9 10  1  0
 10 11  1  0
 11 12  1  0
 12 13  1  0
 11 14  1  0
 14 15  1  0
 15 16  2  0
 16 17  1  0
 17 18  2  0
 18 19  1  0
 18 20  1  0
 20 21  2  0
 21 22  1  0
 22 23  2  0
 22 24  1  0
 24 25  1  0
 25 26  1  0
 26 27  1  0
 27 28  2  0
 28 29  1  0
 29 30  2  0
 30 31  1  0
 30 32  1  0
 32 33  2  0
 26 34  2  0
 34 35  1  0
  7  3  2  0
 13  8  1  0
 21 15  1  0
 35 24  1  0
 24 11  1  0
 33 27  1  0
  4 36  1  0
  5 37  1  0
  7 38  1  0
  9 39  1  0
  9 40  1  0
 10 41  1  0
 10 42  1  0
 12 43  1  0
 12 44  1  0
 13 45  1  0
 13 46  1  0
 16 47  1  0
 17 48  1  0
 20 49  1  0
 25 50  1  0
 25 51  1  0
 28 52  1  0
 29 53  1  0
 32 54  1  0
 33 55  1  0
M  END
$$$$
