
     RDKit          3D

 44 46  0  0  0  0  0  0  0  0999 V2000
    7.0269   -3.2449    1.5010 C   0  0  0  0  0  0  0  0  0  0  0  0
    6.0013   -2.2227    1.1074 C   0  0  0  0  0  0  0  0  0  0  0  0
    6.1972   -1.4208   -0.0239 C   0  0  0  0  0  0  0  0  0  0  0  0
    5.2294   -0.4885   -0.4103 C   0  0  0  0  0  0  0  0  0  0  0  0
    4.0446   -0.3626    0.3247 C   0  0  0  0  0  0  0  0  0  0  0  0
    2.9846    0.6157   -0.0465 C   0  0  0  0  0  0  0  0  0  0  0  0
    2.1982    1.0314    0.7965 O   0  0  0  0  0  0  0  0  0  0  0  0
    2.9201    0.9763   -1.3780 N   0  0  0  0  0  0  0  0  0  0  0  0
    1.7909    1.7613   -1.8565 C   0  0  0  0  0  0  0  0  0  0  0  0
    0.6367    0.8500   -2.2542 C   0  0  0  0  0  0  0  0  0  0  0  0
    0.7541   -0.3383   -2.5323 O   0  0  0  0  0  0  0  0  0  0  0  0
   -0.5209    1.5602   -2.3158 O   0  0  0  0  0  0  0  0  0  0  0  0
   -1.6946    0.8021   -2.6544 C   0  0  0  0  0  0  0  0  0  0  0  0
   -2.4144    0.3069   -1.4404 C   0  0  0  0  0  0  0  0  0  0  0  0
   -2.0072   -0.7108   -0.6012 C   0  0  0  0  0  0  0  0  0  0  0  0
   -3.1407   -0.9246    0.6589 S   0  0  0  0  0  0  0  0  0  0  0  0
   -4.1123    0.3475    0.0141 C   0  0  0  0  0  0  0  0  0  0  0  0
   -5.3818    0.7699    0.6452 C   0  0  0  0  0  0  0  0  0  0  0  0
   -5.9123    0.1753    1.8025 C   0  0  0  0  0  0  0  0  0  0  0  0
   -7.1200    0.6192    2.3537 C   0  0  0  0  0  0  0  0  0  0  0  0
   -7.8196    1.6652    1.7586 C   0  0  0  0  0  0  0  0  0  0  0  0
   -7.3140    2.2695    0.6122 C   0  0  0  0  0  0  0  0  0  0  0  0
   -6.1077    1.8250    0.0630 C   0  0  0  0  0  0  0  0  0  0  0  0
   -3.6199    0.8958   -1.0834 N   0  0  0  0  0  0  0  0  0  0  0  0
    3.8466   -1.1615    1.4564 C   0  0  0  0  0  0  0  0  0  0  0  0
    4.8149   -2.0928    1.8392 C   0  0  0  0  0  0  0  0  0  0  0  0
    6.8194   -4.1949    0.9988 H   0  0  0  0  0  0  0  0  0  0  0  0
    7.0207   -3.4079    2.5840 H   0  0  0  0  0  0  0  0  0  0  0  0
    8.0342   -2.9123    1.2287 H   0  0  0  0  0  0  0  0  0  0  0  0
    7.1117   -1.5113   -0.6068 H   0  0  0  0  0  0  0  0  0  0  0  0
    5.4273    0.1443   -1.2704 H   0  0  0  0  0  0  0  0  0  0  0  0
    3.3320    0.3356   -2.0452 H   0  0  0  0  0  0  0  0  0  0  0  0
    1.4648    2.4559   -1.0767 H   0  0  0  0  0  0  0  0  0  0  0  0
    2.1204    2.3146   -2.7400 H   0  0  0  0  0  0  0  0  0  0  0  0
   -2.3501    1.4803   -3.2127 H   0  0  0  0  0  0  0  0  0  0  0  0
   -1.4641   -0.0256   -3.3360 H   0  0  0  0  0  0  0  0  0  0  0  0
   -1.1145   -1.3176   -0.6657 H   0  0  0  0  0  0  0  0  0  0  0  0
   -5.4012   -0.6435    2.3020 H   0  0  0  0  0  0  0  0  0  0  0  0
   -7.5118    0.1454    3.2503 H   0  0  0  0  0  0  0  0  0  0  0  0
   -8.7566    2.0095    2.1886 H   0  0  0  0  0  0  0  0  0  0  0  0
   -7.8537    3.0876    0.1424 H   0  0  0  0  0  0  0  0  0  0  0  0
   -5.7292    2.3133   -0.8341 H   0  0  0  0  0  0  0  0  0  0  0  0
    2.9336   -1.0645    2.0408 H   0  0  0  0  0  0  0  0  0  0  0  0
    4.6371   -2.7127    2.7155 H   0  0  0  0  0  0  0  0  0  0  0  0
  1  2  1  0
  2  3  2  0
  3  4  1  0
  4  5  2  0
  5  6  1  0
  6  7  2  0
  6  8  1  0
  8  9  1  0
  9 10  1  0
 10 11  2  0
 10 12  1  0
 12 13  1  0
 13 14  1  0
 14 15  2  0
 15 16  1  0
 16 17  1  0
 17 18  1  0
 18 19  2  0
 19 20  1  0
 20 21  2  0
 21 22  1  0
 22 23  2  0
 17 24  2  0
  5 25  1  0
 25 26  2  0
 26  2  1  0
 24 14  1  0
 23 18  1  0
  1 27  1  0
  1 28  1  0
  1 29  1  0
  3 30  1  0
  4 31  1  0
  8 32  1  0
  9 33  1  0
  9 34  1  0
 13 35  1  0
 13 36  1  0
 15 37  1  0
 19 38  1  0
 20 39  1  0
 21 40  1  0
 22 41  1  0
 23 42  1  0
 25 43  1  0
 26 44  1  0
M  END
$$$$
