
     RDKit          3D

 44 44  0  0  0  0  0  0  0  0999 V2000
   -5.0884    0.4220    1.5830 C   0  0  0  0  0  0  0  0  0  0  0  0
   -4.2851   -0.4091    0.5920 C   0  0  0  0  0  0  0  0  0  0  0  0
   -3.1864    0.3684   -0.0067 N   0  0  0  0  0  0  0  0  0  0  0  0
   -3.5799    1.5060   -0.8644 C   0  0  0  0  0  0  0  0  0  0  0  0
   -3.3217    2.8280   -0.1544 C   0  0  0  0  0  0  0  0  0  0  0  0
   -2.1044   -0.3655   -0.5381 C   0  0  0  0  0  0  0  0  0  0  0  0
   -2.1998   -1.7063   -0.9321 C   0  0  0  0  0  0  0  0  0  0  0  0
   -1.0980   -2.3872   -1.4596 C   0  0  0  0  0  0  0  0  0  0  0  0
    0.1307   -1.7432   -1.6014 C   0  0  0  0  0  0  0  0  0  0  0  0
    0.2618   -0.4157   -1.2085 C   0  0  0  0  0  0  0  0  0  0  0  0
    1.3977    0.3418   -1.2774 O   0  0  0  0  0  0  0  0  0  0  0  0
    2.6084   -0.2906   -1.6615 C   0  0  0  0  0  0  0  0  0  0  0  0
    3.2053   -1.2888   -0.6557 C   0  0  0  0  0  0  0  0  0  0  0  0
    3.4557   -2.4417   -1.0216 O   0  0  0  0  0  0  0  0  0  0  0  0
    3.4580   -0.8638    0.6486 N   0  0  0  0  0  0  0  0  0  0  0  0
    3.9582   -1.8517    1.5950 C   0  0  0  0  0  0  0  0  0  0  0  0
    3.4040    0.5325    1.1067 C   0  0  0  0  0  0  0  0  0  0  0  0
    4.7762    1.1652    1.3541 C   0  0  0  0  0  0  0  0  0  0  0  0
    5.4991    1.3913    0.0985 C   0  0  0  0  0  0  0  0  0  0  0  0
    6.0604    1.5800   -0.8992 N   0  0  0  0  0  0  0  0  0  0  0  0
   -0.8523    0.2566   -0.6883 C   0  0  0  0  0  0  0  0  0  0  0  0
   -5.8268   -0.2072    2.0902 H   0  0  0  0  0  0  0  0  0  0  0  0
   -5.6312    1.2310    1.0851 H   0  0  0  0  0  0  0  0  0  0  0  0
   -4.4372    0.8651    2.3438 H   0  0  0  0  0  0  0  0  0  0  0  0
   -4.9502   -0.8019   -0.1868 H   0  0  0  0  0  0  0  0  0  0  0  0
   -3.8822   -1.2614    1.1540 H   0  0  0  0  0  0  0  0  0  0  0  0
   -4.6448    1.4384   -1.1196 H   0  0  0  0  0  0  0  0  0  0  0  0
   -3.0491    1.5051   -1.8258 H   0  0  0  0  0  0  0  0  0  0  0  0
   -2.2616    2.9570    0.0823 H   0  0  0  0  0  0  0  0  0  0  0  0
   -3.6291    3.6634   -0.7915 H   0  0  0  0  0  0  0  0  0  0  0  0
   -3.8793    2.8974    0.7840 H   0  0  0  0  0  0  0  0  0  0  0  0
   -3.1388   -2.2462   -0.8601 H   0  0  0  0  0  0  0  0  0  0  0  0
   -1.2009   -3.4255   -1.7649 H   0  0  0  0  0  0  0  0  0  0  0  0
    0.9550   -2.3116   -2.0196 H   0  0  0  0  0  0  0  0  0  0  0  0
    2.4952   -0.7761   -2.6390 H   0  0  0  0  0  0  0  0  0  0  0  0
    3.3535    0.4965   -1.8198 H   0  0  0  0  0  0  0  0  0  0  0  0
    3.5388   -1.6521    2.5854 H   0  0  0  0  0  0  0  0  0  0  0  0
    5.0489   -1.7829    1.6339 H   0  0  0  0  0  0  0  0  0  0  0  0
    3.6809   -2.8679    1.3009 H   0  0  0  0  0  0  0  0  0  0  0  0
    2.8475    1.1548    0.4045 H   0  0  0  0  0  0  0  0  0  0  0  0
    2.8324    0.5335    2.0427 H   0  0  0  0  0  0  0  0  0  0  0  0
    4.6317    2.1286    1.8570 H   0  0  0  0  0  0  0  0  0  0  0  0
    5.3776    0.5452    2.0269 H   0  0  0  0  0  0  0  0  0  0  0  0
   -0.7296    1.2887   -0.3724 H   0  0  0  0  0  0  0  0  0  0  0  0
  1  2  1  0
  2  3  1  0
  3  4  1  0
  4  5  1  0
  3  6  1  0
  6  7  2  0
  7  8  1  0
  8  9  2  0
  9 10  1  0
 10 11  1  0
 11 12  1  0
 12 13  1  0
 13 14  2  0
 13 15  1  0
 15 16  1  0
 15 17  1  0
 17 18  1  0
 18 19  1  0
 19 20  3  0
 10 21  2  0
 21  6  1  0
  1 22  1  0
  1 23  1  0
  1 24  1  0
  2 25  1  0
  2 26  1  0
  4 27  1  0
  4 28  1  0
  5 29  1  0
  5 30  1  0
  5 31  1  0
  7 32  1  0
  8 33  1  0
  9 34  1  0
 12 35  1  0
 12 36  1  0
 16 37  1  0
 16 38  1  0
 16 39  1  0
 17 40  1  0
 17 41  1  0
 18 42  1  0
 18 43  1  0
 21 44  1  0
M  END
$$$$
