
     RDKit          3D

 57 59  0  0  0  0  0  0  0  0999 V2000
   10.2000    0.4913   -4.6672 C   0  0  0  0  0  0  0  0  0  0  0  0
    8.9057    0.1509   -5.1495 O   0  0  0  0  0  0  0  0  0  0  0  0
    7.8951    0.1034   -4.2299 C   0  0  0  0  0  0  0  0  0  0  0  0
    6.6551   -0.2815   -4.7422 C   0  0  0  0  0  0  0  0  0  0  0  0
    5.5411   -0.3794   -3.9052 C   0  0  0  0  0  0  0  0  0  0  0  0
    5.6490   -0.0949   -2.5422 C   0  0  0  0  0  0  0  0  0  0  0  0
    4.4848   -0.2367   -1.8446 O   0  0  0  0  0  0  0  0  0  0  0  0
    4.5008   -0.0936   -0.4208 C   0  0  0  0  0  0  0  0  0  0  0  0
    4.2658    1.3573    0.0067 C   0  0  0  0  0  0  0  0  0  0  0  0
    2.6254    1.9922   -0.4864 S   0  0  0  0  0  0  0  0  0  0  0  0
    1.5986    1.0799    0.5611 C   0  0  0  0  0  0  0  0  0  0  0  0
    1.9545    0.4864    1.6750 N   0  0  0  0  0  0  0  0  0  0  0  0
    0.8520   -0.1631    2.1701 N   0  0  0  0  0  0  0  0  0  0  0  0
   -0.1580    0.0493    1.3480 C   0  0  0  0  0  0  0  0  0  0  0  0
   -1.5388   -0.4886    1.5111 C   0  0  0  0  0  0  0  0  0  0  0  0
   -2.3578    0.3973    2.4534 C   0  0  0  0  0  0  0  0  0  0  0  0
   -3.7944    0.1880    2.3467 N   0  0  0  0  0  0  0  0  0  0  0  0
   -4.3721   -0.9960    2.7679 C   0  0  0  0  0  0  0  0  0  0  0  0
   -3.7264   -1.9737    3.1253 O   0  0  0  0  0  0  0  0  0  0  0  0
   -5.8612   -1.0234    2.8096 C   0  0  0  0  0  0  0  0  0  0  0  0
   -6.6449   -0.2255    1.9663 C   0  0  0  0  0  0  0  0  0  0  0  0
   -8.0432   -0.2803    2.0409 C   0  0  0  0  0  0  0  0  0  0  0  0
   -8.6668   -1.1347    2.9522 C   0  0  0  0  0  0  0  0  0  0  0  0
  -10.0156   -1.2787    3.1262 O   0  0  0  0  0  0  0  0  0  0  0  0
  -10.8621   -0.5421    2.2515 C   0  0  0  0  0  0  0  0  0  0  0  0
   -7.8818   -1.9389    3.7824 C   0  0  0  0  0  0  0  0  0  0  0  0
   -6.4869   -1.8913    3.7100 C   0  0  0  0  0  0  0  0  0  0  0  0
    0.2681    0.8681    0.3288 N   0  0  0  0  0  0  0  0  0  0  0  0
   -0.5108    1.3830   -0.7662 C   0  0  0  0  0  0  0  0  0  0  0  0
    6.8841    0.3052   -2.0310 C   0  0  0  0  0  0  0  0  0  0  0  0
    8.0035    0.4021   -2.8716 C   0  0  0  0  0  0  0  0  0  0  0  0
   10.5466   -0.2285   -3.9186 H   0  0  0  0  0  0  0  0  0  0  0  0
   10.2156    1.5117   -4.2699 H   0  0  0  0  0  0  0  0  0  0  0  0
   10.8938    0.4509   -5.5128 H   0  0  0  0  0  0  0  0  0  0  0  0
    6.5538   -0.5099   -5.8001 H   0  0  0  0  0  0  0  0  0  0  0  0
    4.5816   -0.6851   -4.3196 H   0  0  0  0  0  0  0  0  0  0  0  0
    5.4264   -0.4876    0.0147 H   0  0  0  0  0  0  0  0  0  0  0  0
    3.7092   -0.7434   -0.0317 H   0  0  0  0  0  0  0  0  0  0  0  0
    4.3853    1.4588    1.0893 H   0  0  0  0  0  0  0  0  0  0  0  0
    5.0032    2.0133   -0.4667 H   0  0  0  0  0  0  0  0  0  0  0  0
   -2.0365   -0.5818    0.5400 H   0  0  0  0  0  0  0  0  0  0  0  0
   -1.4754   -1.5066    1.9120 H   0  0  0  0  0  0  0  0  0  0  0  0
   -2.1916    1.4579    2.2274 H   0  0  0  0  0  0  0  0  0  0  0  0
   -2.0586    0.2307    3.4949 H   0  0  0  0  0  0  0  0  0  0  0  0
   -4.3759    1.0156    2.3690 H   0  0  0  0  0  0  0  0  0  0  0  0
   -6.1879    0.4251    1.2252 H   0  0  0  0  0  0  0  0  0  0  0  0
   -8.6155    0.3522    1.3701 H   0  0  0  0  0  0  0  0  0  0  0  0
  -10.7396    0.5362    2.4017 H   0  0  0  0  0  0  0  0  0  0  0  0
  -10.6894   -0.8186    1.2055 H   0  0  0  0  0  0  0  0  0  0  0  0
  -11.8974   -0.7958    2.4966 H   0  0  0  0  0  0  0  0  0  0  0  0
   -8.3604   -2.6130    4.4898 H   0  0  0  0  0  0  0  0  0  0  0  0
   -5.8928   -2.5300    4.3600 H   0  0  0  0  0  0  0  0  0  0  0  0
   -0.2647    0.8117   -1.6649 H   0  0  0  0  0  0  0  0  0  0  0  0
   -0.2813    2.4425   -0.9062 H   0  0  0  0  0  0  0  0  0  0  0  0
   -1.5770    1.2940   -0.5470 H   0  0  0  0  0  0  0  0  0  0  0  0
    7.0203    0.5549   -0.9847 H   0  0  0  0  0  0  0  0  0  0  0  0
    8.9454    0.7132   -2.4301 H   0  0  0  0  0  0  0  0  0  0  0  0
  1  2  1  0
  2  3  1  0
  3  4  2  0
  4  5  1  0
  5  6  2  0
  6  7  1  0
  7  8  1  0
  8  9  1  0
  9 10  1  0
 10 11  1  0
 11 12  2  0
 12 13  1  0
 13 14  2  0
 14 15  1  0
 15 16  1  0
 16 17  1  0
 17 18  1  0
 18 19  2  0
 18 20  1  0
 20 21  2  0
 21 22  1  0
 22 23  2  0
 23 24  1  0
 24 25  1  0
 23 26  1  0
 26 27  2  0
 14 28  1  0
 28 29  1  0
  6 30  1  0
 30 31  2  0
 31  3  1  0
 28 11  1  0
 27 20  1  0
  1 32  1  0
  1 33  1  0
  1 34  1  0
  4 35  1  0
  5 36  1  0
  8 37  1  0
  8 38  1  0
  9 39  1  0
  9 40  1  0
 15 41  1  0
 15 42  1  0
 16 43  1  0
 16 44  1  0
 17 45  1  0
 21 46  1  0
 22 47  1  0
 25 48  1  0
 25 49  1  0
 25 50  1  0
 26 51  1  0
 27 52  1  0
 29 53  1  0
 29 54  1  0
 29 55  1  0
 30 56  1  0
 31 57  1  0
M  END
$$$$
