
     RDKit          3D

 29 30  0  0  0  0  0  0  0  0999 V2000
    2.4254    3.0175    0.9012 O   0  0  0  0  0  0  0  0  0  0  0  0
    3.2304    2.1932    0.4853 C   0  0  0  0  0  0  0  0  0  0  0  0
    2.8888    0.7617    0.3729 C   0  0  0  0  0  0  0  0  0  0  0  0
    3.8466   -0.1377   -0.1034 C   0  0  0  0  0  0  0  0  0  0  0  0
    3.5290   -1.4928   -0.2016 C   0  0  0  0  0  0  0  0  0  0  0  0
    2.2593   -1.9405    0.1675 C   0  0  0  0  0  0  0  0  0  0  0  0
    1.2983   -1.0349    0.6233 C   0  0  0  0  0  0  0  0  0  0  0  0
    0.0749   -1.5675    0.9715 O   0  0  0  0  0  0  0  0  0  0  0  0
   -1.0352   -0.8225    0.6570 C   0  0  0  0  0  0  0  0  0  0  0  0
   -1.7562   -0.2767    1.7238 C   0  0  0  0  0  0  0  0  0  0  0  0
   -2.8961    0.4967    1.4796 C   0  0  0  0  0  0  0  0  0  0  0  0
   -3.3248    0.7115    0.1597 C   0  0  0  0  0  0  0  0  0  0  0  0
   -4.5249    1.5214   -0.0915 N   0  0  0  0  0  4  0  0  0  0  0  0
   -4.8975    1.6420   -1.2661 O   0  0  0  0  0  0  0  0  0  0  0  0
   -5.0919    2.0277    0.8859 O   0  0  0  0  0  1  0  0  0  0  0  0
   -2.6303    0.1489   -0.9188 C   0  0  0  0  0  0  0  0  0  0  0  0
   -1.4951   -0.6275   -0.6504 C   0  0  0  0  0  0  0  0  0  0  0  0
   -0.8170   -1.2517   -1.7701 N   0  0  0  0  0  4  0  0  0  0  0  0
   -0.4741   -0.5088   -2.6992 O   0  0  0  0  0  0  0  0  0  0  0  0
   -0.6642   -2.4793   -1.7330 O   0  0  0  0  0  1  0  0  0  0  0  0
    1.6153    0.3189    0.7447 C   0  0  0  0  0  0  0  0  0  0  0  0
    4.2476    2.4864    0.1761 H   0  0  0  0  0  0  0  0  0  0  0  0
    4.8375    0.2001   -0.3963 H   0  0  0  0  0  0  0  0  0  0  0  0
    4.2671   -2.2024   -0.5688 H   0  0  0  0  0  0  0  0  0  0  0  0
    2.0129   -2.9972    0.0833 H   0  0  0  0  0  0  0  0  0  0  0  0
   -1.4227   -0.4420    2.7470 H   0  0  0  0  0  0  0  0  0  0  0  0
   -3.4354    0.9229    2.3249 H   0  0  0  0  0  0  0  0  0  0  0  0
   -2.9633    0.2977   -1.9449 H   0  0  0  0  0  0  0  0  0  0  0  0
    0.8956    1.0350    1.1321 H   0  0  0  0  0  0  0  0  0  0  0  0
  1  2  2  0
  2  3  1  0
  3  4  2  0
  4  5  1  0
  5  6  2  0
  6  7  1  0
  7  8  1  0
  8  9  1  0
  9 10  2  0
 10 11  1  0
 11 12  2  0
 12 13  1  0
 13 14  2  0
 13 15  1  0
 12 16  1  0
 16 17  2  0
 17 18  1  0
 18 19  2  0
 18 20  1  0
  7 21  2  0
 21  3  1  0
 17  9  1  0
  2 22  1  0
  4 23  1  0
  5 24  1  0
  6 25  1  0
 10 26  1  0
 11 27  1  0
 16 28  1  0
 21 29  1  0
M  CHG  4  13   1  15  -1  18   1  20  -1
M  END
$$$$
