
     RDKit          3D

 59 62  0  0  0  0  0  0  0  0999 V2000
    9.0677   -1.9105    0.7670 C   0  0  0  0  0  0  0  0  0  0  0  0
    7.6675   -1.3949    0.9242 C   0  0  0  0  0  0  0  0  0  0  0  0
    7.0200   -0.7510   -0.1340 C   0  0  0  0  0  0  0  0  0  0  0  0
    5.7030   -0.3023    0.0092 C   0  0  0  0  0  0  0  0  0  0  0  0
    5.0079   -0.4867    1.2170 C   0  0  0  0  0  0  0  0  0  0  0  0
    3.6557   -0.0312    1.3088 N   0  0  0  0  0  0  0  0  0  0  0  0
    2.9846    0.2478    0.1596 N   0  0  0  0  0  0  0  0  0  0  0  0
    1.7110    0.4004    0.5279 C   0  0  0  0  0  0  0  0  0  0  0  0
    0.5745    0.6263   -0.3570 C   0  0  0  0  0  0  0  0  0  0  0  0
    0.6713    0.6955   -1.5794 O   0  0  0  0  0  0  0  0  0  0  0  0
   -0.6434    0.7469    0.3454 N   0  0  0  0  0  0  0  0  0  0  0  0
   -1.8795    0.9874   -0.3938 C   0  0  0  0  0  0  0  0  0  0  0  0
   -2.1570    2.4856   -0.5507 C   0  0  0  0  0  0  0  0  0  0  0  0
   -3.5988    2.7606   -0.9757 C   0  0  0  0  0  0  0  0  0  0  0  0
   -3.9130    2.2476   -2.3677 C   0  0  0  0  0  0  0  0  0  0  0  0
   -3.0650    2.1282   -3.2446 O   0  0  0  0  0  0  0  0  0  0  0  0
   -5.2502    1.9783   -2.5568 N   0  0  0  0  0  0  0  0  0  0  0  0
   -5.7127    1.2665   -3.7291 C   0  0  0  0  0  0  0  0  0  0  0  0
   -6.1976   -0.0729   -3.3059 C   0  0  0  0  0  0  0  0  0  0  0  0
   -7.4076   -0.7244   -3.4209 C   0  0  0  0  0  0  0  0  0  0  0  0
   -7.2444   -1.9922   -2.8124 C   0  0  0  0  0  0  0  0  0  0  0  0
   -5.9436   -2.0365   -2.3594 C   0  0  0  0  0  0  0  0  0  0  0  0
   -5.1422   -3.0615   -1.6582 C   0  0  0  0  0  0  0  0  0  0  0  0
   -5.3043   -0.8727   -2.6557 O   0  0  0  0  0  0  0  0  0  0  0  0
   -0.7763    0.7180    1.7395 N   0  0  0  0  0  0  0  0  0  0  0  0
    0.2589    0.5274    2.5087 C   0  0  0  0  0  0  0  0  0  0  0  0
    0.0466    0.5013    3.9954 C   0  0  0  0  0  0  0  0  0  0  0  0
    1.5616    0.3545    1.9170 C   0  0  0  0  0  0  0  0  0  0  0  0
    2.8384    0.1824    2.4257 C   0  0  0  0  0  0  0  0  0  0  0  0
    3.3255    0.2557    3.8270 C   0  0  0  0  0  0  0  0  0  0  0  0
    5.6473   -1.1614    2.2630 C   0  0  0  0  0  0  0  0  0  0  0  0
    6.9673   -1.6081    2.1159 C   0  0  0  0  0  0  0  0  0  0  0  0
    9.0511   -2.9804    0.5389 H   0  0  0  0  0  0  0  0  0  0  0  0
    9.6417   -1.7493    1.6856 H   0  0  0  0  0  0  0  0  0  0  0  0
    9.5953   -1.3896   -0.0392 H   0  0  0  0  0  0  0  0  0  0  0  0
    7.5280   -0.5974   -1.0834 H   0  0  0  0  0  0  0  0  0  0  0  0
    5.2316    0.1980   -0.8374 H   0  0  0  0  0  0  0  0  0  0  0  0
   -1.8146    0.5034   -1.3758 H   0  0  0  0  0  0  0  0  0  0  0  0
   -2.6928    0.4982    0.1570 H   0  0  0  0  0  0  0  0  0  0  0  0
   -1.9800    2.9953    0.4056 H   0  0  0  0  0  0  0  0  0  0  0  0
   -1.4499    2.9188   -1.2701 H   0  0  0  0  0  0  0  0  0  0  0  0
   -4.2900    2.3176   -0.2493 H   0  0  0  0  0  0  0  0  0  0  0  0
   -3.7757    3.8428   -0.9810 H   0  0  0  0  0  0  0  0  0  0  0  0
   -5.8766    2.0078   -1.7634 H   0  0  0  0  0  0  0  0  0  0  0  0
   -4.9246    1.1674   -4.4801 H   0  0  0  0  0  0  0  0  0  0  0  0
   -6.5330    1.8511   -4.1557 H   0  0  0  0  0  0  0  0  0  0  0  0
   -8.2977   -0.3352   -3.8923 H   0  0  0  0  0  0  0  0  0  0  0  0
   -7.9797   -2.7795   -2.7189 H   0  0  0  0  0  0  0  0  0  0  0  0
   -4.5304   -3.6183   -2.3747 H   0  0  0  0  0  0  0  0  0  0  0  0
   -4.4761   -2.6009   -0.9189 H   0  0  0  0  0  0  0  0  0  0  0  0
   -5.7927   -3.7696   -1.1325 H   0  0  0  0  0  0  0  0  0  0  0  0
    0.5428   -0.3668    4.4346 H   0  0  0  0  0  0  0  0  0  0  0  0
    0.4473    1.4174    4.4370 H   0  0  0  0  0  0  0  0  0  0  0  0
   -1.0218    0.4475    4.2280 H   0  0  0  0  0  0  0  0  0  0  0  0
    2.7210    0.9553    4.4133 H   0  0  0  0  0  0  0  0  0  0  0  0
    4.3512    0.6361    3.8874 H   0  0  0  0  0  0  0  0  0  0  0  0
    3.2683   -0.7260    4.3092 H   0  0  0  0  0  0  0  0  0  0  0  0
    5.1420   -1.4076    3.1896 H   0  0  0  0  0  0  0  0  0  0  0  0
    7.4422   -2.1396    2.9376 H   0  0  0  0  0  0  0  0  0  0  0  0
  1  2  1  0
  2  3  2  0
  3  4  1  0
  4  5  2  0
  5  6  1  0
  6  7  1  0
  7  8  2  0
  8  9  1  0
  9 10  2  0
  9 11  1  0
 11 12  1  0
 12 13  1  0
 13 14  1  0
 14 15  1  0
 15 16  2  0
 15 17  1  0
 17 18  1  0
 18 19  1  0
 19 20  2  0
 20 21  1  0
 21 22  2  0
 22 23  1  0
 22 24  1  0
 11 25  1  0
 25 26  2  0
 26 27  1  0
 26 28  1  0
 28 29  2  0
 29 30  1  0
  5 31  1  0
 31 32  2  0
 32  2  1  0
 29  6  1  0
 28  8  1  0
 24 19  1  0
  1 33  1  0
  1 34  1  0
  1 35  1  0
  3 36  1  0
  4 37  1  0
 12 38  1  0
 12 39  1  0
 13 40  1  0
 13 41  1  0
 14 42  1  0
 14 43  1  0
 17 44  1  0
 18 45  1  0
 18 46  1  0
 20 47  1  0
 21 48  1  0
 23 49  1  0
 23 50  1  0
 23 51  1  0
 27 52  1  0
 27 53  1  0
 27 54  1  0
 30 55  1  0
 30 56  1  0
 30 57  1  0
 31 58  1  0
 32 59  1  0
M  END
$$$$
