
     RDKit          3D

 33 35  0  0  0  0  0  0  0  0999 V2000
    3.5055    1.4061    1.7366 O   0  0  0  0  0  0  0  0  0  0  0  0
    3.9290    0.4370    0.8679 C   0  0  0  0  0  0  0  0  0  0  0  0
    5.2264   -0.0364    1.0530 C   0  0  0  0  0  0  0  0  0  0  0  0
    5.7232   -1.0429    0.2263 C   0  0  0  0  0  0  0  0  0  0  0  0
    4.9223   -1.5702   -0.7855 C   0  0  0  0  0  0  0  0  0  0  0  0
    3.6247   -1.0869   -0.9756 C   0  0  0  0  0  0  0  0  0  0  0  0
    3.1126   -0.0753   -0.1506 C   0  0  0  0  0  0  0  0  0  0  0  0
    1.7658    0.4537   -0.4001 C   0  0  0  0  0  0  0  0  0  0  0  0
    0.6679   -0.3087   -0.2764 C   0  0  0  0  0  0  0  0  0  0  0  0
   -0.7081    0.1515   -0.4883 C   0  0  0  0  0  0  0  0  0  0  0  0
   -1.0440    1.1418   -1.4032 C   0  0  0  0  0  0  0  0  0  0  0  0
   -2.3840    1.4907   -1.5516 C   0  0  0  0  0  0  0  0  0  0  0  0
   -3.3600    0.8384   -0.7911 C   0  0  0  0  0  0  0  0  0  0  0  0
   -4.7290    1.1502   -0.8986 C   0  0  0  0  0  0  0  0  0  0  0  0
   -5.6721    0.4730   -0.1235 C   0  0  0  0  0  0  0  0  0  0  0  0
   -5.2562   -0.5169    0.7605 C   0  0  0  0  0  0  0  0  0  0  0  0
   -3.9002   -0.8150    0.8562 C   0  0  0  0  0  0  0  0  0  0  0  0
   -3.5157   -1.7970    1.7381 O   0  0  0  0  0  0  0  0  0  0  0  0
   -2.9302   -0.1618    0.1007 C   0  0  0  0  0  0  0  0  0  0  0  0
   -1.6327   -0.5068    0.2483 N   0  0  0  0  0  0  0  0  0  0  0  0
    2.5367    1.4609    1.6782 H   0  0  0  0  0  0  0  0  0  0  0  0
    5.8450    0.3742    1.8461 H   0  0  0  0  0  0  0  0  0  0  0  0
    6.7335   -1.4157    0.3729 H   0  0  0  0  0  0  0  0  0  0  0  0
    5.3095   -2.3540   -1.4316 H   0  0  0  0  0  0  0  0  0  0  0  0
    3.0210   -1.5000   -1.7808 H   0  0  0  0  0  0  0  0  0  0  0  0
    1.7202    1.5059   -0.6668 H   0  0  0  0  0  0  0  0  0  0  0  0
    0.7487   -1.3470    0.0389 H   0  0  0  0  0  0  0  0  0  0  0  0
   -0.2902    1.6348   -2.0073 H   0  0  0  0  0  0  0  0  0  0  0  0
   -2.6591    2.2651   -2.2632 H   0  0  0  0  0  0  0  0  0  0  0  0
   -5.0665    1.9220   -1.5870 H   0  0  0  0  0  0  0  0  0  0  0  0
   -6.7280    0.7170   -0.2096 H   0  0  0  0  0  0  0  0  0  0  0  0
   -5.9756   -1.0541    1.3713 H   0  0  0  0  0  0  0  0  0  0  0  0
   -2.5403   -1.8335    1.6415 H   0  0  0  0  0  0  0  0  0  0  0  0
  1  2  1  0
  2  3  2  0
  3  4  1  0
  4  5  2  0
  5  6  1  0
  6  7  2  0
  7  8  1  0
  8  9  2  0
  9 10  1  0
 10 11  2  0
 11 12  1  0
 12 13  2  0
 13 14  1  0
 14 15  2  0
 15 16  1  0
 16 17  2  0
 17 18  1  0
 17 19  1  0
 19 20  2  0
  7  2  1  0
 20 10  1  0
 19 13  1  0
  1 21  1  0
  3 22  1  0
  4 23  1  0
  5 24  1  0
  6 25  1  0
  8 26  1  0
  9 27  1  0
 11 28  1  0
 12 29  1  0
 14 30  1  0
 15 31  1  0
 16 32  1  0
 18 33  1  0
M  END
$$$$
