
     RDKit          3D

 43 43  0  0  0  0  0  0  0  0999 V2000
   -6.0301    1.5443    1.1937 C   0  0  0  0  0  0  0  0  0  0  0  0
   -5.5068    0.6674    0.1002 C   0  0  0  0  0  0  0  0  0  0  0  0
   -6.3500    0.8513   -1.4113 Cl  0  0  0  0  0  0  0  0  0  0  0  0
   -4.4868   -0.2052    0.1521 C   0  0  0  0  0  0  0  0  0  0  0  0
   -3.6567   -0.5665    1.3410 C   0  0  0  0  0  0  0  0  0  0  0  0
   -2.2261   -0.0043    1.3518 N   0  0  0  0  0  4  0  0  0  0  0  0
   -1.5297   -0.5425    2.6091 C   0  0  0  0  0  0  0  0  0  0  0  0
   -2.2456    1.5177    1.4225 C   0  0  0  0  0  0  0  0  0  0  0  0
   -1.4514   -0.4728    0.0655 C   0  0  0  0  0  0  0  0  0  0  0  0
    0.0268   -0.0959   -0.0334 C   0  0  0  0  0  0  0  0  0  0  0  0
    0.7209    0.2647    0.9075 O   0  0  0  0  0  0  0  0  0  0  0  0
    0.4601   -0.2630   -1.3142 O   0  0  0  0  0  0  0  0  0  0  0  0
    1.8428    0.0702   -1.5569 C   0  0  0  0  0  0  0  0  0  0  0  0
    2.7392   -1.1315   -1.2673 C   0  0  0  0  0  0  0  0  0  0  0  0
    4.1958   -0.7849   -1.4065 C   0  0  0  0  0  0  0  0  0  0  0  0
    4.9167   -0.3102   -0.3028 C   0  0  0  0  0  0  0  0  0  0  0  0
    6.2622    0.0352   -0.4316 C   0  0  0  0  0  0  0  0  0  0  0  0
    6.8963   -0.0850   -1.6649 C   0  0  0  0  0  0  0  0  0  0  0  0
    6.1868   -0.5518   -2.7706 C   0  0  0  0  0  0  0  0  0  0  0  0
    4.8413   -0.8980   -2.6422 C   0  0  0  0  0  0  0  0  0  0  0  0
   -5.3765    1.5592    2.0701 H   0  0  0  0  0  0  0  0  0  0  0  0
   -6.1163    2.5817    0.8477 H   0  0  0  0  0  0  0  0  0  0  0  0
   -7.0201    1.2055    1.5165 H   0  0  0  0  0  0  0  0  0  0  0  0
   -4.2735   -0.7811   -0.7461 H   0  0  0  0  0  0  0  0  0  0  0  0
   -3.5628   -1.6601    1.3862 H   0  0  0  0  0  0  0  0  0  0  0  0
   -4.1300   -0.2486    2.2769 H   0  0  0  0  0  0  0  0  0  0  0  0
   -2.2079   -0.4194    3.4601 H   0  0  0  0  0  0  0  0  0  0  0  0
   -0.6206    0.0284    2.8038 H   0  0  0  0  0  0  0  0  0  0  0  0
   -1.3087   -1.6028    2.4552 H   0  0  0  0  0  0  0  0  0  0  0  0
   -2.8223    1.8113    2.3037 H   0  0  0  0  0  0  0  0  0  0  0  0
   -2.7030    1.9102    0.5110 H   0  0  0  0  0  0  0  0  0  0  0  0
   -1.2201    1.8845    1.5123 H   0  0  0  0  0  0  0  0  0  0  0  0
   -1.9772   -0.0372   -0.7914 H   0  0  0  0  0  0  0  0  0  0  0  0
   -1.5327   -1.5659    0.0415 H   0  0  0  0  0  0  0  0  0  0  0  0
    1.9217    0.3530   -2.6157 H   0  0  0  0  0  0  0  0  0  0  0  0
    2.1312    0.9549   -0.9754 H   0  0  0  0  0  0  0  0  0  0  0  0
    2.4807   -1.9564   -1.9454 H   0  0  0  0  0  0  0  0  0  0  0  0
    2.5440   -1.5302   -0.2631 H   0  0  0  0  0  0  0  0  0  0  0  0
    4.4363   -0.2042    0.6697 H   0  0  0  0  0  0  0  0  0  0  0  0
    6.8182    0.3979    0.4297 H   0  0  0  0  0  0  0  0  0  0  0  0
    7.9445    0.1843   -1.7657 H   0  0  0  0  0  0  0  0  0  0  0  0
    6.6845   -0.6451   -3.7347 H   0  0  0  0  0  0  0  0  0  0  0  0
    4.3049   -1.2593   -3.5166 H   0  0  0  0  0  0  0  0  0  0  0  0
  1  2  1  0
  2  3  1  0
  2  4  2  3
  4  5  1  0
  5  6  1  0
  6  7  1  0
  6  8  1  0
  6  9  1  0
  9 10  1  0
 10 11  2  0
 10 12  1  0
 12 13  1  0
 13 14  1  0
 14 15  1  0
 15 16  2  0
 16 17  1  0
 17 18  2  0
 18 19  1  0
 19 20  2  0
 20 15  1  0
  1 21  1  0
  1 22  1  0
  1 23  1  0
  4 24  1  0
  5 25  1  0
  5 26  1  0
  7 27  1  0
  7 28  1  0
  7 29  1  0
  8 30  1  0
  8 31  1  0
  8 32  1  0
  9 33  1  0
  9 34  1  0
 13 35  1  0
 13 36  1  0
 14 37  1  0
 14 38  1  0
 16 39  1  0
 17 40  1  0
 18 41  1  0
 19 42  1  0
 20 43  1  0
M  CHG  1   6   1
M  END
$$$$
