
     RDKit          3D

 28 30  0  0  0  0  0  0  0  0999 V2000
   -0.4433    2.7533   -2.2782 O   0  0  0  0  0  0  0  0  0  0  0  0
   -0.1511    1.6223   -1.8650 C   0  0  0  0  0  0  0  0  0  0  0  0
   -0.8063    0.4363   -2.5016 C   0  0  0  0  0  0  0  0  0  0  0  0
   -1.1945   -0.7044   -1.5876 C   0  0  0  0  0  0  0  0  0  0  0  0
   -1.9407   -0.3684   -0.3090 C   0  0  0  0  0  0  0  0  0  0  0  0
   -2.0570   -1.2353    0.8382 C   0  0  0  0  0  0  0  0  0  0  0  0
   -2.8032   -0.6918    1.8595 C   0  0  0  0  0  0  0  0  0  0  0  0
   -3.4083    0.8488    1.4547 S   0  0  0  0  0  0  0  0  0  0  0  0
   -2.6790    0.7856   -0.0904 C   0  0  0  0  0  0  0  0  0  0  0  0
    0.2644   -1.7653   -1.3946 S   0  0  0  0  0  0  0  0  0  0  0  0
    1.2808   -0.8379   -0.2675 C   0  0  0  0  0  0  0  0  0  0  0  0
    2.0572   -1.6697    0.5720 C   0  0  0  0  0  0  0  0  0  0  0  0
    2.9286   -1.1509    1.5279 C   0  0  0  0  0  0  0  0  0  0  0  0
    3.0487    0.2202    1.6607 C   0  0  0  0  0  0  0  0  0  0  0  0
    2.3005    1.0567    0.8323 C   0  0  0  0  0  0  0  0  0  0  0  0
    1.4107    0.5525   -0.1438 C   0  0  0  0  0  0  0  0  0  0  0  0
    0.7737    1.5637   -0.8855 N   0  0  0  0  0  0  0  0  0  0  0  0
   -1.7308    0.8170   -2.9606 H   0  0  0  0  0  0  0  0  0  0  0  0
   -0.1805    0.1113   -3.3429 H   0  0  0  0  0  0  0  0  0  0  0  0
   -1.8919   -1.3309   -2.1613 H   0  0  0  0  0  0  0  0  0  0  0  0
   -1.6031   -2.2167    0.9161 H   0  0  0  0  0  0  0  0  0  0  0  0
   -3.0260   -1.1310    2.8222 H   0  0  0  0  0  0  0  0  0  0  0  0
   -2.8295    1.6211   -0.7618 H   0  0  0  0  0  0  0  0  0  0  0  0
    1.9847   -2.7541    0.4884 H   0  0  0  0  0  0  0  0  0  0  0  0
    3.5070   -1.8190    2.1604 H   0  0  0  0  0  0  0  0  0  0  0  0
    3.7226    0.6437    2.4008 H   0  0  0  0  0  0  0  0  0  0  0  0
    2.4262    2.1306    0.9632 H   0  0  0  0  0  0  0  0  0  0  0  0
    1.0402    2.5120   -0.6416 H   0  0  0  0  0  0  0  0  0  0  0  0
  1  2  2  0
  2  3  1  0
  3  4  1  0
  4  5  1  0
  5  6  1  0
  6  7  2  0
  7  8  1  0
  8  9  1  0
  4 10  1  0
 10 11  1  0
 11 12  2  0
 12 13  1  0
 13 14  2  0
 14 15  1  0
 15 16  2  0
 16 17  1  0
 17  2  1  0
  9  5  2  0
 16 11  1  0
  3 18  1  0
  3 19  1  0
  4 20  1  0
  6 21  1  0
  7 22  1  0
  9 23  1  0
 12 24  1  0
 13 25  1  0
 14 26  1  0
 15 27  1  0
 17 28  1  0
M  END
$$$$
