
     RDKit          3D

 60 62  0  0  0  0  0  0  0  0999 V2000
   -4.7535    3.3175   -1.6557 C   0  0  0  0  0  0  0  0  0  0  0  0
   -3.2345    3.3712   -1.7274 C   0  0  0  0  0  0  0  0  0  0  0  0
   -2.6059    2.0706   -1.3006 C   0  0  0  0  0  0  0  0  0  0  0  0
   -2.1985    1.1283   -2.2488 C   0  0  0  0  0  0  0  0  0  0  0  0
   -1.6031   -0.0699   -1.8446 C   0  0  0  0  0  0  0  0  0  0  0  0
   -1.4031   -0.3472   -0.4870 C   0  0  0  0  0  0  0  0  0  0  0  0
   -0.7305   -1.5462   -0.1682 N   0  0  0  0  0  0  0  0  0  0  0  0
   -0.2605   -1.9281    1.0772 C   0  0  0  0  0  0  0  0  0  0  0  0
   -0.4799   -1.3661    2.1496 O   0  0  0  0  0  0  0  0  0  0  0  0
    0.6651   -3.1590    1.0251 C   0  0  0  0  0  0  0  0  0  0  0  0
    1.6993   -2.9957    2.0743 N   0  0  0  0  0  0  0  0  0  0  0  0
    3.1740   -2.3069    1.6496 S   0  0  0  0  0  6  0  0  0  0  0  0
    3.7353   -3.1188    0.5922 O   0  0  0  0  0  0  0  0  0  0  0  0
    3.8898   -2.0456    2.8771 O   0  0  0  0  0  0  0  0  0  0  0  0
    2.7190   -0.7410    0.9420 C   0  0  0  0  0  0  0  0  0  0  0  0
    2.7873   -0.5558   -0.4481 C   0  0  0  0  0  0  0  0  0  0  0  0
    2.3603    0.6491   -1.0239 C   0  0  0  0  0  0  0  0  0  0  0  0
    1.8752    1.6557   -0.2024 C   0  0  0  0  0  0  0  0  0  0  0  0
    1.8599    1.4700    1.1860 C   0  0  0  0  0  0  0  0  0  0  0  0
    2.2828    0.2864    1.7791 C   0  0  0  0  0  0  0  0  0  0  0  0
    1.3187    2.6662    1.9008 C   0  0  0  0  0  0  0  0  0  0  0  0
    0.9819    3.6004    0.7409 C   0  0  0  0  0  0  0  0  0  0  0  0
    1.3411    2.9198   -0.5116 N   0  0  0  0  0  0  0  0  0  0  0  0
    1.0610    3.5477   -1.7066 C   0  0  0  0  0  0  0  0  0  0  0  0
    1.3743    2.8593   -3.0038 C   0  0  0  0  0  0  0  0  0  0  0  0
    0.5525    4.6747   -1.7371 O   0  0  0  0  0  0  0  0  0  0  0  0
   -0.1315   -4.4660    1.2147 C   0  0  0  0  0  0  0  0  0  0  0  0
    0.7430   -5.6832    0.8972 C   0  0  0  0  0  0  0  0  0  0  0  0
   -0.7487   -4.6212    2.6089 C   0  0  0  0  0  0  0  0  0  0  0  0
   -1.8381    0.5801    0.4590 C   0  0  0  0  0  0  0  0  0  0  0  0
   -2.4360    1.7775    0.0565 C   0  0  0  0  0  0  0  0  0  0  0  0
   -5.1816    4.2744   -1.9709 H   0  0  0  0  0  0  0  0  0  0  0  0
   -5.1523    2.5358   -2.3093 H   0  0  0  0  0  0  0  0  0  0  0  0
   -5.0984    3.1124   -0.6356 H   0  0  0  0  0  0  0  0  0  0  0  0
   -2.9257    3.6190   -2.7508 H   0  0  0  0  0  0  0  0  0  0  0  0
   -2.8589    4.1822   -1.0916 H   0  0  0  0  0  0  0  0  0  0  0  0
   -2.3307    1.3273   -3.3098 H   0  0  0  0  0  0  0  0  0  0  0  0
   -1.2831   -0.7702   -2.6113 H   0  0  0  0  0  0  0  0  0  0  0  0
   -0.4634   -2.1163   -0.9607 H   0  0  0  0  0  0  0  0  0  0  0  0
    1.1470   -3.1943    0.0400 H   0  0  0  0  0  0  0  0  0  0  0  0
    1.3407   -2.6226    2.9590 H   0  0  0  0  0  0  0  0  0  0  0  0
    3.1632   -1.3486   -1.0929 H   0  0  0  0  0  0  0  0  0  0  0  0
    2.4279    0.7428   -2.0979 H   0  0  0  0  0  0  0  0  0  0  0  0
    2.2384    0.1574    2.8572 H   0  0  0  0  0  0  0  0  0  0  0  0
    0.4252    2.4156    2.4812 H   0  0  0  0  0  0  0  0  0  0  0  0
    2.0728    3.1082    2.5593 H   0  0  0  0  0  0  0  0  0  0  0  0
   -0.0852    3.8503    0.7242 H   0  0  0  0  0  0  0  0  0  0  0  0
    1.5420    4.5401    0.8072 H   0  0  0  0  0  0  0  0  0  0  0  0
    1.0532    3.4995   -3.8347 H   0  0  0  0  0  0  0  0  0  0  0  0
    0.8216    1.9205   -3.0826 H   0  0  0  0  0  0  0  0  0  0  0  0
    2.4528    2.7077   -3.1026 H   0  0  0  0  0  0  0  0  0  0  0  0
   -0.9603   -4.4634    0.4935 H   0  0  0  0  0  0  0  0  0  0  0  0
    1.1626   -5.6085   -0.1118 H   0  0  0  0  0  0  0  0  0  0  0  0
    1.5735   -5.7778    1.6050 H   0  0  0  0  0  0  0  0  0  0  0  0
    0.1539   -6.6059    0.9439 H   0  0  0  0  0  0  0  0  0  0  0  0
   -1.4192   -3.7892    2.8437 H   0  0  0  0  0  0  0  0  0  0  0  0
    0.0168   -4.6759    3.3899 H   0  0  0  0  0  0  0  0  0  0  0  0
   -1.3417   -5.5411    2.6636 H   0  0  0  0  0  0  0  0  0  0  0  0
   -1.7274    0.4085    1.5250 H   0  0  0  0  0  0  0  0  0  0  0  0
   -2.7597    2.4878    0.8147 H   0  0  0  0  0  0  0  0  0  0  0  0
  1  2  1  0
  2  3  1  0
  3  4  2  0
  4  5  1  0
  5  6  2  0
  6  7  1  0
  7  8  1  0
  8  9  2  0
  8 10  1  0
 10 11  1  0
 11 12  1  0
 12 13  2  0
 12 14  2  0
 12 15  1  0
 15 16  2  0
 16 17  1  0
 17 18  2  0
 18 19  1  0
 19 20  2  0
 19 21  1  0
 21 22  1  0
 22 23  1  0
 23 24  1  0
 24 25  1  0
 24 26  2  0
 10 27  1  0
 27 28  1  0
 27 29  1  0
  6 30  1  0
 30 31  2  0
 31  3  1  0
 20 15  1  0
 23 18  1  0
  1 32  1  0
  1 33  1  0
  1 34  1  0
  2 35  1  0
  2 36  1  0
  4 37  1  0
  5 38  1  0
  7 39  1  0
 10 40  1  0
 11 41  1  0
 16 42  1  0
 17 43  1  0
 20 44  1  0
 21 45  1  0
 21 46  1  0
 22 47  1  0
 22 48  1  0
 25 49  1  0
 25 50  1  0
 25 51  1  0
 27 52  1  0
 28 53  1  0
 28 54  1  0
 28 55  1  0
 29 56  1  0
 29 57  1  0
 29 58  1  0
 30 59  1  0
 31 60  1  0
M  END
$$$$
