
     RDKit          3D

 57 60  0  0  0  0  0  0  0  0999 V2000
   -2.8288    2.8728    2.1926 C   0  0  0  0  0  0  0  0  0  0  0  0
   -1.9662    1.6245    2.0611 C   0  0  0  0  0  0  0  0  0  0  0  0
   -1.3720    1.4781    0.6524 C   0  0  0  0  0  0  0  0  0  0  0  0
   -0.5761   -0.1714    0.4610 S   0  0  0  0  0  0  0  0  0  0  0  0
   -1.9664   -1.2386    0.2642 C   0  0  0  0  0  0  0  0  0  0  0  0
   -3.1057   -0.6621    0.0242 N   0  0  0  0  0  0  0  0  0  0  0  0
   -4.1919   -1.5215   -0.0977 C   0  0  0  0  0  0  0  0  0  0  0  0
   -5.5070   -1.0953   -0.3842 C   0  0  0  0  0  0  0  0  0  0  0  0
   -6.3727   -2.1704   -0.4222 C   0  0  0  0  0  0  0  0  0  0  0  0
   -5.5658   -3.6616   -0.1124 S   0  0  0  0  0  0  0  0  0  0  0  0
   -4.0792   -2.8674    0.0674 C   0  0  0  0  0  0  0  0  0  0  0  0
   -2.8317   -3.5092    0.3552 C   0  0  0  0  0  0  0  0  0  0  0  0
   -2.7165   -4.7161    0.5612 O   0  0  0  0  0  0  0  0  0  0  0  0
   -1.7482   -2.6156    0.3982 N   0  0  0  0  0  0  0  0  0  0  0  0
   -0.4289   -3.2333    0.5876 C   0  0  0  0  0  0  0  0  0  0  0  0
    0.2375   -3.6013   -0.7274 C   0  0  0  0  0  0  0  0  0  0  0  0
    1.2036   -2.7661   -1.3099 C   0  0  0  0  0  0  0  0  0  0  0  0
    1.7958   -3.0987   -2.5336 C   0  0  0  0  0  0  0  0  0  0  0  0
    1.4377   -4.2810   -3.1893 C   0  0  0  0  0  0  0  0  0  0  0  0
    2.0447   -4.6820   -4.4817 C   0  0  0  0  0  0  0  0  0  0  0  0
    1.8363   -5.7258   -5.0743 O   0  0  0  0  0  0  0  0  0  0  0  0
    2.8853   -3.7554   -4.9741 O   0  0  0  0  0  0  0  0  0  0  0  0
    0.4859   -5.1270   -2.6109 C   0  0  0  0  0  0  0  0  0  0  0  0
   -0.1087   -4.7894   -1.3912 C   0  0  0  0  0  0  0  0  0  0  0  0
   -0.3204    2.5703    0.3868 C   0  0  0  0  0  0  0  0  0  0  0  0
   -0.5786    3.5072   -0.3656 O   0  0  0  0  0  0  0  0  0  0  0  0
    0.8572    2.4098    1.1006 N   0  0  0  0  0  0  0  0  0  0  0  0
    1.9750    3.2667    1.1336 C   0  0  0  0  0  0  0  0  0  0  0  0
    3.0950    2.8213    1.8448 C   0  0  0  0  0  0  0  0  0  0  0  0
    4.2471    3.6082    1.9332 C   0  0  0  0  0  0  0  0  0  0  0  0
    4.3027    4.8629    1.3104 C   0  0  0  0  0  0  0  0  0  0  0  0
    5.5514    5.6910    1.4218 C   0  0  0  0  0  0  0  0  0  0  0  0
    3.1746    5.3084    0.6051 C   0  0  0  0  0  0  0  0  0  0  0  0
    3.1591    6.8520   -0.1806 Cl  0  0  0  0  0  0  0  0  0  0  0  0
    2.0218    4.5174    0.5178 C   0  0  0  0  0  0  0  0  0  0  0  0
   -2.2401    3.7823    2.0430 H   0  0  0  0  0  0  0  0  0  0  0  0
   -3.6455    2.8635    1.4625 H   0  0  0  0  0  0  0  0  0  0  0  0
   -3.2711    2.9194    3.1925 H   0  0  0  0  0  0  0  0  0  0  0  0
   -2.5962    0.7627    2.3083 H   0  0  0  0  0  0  0  0  0  0  0  0
   -1.1767    1.6683    2.8199 H   0  0  0  0  0  0  0  0  0  0  0  0
   -2.1411    1.5946   -0.1199 H   0  0  0  0  0  0  0  0  0  0  0  0
   -5.8106   -0.0695   -0.5522 H   0  0  0  0  0  0  0  0  0  0  0  0
   -7.4364   -2.1594   -0.6169 H   0  0  0  0  0  0  0  0  0  0  0  0
    0.2294   -2.5838    1.1725 H   0  0  0  0  0  0  0  0  0  0  0  0
   -0.5246   -4.1420    1.1960 H   0  0  0  0  0  0  0  0  0  0  0  0
    1.5167   -1.8474   -0.8189 H   0  0  0  0  0  0  0  0  0  0  0  0
    2.5390   -2.4303   -2.9633 H   0  0  0  0  0  0  0  0  0  0  0  0
    3.2001   -4.1494   -5.8167 H   0  0  0  0  0  0  0  0  0  0  0  0
    0.2024   -6.0559   -3.1063 H   0  0  0  0  0  0  0  0  0  0  0  0
   -0.8439   -5.4711   -0.9638 H   0  0  0  0  0  0  0  0  0  0  0  0
    0.9557    1.5229    1.5816 H   0  0  0  0  0  0  0  0  0  0  0  0
    3.0915    1.8539    2.3413 H   0  0  0  0  0  0  0  0  0  0  0  0
    5.1021    3.2320    2.4941 H   0  0  0  0  0  0  0  0  0  0  0  0
    6.3338    5.1643    1.9821 H   0  0  0  0  0  0  0  0  0  0  0  0
    5.3411    6.6273    1.9477 H   0  0  0  0  0  0  0  0  0  0  0  0
    5.9556    5.9094    0.4276 H   0  0  0  0  0  0  0  0  0  0  0  0
    1.1727    4.9070   -0.0354 H   0  0  0  0  0  0  0  0  0  0  0  0
  1  2  1  0
  2  3  1  0
  3  4  1  0
  4  5  1  0
  5  6  2  0
  6  7  1  0
  7  8  1  0
  8  9  2  0
  9 10  1  0
 10 11  1  0
 11 12  1  0
 12 13  2  0
 12 14  1  0
 14 15  1  0
 15 16  1  0
 16 17  2  0
 17 18  1  0
 18 19  2  0
 19 20  1  0
 20 21  2  0
 20 22  1  0
 19 23  1  0
 23 24  2  0
  3 25  1  0
 25 26  2  0
 25 27  1  0
 27 28  1  0
 28 29  2  0
 29 30  1  0
 30 31  2  0
 31 32  1  0
 31 33  1  0
 33 34  1  0
 33 35  2  0
 14  5  1  0
 24 16  1  0
 35 28  1  0
 11  7  2  0
  1 36  1  0
  1 37  1  0
  1 38  1  0
  2 39  1  0
  2 40  1  0
  3 41  1  0
  8 42  1  0
  9 43  1  0
 15 44  1  0
 15 45  1  0
 17 46  1  0
 18 47  1  0
 22 48  1  0
 23 49  1  0
 24 50  1  0
 27 51  1  0
 29 52  1  0
 30 53  1  0
 32 54  1  0
 32 55  1  0
 32 56  1  0
 35 57  1  0
M  END
$$$$
