
     RDKit          3D

 56 58  0  0  0  0  0  0  0  0999 V2000
   10.0181    2.4500   -1.0189 C   0  0  0  0  0  0  0  0  0  0  0  0
    8.5062    2.5884   -1.0702 C   0  0  0  0  0  0  0  0  0  0  0  0
    7.9512    1.7262   -0.0787 O   0  0  0  0  0  0  0  0  0  0  0  0
    6.5907    1.7194    0.0527 C   0  0  0  0  0  0  0  0  0  0  0  0
    6.1005    0.8368    1.0161 C   0  0  0  0  0  0  0  0  0  0  0  0
    4.7262    0.7265    1.2591 C   0  0  0  0  0  0  0  0  0  0  0  0
    3.8195    1.5057    0.5415 C   0  0  0  0  0  0  0  0  0  0  0  0
    2.4209    1.4613    0.7212 N   0  0  0  0  0  0  0  0  0  0  0  0
    1.7066    0.6342    1.5738 C   0  0  0  0  0  0  0  0  0  0  0  0
    2.1696   -0.2155    2.3262 O   0  0  0  0  0  0  0  0  0  0  0  0
    0.2109    0.8768    1.4643 C   0  0  0  0  0  0  0  0  0  0  0  0
   -0.5962   -0.0101    2.4058 C   0  0  0  0  0  0  0  0  0  0  0  0
   -0.5062   -1.4126    1.9697 N   0  0  0  0  0  0  0  0  0  0  0  0
   -1.7038   -2.4853    2.4552 S   0  0  0  0  0  6  0  0  0  0  0  0
   -1.1432   -3.8134    2.3336 O   0  0  0  0  0  0  0  0  0  0  0  0
   -2.2920   -2.0081    3.6857 O   0  0  0  0  0  0  0  0  0  0  0  0
   -2.8870   -2.2929    1.1443 C   0  0  0  0  0  0  0  0  0  0  0  0
   -2.7692   -3.0663   -0.0110 C   0  0  0  0  0  0  0  0  0  0  0  0
   -3.7070   -2.9245   -1.0401 C   0  0  0  0  0  0  0  0  0  0  0  0
   -4.7737   -2.0163   -0.9254 C   0  0  0  0  0  0  0  0  0  0  0  0
   -4.8755   -1.2609    0.2441 C   0  0  0  0  0  0  0  0  0  0  0  0
   -3.9456   -1.3980    1.2866 C   0  0  0  0  0  0  0  0  0  0  0  0
   -5.9738   -0.2936    0.3808 C   0  0  0  0  0  0  0  0  0  0  0  0
   -5.9941    0.4531    1.3574 O   0  0  0  0  0  0  0  0  0  0  0  0
   -6.9168   -0.2724   -0.6341 N   0  0  0  0  0  0  0  0  0  0  0  0
   -8.0202    0.6604   -0.4950 C   0  0  0  0  0  0  0  0  0  0  0  0
   -6.8037   -0.9574   -1.8378 C   0  0  0  0  0  0  0  0  0  0  0  0
   -7.6090   -0.7817   -2.7554 O   0  0  0  0  0  0  0  0  0  0  0  0
   -5.7321   -1.8409   -1.9585 N   0  0  0  0  0  0  0  0  0  0  0  0
   -5.6051   -2.6019   -3.1963 C   0  0  0  0  0  0  0  0  0  0  0  0
    4.3132    2.3944   -0.4229 C   0  0  0  0  0  0  0  0  0  0  0  0
    5.6891    2.4988   -0.6703 C   0  0  0  0  0  0  0  0  0  0  0  0
   10.3193    1.4073   -1.1732 H   0  0  0  0  0  0  0  0  0  0  0  0
   10.4901    3.0752   -1.7828 H   0  0  0  0  0  0  0  0  0  0  0  0
   10.3965    2.7515   -0.0351 H   0  0  0  0  0  0  0  0  0  0  0  0
    8.2369    3.6306   -0.8628 H   0  0  0  0  0  0  0  0  0  0  0  0
    8.1520    2.2987   -2.0664 H   0  0  0  0  0  0  0  0  0  0  0  0
    6.7941    0.2224    1.5869 H   0  0  0  0  0  0  0  0  0  0  0  0
    4.4055    0.0243    2.0222 H   0  0  0  0  0  0  0  0  0  0  0  0
    1.8823    2.0928    0.1404 H   0  0  0  0  0  0  0  0  0  0  0  0
   -0.0946    0.7044    0.4259 H   0  0  0  0  0  0  0  0  0  0  0  0
    0.0208    1.9277    1.7116 H   0  0  0  0  0  0  0  0  0  0  0  0
   -0.2261    0.0732    3.4329 H   0  0  0  0  0  0  0  0  0  0  0  0
   -1.6384    0.3249    2.3826 H   0  0  0  0  0  0  0  0  0  0  0  0
    0.4280   -1.8319    2.0491 H   0  0  0  0  0  0  0  0  0  0  0  0
   -1.9526   -3.7788   -0.1196 H   0  0  0  0  0  0  0  0  0  0  0  0
   -3.5760   -3.5445   -1.9228 H   0  0  0  0  0  0  0  0  0  0  0  0
   -4.0505   -0.8084    2.1964 H   0  0  0  0  0  0  0  0  0  0  0  0
   -7.7176    1.6202   -0.9265 H   0  0  0  0  0  0  0  0  0  0  0  0
   -8.2771    0.8129    0.5580 H   0  0  0  0  0  0  0  0  0  0  0  0
   -8.9066    0.2984   -1.0208 H   0  0  0  0  0  0  0  0  0  0  0  0
   -4.6467   -2.3660   -3.6723 H   0  0  0  0  0  0  0  0  0  0  0  0
   -5.6668   -3.6725   -2.9722 H   0  0  0  0  0  0  0  0  0  0  0  0
   -6.3987   -2.3667   -3.9118 H   0  0  0  0  0  0  0  0  0  0  0  0
    3.6374    3.0237   -0.9967 H   0  0  0  0  0  0  0  0  0  0  0  0
    6.0201    3.2001   -1.4302 H   0  0  0  0  0  0  0  0  0  0  0  0
  1  2  1  0
  2  3  1  0
  3  4  1  0
  4  5  2  0
  5  6  1  0
  6  7  2  0
  7  8  1  0
  8  9  1  0
  9 10  2  0
  9 11  1  0
 11 12  1  0
 12 13  1  0
 13 14  1  0
 14 15  2  0
 14 16  2  0
 14 17  1  0
 17 18  2  0
 18 19  1  0
 19 20  2  0
 20 21  1  0
 21 22  2  0
 21 23  1  0
 23 24  2  0
 23 25  1  0
 25 26  1  0
 25 27  1  0
 27 28  2  0
 27 29  1  0
 29 30  1  0
  7 31  1  0
 31 32  2  0
 32  4  1  0
 22 17  1  0
 29 20  1  0
  1 33  1  0
  1 34  1  0
  1 35  1  0
  2 36  1  0
  2 37  1  0
  5 38  1  0
  6 39  1  0
  8 40  1  0
 11 41  1  0
 11 42  1  0
 12 43  1  0
 12 44  1  0
 13 45  1  0
 18 46  1  0
 19 47  1  0
 22 48  1  0
 26 49  1  0
 26 50  1  0
 26 51  1  0
 30 52  1  0
 30 53  1  0
 30 54  1  0
 31 55  1  0
 32 56  1  0
M  END
$$$$
