
     RDKit          3D

 37 39  0  0  0  0  0  0  0  0999 V2000
   -4.0195   -2.0467   -1.0606 C   0  0  0  0  0  0  0  0  0  0  0  0
   -4.4381   -1.6365    0.3437 C   0  0  0  0  0  0  0  0  0  0  0  0
   -4.1679   -0.2332    0.6237 N   0  0  0  0  0  0  0  0  0  0  0  0
   -5.2073    0.6320    0.5879 N   0  0  0  0  0  0  0  0  0  0  0  0
   -4.6583    1.8019    0.9138 C   0  0  0  0  0  0  0  0  0  0  0  0
   -3.2764    1.6919    1.1051 C   0  0  0  0  0  0  0  0  0  0  0  0
   -2.1883    3.1333    1.6066 Br  0  0  0  0  0  0  0  0  0  0  0  0
   -2.9518    0.3682    0.8892 C   0  0  0  0  0  0  0  0  0  0  0  0
   -1.6862   -0.3376    0.9399 C   0  0  0  0  0  0  0  0  0  0  0  0
   -1.6310   -1.5048    1.3076 O   0  0  0  0  0  0  0  0  0  0  0  0
   -0.6218    0.4193    0.4902 N   0  0  0  0  0  0  0  0  0  0  0  0
    0.7159    0.0555    0.4093 C   0  0  0  0  0  0  0  0  0  0  0  0
    1.2732   -1.4305    1.0479 S   0  0  0  0  0  0  0  0  0  0  0  0
    2.8305   -1.0893    0.5753 C   0  0  0  0  0  0  0  0  0  0  0  0
    2.9736    0.1145   -0.0591 C   0  0  0  0  0  0  0  0  0  0  0  0
    1.7414    0.8309   -0.1504 C   0  0  0  0  0  0  0  0  0  0  0  0
    1.4809    2.1454   -0.7319 C   0  0  0  0  0  0  0  0  0  0  0  0
    2.5605    2.8747   -1.1394 N   0  0  0  0  0  0  0  0  0  0  0  0
    0.3510    2.6157   -0.8459 O   0  0  0  0  0  0  0  0  0  0  0  0
    4.3909    0.3149   -0.4660 C   0  0  0  0  0  0  0  0  0  0  0  0
    5.0123   -1.1044   -0.2665 C   0  0  0  0  0  0  0  0  0  0  0  0
    4.0812   -1.8698    0.7164 C   0  0  0  0  0  0  0  0  0  0  0  0
   -4.2815   -3.0932   -1.2443 H   0  0  0  0  0  0  0  0  0  0  0  0
   -2.9409   -1.9391   -1.2080 H   0  0  0  0  0  0  0  0  0  0  0  0
   -4.5198   -1.4312   -1.8177 H   0  0  0  0  0  0  0  0  0  0  0  0
   -3.9432   -2.2392    1.1086 H   0  0  0  0  0  0  0  0  0  0  0  0
   -5.5171   -1.7979    0.4660 H   0  0  0  0  0  0  0  0  0  0  0  0
   -5.2917    2.6762    0.9935 H   0  0  0  0  0  0  0  0  0  0  0  0
   -0.8286    1.3444    0.1108 H   0  0  0  0  0  0  0  0  0  0  0  0
    2.3735    3.8280   -1.4238 H   0  0  0  0  0  0  0  0  0  0  0  0
    3.5017    2.6423   -0.8707 H   0  0  0  0  0  0  0  0  0  0  0  0
    4.8808    1.0419    0.1927 H   0  0  0  0  0  0  0  0  0  0  0  0
    4.4913    0.6355   -1.5065 H   0  0  0  0  0  0  0  0  0  0  0  0
    5.0230   -1.6274   -1.2324 H   0  0  0  0  0  0  0  0  0  0  0  0
    6.0450   -1.0582    0.0921 H   0  0  0  0  0  0  0  0  0  0  0  0
    3.9769   -2.9223    0.4301 H   0  0  0  0  0  0  0  0  0  0  0  0
    4.4657   -1.8050    1.7397 H   0  0  0  0  0  0  0  0  0  0  0  0
  1  2  1  0
  2  3  1  0
  3  4  1  0
  4  5  2  0
  5  6  1  0
  6  7  1  0
  6  8  2  0
  8  9  1  0
  9 10  2  0
  9 11  1  0
 11 12  1  0
 12 13  1  0
 13 14  1  0
 14 15  2  0
 15 16  1  0
 16 17  1  0
 17 18  1  0
 17 19  2  0
 15 20  1  0
 20 21  1  0
 21 22  1  0
  8  3  1  0
 16 12  2  0
 22 14  1  0
  1 23  1  0
  1 24  1  0
  1 25  1  0
  2 26  1  0
  2 27  1  0
  5 28  1  0
 11 29  1  0
 18 30  1  0
 18 31  1  0
 20 32  1  0
 20 33  1  0
 21 34  1  0
 21 35  1  0
 22 36  1  0
 22 37  1  0
M  END
$$$$
