
     RDKit          3D

 26 28  0  0  0  0  0  0  0  0999 V2000
    3.8294   -1.3198    0.5651 N   0  0  0  0  0  0  0  0  0  0  0  0
    2.8042   -0.4727    0.1454 C   0  0  0  0  0  0  0  0  0  0  0  0
    3.0855    0.8438   -0.1984 C   0  0  0  0  0  0  0  0  0  0  0  0
    2.0558    1.7324   -0.4956 C   0  0  0  0  0  0  0  0  0  0  0  0
    0.7182    1.3289   -0.4064 C   0  0  0  0  0  0  0  0  0  0  0  0
   -0.2800    2.2424   -0.7081 C   0  0  0  0  0  0  0  0  0  0  0  0
   -1.6017    1.8591   -0.6046 C   0  0  0  0  0  0  0  0  0  0  0  0
   -1.9348    0.5688   -0.1968 C   0  0  0  0  0  0  0  0  0  0  0  0
   -3.2892    0.2167   -0.0982 C   0  0  0  0  0  0  0  0  0  0  0  0
   -3.6686   -1.0516    0.3041 C   0  0  0  0  0  0  0  0  0  0  0  0
   -2.6835   -1.9658    0.6077 C   0  0  0  0  0  0  0  0  0  0  0  0
   -1.3463   -1.5996    0.5038 C   0  0  0  0  0  0  0  0  0  0  0  0
   -0.9475   -0.3544    0.1079 N   0  0  0  0  0  4  0  0  0  0  0  0
    0.3867    0.0072    0.0026 C   0  0  0  0  0  0  0  0  0  0  0  0
    1.4652   -0.8628    0.2865 C   0  0  0  0  0  0  0  0  0  0  0  0
    4.7585   -1.0741    0.2279 H   0  0  0  0  0  0  0  0  0  0  0  0
    3.6594   -2.3178    0.4886 H   0  0  0  0  0  0  0  0  0  0  0  0
    4.1158    1.1938   -0.2417 H   0  0  0  0  0  0  0  0  0  0  0  0
    2.3193    2.7504   -0.7829 H   0  0  0  0  0  0  0  0  0  0  0  0
   -0.0423    3.2586   -1.0225 H   0  0  0  0  0  0  0  0  0  0  0  0
   -2.3772    2.5864   -0.8438 H   0  0  0  0  0  0  0  0  0  0  0  0
   -4.0685    0.9408   -0.3374 H   0  0  0  0  0  0  0  0  0  0  0  0
   -4.7211   -1.3195    0.3798 H   0  0  0  0  0  0  0  0  0  0  0  0
   -2.9511   -2.9712    0.9285 H   0  0  0  0  0  0  0  0  0  0  0  0
   -0.5981   -2.3436    0.7512 H   0  0  0  0  0  0  0  0  0  0  0  0
    1.3116   -1.8764    0.6377 H   0  0  0  0  0  0  0  0  0  0  0  0
  1  2  1  0
  2  3  2  0
  3  4  1  0
  4  5  2  0
  5  6  1  0
  6  7  2  0
  7  8  1  0
  8  9  2  0
  9 10  1  0
 10 11  2  0
 11 12  1  0
 12 13  2  0
 13 14  1  0
 14 15  2  0
 15  2  1  0
 14  5  1  0
 13  8  1  0
  1 16  1  0
  1 17  1  0
  3 18  1  0
  4 19  1  0
  6 20  1  0
  7 21  1  0
  9 22  1  0
 10 23  1  0
 11 24  1  0
 12 25  1  0
 15 26  1  0
M  CHG  1  13   1
M  END
$$$$
