
     RDKit          3D

 56 61  0  0  0  0  0  0  0  0999 V2000
    6.8322   -1.2477   -3.7436 C   0  0  0  0  0  0  0  0  0  0  0  0
    5.6943   -1.0205   -2.7911 C   0  0  0  0  0  0  0  0  0  0  0  0
    5.8852   -0.2748   -1.6239 C   0  0  0  0  0  0  0  0  0  0  0  0
    4.8365   -0.0871   -0.7181 C   0  0  0  0  0  0  0  0  0  0  0  0
    3.5867   -0.6563   -0.9635 C   0  0  0  0  0  0  0  0  0  0  0  0
    2.3989   -0.4500    0.0433 C   0  0  0  0  0  0  0  0  0  0  0  0
    1.0948   -0.9016   -0.1175 C   0  0  0  0  0  0  0  0  0  0  0  0
    0.3302   -0.4823    0.9713 N   0  0  0  0  0  4  0  0  0  0  0  0
   -1.0969   -0.7580    1.2044 C   0  0  0  0  0  0  0  0  0  0  0  0
   -1.9495    0.5248    1.1905 C   0  0  0  0  0  0  0  0  0  0  0  0
   -1.5704    1.5227    1.8045 O   0  0  0  0  0  0  0  0  0  0  0  0
   -3.1721    0.3829    0.5212 N   0  0  0  0  0  0  0  0  0  0  0  0
   -3.1785    0.0263   -0.8763 C   0  0  0  0  0  0  0  0  0  0  0  0
   -2.0332    0.2951   -1.6588 C   0  0  0  0  0  0  0  0  0  0  0  0
   -1.9740   -0.0409   -3.0138 C   0  0  0  0  0  0  0  0  0  0  0  0
   -3.0631   -0.6474   -3.6210 C   0  0  0  0  0  0  0  0  0  0  0  0
   -4.2159   -0.8901   -2.8781 C   0  0  0  0  0  0  0  0  0  0  0  0
   -4.2858   -0.5427   -1.5186 C   0  0  0  0  0  0  0  0  0  0  0  0
   -5.7967   -0.8941   -0.6733 S   0  0  0  0  0  0  0  0  0  0  0  0
   -5.6602    0.2484    0.6780 C   0  0  0  0  0  0  0  0  0  0  0  0
   -6.8615    0.5879    1.3249 C   0  0  0  0  0  0  0  0  0  0  0  0
   -6.8574    1.3912    2.4596 C   0  0  0  0  0  0  0  0  0  0  0  0
   -5.6498    1.8471    2.9638 C   0  0  0  0  0  0  0  0  0  0  0  0
   -4.4505    1.5092    2.3260 C   0  0  0  0  0  0  0  0  0  0  0  0
   -4.4232    0.7218    1.1573 C   0  0  0  0  0  0  0  0  0  0  0  0
    1.1359    0.1946    1.7872 C   0  0  0  0  0  0  0  0  0  0  0  0
    2.3619    0.1917    1.2674 N   0  0  0  0  0  0  0  0  0  0  0  0
    3.3224    0.8496    2.1437 C   0  0  0  0  0  0  0  0  0  0  0  0
    2.5580    0.9678    3.4902 C   0  0  0  0  0  0  0  0  0  0  0  0
    1.0688    0.8735    3.1043 C   0  0  0  0  0  0  0  0  0  0  0  0
    3.3926   -1.4120   -2.1257 C   0  0  0  0  0  0  0  0  0  0  0  0
    4.4434   -1.5970   -3.0291 C   0  0  0  0  0  0  0  0  0  0  0  0
    6.4648   -1.3909   -4.7651 H   0  0  0  0  0  0  0  0  0  0  0  0
    7.5056   -0.3841   -3.7587 H   0  0  0  0  0  0  0  0  0  0  0  0
    7.3989   -2.1349   -3.4440 H   0  0  0  0  0  0  0  0  0  0  0  0
    6.8577    0.1692   -1.4153 H   0  0  0  0  0  0  0  0  0  0  0  0
    5.0336    0.5164    0.1588 H   0  0  0  0  0  0  0  0  0  0  0  0
    0.6030   -1.4689   -0.8897 H   0  0  0  0  0  0  0  0  0  0  0  0
   -1.1923   -1.2084    2.1991 H   0  0  0  0  0  0  0  0  0  0  0  0
   -1.4427   -1.5005    0.4797 H   0  0  0  0  0  0  0  0  0  0  0  0
   -1.1821    0.8331   -1.2472 H   0  0  0  0  0  0  0  0  0  0  0  0
   -1.0903    0.1961   -3.6026 H   0  0  0  0  0  0  0  0  0  0  0  0
   -3.0328   -0.9064   -4.6775 H   0  0  0  0  0  0  0  0  0  0  0  0
   -5.0731   -1.3449   -3.3742 H   0  0  0  0  0  0  0  0  0  0  0  0
   -7.8150    0.2157    0.9523 H   0  0  0  0  0  0  0  0  0  0  0  0
   -7.7924    1.6511    2.9506 H   0  0  0  0  0  0  0  0  0  0  0  0
   -5.6352    2.4752    3.8523 H   0  0  0  0  0  0  0  0  0  0  0  0
   -3.5488    1.9225    2.7672 H   0  0  0  0  0  0  0  0  0  0  0  0
    4.2265    0.2476    2.2601 H   0  0  0  0  0  0  0  0  0  0  0  0
    3.5565    1.8356    1.7318 H   0  0  0  0  0  0  0  0  0  0  0  0
    2.8017    1.8808    4.0398 H   0  0  0  0  0  0  0  0  0  0  0  0
    2.8189    0.1109    4.1231 H   0  0  0  0  0  0  0  0  0  0  0  0
    0.4747    0.2701    3.7914 H   0  0  0  0  0  0  0  0  0  0  0  0
    0.6359    1.8607    2.9349 H   0  0  0  0  0  0  0  0  0  0  0  0
    2.4420   -1.8814   -2.3581 H   0  0  0  0  0  0  0  0  0  0  0  0
    4.2816   -2.1967   -3.9236 H   0  0  0  0  0  0  0  0  0  0  0  0
  1  2  1  0
  2  3  2  0
  3  4  1  0
  4  5  2  0
  5  6  1  0
  6  7  2  0
  7  8  1  0
  8  9  1  0
  9 10  1  0
 10 11  2  0
 10 12  1  0
 12 13  1  0
 13 14  2  0
 14 15  1  0
 15 16  2  0
 16 17  1  0
 17 18  2  0
 18 19  1  0
 19 20  1  0
 20 21  2  0
 21 22  1  0
 22 23  2  0
 23 24  1  0
 24 25  2  0
  8 26  2  0
 26 27  1  0
 27 28  1  0
 28 29  1  0
 29 30  1  0
  5 31  1  0
 31 32  2  0
 32  2  1  0
 27  6  1  0
 25 12  1  0
 30 26  1  0
 18 13  1  0
 25 20  1  0
  1 33  1  0
  1 34  1  0
  1 35  1  0
  3 36  1  0
  4 37  1  0
  7 38  1  0
  9 39  1  0
  9 40  1  0
 14 41  1  0
 15 42  1  0
 16 43  1  0
 17 44  1  0
 21 45  1  0
 22 46  1  0
 23 47  1  0
 24 48  1  0
 28 49  1  0
 28 50  1  0
 29 51  1  0
 29 52  1  0
 30 53  1  0
 30 54  1  0
 31 55  1  0
 32 56  1  0
M  CHG  1   8   1
M  END
$$$$
