
     RDKit          3D

 39 40  0  0  0  0  0  0  0  0999 V2000
   -1.5644   -2.6141    1.7910 C   0  0  0  0  0  0  0  0  0  0  0  0
   -1.4691   -1.1820    1.2795 C   0  0  0  0  0  0  0  0  0  0  0  0
   -1.6599   -1.2013   -0.1428 O   0  0  0  0  0  0  0  0  0  0  0  0
   -2.7621   -0.5377   -0.6134 C   0  0  0  0  0  0  0  0  0  0  0  0
   -4.0309   -0.7011   -0.0486 C   0  0  0  0  0  0  0  0  0  0  0  0
   -5.1341   -0.0410   -0.5996 C   0  0  0  0  0  0  0  0  0  0  0  0
   -4.9658    0.7693   -1.7312 C   0  0  0  0  0  0  0  0  0  0  0  0
   -6.1268    1.4531   -2.3140 N   0  0  0  0  0  4  0  0  0  0  0  0
   -7.2018    1.3823   -1.7016 O   0  0  0  0  0  0  0  0  0  0  0  0
   -5.9598    2.0584   -3.3818 O   0  0  0  0  0  1  0  0  0  0  0  0
   -3.7054    0.9214   -2.3196 C   0  0  0  0  0  0  0  0  0  0  0  0
   -2.6109    0.2595   -1.7598 C   0  0  0  0  0  0  0  0  0  0  0  0
   -1.0641    0.4545   -2.5072 Cl  0  0  0  0  0  0  0  0  0  0  0  0
   -0.0727   -0.6265    1.6237 C   0  0  0  0  0  0  0  0  0  0  0  0
    0.2208   -0.3531    2.7849 O   0  0  0  0  0  0  0  0  0  0  0  0
    0.7547   -0.5186    0.5196 N   0  0  0  0  0  0  0  0  0  0  0  0
    2.0972   -0.1026    0.4746 C   0  0  0  0  0  0  0  0  0  0  0  0
    2.8549    0.2116    1.6039 C   0  0  0  0  0  0  0  0  0  0  0  0
    4.1932    0.6030    1.4733 C   0  0  0  0  0  0  0  0  0  0  0  0
    4.7848    0.6964    0.2101 C   0  0  0  0  0  0  0  0  0  0  0  0
    6.2114    1.1047    0.1223 C   0  0  0  0  0  0  0  0  0  0  0  0
    6.6333    1.6641   -1.0527 N   0  0  0  0  0  0  0  0  0  0  0  0
    6.9786    0.9804    1.0680 O   0  0  0  0  0  0  0  0  0  0  0  0
    4.0332    0.3740   -0.9242 C   0  0  0  0  0  0  0  0  0  0  0  0
    2.6978   -0.0227   -0.7886 C   0  0  0  0  0  0  0  0  0  0  0  0
   -2.5451   -3.0444    1.5652 H   0  0  0  0  0  0  0  0  0  0  0  0
   -0.8175   -3.2519    1.3053 H   0  0  0  0  0  0  0  0  0  0  0  0
   -1.4021   -2.6627    2.8727 H   0  0  0  0  0  0  0  0  0  0  0  0
   -2.1920   -0.5334    1.7904 H   0  0  0  0  0  0  0  0  0  0  0  0
   -4.1865   -1.3550    0.8056 H   0  0  0  0  0  0  0  0  0  0  0  0
   -6.1143   -0.1807   -0.1451 H   0  0  0  0  0  0  0  0  0  0  0  0
   -3.5684    1.5397   -3.2051 H   0  0  0  0  0  0  0  0  0  0  0  0
    0.3108   -0.7374   -0.3694 H   0  0  0  0  0  0  0  0  0  0  0  0
    2.4417    0.1489    2.6065 H   0  0  0  0  0  0  0  0  0  0  0  0
    4.7728    0.8297    2.3672 H   0  0  0  0  0  0  0  0  0  0  0  0
    5.9854    2.0465   -1.7261 H   0  0  0  0  0  0  0  0  0  0  0  0
    7.5693    2.0510   -1.0397 H   0  0  0  0  0  0  0  0  0  0  0  0
    4.4759    0.3933   -1.9156 H   0  0  0  0  0  0  0  0  0  0  0  0
    2.1380   -0.2759   -1.6857 H   0  0  0  0  0  0  0  0  0  0  0  0
  1  2  1  0
  2  3  1  0
  3  4  1  0
  4  5  2  0
  5  6  1  0
  6  7  2  0
  7  8  1  0
  8  9  2  0
  8 10  1  0
  7 11  1  0
 11 12  2  0
 12 13  1  0
  2 14  1  0
 14 15  2  0
 14 16  1  0
 16 17  1  0
 17 18  2  0
 18 19  1  0
 19 20  2  0
 20 21  1  0
 21 22  1  0
 21 23  2  0
 20 24  1  0
 24 25  2  0
 12  4  1  0
 25 17  1  0
  1 26  1  0
  1 27  1  0
  1 28  1  0
  2 29  1  0
  5 30  1  0
  6 31  1  0
 11 32  1  0
 16 33  1  0
 18 34  1  0
 19 35  1  0
 22 36  1  0
 22 37  1  0
 24 38  1  0
 25 39  1  0
M  CHG  2   8   1  10  -1
M  END
$$$$
