
     RDKit          3D

 61 66  0  0  0  0  0  0  0  0999 V2000
   -5.2983   -0.8236   -1.7896 C   0  0  0  0  0  0  0  0  0  0  0  0
   -3.7659   -0.8426   -1.8202 C   0  0  0  0  0  0  0  0  0  0  0  0
   -3.2622   -1.8613   -2.8489 C   0  0  0  0  0  0  0  0  0  0  0  0
   -3.1613    0.5323   -2.0899 C   0  0  0  0  0  0  0  0  0  0  0  0
   -3.5689    1.2434   -3.2361 C   0  0  0  0  0  0  0  0  0  0  0  0
   -2.9709    2.4527   -3.6001 C   0  0  0  0  0  0  0  0  0  0  0  0
   -1.9365    2.9791   -2.8361 C   0  0  0  0  0  0  0  0  0  0  0  0
   -1.5069    2.3044   -1.6975 C   0  0  0  0  0  0  0  0  0  0  0  0
   -2.1229    1.0982   -1.3171 C   0  0  0  0  0  0  0  0  0  0  0  0
   -1.6734    0.5014   -0.1147 N   0  0  0  0  0  0  0  0  0  0  0  0
   -0.4066    0.0294    0.1688 C   0  0  0  0  0  0  0  0  0  0  0  0
    0.9105    0.0003   -0.9609 S   0  0  0  0  0  0  0  0  0  0  0  0
    2.2143   -0.7395    0.0804 C   0  0  0  0  0  0  0  0  0  0  0  0
    3.5394   -0.9328   -0.6274 C   0  0  0  0  0  0  0  0  0  0  0  0
    3.6033   -1.2510   -1.9331 C   0  0  0  0  0  0  0  0  0  0  0  0
    4.8382   -1.2306   -2.7216 C   0  0  0  0  0  0  0  0  0  0  0  0
    4.8618   -1.6430   -3.8744 O   0  0  0  0  0  0  0  0  0  0  0  0
    5.9240   -0.6367   -2.1176 O   0  0  0  0  0  0  0  0  0  0  0  0
    5.9401   -0.4330   -0.7236 C   0  0  0  0  0  0  0  0  0  0  0  0
    7.1657   -0.0099   -0.2213 C   0  0  0  0  0  0  0  0  0  0  0  0
    7.3224    0.1292    1.1475 C   0  0  0  0  0  0  0  0  0  0  0  0
    6.2872   -0.2206    2.0203 C   0  0  0  0  0  0  0  0  0  0  0  0
    6.5240   -0.1323    3.4025 C   0  0  0  0  0  0  0  0  0  0  0  0
    5.5633   -0.5291    4.3257 C   0  0  0  0  0  0  0  0  0  0  0  0
    4.3608   -1.0427    3.8733 C   0  0  0  0  0  0  0  0  0  0  0  0
    4.1095   -1.1267    2.4991 C   0  0  0  0  0  0  0  0  0  0  0  0
    5.0334   -0.6790    1.5163 C   0  0  0  0  0  0  0  0  0  0  0  0
    4.8270   -0.6956    0.0927 C   0  0  0  0  0  0  0  0  0  0  0  0
   -0.3736   -0.4861    1.3743 N   0  0  0  0  0  0  0  0  0  0  0  0
   -1.6180   -0.3400    1.9230 N   0  0  0  0  0  0  0  0  0  0  0  0
   -2.3963    0.2936    1.0590 C   0  0  0  0  0  0  0  0  0  0  0  0
   -3.7731    0.6973    1.3464 C   0  0  0  0  0  0  0  0  0  0  0  0
   -4.5960   -0.1381    2.1106 C   0  0  0  0  0  0  0  0  0  0  0  0
   -5.9045    0.2417    2.4026 C   0  0  0  0  0  0  0  0  0  0  0  0
   -6.3536    1.4612    1.9278 C   0  0  0  0  0  0  0  0  0  0  0  0
   -5.5915    2.3061    1.2024 N   0  0  0  0  0  0  0  0  0  0  0  0
   -4.3212    1.9099    0.9376 C   0  0  0  0  0  0  0  0  0  0  0  0
   -5.6844   -1.7944   -1.4600 H   0  0  0  0  0  0  0  0  0  0  0  0
   -5.7300   -0.6198   -2.7752 H   0  0  0  0  0  0  0  0  0  0  0  0
   -5.6729   -0.0625   -1.0982 H   0  0  0  0  0  0  0  0  0  0  0  0
   -3.4433   -1.2116   -0.8436 H   0  0  0  0  0  0  0  0  0  0  0  0
   -3.5855   -1.6109   -3.8653 H   0  0  0  0  0  0  0  0  0  0  0  0
   -2.1674   -1.9084   -2.8491 H   0  0  0  0  0  0  0  0  0  0  0  0
   -3.6401   -2.8626   -2.6163 H   0  0  0  0  0  0  0  0  0  0  0  0
   -4.3509    0.8484   -3.8823 H   0  0  0  0  0  0  0  0  0  0  0  0
   -3.3072    2.9750   -4.4929 H   0  0  0  0  0  0  0  0  0  0  0  0
   -1.4673    3.9158   -3.1265 H   0  0  0  0  0  0  0  0  0  0  0  0
   -0.7085    2.7451   -1.1029 H   0  0  0  0  0  0  0  0  0  0  0  0
    1.8632   -1.7044    0.4607 H   0  0  0  0  0  0  0  0  0  0  0  0
    2.3274   -0.0324    0.9066 H   0  0  0  0  0  0  0  0  0  0  0  0
    2.7242   -1.4823   -2.5244 H   0  0  0  0  0  0  0  0  0  0  0  0
    7.9931    0.2007   -0.8931 H   0  0  0  0  0  0  0  0  0  0  0  0
    8.2824    0.4698    1.5305 H   0  0  0  0  0  0  0  0  0  0  0  0
    7.4772    0.2371    3.7769 H   0  0  0  0  0  0  0  0  0  0  0  0
    5.7651   -0.4602    5.3910 H   0  0  0  0  0  0  0  0  0  0  0  0
    3.6139   -1.3907    4.5829 H   0  0  0  0  0  0  0  0  0  0  0  0
    3.1724   -1.5966    2.2227 H   0  0  0  0  0  0  0  0  0  0  0  0
   -4.2188   -1.0887    2.4831 H   0  0  0  0  0  0  0  0  0  0  0  0
   -6.5536   -0.3976    2.9906 H   0  0  0  0  0  0  0  0  0  0  0  0
   -7.3649    1.8036    2.1282 H   0  0  0  0  0  0  0  0  0  0  0  0
   -3.7473    2.6417    0.3768 H   0  0  0  0  0  0  0  0  0  0  0  0
  1  2  1  0
  2  3  1  0
  2  4  1  0
  4  5  2  0
  5  6  1  0
  6  7  2  0
  7  8  1  0
  8  9  2  0
  9 10  1  0
 10 11  1  0
 11 12  1  0
 12 13  1  0
 13 14  1  0
 14 15  2  0
 15 16  1  0
 16 17  2  0
 16 18  1  0
 18 19  1  0
 19 20  2  0
 20 21  1  0
 21 22  2  0
 22 23  1  0
 23 24  2  0
 24 25  1  0
 25 26  2  0
 26 27  1  0
 27 28  2  0
 11 29  2  0
 29 30  1  0
 30 31  2  0
 31 32  1  0
 32 33  2  0
 33 34  1  0
 34 35  2  0
 35 36  1  0
 36 37  2  0
  9  4  1  0
 31 10  1  0
 37 32  1  0
 28 14  1  0
 28 19  1  0
 27 22  1  0
  1 38  1  0
  1 39  1  0
  1 40  1  0
  2 41  1  0
  3 42  1  0
  3 43  1  0
  3 44  1  0
  5 45  1  0
  6 46  1  0
  7 47  1  0
  8 48  1  0
 13 49  1  0
 13 50  1  0
 15 51  1  0
 20 52  1  0
 21 53  1  0
 23 54  1  0
 24 55  1  0
 25 56  1  0
 26 57  1  0
 33 58  1  0
 34 59  1  0
 35 60  1  0
 37 61  1  0
M  END
$$$$
