
     RDKit          3D

 74 75  0  0  0  0  0  0  0  0999 V2000
   -3.6784    5.1707    1.2148 C   0  0  0  0  0  0  0  0  0  0  0  0
   -3.1023    4.2187    0.3168 O   0  0  0  0  0  0  0  0  0  0  0  0
   -1.8830    3.7947    0.7838 C   0  0  0  0  0  0  0  0  0  0  0  0
   -0.7992    4.6729    0.7392 C   0  0  0  0  0  0  0  0  0  0  0  0
    0.4359    4.2671    1.2296 C   0  0  0  0  0  0  0  0  0  0  0  0
    0.5771    2.9892    1.7711 C   0  0  0  0  0  0  0  0  0  0  0  0
   -0.5042    2.0752    1.8164 C   0  0  0  0  0  0  0  0  0  0  0  0
   -0.2240    0.7041    2.4500 C   0  0  0  0  0  0  0  0  0  0  0  0
   -1.4287   -0.0969    3.0212 C   0  0  0  0  0  0  0  0  0  0  0  0
   -1.9124    0.1759    4.1209 O   0  0  0  0  0  0  0  0  0  0  0  0
   -1.9077   -1.1108    2.2177 N   0  0  0  0  0  0  0  0  0  0  0  0
   -3.0129   -2.0141    2.5477 C   0  0  0  0  0  0  0  0  0  0  0  0
   -3.2103   -2.9701    1.3552 C   0  0  0  0  0  0  0  0  0  0  0  0
   -2.6682   -2.8581    3.7887 C   0  0  0  0  0  0  0  0  0  0  0  0
   -4.3254   -1.2500    2.7860 C   0  0  0  0  0  0  0  0  0  0  0  0
    0.7861   -0.0929    1.6750 N   0  0  0  0  0  0  0  0  0  0  0  0
    0.4715   -0.3122    0.3286 C   0  0  0  0  0  0  0  0  0  0  0  0
   -0.6931   -0.2646   -0.0800 O   0  0  0  0  0  0  0  0  0  0  0  0
    1.5986   -0.5748   -0.6477 C   0  0  0  0  0  0  0  0  0  0  0  0
    1.0979   -0.5187   -2.0907 C   0  0  0  0  0  0  0  0  0  0  0  0
    2.2252   -0.7064   -3.0860 C   0  0  0  0  0  0  0  0  0  0  0  0
    3.4011   -0.7854   -2.7418 O   0  0  0  0  0  0  0  0  0  0  0  0
    1.7596   -0.7648   -4.3795 N   0  0  0  0  0  0  0  0  0  0  0  0
    2.5407   -0.9190   -5.5036 C   0  0  0  0  0  0  0  0  0  0  0  0
    3.9462   -0.9977   -5.6173 C   0  0  0  0  0  0  0  0  0  0  0  0
    4.1740   -1.1330   -6.9645 C   0  0  0  0  0  0  0  0  0  0  0  0
    5.3859   -1.2556   -7.7957 C   0  0  0  0  0  0  0  0  0  0  0  0
    2.9828   -1.1464   -7.6193 O   0  0  0  0  0  0  0  0  0  0  0  0
    1.9579   -0.9963   -6.7057 N   0  0  0  0  0  0  0  0  0  0  0  0
    1.8092   -0.9245    2.4283 C   0  0  0  0  0  0  0  0  0  0  0  0
    3.2486   -0.6200    1.9567 C   0  0  0  0  0  0  0  0  0  0  0  0
    1.4970   -2.4299    2.2582 C   0  0  0  0  0  0  0  0  0  0  0  0
    1.8266   -0.6727    3.9622 C   0  0  0  0  0  0  0  0  0  0  0  0
   -1.7319    2.4797    1.2667 C   0  0  0  0  0  0  0  0  0  0  0  0
   -2.7746    1.5918    1.2692 O   0  0  0  0  0  0  0  0  0  0  0  0
   -3.3504    1.4052   -0.0241 C   0  0  0  0  0  0  0  0  0  0  0  0
   -3.5225    4.9036    2.2689 H   0  0  0  0  0  0  0  0  0  0  0  0
   -3.2747    6.1705    1.0159 H   0  0  0  0  0  0  0  0  0  0  0  0
   -4.7565    5.1951    1.0275 H   0  0  0  0  0  0  0  0  0  0  0  0
   -0.9181    5.6718    0.3273 H   0  0  0  0  0  0  0  0  0  0  0  0
    1.2827    4.9480    1.2074 H   0  0  0  0  0  0  0  0  0  0  0  0
    1.5495    2.6961    2.1646 H   0  0  0  0  0  0  0  0  0  0  0  0
    0.2892    1.0096    3.3676 H   0  0  0  0  0  0  0  0  0  0  0  0
   -1.6907   -0.9756    1.2271 H   0  0  0  0  0  0  0  0  0  0  0  0
   -3.4830   -2.4154    0.4495 H   0  0  0  0  0  0  0  0  0  0  0  0
   -4.0024   -3.6997    1.5549 H   0  0  0  0  0  0  0  0  0  0  0  0
   -2.2901   -3.5245    1.1314 H   0  0  0  0  0  0  0  0  0  0  0  0
   -3.4557   -3.5912    3.9986 H   0  0  0  0  0  0  0  0  0  0  0  0
   -2.5503   -2.2402    4.6856 H   0  0  0  0  0  0  0  0  0  0  0  0
   -1.7292   -3.4057    3.6439 H   0  0  0  0  0  0  0  0  0  0  0  0
   -4.2648   -0.5986    3.6641 H   0  0  0  0  0  0  0  0  0  0  0  0
   -5.1615   -1.9420    2.9505 H   0  0  0  0  0  0  0  0  0  0  0  0
   -4.5813   -0.6209    1.9261 H   0  0  0  0  0  0  0  0  0  0  0  0
    2.3696    0.1912   -0.5024 H   0  0  0  0  0  0  0  0  0  0  0  0
    2.0267   -1.5637   -0.4728 H   0  0  0  0  0  0  0  0  0  0  0  0
    0.3499   -1.3036   -2.2575 H   0  0  0  0  0  0  0  0  0  0  0  0
    0.6254    0.4521   -2.2884 H   0  0  0  0  0  0  0  0  0  0  0  0
    0.7690   -0.7066   -4.5760 H   0  0  0  0  0  0  0  0  0  0  0  0
    4.6914   -0.9441   -4.8349 H   0  0  0  0  0  0  0  0  0  0  0  0
    6.2522   -0.8125   -7.2941 H   0  0  0  0  0  0  0  0  0  0  0  0
    5.6035   -2.3093   -7.9930 H   0  0  0  0  0  0  0  0  0  0  0  0
    5.2543   -0.7456   -8.7559 H   0  0  0  0  0  0  0  0  0  0  0  0
    3.4033    0.4583    1.8426 H   0  0  0  0  0  0  0  0  0  0  0  0
    3.4963   -1.1017    1.0116 H   0  0  0  0  0  0  0  0  0  0  0  0
    3.9910   -0.9907    2.6734 H   0  0  0  0  0  0  0  0  0  0  0  0
    2.2297   -3.0478    2.7917 H   0  0  0  0  0  0  0  0  0  0  0  0
    0.5078   -2.6713    2.6611 H   0  0  0  0  0  0  0  0  0  0  0  0
    1.5033   -2.7530    1.2145 H   0  0  0  0  0  0  0  0  0  0  0  0
    2.5612   -1.3211    4.4585 H   0  0  0  0  0  0  0  0  0  0  0  0
    2.1048    0.3605    4.2025 H   0  0  0  0  0  0  0  0  0  0  0  0
    0.8598   -0.8952    4.4269 H   0  0  0  0  0  0  0  0  0  0  0  0
   -3.6642    0.3622   -0.1042 H   0  0  0  0  0  0  0  0  0  0  0  0
   -4.2418    2.0305   -0.1323 H   0  0  0  0  0  0  0  0  0  0  0  0
   -2.6482    1.6003   -0.8410 H   0  0  0  0  0  0  0  0  0  0  0  0
  1  2  1  0
  2  3  1  0
  3  4  2  0
  4  5  1  0
  5  6  2  0
  6  7  1  0
  7  8  1  0
  8  9  1  0
  9 10  2  0
  9 11  1  0
 11 12  1  0
 12 13  1  0
 12 14  1  0
 12 15  1  0
  8 16  1  0
 16 17  1  0
 17 18  2  0
 17 19  1  0
 19 20  1  0
 20 21  1  0
 21 22  2  0
 21 23  1  0
 23 24  1  0
 24 25  1  0
 25 26  2  0
 26 27  1  0
 26 28  1  0
 28 29  1  0
 16 30  1  0
 30 31  1  0
 30 32  1  0
 30 33  1  0
  7 34  2  0
 34 35  1  0
 35 36  1  0
 34  3  1  0
 29 24  2  0
  1 37  1  0
  1 38  1  0
  1 39  1  0
  4 40  1  0
  5 41  1  0
  6 42  1  0
  8 43  1  0
 11 44  1  0
 13 45  1  0
 13 46  1  0
 13 47  1  0
 14 48  1  0
 14 49  1  0
 14 50  1  0
 15 51  1  0
 15 52  1  0
 15 53  1  0
 19 54  1  0
 19 55  1  0
 20 56  1  0
 20 57  1  0
 23 58  1  0
 25 59  1  0
 27 60  1  0
 27 61  1  0
 27 62  1  0
 31 63  1  0
 31 64  1  0
 31 65  1  0
 32 66  1  0
 32 67  1  0
 32 68  1  0
 33 69  1  0
 33 70  1  0
 33 71  1  0
 36 72  1  0
 36 73  1  0
 36 74  1  0
M  END
$$$$
