
     RDKit          3D

 57 59  0  0  0  0  0  0  0  0999 V2000
   10.4183   -1.7353   -1.0534 C   0  0  0  0  0  0  0  0  0  0  0  0
    9.7644   -1.5421   -2.3021 O   0  0  0  0  0  0  0  0  0  0  0  0
    8.6809   -0.7102   -2.3093 C   0  0  0  0  0  0  0  0  0  0  0  0
    8.0523   -0.5770   -3.5466 C   0  0  0  0  0  0  0  0  0  0  0  0
    6.9317    0.2440   -3.6876 C   0  0  0  0  0  0  0  0  0  0  0  0
    6.4250    0.9489   -2.5958 C   0  0  0  0  0  0  0  0  0  0  0  0
    5.3249    1.7067   -2.8756 O   0  0  0  0  0  0  0  0  0  0  0  0
    4.7952    2.5641   -1.8627 C   0  0  0  0  0  0  0  0  0  0  0  0
    3.8034    1.8452   -0.9476 C   0  0  0  0  0  0  0  0  0  0  0  0
    2.2787    1.3920   -1.8430 S   0  0  0  0  0  0  0  0  0  0  0  0
    1.3444    0.7364   -0.5453 C   0  0  0  0  0  0  0  0  0  0  0  0
    1.7209    0.6151    0.7048 N   0  0  0  0  0  0  0  0  0  0  0  0
    0.6816    0.0493    1.4013 N   0  0  0  0  0  0  0  0  0  0  0  0
   -0.3101   -0.1654    0.5590 C   0  0  0  0  0  0  0  0  0  0  0  0
   -1.6237   -0.7679    0.9115 C   0  0  0  0  0  0  0  0  0  0  0  0
   -2.6533    0.3064    1.2476 C   0  0  0  0  0  0  0  0  0  0  0  0
   -3.9522   -0.2711    1.5524 N   0  0  0  0  0  0  0  0  0  0  0  0
   -5.1039    0.4640    1.3489 C   0  0  0  0  0  0  0  0  0  0  0  0
   -5.1210    1.5591    0.8000 O   0  0  0  0  0  0  0  0  0  0  0  0
   -6.3633   -0.1319    1.8703 C   0  0  0  0  0  0  0  0  0  0  0  0
   -7.3961    0.7269    2.2648 C   0  0  0  0  0  0  0  0  0  0  0  0
   -8.6015    0.2084    2.7516 C   0  0  0  0  0  0  0  0  0  0  0  0
   -8.7863   -1.1722    2.8358 C   0  0  0  0  0  0  0  0  0  0  0  0
   -9.9107   -1.8079    3.2846 O   0  0  0  0  0  0  0  0  0  0  0  0
  -10.9721   -0.9825    3.7520 C   0  0  0  0  0  0  0  0  0  0  0  0
   -7.7602   -2.0270    2.4238 C   0  0  0  0  0  0  0  0  0  0  0  0
   -6.5526   -1.5149    1.9405 C   0  0  0  0  0  0  0  0  0  0  0  0
    0.0671    0.2673   -0.6917 N   0  0  0  0  0  0  0  0  0  0  0  0
   -0.7065    0.2355   -1.9056 C   0  0  0  0  0  0  0  0  0  0  0  0
    7.0514    0.8160   -1.3577 C   0  0  0  0  0  0  0  0  0  0  0  0
    8.1754   -0.0100   -1.2151 C   0  0  0  0  0  0  0  0  0  0  0  0
    9.7431   -2.1924   -0.3219 H   0  0  0  0  0  0  0  0  0  0  0  0
   11.2503   -2.4283   -1.2171 H   0  0  0  0  0  0  0  0  0  0  0  0
   10.8353   -0.7955   -0.6756 H   0  0  0  0  0  0  0  0  0  0  0  0
    8.4331   -1.1170   -4.4091 H   0  0  0  0  0  0  0  0  0  0  0  0
    6.4510    0.3350   -4.6588 H   0  0  0  0  0  0  0  0  0  0  0  0
    4.2918    3.3916   -2.3781 H   0  0  0  0  0  0  0  0  0  0  0  0
    5.5979    3.0378   -1.2842 H   0  0  0  0  0  0  0  0  0  0  0  0
    4.2413    0.9311   -0.5374 H   0  0  0  0  0  0  0  0  0  0  0  0
    3.5375    2.5123   -0.1221 H   0  0  0  0  0  0  0  0  0  0  0  0
   -1.9875   -1.4094    0.1003 H   0  0  0  0  0  0  0  0  0  0  0  0
   -1.4924   -1.4295    1.7776 H   0  0  0  0  0  0  0  0  0  0  0  0
   -2.3434    0.8867    2.1240 H   0  0  0  0  0  0  0  0  0  0  0  0
   -2.7575    1.0105    0.4144 H   0  0  0  0  0  0  0  0  0  0  0  0
   -3.9822   -0.9734    2.2814 H   0  0  0  0  0  0  0  0  0  0  0  0
   -7.2638    1.8051    2.1950 H   0  0  0  0  0  0  0  0  0  0  0  0
   -9.3751    0.9108    3.0472 H   0  0  0  0  0  0  0  0  0  0  0  0
  -11.3723   -0.3609    2.9448 H   0  0  0  0  0  0  0  0  0  0  0  0
  -11.7786   -1.6381    4.0972 H   0  0  0  0  0  0  0  0  0  0  0  0
  -10.6521   -0.3714    4.6032 H   0  0  0  0  0  0  0  0  0  0  0  0
   -7.9109   -3.1037    2.4699 H   0  0  0  0  0  0  0  0  0  0  0  0
   -5.7889   -2.2056    1.5981 H   0  0  0  0  0  0  0  0  0  0  0  0
   -0.7019    1.2308   -2.3570 H   0  0  0  0  0  0  0  0  0  0  0  0
   -1.7399   -0.0454   -1.6939 H   0  0  0  0  0  0  0  0  0  0  0  0
   -0.2583   -0.4978   -2.5808 H   0  0  0  0  0  0  0  0  0  0  0  0
    6.6921    1.3307   -0.4743 H   0  0  0  0  0  0  0  0  0  0  0  0
    8.6292   -0.0837   -0.2319 H   0  0  0  0  0  0  0  0  0  0  0  0
  1  2  1  0
  2  3  1  0
  3  4  2  0
  4  5  1  0
  5  6  2  0
  6  7  1  0
  7  8  1  0
  8  9  1  0
  9 10  1  0
 10 11  1  0
 11 12  2  0
 12 13  1  0
 13 14  2  0
 14 15  1  0
 15 16  1  0
 16 17  1  0
 17 18  1  0
 18 19  2  0
 18 20  1  0
 20 21  2  0
 21 22  1  0
 22 23  2  0
 23 24  1  0
 24 25  1  0
 23 26  1  0
 26 27  2  0
 14 28  1  0
 28 29  1  0
  6 30  1  0
 30 31  2  0
 31  3  1  0
 28 11  1  0
 27 20  1  0
  1 32  1  0
  1 33  1  0
  1 34  1  0
  4 35  1  0
  5 36  1  0
  8 37  1  0
  8 38  1  0
  9 39  1  0
  9 40  1  0
 15 41  1  0
 15 42  1  0
 16 43  1  0
 16 44  1  0
 17 45  1  0
 21 46  1  0
 22 47  1  0
 25 48  1  0
 25 49  1  0
 25 50  1  0
 26 51  1  0
 27 52  1  0
 29 53  1  0
 29 54  1  0
 29 55  1  0
 30 56  1  0
 31 57  1  0
M  END
$$$$
