
     RDKit          3D

 45 47  0  0  0  0  0  0  0  0999 V2000
   -7.6316   -0.5323   -1.3476 C   0  0  0  0  0  0  0  0  0  0  0  0
   -6.4127   -0.1932   -0.5070 C   0  0  0  0  0  0  0  0  0  0  0  0
   -5.7540   -1.4215   -0.1780 O   0  0  0  0  0  0  0  0  0  0  0  0
   -4.4261   -1.2300    0.1137 C   0  0  0  0  0  0  0  0  0  0  0  0
   -3.5207   -1.8617   -0.7422 C   0  0  0  0  0  0  0  0  0  0  0  0
   -2.1504   -1.7461   -0.5184 C   0  0  0  0  0  0  0  0  0  0  0  0
   -1.6843   -1.0132    0.5762 C   0  0  0  0  0  0  0  0  0  0  0  0
   -0.2453   -0.8823    0.8144 C   0  0  0  0  0  0  0  0  0  0  0  0
    0.5520    0.0170    0.2230 C   0  0  0  0  0  0  0  0  0  0  0  0
    0.1125    1.2269   -0.9268 S   0  0  0  0  0  0  0  0  0  0  0  0
    1.7628    1.8310   -1.0749 C   0  0  0  0  0  0  0  0  0  0  0  0
    2.1826    3.1301   -2.0321 S   0  0  0  0  0  0  0  0  0  0  0  0
    2.5769    1.0831   -0.2499 N   0  0  0  0  0  0  0  0  0  0  0  0
    3.9729    1.2650   -0.1942 N   0  0  0  0  0  0  0  0  0  0  0  0
    4.7182    0.4754   -1.0560 C   0  0  0  0  0  0  0  0  0  0  0  0
    4.2272   -0.1975   -1.9566 O   0  0  0  0  0  0  0  0  0  0  0  0
    6.1818    0.4426   -0.8073 C   0  0  0  0  0  0  0  0  0  0  0  0
    6.8938   -0.6916   -1.1973 C   0  0  0  0  0  0  0  0  0  0  0  0
    8.2553   -0.7152   -0.9624 C   0  0  0  0  0  0  0  0  0  0  0  0
    8.9306    0.3011   -0.3845 N   0  0  0  0  0  0  0  0  0  0  0  0
    8.2209    1.3953   -0.0376 C   0  0  0  0  0  0  0  0  0  0  0  0
    6.8554    1.5171   -0.2251 C   0  0  0  0  0  0  0  0  0  0  0  0
    2.0069    0.0877    0.5234 C   0  0  0  0  0  0  0  0  0  0  0  0
    2.5827   -0.5978    1.3586 O   0  0  0  0  0  0  0  0  0  0  0  0
   -2.5964   -0.4045    1.4517 C   0  0  0  0  0  0  0  0  0  0  0  0
   -3.9755   -0.5140    1.2356 C   0  0  0  0  0  0  0  0  0  0  0  0
   -4.9350    0.0217    2.0518 O   0  0  0  0  0  0  0  0  0  0  0  0
   -4.5028    0.7219    3.2089 C   0  0  0  0  0  0  0  0  0  0  0  0
   -8.1739    0.3743   -1.6290 H   0  0  0  0  0  0  0  0  0  0  0  0
   -8.3096   -1.1924   -0.7941 H   0  0  0  0  0  0  0  0  0  0  0  0
   -7.3352   -1.0685   -2.2564 H   0  0  0  0  0  0  0  0  0  0  0  0
   -5.7547    0.4746   -1.0793 H   0  0  0  0  0  0  0  0  0  0  0  0
   -6.7407    0.3136    0.4064 H   0  0  0  0  0  0  0  0  0  0  0  0
   -3.8882   -2.4355   -1.5889 H   0  0  0  0  0  0  0  0  0  0  0  0
   -1.4567   -2.2306   -1.2016 H   0  0  0  0  0  0  0  0  0  0  0  0
    0.1643   -1.5893    1.5340 H   0  0  0  0  0  0  0  0  0  0  0  0
    4.3362    1.4271    0.7395 H   0  0  0  0  0  0  0  0  0  0  0  0
    6.4009   -1.5358   -1.6690 H   0  0  0  0  0  0  0  0  0  0  0  0
    8.8582   -1.5753   -1.2412 H   0  0  0  0  0  0  0  0  0  0  0  0
    8.8020    2.2004    0.4039 H   0  0  0  0  0  0  0  0  0  0  0  0
    6.3562    2.4378    0.0513 H   0  0  0  0  0  0  0  0  0  0  0  0
   -2.2049    0.1476    2.2996 H   0  0  0  0  0  0  0  0  0  0  0  0
   -5.3928    1.0760    3.7367 H   0  0  0  0  0  0  0  0  0  0  0  0
   -3.9062    1.5998    2.9406 H   0  0  0  0  0  0  0  0  0  0  0  0
   -3.9527    0.0612    3.8869 H   0  0  0  0  0  0  0  0  0  0  0  0
  1  2  1  0
  2  3  1  0
  3  4  1  0
  4  5  2  0
  5  6  1  0
  6  7  2  0
  7  8  1  0
  8  9  2  3
  9 10  1  0
 10 11  1  0
 11 12  2  0
 11 13  1  0
 13 14  1  0
 14 15  1  0
 15 16  2  0
 15 17  1  0
 17 18  2  0
 18 19  1  0
 19 20  2  0
 20 21  1  0
 21 22  2  0
 13 23  1  0
 23 24  2  0
  7 25  1  0
 25 26  2  0
 26 27  1  0
 27 28  1  0
 26  4  1  0
 23  9  1  0
 22 17  1  0
  1 29  1  0
  1 30  1  0
  1 31  1  0
  2 32  1  0
  2 33  1  0
  5 34  1  0
  6 35  1  0
  8 36  1  0
 14 37  1  0
 18 38  1  0
 19 39  1  0
 21 40  1  0
 22 41  1  0
 25 42  1  0
 28 43  1  0
 28 44  1  0
 28 45  1  0
M  END
$$$$
