
     RDKit          3D

 57 60  0  0  0  0  0  0  0  0999 V2000
   -2.3411   -2.1298    3.7369 C   0  0  0  0  0  0  0  0  0  0  0  0
   -1.9463   -0.9362    3.0743 O   0  0  0  0  0  0  0  0  0  0  0  0
   -0.6397   -0.8100    2.7006 C   0  0  0  0  0  0  0  0  0  0  0  0
    0.3156   -1.8226    2.8313 C   0  0  0  0  0  0  0  0  0  0  0  0
    1.6363   -1.6181    2.4118 C   0  0  0  0  0  0  0  0  0  0  0  0
    2.0328   -0.3969    1.8540 C   0  0  0  0  0  0  0  0  0  0  0  0
    3.4567   -0.2444    1.4306 C   0  0  0  0  0  0  0  0  0  0  0  0
    4.2985   -1.0398    1.8349 O   0  0  0  0  0  0  0  0  0  0  0  0
    3.7482    0.7890    0.5659 N   0  0  0  0  0  0  0  0  0  0  0  0
    5.0693    0.9548    0.0011 C   0  0  0  0  0  0  0  0  0  0  0  0
    5.0769    0.5337   -1.4468 C   0  0  0  0  0  0  0  0  0  0  0  0
    4.9683    1.4982   -2.4754 C   0  0  0  0  0  0  0  0  0  0  0  0
    4.9461    1.1150   -3.8201 C   0  0  0  0  0  0  0  0  0  0  0  0
    5.0273   -0.2304   -4.1051 C   0  0  0  0  0  0  0  0  0  0  0  0
    5.1267   -1.1765   -3.1127 C   0  0  0  0  0  0  0  0  0  0  0  0
    5.1515   -0.8299   -1.7789 C   0  0  0  0  0  0  0  0  0  0  0  0
    5.1899   -2.4416   -3.6067 O   0  0  0  0  0  0  0  0  0  0  0  0
    5.1281   -2.1825   -5.0241 C   0  0  0  0  0  0  0  0  0  0  0  0
    5.0164   -0.7808   -5.3485 O   0  0  0  0  0  0  0  0  0  0  0  0
    1.0908    0.6266    1.7344 C   0  0  0  0  0  0  0  0  0  0  0  0
   -0.2377    0.4107    2.1420 C   0  0  0  0  0  0  0  0  0  0  0  0
   -1.3987    1.7414    1.9310 S   0  0  0  0  0  6  0  0  0  0  0  0
   -0.7573    2.7570    1.1163 O   0  0  0  0  0  0  0  0  0  0  0  0
   -1.9222    2.0797    3.2364 O   0  0  0  0  0  0  0  0  0  0  0  0
   -2.6402    1.0785    0.9693 N   0  0  0  0  0  0  0  0  0  0  0  0
   -2.2291    0.6516   -0.3868 C   0  0  0  0  0  0  0  0  0  0  0  0
   -3.8621    1.9259    0.9490 C   0  0  0  0  0  0  0  0  0  0  0  0
   -5.1048    1.1524    0.5629 C   0  0  0  0  0  0  0  0  0  0  0  0
   -5.5109    0.0500    1.3303 C   0  0  0  0  0  0  0  0  0  0  0  0
   -6.6603   -0.6648    0.9922 C   0  0  0  0  0  0  0  0  0  0  0  0
   -7.4153   -0.2856   -0.1160 C   0  0  0  0  0  0  0  0  0  0  0  0
   -7.0210    0.8066   -0.8877 C   0  0  0  0  0  0  0  0  0  0  0  0
   -5.8715    1.5242   -0.5501 C   0  0  0  0  0  0  0  0  0  0  0  0
   -3.4019   -2.0362    3.9880 H   0  0  0  0  0  0  0  0  0  0  0  0
   -2.2300   -2.9999    3.0813 H   0  0  0  0  0  0  0  0  0  0  0  0
   -1.7871   -2.2629    4.6712 H   0  0  0  0  0  0  0  0  0  0  0  0
    0.0705   -2.7921    3.2541 H   0  0  0  0  0  0  0  0  0  0  0  0
    2.3600   -2.4251    2.5248 H   0  0  0  0  0  0  0  0  0  0  0  0
    3.0057    1.3076    0.1200 H   0  0  0  0  0  0  0  0  0  0  0  0
    5.3277    2.0156    0.0911 H   0  0  0  0  0  0  0  0  0  0  0  0
    5.8193    0.3896    0.5655 H   0  0  0  0  0  0  0  0  0  0  0  0
    4.9015    2.5561   -2.2278 H   0  0  0  0  0  0  0  0  0  0  0  0
    4.8664    1.8492   -4.6136 H   0  0  0  0  0  0  0  0  0  0  0  0
    5.2225   -1.5936   -1.0095 H   0  0  0  0  0  0  0  0  0  0  0  0
    4.2599   -2.7076   -5.4386 H   0  0  0  0  0  0  0  0  0  0  0  0
    6.0355   -2.5798   -5.4932 H   0  0  0  0  0  0  0  0  0  0  0  0
    1.3744    1.6020    1.3523 H   0  0  0  0  0  0  0  0  0  0  0  0
   -2.0422    1.5136   -1.0331 H   0  0  0  0  0  0  0  0  0  0  0  0
   -3.0099    0.0354   -0.8423 H   0  0  0  0  0  0  0  0  0  0  0  0
   -1.3313    0.0303   -0.3494 H   0  0  0  0  0  0  0  0  0  0  0  0
   -4.0584    2.3509    1.9406 H   0  0  0  0  0  0  0  0  0  0  0  0
   -3.7074    2.7710    0.2658 H   0  0  0  0  0  0  0  0  0  0  0  0
   -4.9235   -0.2521    2.1957 H   0  0  0  0  0  0  0  0  0  0  0  0
   -6.9671   -1.5147    1.5949 H   0  0  0  0  0  0  0  0  0  0  0  0
   -8.3124   -0.8411   -0.3776 H   0  0  0  0  0  0  0  0  0  0  0  0
   -7.6121    1.1029   -1.7497 H   0  0  0  0  0  0  0  0  0  0  0  0
   -5.5815    2.3755   -1.1610 H   0  0  0  0  0  0  0  0  0  0  0  0
  1  2  1  0
  2  3  1  0
  3  4  2  0
  4  5  1  0
  5  6  2  0
  6  7  1  0
  7  8  2  0
  7  9  1  0
  9 10  1  0
 10 11  1  0
 11 12  2  0
 12 13  1  0
 13 14  2  0
 14 15  1  0
 15 16  2  0
 15 17  1  0
 17 18  1  0
 18 19  1  0
  6 20  1  0
 20 21  2  0
 21 22  1  0
 22 23  2  0
 22 24  2  0
 22 25  1  0
 25 26  1  0
 25 27  1  0
 27 28  1  0
 28 29  2  0
 29 30  1  0
 30 31  2  0
 31 32  1  0
 32 33  2  0
 21  3  1  0
 33 28  1  0
 16 11  1  0
 19 14  1  0
  1 34  1  0
  1 35  1  0
  1 36  1  0
  4 37  1  0
  5 38  1  0
  9 39  1  0
 10 40  1  0
 10 41  1  0
 12 42  1  0
 13 43  1  0
 16 44  1  0
 18 45  1  0
 18 46  1  0
 20 47  1  0
 26 48  1  0
 26 49  1  0
 26 50  1  0
 27 51  1  0
 27 52  1  0
 29 53  1  0
 30 54  1  0
 31 55  1  0
 32 56  1  0
 33 57  1  0
M  END
$$$$
