
     RDKit          3D

 60 63  0  0  0  0  0  0  0  0999 V2000
    8.7413   -0.1140    1.0724 C   0  0  0  0  0  0  0  0  0  0  0  0
    8.4146   -1.5294    0.6210 C   0  0  0  0  0  0  0  0  0  0  0  0
    7.0955   -1.8911    1.0293 O   0  0  0  0  0  0  0  0  0  0  0  0
    6.0736   -1.7239    0.1361 C   0  0  0  0  0  0  0  0  0  0  0  0
    4.8853   -2.3734    0.4819 C   0  0  0  0  0  0  0  0  0  0  0  0
    3.7592   -2.2943   -0.3419 C   0  0  0  0  0  0  0  0  0  0  0  0
    3.8070   -1.5539   -1.5299 C   0  0  0  0  0  0  0  0  0  0  0  0
    2.5993   -1.4434   -2.4231 C   0  0  0  0  0  0  0  0  0  0  0  0
    1.8173   -0.2770   -2.0950 N   0  0  0  0  0  0  0  0  0  0  0  0
    1.9689    0.9243   -2.7531 C   0  0  0  0  0  0  0  0  0  0  0  0
    2.7349    1.0768   -3.7019 O   0  0  0  0  0  0  0  0  0  0  0  0
    1.2064    2.0985   -2.1355 C   0  0  0  0  0  0  0  0  0  0  0  0
    0.1196    1.6691   -1.2545 N   0  0  0  0  0  0  0  0  0  0  0  0
    0.4752    1.3741    0.0692 N   0  0  0  0  0  0  0  0  0  0  0  0
   -0.4213    0.9967    0.9383 C   0  0  0  0  0  0  0  0  0  0  0  0
    0.0224    0.7251    2.3465 C   0  0  0  0  0  0  0  0  0  0  0  0
   -1.7918    0.8416    0.5186 C   0  0  0  0  0  0  0  0  0  0  0  0
   -2.9482    0.4038    1.1440 C   0  0  0  0  0  0  0  0  0  0  0  0
   -3.1349   -0.2024    2.4880 C   0  0  0  0  0  0  0  0  0  0  0  0
   -3.9709    0.5905    0.2043 N   0  0  0  0  0  0  0  0  0  0  0  0
   -5.3923    0.5320    0.3484 C   0  0  0  0  0  0  0  0  0  0  0  0
   -6.1870    0.4341   -0.8064 C   0  0  0  0  0  0  0  0  0  0  0  0
   -7.5817    0.3850   -0.7133 C   0  0  0  0  0  0  0  0  0  0  0  0
   -8.2116    0.4601    0.5316 C   0  0  0  0  0  0  0  0  0  0  0  0
   -9.7050    0.3834    0.6308 C   0  0  0  0  0  0  0  0  0  0  0  0
   -7.4240    0.5689    1.6819 C   0  0  0  0  0  0  0  0  0  0  0  0
   -6.0263    0.6172    1.5926 C   0  0  0  0  0  0  0  0  0  0  0  0
   -3.4525    0.8811   -1.0207 N   0  0  0  0  0  0  0  0  0  0  0  0
   -2.1551    1.1068   -0.8062 C   0  0  0  0  0  0  0  0  0  0  0  0
   -1.1768    1.5405   -1.7953 C   0  0  0  0  0  0  0  0  0  0  0  0
   -1.4475    1.7708   -2.9712 O   0  0  0  0  0  0  0  0  0  0  0  0
    4.9919   -0.8802   -1.8587 C   0  0  0  0  0  0  0  0  0  0  0  0
    6.1184   -0.9662   -1.0335 C   0  0  0  0  0  0  0  0  0  0  0  0
    9.7849    0.1303    0.8541 H   0  0  0  0  0  0  0  0  0  0  0  0
    8.1022    0.6218    0.5759 H   0  0  0  0  0  0  0  0  0  0  0  0
    8.5681   -0.0091    2.1496 H   0  0  0  0  0  0  0  0  0  0  0  0
    8.5865   -1.6770   -0.4526 H   0  0  0  0  0  0  0  0  0  0  0  0
    9.0947   -2.2223    1.1310 H   0  0  0  0  0  0  0  0  0  0  0  0
    4.8405   -2.9527    1.4000 H   0  0  0  0  0  0  0  0  0  0  0  0
    2.8506   -2.8176   -0.0512 H   0  0  0  0  0  0  0  0  0  0  0  0
    1.9523   -2.3173   -2.2936 H   0  0  0  0  0  0  0  0  0  0  0  0
    2.9036   -1.4189   -3.4746 H   0  0  0  0  0  0  0  0  0  0  0  0
    1.3963   -0.2205   -1.1745 H   0  0  0  0  0  0  0  0  0  0  0  0
    1.9113    2.6996   -1.5538 H   0  0  0  0  0  0  0  0  0  0  0  0
    0.8063    2.7116   -2.9455 H   0  0  0  0  0  0  0  0  0  0  0  0
    1.0365    1.1056    2.5041 H   0  0  0  0  0  0  0  0  0  0  0  0
   -0.6478    1.2173    3.0554 H   0  0  0  0  0  0  0  0  0  0  0  0
    0.0261   -0.3529    2.5271 H   0  0  0  0  0  0  0  0  0  0  0  0
   -3.3254    0.5687    3.2400 H   0  0  0  0  0  0  0  0  0  0  0  0
   -3.9467   -0.9346    2.4979 H   0  0  0  0  0  0  0  0  0  0  0  0
   -2.2413   -0.7538    2.7928 H   0  0  0  0  0  0  0  0  0  0  0  0
   -5.7335    0.3842   -1.7962 H   0  0  0  0  0  0  0  0  0  0  0  0
   -8.1711    0.2946   -1.6241 H   0  0  0  0  0  0  0  0  0  0  0  0
  -10.1775    0.8749   -0.2257 H   0  0  0  0  0  0  0  0  0  0  0  0
  -10.0647    0.8889    1.5335 H   0  0  0  0  0  0  0  0  0  0  0  0
  -10.0260   -0.6625    0.6619 H   0  0  0  0  0  0  0  0  0  0  0  0
   -7.8955    0.6354    2.6602 H   0  0  0  0  0  0  0  0  0  0  0  0
   -5.4799    0.7686    2.5151 H   0  0  0  0  0  0  0  0  0  0  0  0
    5.0393   -0.2765   -2.7648 H   0  0  0  0  0  0  0  0  0  0  0  0
    7.0061   -0.4172   -1.3306 H   0  0  0  0  0  0  0  0  0  0  0  0
  1  2  1  0
  2  3  1  0
  3  4  1  0
  4  5  2  0
  5  6  1  0
  6  7  2  0
  7  8  1  0
  8  9  1  0
  9 10  1  0
 10 11  2  0
 10 12  1  0
 12 13  1  0
 13 14  1  0
 14 15  2  0
 15 16  1  0
 15 17  1  0
 17 18  2  0
 18 19  1  0
 18 20  1  0
 20 21  1  0
 21 22  2  0
 22 23  1  0
 23 24  2  0
 24 25  1  0
 24 26  1  0
 26 27  2  0
 20 28  1  0
 28 29  2  0
 29 30  1  0
 30 31  2  0
  7 32  1  0
 32 33  2  0
 33  4  1  0
 30 13  1  0
 29 17  1  0
 27 21  1  0
  1 34  1  0
  1 35  1  0
  1 36  1  0
  2 37  1  0
  2 38  1  0
  5 39  1  0
  6 40  1  0
  8 41  1  0
  8 42  1  0
  9 43  1  0
 12 44  1  0
 12 45  1  0
 16 46  1  0
 16 47  1  0
 16 48  1  0
 19 49  1  0
 19 50  1  0
 19 51  1  0
 22 52  1  0
 23 53  1  0
 25 54  1  0
 25 55  1  0
 25 56  1  0
 26 57  1  0
 27 58  1  0
 32 59  1  0
 33 60  1  0
M  END
$$$$
