
     RDKit          3D

 52 55  0  0  0  0  0  0  0  0999 V2000
   -6.3682    3.7012   -0.0115 C   0  0  0  0  0  0  0  0  0  0  0  0
   -6.6868    2.4725    0.8287 C   0  0  0  0  0  0  0  0  0  0  0  0
   -5.4468    1.6294    1.1198 C   0  0  0  0  0  0  0  0  0  0  0  0
   -4.9353    1.1218   -0.1118 O   0  0  0  0  0  0  0  0  0  0  0  0
   -3.7947    0.3703   -0.0495 C   0  0  0  0  0  0  0  0  0  0  0  0
   -3.2935   -0.0316   -1.2896 C   0  0  0  0  0  0  0  0  0  0  0  0
   -2.1321   -0.8038   -1.3743 C   0  0  0  0  0  0  0  0  0  0  0  0
   -1.4624   -1.1934   -0.2103 C   0  0  0  0  0  0  0  0  0  0  0  0
   -0.2479   -1.9956   -0.2906 C   0  0  0  0  0  0  0  0  0  0  0  0
    1.0818   -1.6192   -0.1499 C   0  0  0  0  0  0  0  0  0  0  0  0
    1.6371   -0.3000    0.1459 C   0  0  0  0  0  0  0  0  0  0  0  0
    0.9398    0.6853    0.3639 O   0  0  0  0  0  0  0  0  0  0  0  0
    3.0263   -0.3115    0.1556 N   0  0  0  0  0  0  0  0  0  0  0  0
    3.7329    0.8240    0.4182 N   0  0  0  0  0  0  0  0  0  0  0  0
    5.0210    0.6949    0.3963 C   0  0  0  0  0  0  0  0  0  0  0  0
    5.9212    1.8347    0.6604 C   0  0  0  0  0  0  0  0  0  0  0  0
    7.3032    1.6263    0.6242 C   0  0  0  0  0  0  0  0  0  0  0  0
    8.1699    2.6926    0.8713 C   0  0  0  0  0  0  0  0  0  0  0  0
    7.6570    3.9598    1.1528 C   0  0  0  0  0  0  0  0  0  0  0  0
    6.2774    4.1656    1.1883 C   0  0  0  0  0  0  0  0  0  0  0  0
    5.4064    3.1035    0.9422 C   0  0  0  0  0  0  0  0  0  0  0  0
    1.8867   -2.7129   -0.3459 N   0  0  0  0  0  0  0  0  0  0  0  0
    1.1175   -3.7560   -0.5944 N   0  0  0  0  0  0  0  0  0  0  0  0
   -0.1938   -3.3690   -0.5465 N   0  0  0  0  0  0  0  0  0  0  0  0
   -1.2437   -4.3082   -0.7156 C   0  0  0  0  0  0  0  0  0  0  0  0
   -2.5215   -3.9541   -0.5789 N   0  0  0  0  0  0  0  0  0  0  0  0
   -3.2287   -5.1346   -0.7943 O   0  0  0  0  0  0  0  0  0  0  0  0
   -2.3692   -6.1976   -1.0515 N   0  0  0  0  0  0  0  0  0  0  0  0
   -1.1418   -5.6816   -1.0083 C   0  0  0  0  0  0  0  0  0  0  0  0
   -0.0150   -6.3895   -1.2176 N   0  0  0  0  0  0  0  0  0  0  0  0
   -1.9607   -0.7863    1.0318 C   0  0  0  0  0  0  0  0  0  0  0  0
   -3.1230   -0.0097    1.1120 C   0  0  0  0  0  0  0  0  0  0  0  0
   -7.2751    4.2921   -0.1743 H   0  0  0  0  0  0  0  0  0  0  0  0
   -5.9686    3.4216   -0.9914 H   0  0  0  0  0  0  0  0  0  0  0  0
   -5.6334    4.3387    0.4905 H   0  0  0  0  0  0  0  0  0  0  0  0
   -7.1399    2.7897    1.7744 H   0  0  0  0  0  0  0  0  0  0  0  0
   -7.4250    1.8661    0.2910 H   0  0  0  0  0  0  0  0  0  0  0  0
   -5.7365    0.7970    1.7721 H   0  0  0  0  0  0  0  0  0  0  0  0
   -4.6935    2.2487    1.6217 H   0  0  0  0  0  0  0  0  0  0  0  0
   -3.8102    0.2647   -2.1991 H   0  0  0  0  0  0  0  0  0  0  0  0
   -1.7628   -1.0925   -2.3548 H   0  0  0  0  0  0  0  0  0  0  0  0
    3.5103   -1.1831   -0.0376 H   0  0  0  0  0  0  0  0  0  0  0  0
    5.5027   -0.2756    0.1787 H   0  0  0  0  0  0  0  0  0  0  0  0
    7.7162    0.6454    0.4062 H   0  0  0  0  0  0  0  0  0  0  0  0
    9.2458    2.5380    0.8447 H   0  0  0  0  0  0  0  0  0  0  0  0
    8.3332    4.7895    1.3448 H   0  0  0  0  0  0  0  0  0  0  0  0
    5.8785    5.1530    1.4072 H   0  0  0  0  0  0  0  0  0  0  0  0
    4.3314    3.2705    0.9708 H   0  0  0  0  0  0  0  0  0  0  0  0
   -0.0665   -7.4030   -1.2106 H   0  0  0  0  0  0  0  0  0  0  0  0
    0.8978   -6.0115   -0.9705 H   0  0  0  0  0  0  0  0  0  0  0  0
   -1.4465   -1.0596    1.9502 H   0  0  0  0  0  0  0  0  0  0  0  0
   -3.4708    0.2832    2.0966 H   0  0  0  0  0  0  0  0  0  0  0  0
  1  2  1  0
  2  3  1  0
  3  4  1  0
  4  5  1  0
  5  6  2  0
  6  7  1  0
  7  8  2  0
  8  9  1  0
  9 10  2  0
 10 11  1  0
 11 12  2  0
 11 13  1  0
 13 14  1  0
 14 15  2  3
 15 16  1  0
 16 17  2  0
 17 18  1  0
 18 19  2  0
 19 20  1  0
 20 21  2  0
 10 22  1  0
 22 23  2  0
 23 24  1  0
 24 25  1  0
 25 26  2  0
 26 27  1  0
 27 28  1  0
 28 29  2  0
 29 30  1  0
  8 31  1  0
 31 32  2  0
 32  5  1  0
 24  9  1  0
 29 25  1  0
 21 16  1  0
  1 33  1  0
  1 34  1  0
  1 35  1  0
  2 36  1  0
  2 37  1  0
  3 38  1  0
  3 39  1  0
  6 40  1  0
  7 41  1  0
 13 42  1  0
 15 43  1  0
 17 44  1  0
 18 45  1  0
 19 46  1  0
 20 47  1  0
 21 48  1  0
 30 49  1  0
 30 50  1  0
 31 51  1  0
 32 52  1  0
M  END
$$$$
