
     RDKit          3D

 51 54  0  0  0  0  0  0  0  0999 V2000
   -6.6341   -1.6986    1.1291 C   0  0  0  0  0  0  0  0  0  0  0  0
   -6.6439   -0.8950   -0.1598 C   0  0  0  0  0  0  0  0  0  0  0  0
   -5.7836    0.2900   -0.0603 N   0  0  0  0  0  0  0  0  0  0  0  0
   -6.4347    1.5065    0.4561 C   0  0  0  0  0  0  0  0  0  0  0  0
   -6.9573    2.3682   -0.6833 C   0  0  0  0  0  0  0  0  0  0  0  0
   -4.4148    0.2412   -0.3009 C   0  0  0  0  0  0  0  0  0  0  0  0
   -3.7387   -0.9646   -0.5633 C   0  0  0  0  0  0  0  0  0  0  0  0
   -2.3506   -1.0281   -0.7771 C   0  0  0  0  0  0  0  0  0  0  0  0
   -1.5862    0.1301   -0.7482 C   0  0  0  0  0  0  0  0  0  0  0  0
   -0.1464    0.1246   -0.9317 C   0  0  0  0  0  0  0  0  0  0  0  0
    0.5463    1.2729   -0.9124 C   0  0  0  0  0  0  0  0  0  0  0  0
    1.9621    1.2125   -1.0648 C   0  0  0  0  0  0  0  0  0  0  0  0
    2.7810    0.4651   -0.3441 N   0  0  0  0  0  0  0  0  0  0  0  0
    4.0916    0.5964   -0.7733 C   0  0  0  0  0  0  0  0  0  0  0  0
    5.1737   -0.1092   -0.1039 C   0  0  0  0  0  0  0  0  0  0  0  0
    6.3050   -0.5595   -0.7977 C   0  0  0  0  0  0  0  0  0  0  0  0
    7.3244   -1.2453   -0.1292 C   0  0  0  0  0  0  0  0  0  0  0  0
    7.2258   -1.4905    1.2430 C   0  0  0  0  0  0  0  0  0  0  0  0
    8.1400   -2.1556    2.0104 O   0  0  0  0  0  0  0  0  0  0  0  0
    9.2939   -2.6595    1.3527 C   0  0  0  0  0  0  0  0  0  0  0  0
    6.1011   -1.0419    1.9363 C   0  0  0  0  0  0  0  0  0  0  0  0
    5.0799   -0.3609    1.2686 C   0  0  0  0  0  0  0  0  0  0  0  0
    4.2628    1.4474   -1.8452 C   0  0  0  0  0  0  0  0  0  0  0  0
    2.7520    2.0908   -2.3324 S   0  0  0  0  0  0  0  0  0  0  0  0
   -0.1283    2.5757   -0.6829 C   0  0  0  0  0  0  0  0  0  0  0  0
    0.4764    3.6416   -0.6358 O   0  0  0  0  0  0  0  0  0  0  0  0
   -1.5110    2.5370   -0.5045 O   0  0  0  0  0  0  0  0  0  0  0  0
   -2.2326    1.3289   -0.5240 C   0  0  0  0  0  0  0  0  0  0  0  0
   -3.6126    1.3969   -0.3065 C   0  0  0  0  0  0  0  0  0  0  0  0
   -6.9174   -1.0809    1.9867 H   0  0  0  0  0  0  0  0  0  0  0  0
   -7.3416   -2.5283    1.0611 H   0  0  0  0  0  0  0  0  0  0  0  0
   -5.6450   -2.1246    1.3337 H   0  0  0  0  0  0  0  0  0  0  0  0
   -6.3678   -1.5166   -1.0123 H   0  0  0  0  0  0  0  0  0  0  0  0
   -7.6747   -0.5819   -0.3595 H   0  0  0  0  0  0  0  0  0  0  0  0
   -7.2824    1.2276    1.0948 H   0  0  0  0  0  0  0  0  0  0  0  0
   -5.7717    2.0851    1.1108 H   0  0  0  0  0  0  0  0  0  0  0  0
   -6.1483    2.7128   -1.3347 H   0  0  0  0  0  0  0  0  0  0  0  0
   -7.4730    3.2432   -0.2815 H   0  0  0  0  0  0  0  0  0  0  0  0
   -7.6630    1.8099   -1.3021 H   0  0  0  0  0  0  0  0  0  0  0  0
   -4.2764   -1.9039   -0.5971 H   0  0  0  0  0  0  0  0  0  0  0  0
   -1.8926   -1.9955   -0.9595 H   0  0  0  0  0  0  0  0  0  0  0  0
    0.3501   -0.8305   -1.0672 H   0  0  0  0  0  0  0  0  0  0  0  0
    6.4043   -0.4008   -1.8723 H   0  0  0  0  0  0  0  0  0  0  0  0
    8.1770   -1.5785   -0.7121 H   0  0  0  0  0  0  0  0  0  0  0  0
    9.9082   -3.1829    2.0947 H   0  0  0  0  0  0  0  0  0  0  0  0
    9.0229   -3.3819    0.5821 H   0  0  0  0  0  0  0  0  0  0  0  0
    9.8924   -1.8489    0.9387 H   0  0  0  0  0  0  0  0  0  0  0  0
    6.0125   -1.2258    3.0050 H   0  0  0  0  0  0  0  0  0  0  0  0
    4.2102   -0.0256    1.8313 H   0  0  0  0  0  0  0  0  0  0  0  0
    5.1734    1.7317   -2.3507 H   0  0  0  0  0  0  0  0  0  0  0  0
   -4.0387    2.3794   -0.1498 H   0  0  0  0  0  0  0  0  0  0  0  0
  1  2  1  0
  2  3  1  0
  3  4  1  0
  4  5  1  0
  3  6  1  0
  6  7  2  0
  7  8  1  0
  8  9  2  0
  9 10  1  0
 10 11  2  0
 11 12  1  0
 12 13  2  0
 13 14  1  0
 14 15  1  0
 15 16  2  0
 16 17  1  0
 17 18  2  0
 18 19  1  0
 19 20  1  0
 18 21  1  0
 21 22  2  0
 14 23  2  0
 23 24  1  0
 11 25  1  0
 25 26  2  0
 25 27  1  0
 27 28  1  0
 28 29  2  0
 29  6  1  0
 28  9  1  0
 24 12  1  0
 22 15  1  0
  1 30  1  0
  1 31  1  0
  1 32  1  0
  2 33  1  0
  2 34  1  0
  4 35  1  0
  4 36  1  0
  5 37  1  0
  5 38  1  0
  5 39  1  0
  7 40  1  0
  8 41  1  0
 10 42  1  0
 16 43  1  0
 17 44  1  0
 20 45  1  0
 20 46  1  0
 20 47  1  0
 21 48  1  0
 22 49  1  0
 23 50  1  0
 29 51  1  0
M  END
$$$$
