
     RDKit          3D

 32 32  0  0  0  0  0  0  0  0999 V2000
   -5.1207   -0.7787    0.8555 C   0  0  0  0  0  0  0  0  0  0  0  0
   -3.9582   -1.0406    0.7033 C   0  0  0  0  0  0  0  0  0  0  0  0
   -2.5331   -1.3664    0.5233 C   0  0  0  0  0  0  0  0  0  0  0  0
   -1.8434   -0.5694   -0.5067 N   0  0  0  0  0  0  0  0  0  0  0  0
   -2.3999   -0.8139   -1.8374 C   0  0  0  0  0  0  0  0  0  0  0  0
   -1.8121    0.8614   -0.1588 C   0  0  0  0  0  0  0  0  0  0  0  0
   -0.8021    1.6810   -0.9768 C   0  0  0  0  0  0  0  0  0  0  0  0
    0.6347    1.1852   -0.8327 C   0  0  0  0  0  0  0  0  0  0  0  0
    1.0376    1.3252    0.5370 O   0  0  0  0  0  0  0  0  0  0  0  0
    2.1871    0.6199    0.7759 C   0  0  0  0  0  0  0  0  0  0  0  0
    2.0818   -0.7410    1.0734 C   0  0  0  0  0  0  0  0  0  0  0  0
    3.2310   -1.4772    1.3624 C   0  0  0  0  0  0  0  0  0  0  0  0
    4.4748   -0.8447    1.3675 C   0  0  0  0  0  0  0  0  0  0  0  0
    5.8901   -1.7563    1.7249 Cl  0  0  0  0  0  0  0  0  0  0  0  0
    4.5831    0.5180    1.0921 C   0  0  0  0  0  0  0  0  0  0  0  0
    3.4336    1.2541    0.8029 C   0  0  0  0  0  0  0  0  0  0  0  0
    3.5913    2.9417    0.4797 Cl  0  0  0  0  0  0  0  0  0  0  0  0
   -6.1514   -0.5443    0.9905 H   0  0  0  0  0  0  0  0  0  0  0  0
   -2.0082   -1.2452    1.4793 H   0  0  0  0  0  0  0  0  0  0  0  0
   -2.4326   -2.4309    0.2767 H   0  0  0  0  0  0  0  0  0  0  0  0
   -2.4396   -1.8886   -2.0491 H   0  0  0  0  0  0  0  0  0  0  0  0
   -1.7613   -0.3800   -2.6134 H   0  0  0  0  0  0  0  0  0  0  0  0
   -3.4082   -0.4023   -1.9567 H   0  0  0  0  0  0  0  0  0  0  0  0
   -2.8054    1.3132   -0.2775 H   0  0  0  0  0  0  0  0  0  0  0  0
   -1.5465    0.9731    0.9005 H   0  0  0  0  0  0  0  0  0  0  0  0
   -0.8542    2.7187   -0.6233 H   0  0  0  0  0  0  0  0  0  0  0  0
   -1.0823    1.6940   -2.0355 H   0  0  0  0  0  0  0  0  0  0  0  0
    0.7137    0.1467   -1.1779 H   0  0  0  0  0  0  0  0  0  0  0  0
    1.2894    1.8039   -1.4584 H   0  0  0  0  0  0  0  0  0  0  0  0
    1.1068   -1.2223    1.0796 H   0  0  0  0  0  0  0  0  0  0  0  0
    3.1497   -2.5376    1.5874 H   0  0  0  0  0  0  0  0  0  0  0  0
    5.5548    1.0036    1.1078 H   0  0  0  0  0  0  0  0  0  0  0  0
  1  2  3  0
  2  3  1  0
  3  4  1  0
  4  5  1  0
  4  6  1  0
  6  7  1  0
  7  8  1  0
  8  9  1  0
  9 10  1  0
 10 11  2  0
 11 12  1  0
 12 13  2  0
 13 14  1  0
 13 15  1  0
 15 16  2  0
 16 17  1  0
 16 10  1  0
  1 18  1  0
  3 19  1  0
  3 20  1  0
  5 21  1  0
  5 22  1  0
  5 23  1  0
  6 24  1  0
  6 25  1  0
  7 26  1  0
  7 27  1  0
  8 28  1  0
  8 29  1  0
 11 30  1  0
 12 31  1  0
 15 32  1  0
M  END
$$$$
