
     RDKit          3D

 27 27  0  0  0  0  0  0  0  0999 V2000
   -1.8769   -1.2942   -0.1692 C   0  0  0  0  0  0  0  0  0  0  0  0
   -1.4928    0.1875   -0.2941 C   0  0  0  0  0  0  0  0  0  0  0  0
   -0.9106    0.4477   -1.6854 C   0  0  0  0  0  0  0  0  0  0  0  0
   -2.7597    1.0445   -0.1187 C   0  0  0  0  0  0  0  0  0  0  0  0
   -0.3244    0.6608    1.0196 S   0  0  0  0  0  6  0  0  0  0  0  0
   -0.8716    0.2570    2.3017 O   0  0  0  0  0  0  0  0  0  0  0  0
    0.1610    2.0098    0.8212 O   0  0  0  0  0  0  0  0  0  0  0  0
    1.0861   -0.3483    0.8567 C   0  0  0  0  0  0  0  0  0  0  0  0
    1.1835   -1.6312    1.4901 C   0  0  0  0  0  0  0  0  0  0  0  0
    2.4065   -2.2247    1.2804 C   0  0  0  0  0  0  0  0  0  0  0  0
    3.4401   -1.2391    0.3465 S   0  0  0  0  0  0  0  0  0  0  0  0
    2.2571    0.0010    0.2068 C   0  0  0  0  0  0  0  0  0  0  0  0
    2.5678    1.1800   -0.5608 C   0  0  0  0  0  0  0  0  0  0  0  0
    1.9003    1.6873   -1.4489 O   0  0  0  0  0  0  0  0  0  0  0  0
    3.7581    1.7152   -0.2122 O   0  0  0  0  0  0  0  0  0  0  0  0
   -2.6512   -1.5619   -0.8973 H   0  0  0  0  0  0  0  0  0  0  0  0
   -2.2662   -1.5275    0.8276 H   0  0  0  0  0  0  0  0  0  0  0  0
   -1.0206   -1.9502   -0.3538 H   0  0  0  0  0  0  0  0  0  0  0  0
   -0.6496    1.5026   -1.8170 H   0  0  0  0  0  0  0  0  0  0  0  0
   -0.0137   -0.1526   -1.8660 H   0  0  0  0  0  0  0  0  0  0  0  0
   -1.6340    0.1915   -2.4682 H   0  0  0  0  0  0  0  0  0  0  0  0
   -3.2205    0.8781    0.8615 H   0  0  0  0  0  0  0  0  0  0  0  0
   -2.5296    2.1132   -0.1944 H   0  0  0  0  0  0  0  0  0  0  0  0
   -3.5084    0.8088   -0.8834 H   0  0  0  0  0  0  0  0  0  0  0  0
    0.3996   -2.0853    2.0870 H   0  0  0  0  0  0  0  0  0  0  0  0
    2.7495   -3.1841    1.6447 H   0  0  0  0  0  0  0  0  0  0  0  0
    3.8200    2.5141   -0.7744 H   0  0  0  0  0  0  0  0  0  0  0  0
  1  2  1  0
  2  3  1  0
  2  4  1  0
  2  5  1  0
  5  6  2  0
  5  7  2  0
  5  8  1  0
  8  9  1  0
  9 10  2  0
 10 11  1  0
 11 12  1  0
 12 13  1  0
 13 14  2  0
 13 15  1  0
 12  8  2  0
  1 16  1  0
  1 17  1  0
  1 18  1  0
  3 19  1  0
  3 20  1  0
  3 21  1  0
  4 22  1  0
  4 23  1  0
  4 24  1  0
  9 25  1  0
 10 26  1  0
 15 27  1  0
M  END
$$$$
