
     RDKit          3D

 47 49  0  0  0  0  0  0  0  0999 V2000
   -3.6586    1.2744   -3.0117 O   0  0  0  0  0  0  0  0  0  0  0  0
   -3.7313    0.2117   -2.4021 C   0  0  0  0  0  0  0  0  0  0  0  0
   -5.0769   -0.5080   -2.2448 C   0  0  0  0  0  0  0  0  0  0  0  0
   -5.1301   -1.4487   -1.1774 O   0  0  0  0  0  0  0  0  0  0  0  0
   -5.3828   -0.9753    0.0812 C   0  0  0  0  0  0  0  0  0  0  0  0
   -5.3989    0.3655    0.4700 C   0  0  0  0  0  0  0  0  0  0  0  0
   -5.6513    0.7064    1.8037 C   0  0  0  0  0  0  0  0  0  0  0  0
   -5.8842   -0.2927    2.7464 C   0  0  0  0  0  0  0  0  0  0  0  0
   -6.2233    0.1729    4.5460 Br  0  0  0  0  0  0  0  0  0  0  0  0
   -5.8654   -1.6323    2.3694 C   0  0  0  0  0  0  0  0  0  0  0  0
   -5.6120   -1.9692    1.0380 C   0  0  0  0  0  0  0  0  0  0  0  0
   -2.6860   -0.4830   -1.8196 N   0  0  0  0  0  0  0  0  0  0  0  0
   -1.3242   -0.1329   -1.7851 C   0  0  0  0  0  0  0  0  0  0  0  0
   -0.4672   -0.9743   -1.0640 C   0  0  0  0  0  0  0  0  0  0  0  0
    0.9027   -0.6993   -0.9757 C   0  0  0  0  0  0  0  0  0  0  0  0
    1.4317    0.4317   -1.6068 C   0  0  0  0  0  0  0  0  0  0  0  0
    2.8849    0.7723   -1.5500 C   0  0  0  0  0  0  0  0  0  0  0  0
    3.3791    1.3649   -2.5018 O   0  0  0  0  0  0  0  0  0  0  0  0
    3.5297    0.4000   -0.3864 N   0  0  0  0  0  0  0  0  0  0  0  0
    4.8996    0.5547   -0.0476 C   0  0  0  0  0  0  0  0  0  0  0  0
    5.8325    1.0910   -0.9441 C   0  0  0  0  0  0  0  0  0  0  0  0
    7.1771    1.2349   -0.5869 C   0  0  0  0  0  0  0  0  0  0  0  0
    7.6148    0.8426    0.6726 C   0  0  0  0  0  0  0  0  0  0  0  0
    6.7071    0.3012    1.5803 C   0  0  0  0  0  0  0  0  0  0  0  0
    5.3524    0.1515    1.2320 C   0  0  0  0  0  0  0  0  0  0  0  0
    4.4034   -0.4402    2.2158 C   0  0  0  0  0  0  0  0  0  0  0  0
    3.2224   -0.6695    2.0123 O   0  0  0  0  0  0  0  0  0  0  0  0
    4.9654   -0.7161    3.4061 O   0  0  0  0  0  0  0  0  0  0  0  0
    0.5804    1.2621   -2.3441 C   0  0  0  0  0  0  0  0  0  0  0  0
   -0.7895    0.9838   -2.4281 C   0  0  0  0  0  0  0  0  0  0  0  0
   -5.8917    0.2225   -2.1785 H   0  0  0  0  0  0  0  0  0  0  0  0
   -5.2346   -1.0723   -3.1712 H   0  0  0  0  0  0  0  0  0  0  0  0
   -5.2120    1.1758   -0.2282 H   0  0  0  0  0  0  0  0  0  0  0  0
   -5.6603    1.7542    2.0944 H   0  0  0  0  0  0  0  0  0  0  0  0
   -6.0459   -2.4183    3.0976 H   0  0  0  0  0  0  0  0  0  0  0  0
   -5.5991   -3.0165    0.7446 H   0  0  0  0  0  0  0  0  0  0  0  0
   -2.9575   -1.3197   -1.3113 H   0  0  0  0  0  0  0  0  0  0  0  0
   -0.8512   -1.8595   -0.5622 H   0  0  0  0  0  0  0  0  0  0  0  0
    1.5380   -1.3918   -0.4297 H   0  0  0  0  0  0  0  0  0  0  0  0
    2.9505    0.0147    0.3596 H   0  0  0  0  0  0  0  0  0  0  0  0
    5.5462    1.4104   -1.9417 H   0  0  0  0  0  0  0  0  0  0  0  0
    7.8800    1.6565   -1.3021 H   0  0  0  0  0  0  0  0  0  0  0  0
    8.6607    0.9564    0.9467 H   0  0  0  0  0  0  0  0  0  0  0  0
    7.0683   -0.0035    2.5599 H   0  0  0  0  0  0  0  0  0  0  0  0
    4.2357   -1.0843    3.9469 H   0  0  0  0  0  0  0  0  0  0  0  0
    0.9787    2.1355   -2.8579 H   0  0  0  0  0  0  0  0  0  0  0  0
   -1.4074    1.6599   -3.0112 H   0  0  0  0  0  0  0  0  0  0  0  0
  1  2  2  0
  2  3  1  0
  3  4  1  0
  4  5  1  0
  5  6  2  0
  6  7  1  0
  7  8  2  0
  8  9  1  0
  8 10  1  0
 10 11  2  0
  2 12  1  0
 12 13  1  0
 13 14  2  0
 14 15  1  0
 15 16  2  0
 16 17  1  0
 17 18  2  0
 17 19  1  0
 19 20  1  0
 20 21  2  0
 21 22  1  0
 22 23  2  0
 23 24  1  0
 24 25  2  0
 25 26  1  0
 26 27  2  0
 26 28  1  0
 16 29  1  0
 29 30  2  0
 11  5  1  0
 30 13  1  0
 25 20  1  0
  3 31  1  0
  3 32  1  0
  6 33  1  0
  7 34  1  0
 10 35  1  0
 11 36  1  0
 12 37  1  0
 14 38  1  0
 15 39  1  0
 19 40  1  0
 21 41  1  0
 22 42  1  0
 23 43  1  0
 24 44  1  0
 28 45  1  0
 29 46  1  0
 30 47  1  0
M  END
$$$$
