
     RDKit          3D

 71 75  0  0  0  0  0  0  0  0999 V2000
   -1.3769    4.0180   -0.1328 C   0  0  0  0  0  0  0  0  0  0  0  0
   -1.2718    2.5353    0.1727 C   0  0  0  0  0  0  0  0  0  0  0  0
   -1.7526    1.6585   -0.7377 C   0  0  0  0  0  0  0  0  0  0  0  0
   -1.8619    0.1873   -0.8149 C   0  0  0  0  0  0  0  0  0  0  0  0
   -3.1084   -0.5704   -0.3688 C   0  0  2  0  0  0  0  0  0  0  0  0
   -3.0545   -1.9460    0.2696 C   0  0  0  0  0  0  0  0  0  0  0  0
   -3.4217   -1.9907    1.7670 C   0  0  0  0  0  0  0  0  0  0  0  0
   -2.5279   -1.1939    2.7003 C   0  0  2  0  0  0  0  0  0  0  0  0
   -2.7799   -1.3432    4.1654 C   0  0  0  0  0  0  0  0  0  0  0  0
   -2.4531    0.1503    2.2580 O   0  0  0  0  0  0  0  0  0  0  0  0
   -1.2172   -0.5930    2.2022 C   0  0  1  0  0  0  0  0  0  0  0  0
   -0.1698    0.2410    2.8439 C   0  0  1  0  0  0  0  0  0  0  0  0
    1.0320   -0.5165    3.4083 C   0  0  1  0  0  0  0  0  0  0  0  0
    1.3988   -1.6448    2.6157 O   0  0  0  0  0  0  0  0  0  0  0  0
    2.1584    0.5414    3.4457 C   0  0  1  0  0  0  0  0  0  0  0  0
    3.5077    0.0766    2.9021 C   0  0  0  0  0  0  0  0  0  0  0  0
    3.9319   -1.1034    3.5710 O   0  0  0  0  0  0  0  0  0  0  0  0
    1.6173    1.7687    2.6770 C   0  0  0  0  0  0  0  0  0  0  0  0
    0.4425    1.2429    1.8115 C   0  0  1  0  0  0  0  0  0  0  0  0
    0.9770    0.5306    0.6851 O   0  0  0  0  0  0  0  0  0  0  0  0
    1.6230    1.2467   -0.2677 C   0  0  0  0  0  0  0  0  0  0  0  0
    1.7933    2.4532   -0.2799 O   0  0  0  0  0  0  0  0  0  0  0  0
    2.0913    0.3056   -1.3039 C   0  0  0  0  0  0  0  0  0  0  0  0
    2.7616    0.7701   -2.3695 C   0  0  0  0  0  0  0  0  0  0  0  0
    3.2586   -0.0654   -3.4728 C   0  0  0  0  0  0  0  0  0  0  0  0
    3.6605   -1.3964   -3.2964 C   0  0  0  0  0  0  0  0  0  0  0  0
    4.1499   -2.1420   -4.3732 C   0  0  0  0  0  0  0  0  0  0  0  0
    4.2536   -1.5613   -5.6353 C   0  0  0  0  0  0  0  0  0  0  0  0
    3.8752   -0.2339   -5.8209 C   0  0  0  0  0  0  0  0  0  0  0  0
    3.3855    0.5105   -4.7447 C   0  0  0  0  0  0  0  0  0  0  0  0
   -0.6267    2.3385    1.5312 C   0  0  0  0  0  0  0  0  0  0  0  0
   -0.9489    3.1243    2.4328 O   0  0  0  0  0  0  0  0  0  0  0  0
   -2.8163   -0.4230   -1.8521 C   0  0  0  0  0  0  0  0  0  0  0  0
   -2.2834   -1.5912   -2.6514 C   0  0  0  0  0  0  0  0  0  0  0  0
   -3.8079    0.4095   -2.6346 C   0  0  0  0  0  0  0  0  0  0  0  0
   -1.6691    4.2148   -1.1694 H   0  0  0  0  0  0  0  0  0  0  0  0
   -0.4104    4.5096    0.0229 H   0  0  0  0  0  0  0  0  0  0  0  0
   -2.1205    4.4919    0.5177 H   0  0  0  0  0  0  0  0  0  0  0  0
   -2.1320    2.1393   -1.6408 H   0  0  0  0  0  0  0  0  0  0  0  0
   -0.9026   -0.3130   -0.7462 H   0  0  0  0  0  0  0  0  0  0  0  0
   -3.9381    0.0091    0.0285 H   0  0  0  0  0  0  0  0  0  0  0  0
   -3.7749   -2.5827   -0.2603 H   0  0  0  0  0  0  0  0  0  0  0  0
   -2.0723   -2.4078    0.1214 H   0  0  0  0  0  0  0  0  0  0  0  0
   -3.4105   -3.0376    2.0895 H   0  0  0  0  0  0  0  0  0  0  0  0
   -4.4518   -1.6343    1.8887 H   0  0  0  0  0  0  0  0  0  0  0  0
   -2.1835   -0.6466    4.7624 H   0  0  0  0  0  0  0  0  0  0  0  0
   -2.5303   -2.3588    4.4885 H   0  0  0  0  0  0  0  0  0  0  0  0
   -3.8350   -1.1609    4.3945 H   0  0  0  0  0  0  0  0  0  0  0  0
   -0.8437   -1.0275    1.2877 H   0  0  0  0  0  0  0  0  0  0  0  0
   -0.6104    0.8147    3.6734 H   0  0  0  0  0  0  0  0  0  0  0  0
    0.8230   -0.8892    4.4172 H   0  0  0  0  0  0  0  0  0  0  0  0
    0.6953   -2.3114    2.7224 H   0  0  0  0  0  0  0  0  0  0  0  0
    2.3025    0.8363    4.4939 H   0  0  0  0  0  0  0  0  0  0  0  0
    4.2684    0.8467    3.0621 H   0  0  0  0  0  0  0  0  0  0  0  0
    3.4695   -0.1302    1.8288 H   0  0  0  0  0  0  0  0  0  0  0  0
    3.2828   -1.7867    3.3071 H   0  0  0  0  0  0  0  0  0  0  0  0
    1.2659    2.5102    3.4062 H   0  0  0  0  0  0  0  0  0  0  0  0
    2.4075    2.2530    2.0969 H   0  0  0  0  0  0  0  0  0  0  0  0
    1.8548   -0.7412   -1.1648 H   0  0  0  0  0  0  0  0  0  0  0  0
    2.9499    1.8392   -2.4658 H   0  0  0  0  0  0  0  0  0  0  0  0
    3.6152   -1.8693   -2.3196 H   0  0  0  0  0  0  0  0  0  0  0  0
    4.4572   -3.1741   -4.2230 H   0  0  0  0  0  0  0  0  0  0  0  0
    4.6375   -2.1401   -6.4717 H   0  0  0  0  0  0  0  0  0  0  0  0
    3.9619    0.2260   -6.8021 H   0  0  0  0  0  0  0  0  0  0  0  0
    3.0987    1.5466   -4.9137 H   0  0  0  0  0  0  0  0  0  0  0  0
   -1.4850   -2.1300   -2.1303 H   0  0  0  0  0  0  0  0  0  0  0  0
   -3.0869   -2.3026   -2.8691 H   0  0  0  0  0  0  0  0  0  0  0  0
   -1.8699   -1.2401   -3.6026 H   0  0  0  0  0  0  0  0  0  0  0  0
   -4.6080   -0.2273   -3.0276 H   0  0  0  0  0  0  0  0  0  0  0  0
   -4.2821    1.1856   -2.0239 H   0  0  0  0  0  0  0  0  0  0  0  0
   -3.3125    0.8946   -3.4820 H   0  0  0  0  0  0  0  0  0  0  0  0
  1  2  1  0
  2  3  2  3
  3  4  1  0
  4  5  1  0
  5  6  1  0
  6  7  1  0
  7  8  1  0
  8  9  1  1
  8 10  1  0
 10 11  1  0
 11 12  1  0
 12 13  1  0
 13 14  1  0
 13 15  1  0
 15 16  1  0
 16 17  1  0
 15 18  1  0
 18 19  1  0
 19 20  1  6
 20 21  1  0
 21 22  2  0
 21 23  1  0
 23 24  2  0
 24 25  1  0
 25 26  2  0
 26 27  1  0
 27 28  2  0
 28 29  1  0
 29 30  2  0
 19 31  1  0
 31 32  2  0
  5 33  1  0
 33 34  1  0
 33 35  1  0
 31  2  1  0
 33  4  1  0
 11  8  1  0
 19 12  1  0
 30 25  1  0
  1 36  1  0
  1 37  1  0
  1 38  1  0
  3 39  1  0
  4 40  1  0
  5 41  1  6
  6 42  1  0
  6 43  1  0
  7 44  1  0
  7 45  1  0
  9 46  1  0
  9 47  1  0
  9 48  1  0
 11 49  1  6
 12 50  1  1
 13 51  1  1
 14 52  1  0
 15 53  1  1
 16 54  1  0
 16 55  1  0
 17 56  1  0
 18 57  1  0
 18 58  1  0
 23 59  1  0
 24 60  1  0
 26 61  1  0
 27 62  1  0
 28 63  1  0
 29 64  1  0
 30 65  1  0
 34 66  1  0
 34 67  1  0
 34 68  1  0
 35 69  1  0
 35 70  1  0
 35 71  1  0
M  END
$$$$
