
     RDKit          3D

 33 34  0  0  0  0  0  0  0  0999 V2000
   -5.0580    1.8637   -0.5355 C   0  0  0  0  0  0  0  0  0  0  0  0
   -5.0732    0.3454   -0.5709 C   0  0  0  0  0  0  0  0  0  0  0  0
   -4.0042   -0.1533   -1.3737 O   0  0  0  0  0  0  0  0  0  0  0  0
   -2.7985   -0.4078   -0.7846 C   0  0  0  0  0  0  0  0  0  0  0  0
   -1.8662   -1.0272   -1.6230 C   0  0  0  0  0  0  0  0  0  0  0  0
   -0.5849   -1.3462   -1.1625 C   0  0  0  0  0  0  0  0  0  0  0  0
   -0.2204   -1.0336    0.1506 C   0  0  0  0  0  0  0  0  0  0  0  0
    1.1286   -1.3500    0.6980 C   0  0  0  0  0  0  0  0  0  0  0  0
    1.2828   -1.4991    1.9052 O   0  0  0  0  0  0  0  0  0  0  0  0
    2.1574   -1.4240   -0.2157 N   0  0  0  0  0  0  0  0  0  0  0  0
    3.5306   -1.5557    0.2177 C   0  0  0  0  0  0  0  0  0  0  0  0
    4.1243   -0.2001    0.3123 C   0  0  0  0  0  0  0  0  0  0  0  0
    4.2307    0.7156    1.3387 C   0  0  0  0  0  0  0  0  0  0  0  0
    4.8971    1.8421    0.8010 C   0  0  0  0  0  0  0  0  0  0  0  0
    5.1504    1.5447   -0.5174 C   0  0  0  0  0  0  0  0  0  0  0  0
    4.6815    0.3079   -0.8260 O   0  0  0  0  0  0  0  0  0  0  0  0
   -1.1553   -0.4224    0.9945 C   0  0  0  0  0  0  0  0  0  0  0  0
   -2.4367   -0.1055    0.5274 C   0  0  0  0  0  0  0  0  0  0  0  0
   -4.1453    2.2447   -0.0678 H   0  0  0  0  0  0  0  0  0  0  0  0
   -5.9192    2.2458    0.0201 H   0  0  0  0  0  0  0  0  0  0  0  0
   -5.0865    2.2706   -1.5518 H   0  0  0  0  0  0  0  0  0  0  0  0
   -6.0009    0.0212   -1.0563 H   0  0  0  0  0  0  0  0  0  0  0  0
   -5.0896   -0.0971    0.4311 H   0  0  0  0  0  0  0  0  0  0  0  0
   -2.1466   -1.2731   -2.6450 H   0  0  0  0  0  0  0  0  0  0  0  0
    0.0984   -1.8581   -1.8332 H   0  0  0  0  0  0  0  0  0  0  0  0
    2.0217   -1.0294   -1.1358 H   0  0  0  0  0  0  0  0  0  0  0  0
    4.0555   -2.1559   -0.5321 H   0  0  0  0  0  0  0  0  0  0  0  0
    3.5852   -2.0768    1.1787 H   0  0  0  0  0  0  0  0  0  0  0  0
    3.8611    0.5797    2.3464 H   0  0  0  0  0  0  0  0  0  0  0  0
    5.1572    2.7595    1.3098 H   0  0  0  0  0  0  0  0  0  0  0  0
    5.6279    2.0787   -1.3270 H   0  0  0  0  0  0  0  0  0  0  0  0
   -0.8863   -0.1850    2.0224 H   0  0  0  0  0  0  0  0  0  0  0  0
   -3.1187    0.3810    1.2160 H   0  0  0  0  0  0  0  0  0  0  0  0
  1  2  1  0
  2  3  1  0
  3  4  1  0
  4  5  2  0
  5  6  1  0
  6  7  2  0
  7  8  1  0
  8  9  2  0
  8 10  1  0
 10 11  1  0
 11 12  1  0
 12 13  2  0
 13 14  1  0
 14 15  2  0
 15 16  1  0
  7 17  1  0
 17 18  2  0
 18  4  1  0
 16 12  1  0
  1 19  1  0
  1 20  1  0
  1 21  1  0
  2 22  1  0
  2 23  1  0
  5 24  1  0
  6 25  1  0
 10 26  1  0
 11 27  1  0
 11 28  1  0
 13 29  1  0
 14 30  1  0
 15 31  1  0
 17 32  1  0
 18 33  1  0
M  END
$$$$
