
     RDKit          3D

 81 84  0  0  0  0  0  0  0  0999 V2000
    5.4014   -3.0472   -4.2447 C   0  0  0  0  0  0  0  0  0  0  0  0
    4.3095   -3.5924   -3.5261 O   0  0  0  0  0  0  0  0  0  0  0  0
    3.8826   -2.9036   -2.4290 C   0  0  0  0  0  0  0  0  0  0  0  0
    4.4746   -1.7571   -1.8996 C   0  0  0  0  0  0  0  0  0  0  0  0
    3.9397   -1.1475   -0.7589 C   0  0  0  0  0  0  0  0  0  0  0  0
    2.8033   -1.6760   -0.1311 C   0  0  0  0  0  0  0  0  0  0  0  0
    2.2828   -0.9669    0.9673 N   0  0  0  0  0  0  0  0  0  0  0  0
    1.2425   -1.3423    1.7901 C   0  0  0  0  0  0  0  0  0  0  0  0
    0.8017   -2.4872    1.8912 O   0  0  0  0  0  0  0  0  0  0  0  0
    0.6359   -0.2843    2.4680 N   0  0  0  0  0  0  0  0  0  0  0  0
   -0.4275   -0.5750    3.4186 C   0  0  0  0  0  0  0  0  0  0  0  0
    0.8439    1.1305    2.1482 C   0  0  0  0  0  0  0  0  0  0  0  0
    0.2431    1.5661    0.7778 C   0  0  0  0  0  0  0  0  0  0  0  0
   -1.1918    1.5173    0.9390 O   0  0  0  0  0  0  0  0  0  0  0  0
   -1.8707    1.3710   -0.2515 C   0  0  0  0  0  0  0  0  0  0  0  0
   -2.0042    0.1205   -0.8881 C   0  0  0  0  0  0  0  0  0  0  0  0
   -1.5059   -1.0305   -0.2346 N   0  0  0  0  0  0  0  0  0  0  0  0
   -1.5699   -2.3481   -0.6691 C   0  0  0  0  0  0  0  0  0  0  0  0
   -1.8146   -2.6914   -1.8149 O   0  0  0  0  0  0  0  0  0  0  0  0
   -1.3584   -3.2162    0.3798 N   0  0  0  0  0  0  0  0  0  0  0  0
   -1.4976   -4.5997    0.3894 C   0  0  0  0  0  0  0  0  0  0  0  0
   -1.6697   -5.5886   -0.6174 C   0  0  0  0  0  0  0  0  0  0  0  0
   -1.6913   -5.4807   -2.0960 C   0  0  0  0  0  0  0  0  0  0  0  0
   -1.7919   -6.8171   -0.0707 N   0  0  0  0  0  0  0  0  0  0  0  0
   -1.6737   -6.6492    1.2888 O   0  0  0  0  0  0  0  0  0  0  0  0
   -1.4838   -5.3321    1.5657 C   0  0  0  0  0  0  0  0  0  0  0  0
   -1.3344   -4.9934    2.9953 C   0  0  0  0  0  0  0  0  0  0  0  0
   -2.7101    0.0512   -2.0991 C   0  0  0  0  0  0  0  0  0  0  0  0
   -3.3378    1.1803   -2.6352 C   0  0  0  0  0  0  0  0  0  0  0  0
   -3.2931    2.3848   -1.9532 C   0  0  0  0  0  0  0  0  0  0  0  0
   -2.5539    2.4823   -0.7730 C   0  0  0  0  0  0  0  0  0  0  0  0
   -2.5202    3.7812   -0.0847 C   0  0  0  0  0  0  0  0  0  0  0  0
   -3.5877    4.3043    0.2220 O   0  0  0  0  0  0  0  0  0  0  0  0
   -1.2693    4.3422    0.1747 N   0  0  0  0  0  0  0  0  0  0  0  0
   -1.1588    5.4767    1.1049 C   0  0  0  0  0  0  0  0  0  0  0  0
   -1.6085    5.0970    2.5204 C   0  0  0  0  0  0  0  0  0  0  0  0
   -1.8829    6.7481    0.6086 C   0  0  0  0  0  0  0  0  0  0  0  0
   -1.4333    7.8711    1.3625 O   0  0  0  0  0  0  0  0  0  0  0  0
   -0.0425    3.8654   -0.4594 C   0  0  0  0  0  0  0  0  0  0  0  0
    0.8105    2.9849    0.4614 C   0  0  0  0  0  0  0  0  0  0  0  0
    2.2078    2.8534   -0.1741 C   0  0  0  0  0  0  0  0  0  0  0  0
    2.2105   -2.8157   -0.6725 C   0  0  0  0  0  0  0  0  0  0  0  0
    2.7482   -3.4248   -1.8077 C   0  0  0  0  0  0  0  0  0  0  0  0
    5.1672   -2.0359   -4.6124 H   0  0  0  0  0  0  0  0  0  0  0  0
    6.3101   -3.0450   -3.6327 H   0  0  0  0  0  0  0  0  0  0  0  0
    5.5848   -3.6919   -5.1133 H   0  0  0  0  0  0  0  0  0  0  0  0
    5.3487   -1.3137   -2.3578 H   0  0  0  0  0  0  0  0  0  0  0  0
    4.4181   -0.2482   -0.3841 H   0  0  0  0  0  0  0  0  0  0  0  0
    2.8507   -0.2056    1.3161 H   0  0  0  0  0  0  0  0  0  0  0  0
   -0.1864   -0.0804    4.3619 H   0  0  0  0  0  0  0  0  0  0  0  0
   -1.3675   -0.1810    3.0337 H   0  0  0  0  0  0  0  0  0  0  0  0
   -0.5444   -1.6479    3.5973 H   0  0  0  0  0  0  0  0  0  0  0  0
    1.9211    1.3224    2.1826 H   0  0  0  0  0  0  0  0  0  0  0  0
    0.3946    1.7280    2.9531 H   0  0  0  0  0  0  0  0  0  0  0  0
    0.5534    0.8685   -0.0136 H   0  0  0  0  0  0  0  0  0  0  0  0
   -1.0504   -0.8622    0.6575 H   0  0  0  0  0  0  0  0  0  0  0  0
   -1.0710   -2.8149    1.2682 H   0  0  0  0  0  0  0  0  0  0  0  0
   -1.6479   -6.4713   -2.5655 H   0  0  0  0  0  0  0  0  0  0  0  0
   -2.6022   -4.9871   -2.4411 H   0  0  0  0  0  0  0  0  0  0  0  0
   -0.8137   -4.9318   -2.4462 H   0  0  0  0  0  0  0  0  0  0  0  0
   -1.7733   -4.0170    3.2119 H   0  0  0  0  0  0  0  0  0  0  0  0
   -0.2714   -4.9552    3.2832 H   0  0  0  0  0  0  0  0  0  0  0  0
   -1.8318   -5.7271    3.6364 H   0  0  0  0  0  0  0  0  0  0  0  0
   -2.8191   -0.8826   -2.6459 H   0  0  0  0  0  0  0  0  0  0  0  0
   -3.8862    1.1001   -3.5654 H   0  0  0  0  0  0  0  0  0  0  0  0
   -3.8113    3.2566   -2.3463 H   0  0  0  0  0  0  0  0  0  0  0  0
   -0.0918    5.7222    1.1894 H   0  0  0  0  0  0  0  0  0  0  0  0
   -1.1201    4.1715    2.8488 H   0  0  0  0  0  0  0  0  0  0  0  0
   -1.3443    5.8753    3.2346 H   0  0  0  0  0  0  0  0  0  0  0  0
   -2.6919    4.9470    2.5876 H   0  0  0  0  0  0  0  0  0  0  0  0
   -2.9679    6.6775    0.7231 H   0  0  0  0  0  0  0  0  0  0  0  0
   -1.6579    6.9337   -0.4482 H   0  0  0  0  0  0  0  0  0  0  0  0
   -2.0351    8.6152    1.1640 H   0  0  0  0  0  0  0  0  0  0  0  0
    0.5213    4.7565   -0.7595 H   0  0  0  0  0  0  0  0  0  0  0  0
   -0.2647    3.3452   -1.4001 H   0  0  0  0  0  0  0  0  0  0  0  0
    0.9381    3.5162    1.4114 H   0  0  0  0  0  0  0  0  0  0  0  0
    2.8748    2.2191    0.4125 H   0  0  0  0  0  0  0  0  0  0  0  0
    2.1466    2.4274   -1.1815 H   0  0  0  0  0  0  0  0  0  0  0  0
    2.6893    3.8311   -0.2534 H   0  0  0  0  0  0  0  0  0  0  0  0
    1.3087   -3.2579   -0.2557 H   0  0  0  0  0  0  0  0  0  0  0  0
    2.2682   -4.3182   -2.2069 H   0  0  0  0  0  0  0  0  0  0  0  0
  1  2  1  0
  2  3  1  0
  3  4  2  0
  4  5  1  0
  5  6  2  0
  6  7  1  0
  7  8  1  0
  8  9  2  0
  8 10  1  0
 10 11  1  0
 10 12  1  0
 12 13  1  0
 13 14  1  0
 14 15  1  0
 15 16  2  0
 16 17  1  0
 17 18  1  0
 18 19  2  0
 18 20  1  0
 20 21  1  0
 21 22  1  0
 22 23  1  0
 22 24  2  0
 24 25  1  0
 25 26  1  0
 26 27  1  0
 16 28  1  0
 28 29  2  0
 29 30  1  0
 30 31  2  0
 31 32  1  0
 32 33  2  0
 32 34  1  0
 34 35  1  0
 35 36  1  0
 35 37  1  0
 37 38  1  0
 34 39  1  0
 39 40  1  0
 40 41  1  0
  6 42  1  0
 42 43  2  0
 43  3  1  0
 40 13  1  0
 31 15  1  0
 26 21  2  0
  1 44  1  0
  1 45  1  0
  1 46  1  0
  4 47  1  0
  5 48  1  0
  7 49  1  0
 11 50  1  0
 11 51  1  0
 11 52  1  0
 12 53  1  0
 12 54  1  0
 13 55  1  0
 17 56  1  0
 20 57  1  0
 23 58  1  0
 23 59  1  0
 23 60  1  0
 27 61  1  0
 27 62  1  0
 27 63  1  0
 28 64  1  0
 29 65  1  0
 30 66  1  0
 35 67  1  0
 36 68  1  0
 36 69  1  0
 36 70  1  0
 37 71  1  0
 37 72  1  0
 38 73  1  0
 39 74  1  0
 39 75  1  0
 40 76  1  0
 41 77  1  0
 41 78  1  0
 41 79  1  0
 42 80  1  0
 43 81  1  0
M  END
$$$$
