
     RDKit          3D

 73 75  0  0  0  0  0  0  0  0999 V2000
   -3.2178    0.6770    2.7587 C   0  0  0  0  0  0  0  0  0  0  0  0
   -2.1696    0.1012    1.8122 C   0  0  0  0  0  0  0  0  0  0  0  0
   -2.6836    0.0163    0.3676 C   0  0  0  0  0  0  0  0  0  0  0  0
   -1.2934   -0.3758   -0.7762 S   0  0  0  0  0  0  0  0  0  0  0  0
   -0.4180    1.1405   -0.7221 C   0  0  0  0  0  0  0  0  0  0  0  0
   -1.1188    2.2241   -0.7858 N   0  0  0  0  0  0  0  0  0  0  0  0
   -0.4560    3.4540   -0.7425 C   0  0  0  0  0  0  0  0  0  0  0  0
   -1.2083    4.6275   -0.8326 C   0  0  0  0  0  0  0  0  0  0  0  0
   -0.5872    5.8818   -0.7824 C   0  0  0  0  0  0  0  0  0  0  0  0
   -1.2533    7.0794   -0.8623 O   0  0  0  0  0  0  0  0  0  0  0  0
   -2.6657    7.0429   -1.0108 C   0  0  0  0  0  0  0  0  0  0  0  0
    0.8141    5.9625   -0.6388 C   0  0  0  0  0  0  0  0  0  0  0  0
    1.3444    7.2275   -0.5979 O   0  0  0  0  0  0  0  0  0  0  0  0
    2.7522    7.3508   -0.4496 C   0  0  0  0  0  0  0  0  0  0  0  0
    1.5657    4.7889   -0.5484 C   0  0  0  0  0  0  0  0  0  0  0  0
    0.9223    3.5471   -0.6020 C   0  0  0  0  0  0  0  0  0  0  0  0
    1.6851    2.2914   -0.5054 C   0  0  0  0  0  0  0  0  0  0  0  0
    2.8976    2.3418   -0.3107 O   0  0  0  0  0  0  0  0  0  0  0  0
    0.9627    1.1051   -0.6233 N   0  0  0  0  0  0  0  0  0  0  0  0
    1.7472   -0.1345   -0.5283 C   0  0  0  0  0  0  0  0  0  0  0  0
    1.9214   -0.5841    0.9276 C   0  0  0  0  0  0  0  0  0  0  0  0
    2.6488   -1.9016    1.0190 C   0  0  0  0  0  0  0  0  0  0  0  0
    1.9343   -3.1013    1.0778 C   0  0  0  0  0  0  0  0  0  0  0  0
    2.6079   -4.3235    1.1400 C   0  0  0  0  0  0  0  0  0  0  0  0
    4.0060   -4.3639    1.1404 C   0  0  0  0  0  0  0  0  0  0  0  0
    4.7487   -5.5177    1.1969 O   0  0  0  0  0  0  0  0  0  0  0  0
    4.0471   -6.7480    1.2998 C   0  0  0  0  0  0  0  0  0  0  0  0
    4.7353   -3.1598    1.0760 C   0  0  0  0  0  0  0  0  0  0  0  0
    6.1033   -3.2826    1.0751 O   0  0  0  0  0  0  0  0  0  0  0  0
    6.8730   -2.0895    1.0471 C   0  0  0  0  0  0  0  0  0  0  0  0
    4.0510   -1.9393    1.0140 C   0  0  0  0  0  0  0  0  0  0  0  0
   -3.7296   -1.0935    0.1864 C   0  0  0  0  0  0  0  0  0  0  0  0
   -3.9545   -1.9620    1.0244 O   0  0  0  0  0  0  0  0  0  0  0  0
   -4.4038   -1.0304   -1.0196 N   0  0  0  0  0  0  0  0  0  0  0  0
   -5.3822   -2.0325   -1.3974 C   0  0  0  0  0  0  0  0  0  0  0  0
   -4.7567   -3.3764   -1.7743 C   0  0  0  0  0  0  0  0  0  0  0  0
   -5.7653   -4.2142   -2.3430 O   0  0  0  0  0  0  0  0  0  0  0  0
   -5.2560   -5.5045   -2.6539 C   0  0  0  0  0  0  0  0  0  0  0  0
   -3.5172    1.6819    2.4438 H   0  0  0  0  0  0  0  0  0  0  0  0
   -2.8093    0.7489    3.7718 H   0  0  0  0  0  0  0  0  0  0  0  0
   -4.1127    0.0497    2.8023 H   0  0  0  0  0  0  0  0  0  0  0  0
   -1.8642   -0.8866    2.1791 H   0  0  0  0  0  0  0  0  0  0  0  0
   -1.2886    0.7511    1.8732 H   0  0  0  0  0  0  0  0  0  0  0  0
   -3.1529    0.9619    0.0730 H   0  0  0  0  0  0  0  0  0  0  0  0
   -2.2831    4.5286   -0.9405 H   0  0  0  0  0  0  0  0  0  0  0  0
   -3.0237    8.0757   -1.0573 H   0  0  0  0  0  0  0  0  0  0  0  0
   -3.1415    6.5654   -0.1479 H   0  0  0  0  0  0  0  0  0  0  0  0
   -2.9519    6.5491   -1.9451 H   0  0  0  0  0  0  0  0  0  0  0  0
    2.9945    8.4179   -0.4349 H   0  0  0  0  0  0  0  0  0  0  0  0
    3.2792    6.9020   -1.2978 H   0  0  0  0  0  0  0  0  0  0  0  0
    3.0883    6.9204    0.4993 H   0  0  0  0  0  0  0  0  0  0  0  0
    2.6450    4.8093   -0.4368 H   0  0  0  0  0  0  0  0  0  0  0  0
    2.7331    0.0325   -0.9813 H   0  0  0  0  0  0  0  0  0  0  0  0
    1.2841   -0.9237   -1.1292 H   0  0  0  0  0  0  0  0  0  0  0  0
    0.9480   -0.6709    1.4254 H   0  0  0  0  0  0  0  0  0  0  0  0
    2.4697    0.1761    1.4985 H   0  0  0  0  0  0  0  0  0  0  0  0
    0.8458   -3.0973    1.0770 H   0  0  0  0  0  0  0  0  0  0  0  0
    2.0104   -5.2277    1.1863 H   0  0  0  0  0  0  0  0  0  0  0  0
    3.4289   -6.9251    0.4136 H   0  0  0  0  0  0  0  0  0  0  0  0
    3.4483   -6.7873    2.2158 H   0  0  0  0  0  0  0  0  0  0  0  0
    4.7877   -7.5517    1.3535 H   0  0  0  0  0  0  0  0  0  0  0  0
    6.6992   -1.5292    0.1225 H   0  0  0  0  0  0  0  0  0  0  0  0
    7.9298   -2.3729    1.0692 H   0  0  0  0  0  0  0  0  0  0  0  0
    6.6772   -1.4711    1.9292 H   0  0  0  0  0  0  0  0  0  0  0  0
    4.5895   -0.9978    0.9595 H   0  0  0  0  0  0  0  0  0  0  0  0
   -4.0242   -0.4349   -1.7464 H   0  0  0  0  0  0  0  0  0  0  0  0
   -6.0877   -2.1716   -0.5700 H   0  0  0  0  0  0  0  0  0  0  0  0
   -5.9534   -1.6289   -2.2407 H   0  0  0  0  0  0  0  0  0  0  0  0
   -3.9582   -3.2253   -2.5106 H   0  0  0  0  0  0  0  0  0  0  0  0
   -4.3258   -3.8593   -0.8898 H   0  0  0  0  0  0  0  0  0  0  0  0
   -4.9058   -6.0069   -1.7471 H   0  0  0  0  0  0  0  0  0  0  0  0
   -4.4426   -5.4301   -3.3820 H   0  0  0  0  0  0  0  0  0  0  0  0
   -6.0639   -6.0971   -3.0914 H   0  0  0  0  0  0  0  0  0  0  0  0
  1  2  1  0
  2  3  1  0
  3  4  1  0
  4  5  1  0
  5  6  2  0
  6  7  1  0
  7  8  2  0
  8  9  1  0
  9 10  1  0
 10 11  1  0
  9 12  2  0
 12 13  1  0
 13 14  1  0
 12 15  1  0
 15 16  2  0
 16 17  1  0
 17 18  2  0
 17 19  1  0
 19 20  1  0
 20 21  1  0
 21 22  1  0
 22 23  2  0
 23 24  1  0
 24 25  2  0
 25 26  1  0
 26 27  1  0
 25 28  1  0
 28 29  1  0
 29 30  1  0
 28 31  2  0
  3 32  1  0
 32 33  2  0
 32 34  1  0
 34 35  1  0
 35 36  1  0
 36 37  1  0
 37 38  1  0
 19  5  1  0
 31 22  1  0
 16  7  1  0
  1 39  1  0
  1 40  1  0
  1 41  1  0
  2 42  1  0
  2 43  1  0
  3 44  1  0
  8 45  1  0
 11 46  1  0
 11 47  1  0
 11 48  1  0
 14 49  1  0
 14 50  1  0
 14 51  1  0
 15 52  1  0
 20 53  1  0
 20 54  1  0
 21 55  1  0
 21 56  1  0
 23 57  1  0
 24 58  1  0
 27 59  1  0
 27 60  1  0
 27 61  1  0
 30 62  1  0
 30 63  1  0
 30 64  1  0
 31 65  1  0
 34 66  1  0
 35 67  1  0
 35 68  1  0
 36 69  1  0
 36 70  1  0
 38 71  1  0
 38 72  1  0
 38 73  1  0
M  END
$$$$
