
     RDKit          3D

 53 55  0  0  0  0  0  0  0  0999 V2000
    8.0293    1.7411    1.2138 C   0  0  0  0  0  0  0  0  0  0  0  0
    7.8108    0.4936    0.5673 O   0  0  0  0  0  0  0  0  0  0  0  0
    6.6681   -0.1811    0.8983 C   0  0  0  0  0  0  0  0  0  0  0  0
    6.4911   -1.3933    0.2278 C   0  0  0  0  0  0  0  0  0  0  0  0
    5.3661   -2.1862    0.4686 C   0  0  0  0  0  0  0  0  0  0  0  0
    4.4007   -1.7782    1.3962 C   0  0  0  0  0  0  0  0  0  0  0  0
    3.1716   -2.6112    1.6470 C   0  0  0  0  0  0  0  0  0  0  0  0
    2.0796   -2.1775    0.8155 N   0  0  0  0  0  0  0  0  0  0  0  0
    1.1251   -1.2924    1.2553 C   0  0  0  0  0  0  0  0  0  0  0  0
    0.9904   -0.8761    2.3975 O   0  0  0  0  0  0  0  0  0  0  0  0
    0.1664   -0.8176    0.1393 C   0  0  0  0  0  0  0  0  0  0  0  0
    0.2468   -1.2921   -0.9852 O   0  0  0  0  0  0  0  0  0  0  0  0
   -0.7375    0.1330    0.5515 N   0  0  0  0  0  0  0  0  0  0  0  0
   -1.8593    0.5267   -0.2832 C   0  0  0  0  0  0  0  0  0  0  0  0
   -2.5401    1.8116    0.2073 C   0  0  0  0  0  0  0  0  0  0  0  0
   -2.8908    1.6065    1.6026 O   0  0  0  0  0  0  0  0  0  0  0  0
   -4.1767    2.2083    1.7974 C   0  0  0  0  0  0  0  0  0  0  0  0
   -4.8869    1.9966    0.4784 C   0  0  0  0  0  0  0  0  0  0  0  0
   -3.7906    2.1724   -0.4588 N   0  0  0  0  0  0  0  0  0  0  0  0
   -4.0047    2.1826   -2.1023 S   0  0  0  0  0  6  0  0  0  0  0  0
   -2.7325    2.5194   -2.7035 O   0  0  0  0  0  0  0  0  0  0  0  0
   -5.1941    2.9587   -2.3838 O   0  0  0  0  0  0  0  0  0  0  0  0
   -4.3873    0.4975   -2.5282 C   0  0  0  0  0  0  0  0  0  0  0  0
   -5.6736    0.0043   -2.2823 C   0  0  0  0  0  0  0  0  0  0  0  0
   -5.9894   -1.3077   -2.6355 C   0  0  0  0  0  0  0  0  0  0  0  0
   -5.0309   -2.1151   -3.2491 C   0  0  0  0  0  0  0  0  0  0  0  0
   -3.7603   -1.6094   -3.5264 C   0  0  0  0  0  0  0  0  0  0  0  0
   -3.4388   -0.2970   -3.1794 C   0  0  0  0  0  0  0  0  0  0  0  0
    4.5773   -0.5567    2.0605 C   0  0  0  0  0  0  0  0  0  0  0  0
    5.7046    0.2356    1.8160 C   0  0  0  0  0  0  0  0  0  0  0  0
    8.9730    2.1502    0.8403 H   0  0  0  0  0  0  0  0  0  0  0  0
    8.1279    1.6127    2.2968 H   0  0  0  0  0  0  0  0  0  0  0  0
    7.2369    2.4565    0.9701 H   0  0  0  0  0  0  0  0  0  0  0  0
    7.2366   -1.7214   -0.4927 H   0  0  0  0  0  0  0  0  0  0  0  0
    5.2528   -3.1216   -0.0741 H   0  0  0  0  0  0  0  0  0  0  0  0
    3.3676   -3.6629    1.4109 H   0  0  0  0  0  0  0  0  0  0  0  0
    2.8892   -2.5625    2.7048 H   0  0  0  0  0  0  0  0  0  0  0  0
    2.1202   -2.3341   -0.1873 H   0  0  0  0  0  0  0  0  0  0  0  0
   -0.8005    0.2876    1.5574 H   0  0  0  0  0  0  0  0  0  0  0  0
   -1.4922    0.6391   -1.3061 H   0  0  0  0  0  0  0  0  0  0  0  0
   -2.5635   -0.3127   -0.2567 H   0  0  0  0  0  0  0  0  0  0  0  0
   -1.8444    2.6575    0.1743 H   0  0  0  0  0  0  0  0  0  0  0  0
   -4.6898    1.7374    2.6398 H   0  0  0  0  0  0  0  0  0  0  0  0
   -4.0293    3.2724    2.0144 H   0  0  0  0  0  0  0  0  0  0  0  0
   -5.6967    2.7153    0.3376 H   0  0  0  0  0  0  0  0  0  0  0  0
   -5.2734    0.9749    0.4211 H   0  0  0  0  0  0  0  0  0  0  0  0
   -6.4350    0.6368   -1.8320 H   0  0  0  0  0  0  0  0  0  0  0  0
   -6.9859   -1.6991   -2.4447 H   0  0  0  0  0  0  0  0  0  0  0  0
   -5.2792   -3.1368   -3.5274 H   0  0  0  0  0  0  0  0  0  0  0  0
   -3.0214   -2.2357   -4.0216 H   0  0  0  0  0  0  0  0  0  0  0  0
   -2.4520    0.0907   -3.4242 H   0  0  0  0  0  0  0  0  0  0  0  0
    3.8296   -0.2118    2.7737 H   0  0  0  0  0  0  0  0  0  0  0  0
    5.7950    1.1714    2.3570 H   0  0  0  0  0  0  0  0  0  0  0  0
  1  2  1  0
  2  3  1  0
  3  4  2  0
  4  5  1  0
  5  6  2  0
  6  7  1  0
  7  8  1  0
  8  9  1  0
  9 10  2  0
  9 11  1  0
 11 12  2  0
 11 13  1  0
 13 14  1  0
 14 15  1  0
 15 16  1  0
 16 17  1  0
 17 18  1  0
 18 19  1  0
 19 20  1  0
 20 21  2  0
 20 22  2  0
 20 23  1  0
 23 24  2  0
 24 25  1  0
 25 26  2  0
 26 27  1  0
 27 28  2  0
  6 29  1  0
 29 30  2  0
 30  3  1  0
 19 15  1  0
 28 23  1  0
  1 31  1  0
  1 32  1  0
  1 33  1  0
  4 34  1  0
  5 35  1  0
  7 36  1  0
  7 37  1  0
  8 38  1  0
 13 39  1  0
 14 40  1  0
 14 41  1  0
 15 42  1  0
 17 43  1  0
 17 44  1  0
 18 45  1  0
 18 46  1  0
 24 47  1  0
 25 48  1  0
 26 49  1  0
 27 50  1  0
 28 51  1  0
 29 52  1  0
 30 53  1  0
M  END
$$$$
