
     RDKit          3D

 45 47  0  0  0  0  0  0  0  0999 V2000
    7.3926    1.0600   -1.3511 C   0  0  0  0  0  0  0  0  0  0  0  0
    6.8546   -0.3571   -1.4754 C   0  0  0  0  0  0  0  0  0  0  0  0
    7.0517   -1.2001   -0.2110 C   0  0  0  0  0  0  0  0  0  0  0  0
    6.3181   -0.6930    1.0344 C   0  0  0  0  0  0  0  0  0  0  0  0
    4.8321   -0.7565    0.8923 C   0  0  0  0  0  0  0  0  0  0  0  0
    4.1377   -1.8674    0.7544 N   0  0  0  0  0  0  0  0  0  0  0  0
    2.7841   -1.6191    0.6462 N   0  0  0  0  0  0  0  0  0  0  0  0
    2.5070   -0.3359    0.7130 C   0  0  0  0  0  0  0  0  0  0  0  0
    1.2256    0.1396    0.6272 N   0  0  0  0  0  0  0  0  0  0  0  0
    0.8105    1.4489    0.6808 C   0  0  0  0  0  0  0  0  0  0  0  0
    1.5161    2.4441    0.8181 O   0  0  0  0  0  0  0  0  0  0  0  0
   -0.7086    1.5971    0.5473 C   0  0  0  0  0  0  0  0  0  0  0  0
   -1.3433    0.3297    0.3960 O   0  0  0  0  0  0  0  0  0  0  0  0
   -2.7038    0.3289    0.2637 C   0  0  0  0  0  0  0  0  0  0  0  0
   -3.5309    1.4527    0.2652 C   0  0  0  0  0  0  0  0  0  0  0  0
   -4.9206    1.3138    0.1198 C   0  0  0  0  0  0  0  0  0  0  0  0
   -5.5068    0.0520   -0.0292 C   0  0  0  0  0  0  0  0  0  0  0  0
   -6.9515   -0.1630   -0.1857 C   0  0  0  0  0  0  0  0  0  0  0  0
   -7.8938    1.0041   -0.1926 C   0  0  0  0  0  0  0  0  0  0  0  0
   -7.3955   -1.4214   -0.3206 C   0  0  0  0  0  0  0  0  0  0  0  0
   -6.5136   -2.5989   -0.3204 C   0  0  0  0  0  0  0  0  0  0  0  0
   -6.9761   -3.7266   -0.4476 O   0  0  0  0  0  0  0  0  0  0  0  0
   -5.1581   -2.3644   -0.1713 O   0  0  0  0  0  0  0  0  0  0  0  0
   -4.6592   -1.0555   -0.0273 C   0  0  0  0  0  0  0  0  0  0  0  0
   -3.2761   -0.9331    0.1163 C   0  0  0  0  0  0  0  0  0  0  0  0
    3.8693    0.6655    0.9138 S   0  0  0  0  0  0  0  0  0  0  0  0
    7.3127    1.5771   -2.3128 H   0  0  0  0  0  0  0  0  0  0  0  0
    8.4467    1.0554   -1.0564 H   0  0  0  0  0  0  0  0  0  0  0  0
    6.8301    1.6419   -0.6157 H   0  0  0  0  0  0  0  0  0  0  0  0
    5.7953   -0.3239   -1.7533 H   0  0  0  0  0  0  0  0  0  0  0  0
    7.3764   -0.8532   -2.3028 H   0  0  0  0  0  0  0  0  0  0  0  0
    6.7333   -2.2277   -0.4287 H   0  0  0  0  0  0  0  0  0  0  0  0
    8.1243   -1.2513    0.0148 H   0  0  0  0  0  0  0  0  0  0  0  0
    6.6547    0.3174    1.2916 H   0  0  0  0  0  0  0  0  0  0  0  0
    6.5995   -1.3290    1.8835 H   0  0  0  0  0  0  0  0  0  0  0  0
    0.5172   -0.5765    0.5087 H   0  0  0  0  0  0  0  0  0  0  0  0
   -1.0632    2.0900    1.4598 H   0  0  0  0  0  0  0  0  0  0  0  0
   -0.8924    2.2190   -0.3365 H   0  0  0  0  0  0  0  0  0  0  0  0
   -3.1352    2.4577    0.3769 H   0  0  0  0  0  0  0  0  0  0  0  0
   -5.5267    2.2165    0.1267 H   0  0  0  0  0  0  0  0  0  0  0  0
   -7.6627    1.6857   -1.0181 H   0  0  0  0  0  0  0  0  0  0  0  0
   -7.8354    1.5568    0.7511 H   0  0  0  0  0  0  0  0  0  0  0  0
   -8.9350    0.6862   -0.3174 H   0  0  0  0  0  0  0  0  0  0  0  0
   -8.4489   -1.6495   -0.4399 H   0  0  0  0  0  0  0  0  0  0  0  0
   -2.6524   -1.8229    0.1122 H   0  0  0  0  0  0  0  0  0  0  0  0
  1  2  1  0
  2  3  1  0
  3  4  1  0
  4  5  1  0
  5  6  2  0
  6  7  1  0
  7  8  2  0
  8  9  1  0
  9 10  1  0
 10 11  2  0
 10 12  1  0
 12 13  1  0
 13 14  1  0
 14 15  2  0
 15 16  1  0
 16 17  2  0
 17 18  1  0
 18 19  1  0
 18 20  2  0
 20 21  1  0
 21 22  2  0
 21 23  1  0
 23 24  1  0
 24 25  2  0
  8 26  1  0
 26  5  1  0
 25 14  1  0
 24 17  1  0
  1 27  1  0
  1 28  1  0
  1 29  1  0
  2 30  1  0
  2 31  1  0
  3 32  1  0
  3 33  1  0
  4 34  1  0
  4 35  1  0
  9 36  1  0
 12 37  1  0
 12 38  1  0
 15 39  1  0
 16 40  1  0
 19 41  1  0
 19 42  1  0
 19 43  1  0
 20 44  1  0
 25 45  1  0
M  END
$$$$
