
     RDKit          3D

 51 53  0  0  0  0  0  0  0  0999 V2000
    6.9871   -3.0946    0.1275 C   0  0  0  0  0  0  0  0  0  0  0  0
    6.3220   -2.2544   -0.8058 O   0  0  0  0  0  0  0  0  0  0  0  0
    5.6831   -1.1396   -0.3180 C   0  0  0  0  0  0  0  0  0  0  0  0
    5.6700   -0.7594    1.0293 C   0  0  0  0  0  0  0  0  0  0  0  0
    4.9823    0.3875    1.4370 C   0  0  0  0  0  0  0  0  0  0  0  0
    4.2956    1.1709    0.5033 C   0  0  0  0  0  0  0  0  0  0  0  0
    3.5446    2.4084    0.9401 C   0  0  0  0  0  0  0  0  0  0  0  0
    2.0819    2.4094    0.5150 C   0  0  0  0  0  0  0  0  0  0  0  0
    1.6522    3.2707   -0.2468 O   0  0  0  0  0  0  0  0  0  0  0  0
    1.3578    1.3725    1.0801 N   0  0  0  0  0  0  0  0  0  0  0  0
   -0.0143    1.0946    0.9245 C   0  0  0  0  0  0  0  0  0  0  0  0
   -0.5021   -0.0690    1.5275 C   0  0  0  0  0  0  0  0  0  0  0  0
   -1.8542   -0.4172    1.4203 C   0  0  0  0  0  0  0  0  0  0  0  0
   -2.7455    0.3937    0.7096 C   0  0  0  0  0  0  0  0  0  0  0  0
   -4.0887   -0.0315    0.6387 N   0  0  0  0  0  0  0  0  0  0  0  0
   -5.1467    0.6232    0.0338 C   0  0  0  0  0  0  0  0  0  0  0  0
   -5.1283    1.7335   -0.4843 O   0  0  0  0  0  0  0  0  0  0  0  0
   -6.4434   -0.1126    0.0695 C   0  0  0  0  0  0  0  0  0  0  0  0
   -7.6290    0.6271    0.1989 C   0  0  0  0  0  0  0  0  0  0  0  0
   -8.8629   -0.0265    0.2343 C   0  0  0  0  0  0  0  0  0  0  0  0
   -8.9115   -1.4165    0.1375 C   0  0  0  0  0  0  0  0  0  0  0  0
  -10.5802   -2.3018    0.1791 Br  0  0  0  0  0  0  0  0  0  0  0  0
   -7.7394   -2.1607   -0.0104 C   0  0  0  0  0  0  0  0  0  0  0  0
   -6.5031   -1.5090   -0.0466 C   0  0  0  0  0  0  0  0  0  0  0  0
   -2.2581    1.5541    0.1103 C   0  0  0  0  0  0  0  0  0  0  0  0
   -0.9033    1.9040    0.2193 C   0  0  0  0  0  0  0  0  0  0  0  0
    4.3301    0.8045   -0.8519 C   0  0  0  0  0  0  0  0  0  0  0  0
    5.0120   -0.3454   -1.2692 C   0  0  0  0  0  0  0  0  0  0  0  0
    5.0911   -0.7682   -2.5765 O   0  0  0  0  0  0  0  0  0  0  0  0
    4.3533   -0.0400   -3.5522 C   0  0  0  0  0  0  0  0  0  0  0  0
    7.4079   -3.9389   -0.4239 H   0  0  0  0  0  0  0  0  0  0  0  0
    6.2874   -3.4982    0.8676 H   0  0  0  0  0  0  0  0  0  0  0  0
    7.8160   -2.5667    0.6161 H   0  0  0  0  0  0  0  0  0  0  0  0
    6.1908   -1.3350    1.7878 H   0  0  0  0  0  0  0  0  0  0  0  0
    5.0002    0.6672    2.4871 H   0  0  0  0  0  0  0  0  0  0  0  0
    3.5743    2.5196    2.0309 H   0  0  0  0  0  0  0  0  0  0  0  0
    4.0383    3.2912    0.5199 H   0  0  0  0  0  0  0  0  0  0  0  0
    1.8885    0.6982    1.6184 H   0  0  0  0  0  0  0  0  0  0  0  0
    0.1596   -0.7272    2.0848 H   0  0  0  0  0  0  0  0  0  0  0  0
   -2.1927   -1.3320    1.9003 H   0  0  0  0  0  0  0  0  0  0  0  0
   -4.2999   -0.8894    1.1304 H   0  0  0  0  0  0  0  0  0  0  0  0
   -7.5913    1.7131    0.2609 H   0  0  0  0  0  0  0  0  0  0  0  0
   -9.7745    0.5581    0.3374 H   0  0  0  0  0  0  0  0  0  0  0  0
   -7.7786   -3.2428   -0.1056 H   0  0  0  0  0  0  0  0  0  0  0  0
   -5.6042   -2.1009   -0.2039 H   0  0  0  0  0  0  0  0  0  0  0  0
   -2.9033    2.2192   -0.4561 H   0  0  0  0  0  0  0  0  0  0  0  0
   -0.5836    2.8232   -0.2620 H   0  0  0  0  0  0  0  0  0  0  0  0
    3.8141    1.4393   -1.5705 H   0  0  0  0  0  0  0  0  0  0  0  0
    4.7368    0.9828   -3.6559 H   0  0  0  0  0  0  0  0  0  0  0  0
    3.2802   -0.0435   -3.3230 H   0  0  0  0  0  0  0  0  0  0  0  0
    4.4814   -0.5455   -4.5156 H   0  0  0  0  0  0  0  0  0  0  0  0
  1  2  1  0
  2  3  1  0
  3  4  2  0
  4  5  1  0
  5  6  2  0
  6  7  1  0
  7  8  1  0
  8  9  2  0
  8 10  1  0
 10 11  1  0
 11 12  2  0
 12 13  1  0
 13 14  2  0
 14 15  1  0
 15 16  1  0
 16 17  2  0
 16 18  1  0
 18 19  2  0
 19 20  1  0
 20 21  2  0
 21 22  1  0
 21 23  1  0
 23 24  2  0
 14 25  1  0
 25 26  2  0
  6 27  1  0
 27 28  2  0
 28 29  1  0
 29 30  1  0
 28  3  1  0
 26 11  1  0
 24 18  1  0
  1 31  1  0
  1 32  1  0
  1 33  1  0
  4 34  1  0
  5 35  1  0
  7 36  1  0
  7 37  1  0
 10 38  1  0
 12 39  1  0
 13 40  1  0
 15 41  1  0
 19 42  1  0
 20 43  1  0
 23 44  1  0
 24 45  1  0
 25 46  1  0
 26 47  1  0
 27 48  1  0
 30 49  1  0
 30 50  1  0
 30 51  1  0
M  END
$$$$
