
     RDKit          3D

 60 62  0  0  0  0  0  0  0  0999 V2000
   -8.8800    1.4492    0.9569 C   0  0  0  0  0  0  0  0  0  0  0  0
   -8.4812    0.0973    0.3853 C   0  0  0  0  0  0  0  0  0  0  0  0
   -6.9846   -0.0545    0.2971 C   0  0  0  0  0  0  0  0  0  0  0  0
   -6.2580   -0.5763    1.3725 C   0  0  0  0  0  0  0  0  0  0  0  0
   -4.8653   -0.7017    1.3024 C   0  0  0  0  0  0  0  0  0  0  0  0
   -4.1751   -0.3024    0.1585 C   0  0  0  0  0  0  0  0  0  0  0  0
   -2.7765   -0.3998    0.0028 N   0  0  0  0  0  0  0  0  0  0  0  0
   -1.8535   -0.8421    0.9358 C   0  0  0  0  0  0  0  0  0  0  0  0
   -2.0913   -1.2199    2.0824 O   0  0  0  0  0  0  0  0  0  0  0  0
   -0.4109   -0.8795    0.3910 C   0  0  0  0  0  0  0  0  0  0  0  0
    0.5230   -0.8100    1.5403 N   0  0  0  0  0  0  0  0  0  0  0  0
    0.9918    0.7275    2.0414 S   0  0  0  0  0  6  0  0  0  0  0  0
    1.4066    0.6118    3.4207 O   0  0  0  0  0  0  0  0  0  0  0  0
   -0.0106    1.6755    1.6095 O   0  0  0  0  0  0  0  0  0  0  0  0
    2.4578    0.9626    1.0648 C   0  0  0  0  0  0  0  0  0  0  0  0
    2.4252    1.8172   -0.0496 C   0  0  0  0  0  0  0  0  0  0  0  0
    3.5731    1.9957   -0.8292 C   0  0  0  0  0  0  0  0  0  0  0  0
    4.7322    1.3245   -0.4709 C   0  0  0  0  0  0  0  0  0  0  0  0
    4.7590    0.4892    0.6486 C   0  0  0  0  0  0  0  0  0  0  0  0
    3.6308    0.2947    1.4316 C   0  0  0  0  0  0  0  0  0  0  0  0
    6.1052   -0.1314    0.8361 C   0  0  0  0  0  0  0  0  0  0  0  0
    6.9172    0.5161   -0.2925 C   0  0  0  0  0  0  0  0  0  0  0  0
    5.9966    1.3471   -1.0876 N   0  0  0  0  0  0  0  0  0  0  0  0
    6.3274    2.0541   -2.2300 C   0  0  0  0  0  0  0  0  0  0  0  0
    7.7696    1.9412   -2.6634 C   0  0  0  0  0  0  0  0  0  0  0  0
    5.5464    2.7359   -2.8926 O   0  0  0  0  0  0  0  0  0  0  0  0
   -0.1589   -2.1542   -0.4443 C   0  0  0  0  0  0  0  0  0  0  0  0
    1.1971   -2.0824   -1.1550 C   0  0  0  0  0  0  0  0  0  0  0  0
   -0.2507   -3.4512    0.3666 C   0  0  0  0  0  0  0  0  0  0  0  0
   -4.9015    0.2254   -0.9163 C   0  0  0  0  0  0  0  0  0  0  0  0
   -6.2927    0.3513   -0.8478 C   0  0  0  0  0  0  0  0  0  0  0  0
   -9.9703    1.5313    1.0088 H   0  0  0  0  0  0  0  0  0  0  0  0
   -8.4809    1.5866    1.9676 H   0  0  0  0  0  0  0  0  0  0  0  0
   -8.5072    2.2695    0.3342 H   0  0  0  0  0  0  0  0  0  0  0  0
   -8.9239   -0.0294   -0.6102 H   0  0  0  0  0  0  0  0  0  0  0  0
   -8.8975   -0.7052    1.0063 H   0  0  0  0  0  0  0  0  0  0  0  0
   -6.7686   -0.8891    2.2810 H   0  0  0  0  0  0  0  0  0  0  0  0
   -4.3535   -1.1138    2.1660 H   0  0  0  0  0  0  0  0  0  0  0  0
   -2.4131   -0.0547   -0.8766 H   0  0  0  0  0  0  0  0  0  0  0  0
   -0.2603   -0.0137   -0.2656 H   0  0  0  0  0  0  0  0  0  0  0  0
    0.2147   -1.3577    2.3519 H   0  0  0  0  0  0  0  0  0  0  0  0
    1.5142    2.3483   -0.3166 H   0  0  0  0  0  0  0  0  0  0  0  0
    3.5376    2.6577   -1.6883 H   0  0  0  0  0  0  0  0  0  0  0  0
    3.6548   -0.3589    2.2990 H   0  0  0  0  0  0  0  0  0  0  0  0
    6.5288    0.1062    1.8164 H   0  0  0  0  0  0  0  0  0  0  0  0
    6.0544   -1.2174    0.7096 H   0  0  0  0  0  0  0  0  0  0  0  0
    7.7101    1.1577    0.1088 H   0  0  0  0  0  0  0  0  0  0  0  0
    7.3814   -0.2388   -0.9364 H   0  0  0  0  0  0  0  0  0  0  0  0
    8.0038    0.9075   -2.9301 H   0  0  0  0  0  0  0  0  0  0  0  0
    7.9333    2.5682   -3.5453 H   0  0  0  0  0  0  0  0  0  0  0  0
    8.4348    2.2920   -1.8704 H   0  0  0  0  0  0  0  0  0  0  0  0
   -0.9307   -2.2068   -1.2238 H   0  0  0  0  0  0  0  0  0  0  0  0
    1.3291   -2.9414   -1.8216 H   0  0  0  0  0  0  0  0  0  0  0  0
    1.2708   -1.1754   -1.7644 H   0  0  0  0  0  0  0  0  0  0  0  0
    2.0279   -2.0825   -0.4418 H   0  0  0  0  0  0  0  0  0  0  0  0
   -1.2303   -3.5548    0.8430 H   0  0  0  0  0  0  0  0  0  0  0  0
   -0.1128   -4.3203   -0.2861 H   0  0  0  0  0  0  0  0  0  0  0  0
    0.5167   -3.4993    1.1460 H   0  0  0  0  0  0  0  0  0  0  0  0
   -4.3994    0.5521   -1.8229 H   0  0  0  0  0  0  0  0  0  0  0  0
   -6.8317    0.7714   -1.6940 H   0  0  0  0  0  0  0  0  0  0  0  0
  1  2  1  0
  2  3  1  0
  3  4  2  0
  4  5  1  0
  5  6  2  0
  6  7  1  0
  7  8  1  0
  8  9  2  0
  8 10  1  0
 10 11  1  0
 11 12  1  0
 12 13  2  0
 12 14  2  0
 12 15  1  0
 15 16  2  0
 16 17  1  0
 17 18  2  0
 18 19  1  0
 19 20  2  0
 19 21  1  0
 21 22  1  0
 22 23  1  0
 23 24  1  0
 24 25  1  0
 24 26  2  0
 10 27  1  0
 27 28  1  0
 27 29  1  0
  6 30  1  0
 30 31  2  0
 31  3  1  0
 20 15  1  0
 23 18  1  0
  1 32  1  0
  1 33  1  0
  1 34  1  0
  2 35  1  0
  2 36  1  0
  4 37  1  0
  5 38  1  0
  7 39  1  0
 10 40  1  0
 11 41  1  0
 16 42  1  0
 17 43  1  0
 20 44  1  0
 21 45  1  0
 21 46  1  0
 22 47  1  0
 22 48  1  0
 25 49  1  0
 25 50  1  0
 25 51  1  0
 27 52  1  0
 28 53  1  0
 28 54  1  0
 28 55  1  0
 29 56  1  0
 29 57  1  0
 29 58  1  0
 30 59  1  0
 31 60  1  0
M  END
$$$$
