
     RDKit          3D

 38 40  0  0  0  0  0  0  0  0999 V2000
   -3.7507    1.4370   -2.8733 C   0  0  0  0  0  0  0  0  0  0  0  0
   -3.4142    1.0360   -1.4665 C   0  0  0  0  0  0  0  0  0  0  0  0
   -3.1540   -0.3062   -1.1577 C   0  0  0  0  0  0  0  0  0  0  0  0
   -2.8089   -0.6792    0.1419 C   0  0  0  0  0  0  0  0  0  0  0  0
   -2.6976    0.3003    1.1316 C   0  0  0  0  0  0  0  0  0  0  0  0
   -2.2431   -0.1630    2.7872 S   0  0  0  0  0  6  0  0  0  0  0  0
   -2.8064    0.8227    3.6864 O   0  0  0  0  0  0  0  0  0  0  0  0
   -2.5168   -1.5738    2.9563 O   0  0  0  0  0  0  0  0  0  0  0  0
   -0.5700    0.0928    2.8064 N   0  0  0  0  0  0  0  0  0  0  0  0
    0.2357   -0.5350    1.8156 C   0  0  0  0  0  0  0  0  0  0  0  0
    0.3761   -1.9204    1.7884 C   0  0  0  0  0  0  0  0  0  0  0  0
    1.1284   -2.5204    0.7800 C   0  0  0  0  0  0  0  0  0  0  0  0
    1.7407   -1.7343   -0.1950 C   0  0  0  0  0  0  0  0  0  0  0  0
    2.4593   -2.4121   -1.1407 O   0  0  0  0  0  0  0  0  0  0  0  0
    1.6037   -0.3388   -0.1854 C   0  0  0  0  0  0  0  0  0  0  0  0
    2.2588    0.7383   -1.4515 S   0  0  0  0  0  0  0  0  0  0  0  0
    3.9733    0.5217   -1.2617 C   0  0  0  0  0  0  0  0  0  0  0  0
    4.5812   -0.6931   -1.4520 N   0  0  0  0  0  0  0  0  0  0  0  0
    5.8477   -0.4214   -1.2357 C   0  0  0  0  0  0  0  0  0  0  0  0
    5.9856    0.8981   -0.9382 N   0  0  0  0  0  0  0  0  0  0  0  0
    4.7985    1.5248   -0.9540 N   0  0  0  0  0  0  0  0  0  0  0  0
    0.8409    0.2527    0.8330 C   0  0  0  0  0  0  0  0  0  0  0  0
   -2.9590    1.6418    0.8408 C   0  0  0  0  0  0  0  0  0  0  0  0
   -3.3073    2.0066   -0.4605 C   0  0  0  0  0  0  0  0  0  0  0  0
   -2.8345    1.6718   -3.4238 H   0  0  0  0  0  0  0  0  0  0  0  0
   -4.2803    0.6318   -3.3932 H   0  0  0  0  0  0  0  0  0  0  0  0
   -4.4051    2.3150   -2.8829 H   0  0  0  0  0  0  0  0  0  0  0  0
   -3.2210   -1.0706   -1.9293 H   0  0  0  0  0  0  0  0  0  0  0  0
   -2.6174   -1.7259    0.3684 H   0  0  0  0  0  0  0  0  0  0  0  0
   -0.3423    1.0501    3.0697 H   0  0  0  0  0  0  0  0  0  0  0  0
   -0.0940   -2.5420    2.5469 H   0  0  0  0  0  0  0  0  0  0  0  0
    1.2399   -3.6013    0.7539 H   0  0  0  0  0  0  0  0  0  0  0  0
    3.1408   -1.8052   -1.4994 H   0  0  0  0  0  0  0  0  0  0  0  0
    6.6787   -1.1115   -1.2800 H   0  0  0  0  0  0  0  0  0  0  0  0
    6.8259    1.4246   -0.7241 H   0  0  0  0  0  0  0  0  0  0  0  0
    0.7023    1.3308    0.8443 H   0  0  0  0  0  0  0  0  0  0  0  0
   -2.8947    2.4038    1.6138 H   0  0  0  0  0  0  0  0  0  0  0  0
   -3.5002    3.0534   -0.6870 H   0  0  0  0  0  0  0  0  0  0  0  0
  1  2  1  0
  2  3  2  0
  3  4  1  0
  4  5  2  0
  5  6  1  0
  6  7  2  0
  6  8  2  0
  6  9  1  0
  9 10  1  0
 10 11  2  0
 11 12  1  0
 12 13  2  0
 13 14  1  0
 13 15  1  0
 15 16  1  0
 16 17  1  0
 17 18  1  0
 18 19  2  0
 19 20  1  0
 20 21  1  0
 15 22  2  0
  5 23  1  0
 23 24  2  0
 24  2  1  0
 22 10  1  0
 21 17  2  0
  1 25  1  0
  1 26  1  0
  1 27  1  0
  3 28  1  0
  4 29  1  0
  9 30  1  0
 11 31  1  0
 12 32  1  0
 14 33  1  0
 19 34  1  0
 20 35  1  0
 22 36  1  0
 23 37  1  0
 24 38  1  0
M  END
$$$$
