
     RDKit          3D

 29 30  0  0  0  0  0  0  0  0999 V2000
    2.3868    2.6205    1.8591 O   0  0  0  0  0  0  0  0  0  0  0  0
    3.1842    1.7205    1.6253 C   0  0  0  0  0  0  0  0  0  0  0  0
    2.8768    0.6389    0.6693 C   0  0  0  0  0  0  0  0  0  0  0  0
    3.8247   -0.3611    0.4354 C   0  0  0  0  0  0  0  0  0  0  0  0
    3.5401   -1.3794   -0.4750 C   0  0  0  0  0  0  0  0  0  0  0  0
    2.3123   -1.3985   -1.1393 C   0  0  0  0  0  0  0  0  0  0  0  0
    1.3597   -0.4085   -0.8868 C   0  0  0  0  0  0  0  0  0  0  0  0
    0.1791   -0.5038   -1.5932 O   0  0  0  0  0  0  0  0  0  0  0  0
   -0.9710   -0.1675   -0.9221 C   0  0  0  0  0  0  0  0  0  0  0  0
   -1.6317    0.9931   -1.3373 C   0  0  0  0  0  0  0  0  0  0  0  0
   -2.8075    1.3999   -0.6976 C   0  0  0  0  0  0  0  0  0  0  0  0
   -3.3326    0.6310    0.3536 C   0  0  0  0  0  0  0  0  0  0  0  0
   -4.5701    1.0605    1.0198 N   0  0  0  0  0  4  0  0  0  0  0  0
   -5.0822    2.1255    0.6504 O   0  0  0  0  0  0  0  0  0  0  0  0
   -5.0266    0.3261    1.9060 O   0  0  0  0  0  1  0  0  0  0  0  0
   -2.6987   -0.5489    0.7632 C   0  0  0  0  0  0  0  0  0  0  0  0
   -1.5259   -0.9407    0.1042 C   0  0  0  0  0  0  0  0  0  0  0  0
   -0.9093   -2.1927    0.4982 N   0  0  0  0  0  4  0  0  0  0  0  0
   -0.6532   -2.3343    1.7011 O   0  0  0  0  0  0  0  0  0  0  0  0
   -0.7190   -3.0385   -0.3850 O   0  0  0  0  0  1  0  0  0  0  0  0
    1.6453    0.6252    0.0063 C   0  0  0  0  0  0  0  0  0  0  0  0
    4.1687    1.6800    2.1207 H   0  0  0  0  0  0  0  0  0  0  0  0
    4.7829   -0.3578    0.9489 H   0  0  0  0  0  0  0  0  0  0  0  0
    4.2710   -2.1618   -0.6668 H   0  0  0  0  0  0  0  0  0  0  0  0
    2.0911   -2.1979   -1.8438 H   0  0  0  0  0  0  0  0  0  0  0  0
   -1.2235    1.5898   -2.1513 H   0  0  0  0  0  0  0  0  0  0  0  0
   -3.2990    2.3141   -1.0288 H   0  0  0  0  0  0  0  0  0  0  0  0
   -3.1062   -1.1595    1.5677 H   0  0  0  0  0  0  0  0  0  0  0  0
    0.9340    1.4259    0.1897 H   0  0  0  0  0  0  0  0  0  0  0  0
  1  2  2  0
  2  3  1  0
  3  4  2  0
  4  5  1  0
  5  6  2  0
  6  7  1  0
  7  8  1  0
  8  9  1  0
  9 10  2  0
 10 11  1  0
 11 12  2  0
 12 13  1  0
 13 14  2  0
 13 15  1  0
 12 16  1  0
 16 17  2  0
 17 18  1  0
 18 19  2  0
 18 20  1  0
  7 21  2  0
 21  3  1  0
 17  9  1  0
  2 22  1  0
  4 23  1  0
  5 24  1  0
  6 25  1  0
 10 26  1  0
 11 27  1  0
 16 28  1  0
 21 29  1  0
M  CHG  4  13   1  15  -1  18   1  20  -1
M  END
$$$$
