
     RDKit          3D

 34 36  0  0  0  0  0  0  0  0999 V2000
    4.7062    1.9233    0.8987 C   0  0  0  0  0  0  0  0  0  0  0  0
    4.5386    0.5991    0.3393 N   0  0  0  0  0  0  0  0  0  0  0  0
    5.6221   -0.2010    0.2413 N   0  0  0  0  0  0  0  0  0  0  0  0
    5.1399   -1.3145   -0.3082 C   0  0  0  0  0  0  0  0  0  0  0  0
    3.7572   -1.2362   -0.5438 C   0  0  0  0  0  0  0  0  0  0  0  0
    2.8461   -2.4674   -1.2712 Cl  0  0  0  0  0  0  0  0  0  0  0  0
    3.3664    0.0139   -0.0961 C   0  0  0  0  0  0  0  0  0  0  0  0
    2.0773    0.6809   -0.0738 C   0  0  0  0  0  0  0  0  0  0  0  0
    2.0114    1.9031   -0.0006 O   0  0  0  0  0  0  0  0  0  0  0  0
    0.9937   -0.1766   -0.0867 N   0  0  0  0  0  0  0  0  0  0  0  0
   -0.3557    0.1565   -0.1208 C   0  0  0  0  0  0  0  0  0  0  0  0
   -0.8627    1.7702   -0.4005 S   0  0  0  0  0  0  0  0  0  0  0  0
   -2.4609    1.3092   -0.3669 C   0  0  0  0  0  0  0  0  0  0  0  0
   -2.6555   -0.0254   -0.1427 C   0  0  0  0  0  0  0  0  0  0  0  0
   -1.4272   -0.7350    0.0262 C   0  0  0  0  0  0  0  0  0  0  0  0
   -1.2201   -2.1556    0.2998 C   0  0  0  0  0  0  0  0  0  0  0  0
   -2.3194   -2.8888    0.6398 N   0  0  0  0  0  0  0  0  0  0  0  0
   -0.1141   -2.6891    0.2736 O   0  0  0  0  0  0  0  0  0  0  0  0
   -4.1099   -0.3410   -0.1559 C   0  0  0  0  0  0  0  0  0  0  0  0
   -4.7353    0.9479   -0.7733 C   0  0  0  0  0  0  0  0  0  0  0  0
   -3.7037    2.0921   -0.5539 C   0  0  0  0  0  0  0  0  0  0  0  0
    3.9970    2.0506    1.7200 H   0  0  0  0  0  0  0  0  0  0  0  0
    5.7248    2.0277    1.2828 H   0  0  0  0  0  0  0  0  0  0  0  0
    4.5364    2.6561    0.1066 H   0  0  0  0  0  0  0  0  0  0  0  0
    5.8161   -2.1329   -0.5190 H   0  0  0  0  0  0  0  0  0  0  0  0
    1.1775   -1.1777   -0.0199 H   0  0  0  0  0  0  0  0  0  0  0  0
   -2.1394   -3.8328    0.9545 H   0  0  0  0  0  0  0  0  0  0  0  0
   -3.1745   -2.4507    0.9416 H   0  0  0  0  0  0  0  0  0  0  0  0
   -4.4785   -0.4890    0.8646 H   0  0  0  0  0  0  0  0  0  0  0  0
   -4.3495   -1.2185   -0.7628 H   0  0  0  0  0  0  0  0  0  0  0  0
   -5.7151    1.1813   -0.3455 H   0  0  0  0  0  0  0  0  0  0  0  0
   -4.8747    0.7944   -1.8518 H   0  0  0  0  0  0  0  0  0  0  0  0
   -3.9454    2.6603    0.3502 H   0  0  0  0  0  0  0  0  0  0  0  0
   -3.6691    2.7658   -1.4143 H   0  0  0  0  0  0  0  0  0  0  0  0
  1  2  1  0
  2  3  1  0
  3  4  2  0
  4  5  1  0
  5  6  1  0
  5  7  2  0
  7  8  1  0
  8  9  2  0
  8 10  1  0
 10 11  1  0
 11 12  1  0
 12 13  1  0
 13 14  2  0
 14 15  1  0
 15 16  1  0
 16 17  1  0
 16 18  2  0
 14 19  1  0
 19 20  1  0
 20 21  1  0
  7  2  1  0
 15 11  2  0
 21 13  1  0
  1 22  1  0
  1 23  1  0
  1 24  1  0
  4 25  1  0
 10 26  1  0
 17 27  1  0
 17 28  1  0
 19 29  1  0
 19 30  1  0
 20 31  1  0
 20 32  1  0
 21 33  1  0
 21 34  1  0
M  END
$$$$
