
     RDKit          3D

 46 48  0  0  0  0  0  0  0  0999 V2000
    2.0352    1.9105    3.1843 O   0  0  0  0  0  0  0  0  0  0  0  0
    1.3922    1.7646    2.1438 C   0  0  0  0  0  0  0  0  0  0  0  0
   -0.0922    1.4159    2.1281 C   0  0  0  0  0  0  0  0  0  0  0  0
   -0.4747    0.9221    0.8485 O   0  0  0  0  0  0  0  0  0  0  0  0
   -1.7804    0.5511    0.6909 C   0  0  0  0  0  0  0  0  0  0  0  0
   -2.0918    0.0356   -0.5676 C   0  0  0  0  0  0  0  0  0  0  0  0
   -3.3927   -0.3823   -0.8655 C   0  0  0  0  0  0  0  0  0  0  0  0
   -4.4153   -0.2925    0.0899 C   0  0  0  0  0  0  0  0  0  0  0  0
   -5.7858   -0.7321   -0.2188 C   0  0  0  0  0  0  0  0  0  0  0  0
   -6.0376   -2.0219   -0.7158 C   0  0  0  0  0  0  0  0  0  0  0  0
   -7.3384   -2.4410   -1.0082 C   0  0  0  0  0  0  0  0  0  0  0  0
   -8.4109   -1.5754   -0.8095 C   0  0  0  0  0  0  0  0  0  0  0  0
   -8.1838   -0.2923   -0.3186 C   0  0  0  0  0  0  0  0  0  0  0  0
   -6.8824    0.1247   -0.0256 C   0  0  0  0  0  0  0  0  0  0  0  0
   -4.0878    0.2292    1.3516 C   0  0  0  0  0  0  0  0  0  0  0  0
   -2.7842    0.6470    1.6522 C   0  0  0  0  0  0  0  0  0  0  0  0
    1.9523    1.9516    0.8930 N   0  0  0  0  0  0  0  0  0  0  0  0
    3.3691    1.9894    0.8346 N   0  0  0  0  0  0  0  0  0  0  0  0
    3.9564    1.0882   -0.0470 C   0  0  0  0  0  0  0  0  0  0  0  0
    3.2945    0.4450   -0.8532 O   0  0  0  0  0  0  0  0  0  0  0  0
    5.3295    1.0957    0.0860 N   0  0  0  0  0  0  0  0  0  0  0  0
    6.2204    0.2011   -0.5439 C   0  0  0  0  0  0  0  0  0  0  0  0
    7.5297    0.6510   -0.7661 C   0  0  0  0  0  0  0  0  0  0  0  0
    8.4657   -0.1804   -1.3874 C   0  0  0  0  0  0  0  0  0  0  0  0
    8.0987   -1.4659   -1.7692 C   0  0  0  0  0  0  0  0  0  0  0  0
    9.0013   -2.2595   -2.3595 F   0  0  0  0  0  0  0  0  0  0  0  0
    6.8194   -1.9432   -1.5302 C   0  0  0  0  0  0  0  0  0  0  0  0
    5.8890   -1.1124   -0.9115 C   0  0  0  0  0  0  0  0  0  0  0  0
    4.6976   -1.6434   -0.6049 F   0  0  0  0  0  0  0  0  0  0  0  0
   -0.2521    0.6456    2.8913 H   0  0  0  0  0  0  0  0  0  0  0  0
   -0.6424    2.3326    2.3687 H   0  0  0  0  0  0  0  0  0  0  0  0
   -1.3175   -0.0444   -1.3273 H   0  0  0  0  0  0  0  0  0  0  0  0
   -3.6040   -0.7708   -1.8598 H   0  0  0  0  0  0  0  0  0  0  0  0
   -5.2153   -2.7183   -0.8683 H   0  0  0  0  0  0  0  0  0  0  0  0
   -7.5117   -3.4441   -1.3889 H   0  0  0  0  0  0  0  0  0  0  0  0
   -9.4225   -1.9004   -1.0376 H   0  0  0  0  0  0  0  0  0  0  0  0
   -9.0181    0.3873   -0.1659 H   0  0  0  0  0  0  0  0  0  0  0  0
   -6.7266    1.1357    0.3455 H   0  0  0  0  0  0  0  0  0  0  0  0
   -4.8522    0.3025    2.1234 H   0  0  0  0  0  0  0  0  0  0  0  0
   -2.5958    1.0372    2.6467 H   0  0  0  0  0  0  0  0  0  0  0  0
    1.5034    1.4685    0.1081 H   0  0  0  0  0  0  0  0  0  0  0  0
    3.7978    2.0432    1.7585 H   0  0  0  0  0  0  0  0  0  0  0  0
    5.7055    1.9804    0.3972 H   0  0  0  0  0  0  0  0  0  0  0  0
    7.8327    1.6547   -0.4788 H   0  0  0  0  0  0  0  0  0  0  0  0
    9.4774    0.1661   -1.5762 H   0  0  0  0  0  0  0  0  0  0  0  0
    6.5485   -2.9561   -1.8040 H   0  0  0  0  0  0  0  0  0  0  0  0
  1  2  2  0
  2  3  1  0
  3  4  1  0
  4  5  1  0
  5  6  2  0
  6  7  1  0
  7  8  2  0
  8  9  1  0
  9 10  2  0
 10 11  1  0
 11 12  2  0
 12 13  1  0
 13 14  2  0
  8 15  1  0
 15 16  2  0
  2 17  1  0
 17 18  1  0
 18 19  1  0
 19 20  2  0
 19 21  1  0
 21 22  1  0
 22 23  2  0
 23 24  1  0
 24 25  2  0
 25 26  1  0
 25 27  1  0
 27 28  2  0
 28 29  1  0
 16  5  1  0
 28 22  1  0
 14  9  1  0
  3 30  1  0
  3 31  1  0
  6 32  1  0
  7 33  1  0
 10 34  1  0
 11 35  1  0
 12 36  1  0
 13 37  1  0
 14 38  1  0
 15 39  1  0
 16 40  1  0
 17 41  1  0
 18 42  1  0
 21 43  1  0
 23 44  1  0
 24 45  1  0
 27 46  1  0
M  END
$$$$
