
     RDKit          3D

 38 39  0  0  0  0  0  0  0  0999 V2000
   -4.4811    1.1184    2.7792 C   0  0  0  0  0  0  0  0  0  0  0  0
   -3.5967    0.9570    1.6759 O   0  0  0  0  0  0  0  0  0  0  0  0
   -4.1134    0.4639    0.5080 C   0  0  0  0  0  0  0  0  0  0  0  0
   -5.4536    0.0873    0.3442 C   0  0  0  0  0  0  0  0  0  0  0  0
   -5.9231   -0.3708   -0.8911 C   0  0  0  0  0  0  0  0  0  0  0  0
   -5.0630   -0.4545   -1.9805 C   0  0  0  0  0  0  0  0  0  0  0  0
   -3.7275   -0.0880   -1.8328 C   0  0  0  0  0  0  0  0  0  0  0  0
   -3.2434    0.3590   -0.5918 C   0  0  0  0  0  0  0  0  0  0  0  0
   -1.7971    0.7125   -0.5318 C   0  0  0  0  0  0  0  0  0  0  0  0
   -1.2565    1.1811   -1.5354 O   0  0  0  0  0  0  0  0  0  0  0  0
   -1.0243    0.4389    0.7555 C   0  0  0  0  0  0  0  0  0  0  0  0
    0.3750    0.2608    0.5130 O   0  0  0  0  0  0  0  0  0  0  0  0
    0.6855   -0.9151   -0.0829 C   0  0  0  0  0  0  0  0  0  0  0  0
   -0.0978   -1.8192   -0.3372 O   0  0  0  0  0  0  0  0  0  0  0  0
    2.1265   -1.0193   -0.3897 C   0  0  0  0  0  0  0  0  0  0  0  0
    3.0228   -0.0474   -0.1581 C   0  0  0  0  0  0  0  0  0  0  0  0
    4.4545   -0.1724   -0.4639 C   0  0  0  0  0  0  0  0  0  0  0  0
    4.9196   -0.7988   -1.6278 C   0  0  0  0  0  0  0  0  0  0  0  0
    6.2891   -0.8731   -1.8957 C   0  0  0  0  0  0  0  0  0  0  0  0
    7.2060   -0.3133   -1.0085 C   0  0  0  0  0  0  0  0  0  0  0  0
    6.7548    0.3266    0.1436 C   0  0  0  0  0  0  0  0  0  0  0  0
    5.3856    0.4018    0.4114 C   0  0  0  0  0  0  0  0  0  0  0  0
   -5.2822    1.8265    2.5432 H   0  0  0  0  0  0  0  0  0  0  0  0
   -3.9037    1.5347    3.6102 H   0  0  0  0  0  0  0  0  0  0  0  0
   -4.8842    0.1540    3.1049 H   0  0  0  0  0  0  0  0  0  0  0  0
   -6.1689    0.1426    1.1588 H   0  0  0  0  0  0  0  0  0  0  0  0
   -6.9665   -0.6573   -1.0024 H   0  0  0  0  0  0  0  0  0  0  0  0
   -5.4277   -0.8051   -2.9428 H   0  0  0  0  0  0  0  0  0  0  0  0
   -3.0561   -0.1588   -2.6874 H   0  0  0  0  0  0  0  0  0  0  0  0
   -1.4208   -0.4334    1.2865 H   0  0  0  0  0  0  0  0  0  0  0  0
   -1.1164    1.3172    1.4016 H   0  0  0  0  0  0  0  0  0  0  0  0
    2.4106   -1.9712   -0.8243 H   0  0  0  0  0  0  0  0  0  0  0  0
    2.7204    0.8946    0.2938 H   0  0  0  0  0  0  0  0  0  0  0  0
    4.2235   -1.2241   -2.3467 H   0  0  0  0  0  0  0  0  0  0  0  0
    6.6381   -1.3626   -2.8013 H   0  0  0  0  0  0  0  0  0  0  0  0
    8.2709   -0.3700   -1.2185 H   0  0  0  0  0  0  0  0  0  0  0  0
    7.4676    0.7701    0.8339 H   0  0  0  0  0  0  0  0  0  0  0  0
    5.0533    0.9075    1.3154 H   0  0  0  0  0  0  0  0  0  0  0  0
  1  2  1  0
  2  3  1  0
  3  4  2  0
  4  5  1  0
  5  6  2  0
  6  7  1  0
  7  8  2  0
  8  9  1  0
  9 10  2  0
  9 11  1  0
 11 12  1  0
 12 13  1  0
 13 14  2  0
 13 15  1  0
 15 16  2  3
 16 17  1  0
 17 18  2  0
 18 19  1  0
 19 20  2  0
 20 21  1  0
 21 22  2  0
  8  3  1  0
 22 17  1  0
  1 23  1  0
  1 24  1  0
  1 25  1  0
  4 26  1  0
  5 27  1  0
  6 28  1  0
  7 29  1  0
 11 30  1  0
 11 31  1  0
 15 32  1  0
 16 33  1  0
 18 34  1  0
 19 35  1  0
 20 36  1  0
 21 37  1  0
 22 38  1  0
M  END
$$$$
