
     RDKit          3D

 33 34  0  0  0  0  0  0  0  0999 V2000
   -5.6180    0.7198   -1.1886 C   0  0  0  0  0  0  0  0  0  0  0  0
   -4.9551    0.7221    0.1779 C   0  0  0  0  0  0  0  0  0  0  0  0
   -4.1141   -0.4197    0.3355 O   0  0  0  0  0  0  0  0  0  0  0  0
   -2.8074   -0.3377   -0.0536 C   0  0  0  0  0  0  0  0  0  0  0  0
   -2.2049    0.7312   -0.7153 C   0  0  0  0  0  0  0  0  0  0  0  0
   -0.8486    0.6720   -1.0582 C   0  0  0  0  0  0  0  0  0  0  0  0
   -0.0811   -0.4538   -0.7371 C   0  0  0  0  0  0  0  0  0  0  0  0
    1.3573   -0.4661   -1.1253 C   0  0  0  0  0  0  0  0  0  0  0  0
    1.7505    0.2358   -2.0505 O   0  0  0  0  0  0  0  0  0  0  0  0
    2.1873   -1.2674   -0.3718 N   0  0  0  0  0  0  0  0  0  0  0  0
    3.6220   -1.2281   -0.5481 C   0  0  0  0  0  0  0  0  0  0  0  0
    4.1872   -0.2598    0.4224 C   0  0  0  0  0  0  0  0  0  0  0  0
    4.4708    1.0887    0.3558 C   0  0  0  0  0  0  0  0  0  0  0  0
    4.9881    1.4508    1.6220 C   0  0  0  0  0  0  0  0  0  0  0  0
    4.9831    0.3038    2.3805 C   0  0  0  0  0  0  0  0  0  0  0  0
    4.4946   -0.7406    1.6628 O   0  0  0  0  0  0  0  0  0  0  0  0
   -0.6888   -1.5350   -0.0915 C   0  0  0  0  0  0  0  0  0  0  0  0
   -2.0438   -1.4698    0.2478 C   0  0  0  0  0  0  0  0  0  0  0  0
   -4.8797    0.7945   -1.9925 H   0  0  0  0  0  0  0  0  0  0  0  0
   -6.3175    1.5557   -1.2799 H   0  0  0  0  0  0  0  0  0  0  0  0
   -6.1650   -0.2155   -1.3471 H   0  0  0  0  0  0  0  0  0  0  0  0
   -5.7376    0.6366    0.9406 H   0  0  0  0  0  0  0  0  0  0  0  0
   -4.4332    1.6618    0.3892 H   0  0  0  0  0  0  0  0  0  0  0  0
   -2.7568    1.6228   -0.9924 H   0  0  0  0  0  0  0  0  0  0  0  0
   -0.3911    1.5113   -1.5792 H   0  0  0  0  0  0  0  0  0  0  0  0
    1.8625   -1.5986    0.5256 H   0  0  0  0  0  0  0  0  0  0  0  0
    4.0041   -2.2355   -0.3558 H   0  0  0  0  0  0  0  0  0  0  0  0
    3.8785   -0.9505   -1.5753 H   0  0  0  0  0  0  0  0  0  0  0  0
    4.3117    1.7253   -0.5045 H   0  0  0  0  0  0  0  0  0  0  0  0
    5.3200    2.4276    1.9441 H   0  0  0  0  0  0  0  0  0  0  0  0
    5.2769    0.0762    3.3957 H   0  0  0  0  0  0  0  0  0  0  0  0
   -0.1379   -2.4435    0.1318 H   0  0  0  0  0  0  0  0  0  0  0  0
   -2.5140   -2.3145    0.7469 H   0  0  0  0  0  0  0  0  0  0  0  0
  1  2  1  0
  2  3  1  0
  3  4  1  0
  4  5  2  0
  5  6  1  0
  6  7  2  0
  7  8  1  0
  8  9  2  0
  8 10  1  0
 10 11  1  0
 11 12  1  0
 12 13  2  0
 13 14  1  0
 14 15  2  0
 15 16  1  0
  7 17  1  0
 17 18  2  0
 18  4  1  0
 16 12  1  0
  1 19  1  0
  1 20  1  0
  1 21  1  0
  2 22  1  0
  2 23  1  0
  5 24  1  0
  6 25  1  0
 10 26  1  0
 11 27  1  0
 11 28  1  0
 13 29  1  0
 14 30  1  0
 15 31  1  0
 17 32  1  0
 18 33  1  0
M  END
$$$$
