
     RDKit          3D

 38 41  0  0  0  0  0  0  0  0999 V2000
   -4.2415    0.4853    3.7004 O   0  0  0  0  0  0  0  0  0  0  0  0
   -3.6585   -0.4483    3.1579 C   0  0  0  0  0  0  0  0  0  0  0  0
   -3.1865   -0.4304    1.7848 C   0  0  0  0  0  0  0  0  0  0  0  0
   -2.5162   -1.4721    1.1721 C   0  0  0  0  0  0  0  0  0  0  0  0
   -2.2181   -1.0977   -0.1136 N   0  0  0  0  0  0  0  0  0  0  0  0
   -1.4747   -1.9278   -1.0513 C   0  0  0  0  0  0  0  0  0  0  0  0
    0.0283   -1.9017   -0.8237 C   0  0  0  0  0  0  0  0  0  0  0  0
    0.6691   -2.9485   -0.8987 O   0  0  0  0  0  0  0  0  0  0  0  0
    0.5622   -0.6410   -0.6098 N   0  0  0  0  0  0  0  0  0  0  0  0
    1.9173   -0.2998   -0.4116 C   0  0  0  0  0  0  0  0  0  0  0  0
    2.1944    1.0629   -0.1537 C   0  0  0  0  0  0  0  0  0  0  0  0
    3.5036    1.5111    0.0555 C   0  0  0  0  0  0  0  0  0  0  0  0
    4.5124    0.5779    0.0004 C   0  0  0  0  0  0  0  0  0  0  0  0
    4.2528   -0.7478   -0.2504 C   0  0  0  0  0  0  0  0  0  0  0  0
    2.9707   -1.2181   -0.4604 C   0  0  0  0  0  0  0  0  0  0  0  0
    5.3858   -1.5018   -0.2638 O   0  0  0  0  0  0  0  0  0  0  0  0
    6.3848   -0.4987    0.0109 C   0  0  0  0  0  0  0  0  0  0  0  0
    5.8369    0.8258    0.1768 O   0  0  0  0  0  0  0  0  0  0  0  0
   -2.7015    0.1702   -0.3661 C   0  0  0  0  0  0  0  0  0  0  0  0
   -2.6509    0.9697   -1.5213 C   0  0  0  0  0  0  0  0  0  0  0  0
   -3.2209    2.2448   -1.4676 C   0  0  0  0  0  0  0  0  0  0  0  0
   -3.8222    2.7106   -0.3041 C   0  0  0  0  0  0  0  0  0  0  0  0
   -3.8705    1.9080    0.8395 C   0  0  0  0  0  0  0  0  0  0  0  0
   -3.3034    0.6158    0.8166 C   0  0  0  0  0  0  0  0  0  0  0  0
   -3.4573   -1.3804    3.7131 H   0  0  0  0  0  0  0  0  0  0  0  0
   -2.2197   -2.4434    1.5508 H   0  0  0  0  0  0  0  0  0  0  0  0
   -1.8412   -2.9532   -0.9265 H   0  0  0  0  0  0  0  0  0  0  0  0
   -1.6951   -1.6109   -2.0742 H   0  0  0  0  0  0  0  0  0  0  0  0
   -0.0899    0.1330   -0.5374 H   0  0  0  0  0  0  0  0  0  0  0  0
    1.3882    1.7924   -0.1095 H   0  0  0  0  0  0  0  0  0  0  0  0
    3.7173    2.5549    0.2552 H   0  0  0  0  0  0  0  0  0  0  0  0
    2.8277   -2.2732   -0.6557 H   0  0  0  0  0  0  0  0  0  0  0  0
    7.1007   -0.4802   -0.8189 H   0  0  0  0  0  0  0  0  0  0  0  0
    6.9170   -0.7753    0.9283 H   0  0  0  0  0  0  0  0  0  0  0  0
   -2.1920    0.6232   -2.4421 H   0  0  0  0  0  0  0  0  0  0  0  0
   -3.1984    2.8805   -2.3503 H   0  0  0  0  0  0  0  0  0  0  0  0
   -4.2641    3.7039   -0.2798 H   0  0  0  0  0  0  0  0  0  0  0  0
   -4.3469    2.2804    1.7439 H   0  0  0  0  0  0  0  0  0  0  0  0
  1  2  2  0
  2  3  1  0
  3  4  2  0
  4  5  1  0
  5  6  1  0
  6  7  1  0
  7  8  2  0
  7  9  1  0
  9 10  1  0
 10 11  2  0
 11 12  1  0
 12 13  2  0
 13 14  1  0
 14 15  2  0
 14 16  1  0
 16 17  1  0
 17 18  1  0
  5 19  1  0
 19 20  2  0
 20 21  1  0
 21 22  2  0
 22 23  1  0
 23 24  2  0
 24  3  1  0
 15 10  1  0
 24 19  1  0
 18 13  1  0
  2 25  1  0
  4 26  1  0
  6 27  1  0
  6 28  1  0
  9 29  1  0
 11 30  1  0
 12 31  1  0
 15 32  1  0
 17 33  1  0
 17 34  1  0
 20 35  1  0
 21 36  1  0
 22 37  1  0
 23 38  1  0
M  END
$$$$
