
     RDKit          3D

 46 49  0  0  0  0  0  0  0  0999 V2000
    4.1109    0.9383    3.0290 O   0  0  0  0  0  0  0  0  0  0  0  0
    3.1637    0.9776    2.2463 C   0  0  0  0  0  0  0  0  0  0  0  0
    1.7349    0.8868    2.7638 C   0  0  0  0  0  0  0  0  0  0  0  0
    0.9348   -0.6819    2.3119 S   0  0  0  0  0  0  0  0  0  0  0  0
    0.1494   -0.2115    0.8478 C   0  0  0  0  0  0  0  0  0  0  0  0
    0.6519    0.6229   -0.0316 N   0  0  0  0  0  0  0  0  0  0  0  0
   -0.2754    0.8109   -1.0125 N   0  0  0  0  0  0  0  0  0  0  0  0
   -1.3495    0.0964   -0.7159 C   0  0  0  0  0  0  0  0  0  0  0  0
   -2.6054    0.0623   -1.5299 C   0  0  0  0  0  0  0  0  0  0  0  0
   -3.8290    0.5852   -0.8213 C   0  0  0  0  0  0  0  0  0  0  0  0
   -5.0735   -0.0133   -0.7038 C   0  0  0  0  0  0  0  0  0  0  0  0
   -5.9916    0.7832    0.0394 C   0  0  0  0  0  0  0  0  0  0  0  0
   -5.4306    1.9742    0.4481 C   0  0  0  0  0  0  0  0  0  0  0  0
   -3.8111    2.1366   -0.0788 S   0  0  0  0  0  0  0  0  0  0  0  0
   -1.1058   -0.6065    0.4507 N   0  0  0  0  0  0  0  0  0  0  0  0
   -2.0245   -1.4717    1.1702 C   0  0  0  0  0  0  0  0  0  0  0  0
   -2.3978   -2.6845    0.3954 C   0  0  0  0  0  0  0  0  0  0  0  0
   -3.6008   -3.3215    0.1679 C   0  0  0  0  0  0  0  0  0  0  0  0
   -3.3117   -4.4434   -0.6507 C   0  0  0  0  0  0  0  0  0  0  0  0
   -1.9504   -4.4284   -0.8603 C   0  0  0  0  0  0  0  0  0  0  0  0
   -1.3882   -3.3681   -0.2238 O   0  0  0  0  0  0  0  0  0  0  0  0
    3.2431    1.1780    0.8763 N   0  0  0  0  0  0  0  0  0  0  0  0
    4.3903    1.4565    0.1039 C   0  0  0  0  0  0  0  0  0  0  0  0
    4.2008    1.6054   -1.2770 C   0  0  0  0  0  0  0  0  0  0  0  0
    5.2787    1.9249   -2.1042 C   0  0  0  0  0  0  0  0  0  0  0  0
    5.0312    2.1085   -3.7950 Cl  0  0  0  0  0  0  0  0  0  0  0  0
    6.5484    2.1060   -1.5745 C   0  0  0  0  0  0  0  0  0  0  0  0
    6.7400    1.9455   -0.2040 C   0  0  0  0  0  0  0  0  0  0  0  0
    8.3123    2.1613    0.4635 Cl  0  0  0  0  0  0  0  0  0  0  0  0
    5.6740    1.6163    0.6350 C   0  0  0  0  0  0  0  0  0  0  0  0
    1.1628    1.7520    2.4131 H   0  0  0  0  0  0  0  0  0  0  0  0
    1.7595    0.9522    3.8561 H   0  0  0  0  0  0  0  0  0  0  0  0
   -2.4510    0.6673   -2.4343 H   0  0  0  0  0  0  0  0  0  0  0  0
   -2.7765   -0.9606   -1.8875 H   0  0  0  0  0  0  0  0  0  0  0  0
   -5.3181   -0.9795   -1.1275 H   0  0  0  0  0  0  0  0  0  0  0  0
   -7.0173    0.5021    0.2584 H   0  0  0  0  0  0  0  0  0  0  0  0
   -5.8916    2.7684    1.0161 H   0  0  0  0  0  0  0  0  0  0  0  0
   -1.5743   -1.7827    2.1185 H   0  0  0  0  0  0  0  0  0  0  0  0
   -2.9055   -0.8708    1.4216 H   0  0  0  0  0  0  0  0  0  0  0  0
   -4.5633   -3.0132    0.5443 H   0  0  0  0  0  0  0  0  0  0  0  0
   -4.0027   -5.1779   -1.0383 H   0  0  0  0  0  0  0  0  0  0  0  0
   -1.2595   -5.0682   -1.4095 H   0  0  0  0  0  0  0  0  0  0  0  0
    2.3596    1.1142    0.3599 H   0  0  0  0  0  0  0  0  0  0  0  0
    3.2089    1.4797   -1.7156 H   0  0  0  0  0  0  0  0  0  0  0  0
    7.3811    2.3677   -2.2194 H   0  0  0  0  0  0  0  0  0  0  0  0
    5.8686    1.5032    1.6966 H   0  0  0  0  0  0  0  0  0  0  0  0
  1  2  2  0
  2  3  1  0
  3  4  1  0
  4  5  1  0
  5  6  2  0
  6  7  1  0
  7  8  2  0
  8  9  1  0
  9 10  1  0
 10 11  2  0
 11 12  1  0
 12 13  2  0
 13 14  1  0
  8 15  1  0
 15 16  1  0
 16 17  1  0
 17 18  2  0
 18 19  1  0
 19 20  2  0
 20 21  1  0
  2 22  1  0
 22 23  1  0
 23 24  2  0
 24 25  1  0
 25 26  1  0
 25 27  2  0
 27 28  1  0
 28 29  1  0
 28 30  2  0
 15  5  1  0
 21 17  1  0
 30 23  1  0
 14 10  1  0
  3 31  1  0
  3 32  1  0
  9 33  1  0
  9 34  1  0
 11 35  1  0
 12 36  1  0
 13 37  1  0
 16 38  1  0
 16 39  1  0
 18 40  1  0
 19 41  1  0
 20 42  1  0
 22 43  1  0
 24 44  1  0
 27 45  1  0
 30 46  1  0
M  END
$$$$
