
     RDKit          3D

 48 52  0  0  0  0  0  0  0  0999 V2000
   -4.0499   -2.7426   -0.8012 C   0  0  0  0  0  0  0  0  0  0  0  0
   -2.9379   -1.8624   -0.5209 N   0  0  0  0  0  0  0  0  0  0  0  0
   -1.8666   -1.6782   -1.3466 C   0  0  0  0  0  0  0  0  0  0  0  0
   -1.0024   -0.7593   -0.7676 C   0  0  0  0  0  0  0  0  0  0  0  0
    0.2963   -0.3028   -1.4008 C   0  0  0  0  0  0  0  0  0  0  0  0
   -0.0519    0.8427   -2.3482 C   0  0  0  0  0  0  0  0  0  0  0  0
   -0.7266    1.9961   -1.9299 C   0  0  0  0  0  0  0  0  0  0  0  0
   -1.0109    3.0004   -2.8527 C   0  0  0  0  0  0  0  0  0  0  0  0
   -0.6189    2.8419   -4.1740 C   0  0  0  0  0  0  0  0  0  0  0  0
    0.0450    1.6796   -4.5200 C   0  0  0  0  0  0  0  0  0  0  0  0
    0.3344    0.6887   -3.6486 N   0  0  0  0  0  0  0  0  0  0  0  0
    1.4171    0.1056   -0.4687 C   0  0  0  0  0  0  0  0  0  0  0  0
    2.1494    1.2839   -0.4308 C   0  0  0  0  0  0  0  0  0  0  0  0
    3.0890    1.1952    0.5592 N   0  0  0  0  0  0  0  0  0  0  0  0
    4.0339    2.2379    0.8909 C   0  0  0  0  0  0  0  0  0  0  0  0
    3.0202   -0.0322    1.1762 C   0  0  0  0  0  0  0  0  0  0  0  0
    3.7774   -0.5791    2.2252 C   0  0  0  0  0  0  0  0  0  0  0  0
    3.4819   -1.8793    2.6426 C   0  0  0  0  0  0  0  0  0  0  0  0
    2.4679   -2.6105    2.0341 C   0  0  0  0  0  0  0  0  0  0  0  0
    1.7212   -2.0560    0.9893 C   0  0  0  0  0  0  0  0  0  0  0  0
    1.9930   -0.7419    0.5480 C   0  0  0  0  0  0  0  0  0  0  0  0
   -1.6002   -0.3908    0.4920 C   0  0  0  0  0  0  0  0  0  0  0  0
   -1.2342    0.4768    1.5464 C   0  0  0  0  0  0  0  0  0  0  0  0
   -2.0632    0.6166    2.6648 C   0  0  0  0  0  0  0  0  0  0  0  0
   -3.2552   -0.0913    2.7520 C   0  0  0  0  0  0  0  0  0  0  0  0
   -3.6479   -0.9566    1.7289 C   0  0  0  0  0  0  0  0  0  0  0  0
   -2.8063   -1.0917    0.6117 C   0  0  0  0  0  0  0  0  0  0  0  0
   -3.8986   -3.2294   -1.7681 H   0  0  0  0  0  0  0  0  0  0  0  0
   -4.9654   -2.1459   -0.8278 H   0  0  0  0  0  0  0  0  0  0  0  0
   -4.1014   -3.4972   -0.0121 H   0  0  0  0  0  0  0  0  0  0  0  0
   -1.7912   -2.1992   -2.2931 H   0  0  0  0  0  0  0  0  0  0  0  0
    0.6836   -1.1352   -2.0074 H   0  0  0  0  0  0  0  0  0  0  0  0
   -1.0296    2.1198   -0.8956 H   0  0  0  0  0  0  0  0  0  0  0  0
   -1.5367    3.8969   -2.5376 H   0  0  0  0  0  0  0  0  0  0  0  0
   -0.8263    3.6038   -4.9161 H   0  0  0  0  0  0  0  0  0  0  0  0
    0.3734    1.5058   -5.5405 H   0  0  0  0  0  0  0  0  0  0  0  0
    2.0812    2.1739   -1.0438 H   0  0  0  0  0  0  0  0  0  0  0  0
    5.0444    1.8518    0.7347 H   0  0  0  0  0  0  0  0  0  0  0  0
    3.8658    3.1048    0.2468 H   0  0  0  0  0  0  0  0  0  0  0  0
    3.8839    2.5207    1.9360 H   0  0  0  0  0  0  0  0  0  0  0  0
    4.5727   -0.0167    2.7030 H   0  0  0  0  0  0  0  0  0  0  0  0
    4.0532   -2.3244    3.4536 H   0  0  0  0  0  0  0  0  0  0  0  0
    2.2482   -3.6198    2.3719 H   0  0  0  0  0  0  0  0  0  0  0  0
    0.9269   -2.6373    0.5293 H   0  0  0  0  0  0  0  0  0  0  0  0
   -0.3052    1.0374    1.5059 H   0  0  0  0  0  0  0  0  0  0  0  0
   -1.7660    1.2817    3.4713 H   0  0  0  0  0  0  0  0  0  0  0  0
   -3.8885    0.0260    3.6279 H   0  0  0  0  0  0  0  0  0  0  0  0
   -4.5791   -1.5083    1.8056 H   0  0  0  0  0  0  0  0  0  0  0  0
  1  2  1  0
  2  3  1  0
  3  4  2  0
  4  5  1  0
  5  6  1  0
  6  7  2  0
  7  8  1  0
  8  9  2  0
  9 10  1  0
 10 11  2  0
  5 12  1  0
 12 13  2  0
 13 14  1  0
 14 15  1  0
 14 16  1  0
 16 17  2  0
 17 18  1  0
 18 19  2  0
 19 20  1  0
 20 21  2  0
  4 22  1  0
 22 23  2  0
 23 24  1  0
 24 25  2  0
 25 26  1  0
 26 27  2  0
 27  2  1  0
 11  6  1  0
 21 12  1  0
 27 22  1  0
 21 16  1  0
  1 28  1  0
  1 29  1  0
  1 30  1  0
  3 31  1  0
  5 32  1  0
  7 33  1  0
  8 34  1  0
  9 35  1  0
 10 36  1  0
 13 37  1  0
 15 38  1  0
 15 39  1  0
 15 40  1  0
 17 41  1  0
 18 42  1  0
 19 43  1  0
 20 44  1  0
 23 45  1  0
 24 46  1  0
 25 47  1  0
 26 48  1  0
M  END
$$$$
