
     RDKit          3D

 40 42  0  0  0  0  0  0  0  0999 V2000
   -2.1848   -1.8890   -1.9833 O   0  0  0  0  0  0  0  0  0  0  0  0
   -1.8891   -1.0463   -1.1436 C   0  0  0  0  0  0  0  0  0  0  0  0
   -2.7670   -0.2731   -0.4097 N   0  0  0  0  0  0  0  0  0  0  0  0
   -4.1863   -0.3162   -0.3998 C   0  0  0  0  0  0  0  0  0  0  0  0
   -4.9080   -1.2584   -1.1436 C   0  0  0  0  0  0  0  0  0  0  0  0
   -6.3063   -1.2818   -1.1172 C   0  0  0  0  0  0  0  0  0  0  0  0
   -7.0093   -0.3652   -0.3442 C   0  0  0  0  0  0  0  0  0  0  0  0
   -6.3142    0.5785    0.4089 C   0  0  0  0  0  0  0  0  0  0  0  0
   -4.9080    0.6112    0.3903 C   0  0  0  0  0  0  0  0  0  0  0  0
   -4.1873    1.6233    1.2112 C   0  0  0  0  0  0  0  0  0  0  0  0
   -2.9751    1.7306    1.2981 O   0  0  0  0  0  0  0  0  0  0  0  0
   -5.0042    2.4532    1.8838 O   0  0  0  0  0  0  0  0  0  0  0  0
   -0.4396   -0.7810   -0.8947 C   0  0  0  0  0  0  0  0  0  0  0  0
    0.4673   -1.0248   -1.9316 C   0  0  0  0  0  0  0  0  0  0  0  0
    1.8349   -0.7975   -1.7442 C   0  0  0  0  0  0  0  0  0  0  0  0
    2.3221   -0.3304   -0.5167 C   0  0  0  0  0  0  0  0  0  0  0  0
    3.7155   -0.1294   -0.4167 N   0  0  0  0  0  0  0  0  0  0  0  0
    4.4341    0.3392    0.6766 C   0  0  0  0  0  0  0  0  0  0  0  0
    3.9266    0.6660    1.7450 O   0  0  0  0  0  0  0  0  0  0  0  0
    5.8734    0.4195    0.4510 C   0  0  0  0  0  0  0  0  0  0  0  0
    6.7003    0.0972   -0.6146 C   0  0  0  0  0  0  0  0  0  0  0  0
    8.0269    0.4076   -0.2190 C   0  0  0  0  0  0  0  0  0  0  0  0
    7.9393    0.8996    1.0607 C   0  0  0  0  0  0  0  0  0  0  0  0
    9.4082    1.4853    2.1166 Br  0  0  0  0  0  0  0  0  0  0  0  0
    6.6472    0.9103    1.4730 O   0  0  0  0  0  0  0  0  0  0  0  0
    1.4161   -0.1037    0.5212 C   0  0  0  0  0  0  0  0  0  0  0  0
    0.0443   -0.3310    0.3382 C   0  0  0  0  0  0  0  0  0  0  0  0
   -2.3633    0.4684    0.1634 H   0  0  0  0  0  0  0  0  0  0  0  0
   -4.4100   -2.0006   -1.7602 H   0  0  0  0  0  0  0  0  0  0  0  0
   -6.8418   -2.0236   -1.7055 H   0  0  0  0  0  0  0  0  0  0  0  0
   -8.0962   -0.3865   -0.3260 H   0  0  0  0  0  0  0  0  0  0  0  0
   -6.8807    1.2855    1.0108 H   0  0  0  0  0  0  0  0  0  0  0  0
   -4.4006    3.0537    2.3699 H   0  0  0  0  0  0  0  0  0  0  0  0
    0.1106   -1.3923   -2.8924 H   0  0  0  0  0  0  0  0  0  0  0  0
    2.5066   -0.9953   -2.5757 H   0  0  0  0  0  0  0  0  0  0  0  0
    4.2428   -0.3472   -1.2486 H   0  0  0  0  0  0  0  0  0  0  0  0
    6.4028   -0.3151   -1.5678 H   0  0  0  0  0  0  0  0  0  0  0  0
    8.9327    0.2857   -0.7965 H   0  0  0  0  0  0  0  0  0  0  0  0
    1.7382    0.2437    1.4985 H   0  0  0  0  0  0  0  0  0  0  0  0
   -0.6183   -0.1703    1.1850 H   0  0  0  0  0  0  0  0  0  0  0  0
  1  2  2  0
  2  3  1  0
  3  4  1  0
  4  5  2  0
  5  6  1  0
  6  7  2  0
  7  8  1  0
  8  9  2  0
  9 10  1  0
 10 11  2  0
 10 12  1  0
  2 13  1  0
 13 14  2  0
 14 15  1  0
 15 16  2  0
 16 17  1  0
 17 18  1  0
 18 19  2  0
 18 20  1  0
 20 21  2  0
 21 22  1  0
 22 23  2  0
 23 24  1  0
 23 25  1  0
 16 26  1  0
 26 27  2  0
  9  4  1  0
 27 13  1  0
 25 20  1  0
  3 28  1  0
  5 29  1  0
  6 30  1  0
  7 31  1  0
  8 32  1  0
 12 33  1  0
 14 34  1  0
 15 35  1  0
 17 36  1  0
 21 37  1  0
 22 38  1  0
 26 39  1  0
 27 40  1  0
M  END
$$$$
