
     RDKit          3D

 39 39  0  0  0  0  0  0  0  0999 V2000
   -1.6387   -4.5551    0.2993 C   0  0  0  0  0  0  0  0  0  0  0  0
   -0.3443   -3.7927    0.5092 C   0  0  0  0  0  0  0  0  0  0  0  0
   -0.3658   -2.5708   -0.2417 O   0  0  0  0  0  0  0  0  0  0  0  0
   -0.9331   -1.4911    0.3653 C   0  0  0  0  0  0  0  0  0  0  0  0
   -1.4292   -1.5110    1.4921 O   0  0  0  0  0  0  0  0  0  0  0  0
   -0.8871   -0.2184   -0.5043 C   0  0  0  0  0  0  0  0  0  0  0  0
   -1.0242    0.9407    0.3948 N   0  0  0  0  0  0  0  0  0  0  0  0
   -1.1600    2.2220   -0.0714 C   0  0  0  0  0  0  0  0  0  0  0  0
   -1.0720    2.5071   -1.2589 O   0  0  0  0  0  0  0  0  0  0  0  0
   -1.4114    3.2323    1.0291 C   0  0  0  0  0  0  0  0  0  0  0  0
   -1.5387    4.6477    0.4954 C   0  0  0  0  0  0  0  0  0  0  0  0
    0.3962   -0.0455   -1.2361 N   0  0  0  0  0  0  0  0  0  0  0  0
    1.6537    0.0997   -0.6523 C   0  0  0  0  0  0  0  0  0  0  0  0
    2.7177    0.4658   -1.4939 C   0  0  0  0  0  0  0  0  0  0  0  0
    4.0282    0.5780   -1.0200 C   0  0  0  0  0  0  0  0  0  0  0  0
    4.3077    0.3029    0.3125 C   0  0  0  0  0  0  0  0  0  0  0  0
    3.2775   -0.0908    1.1595 C   0  0  0  0  0  0  0  0  0  0  0  0
    1.9668   -0.2020    0.6768 C   0  0  0  0  0  0  0  0  0  0  0  0
   -2.1134   -0.4394   -1.4558 C   0  0  0  0  0  0  0  0  0  0  0  0
   -3.2876   -0.3004   -0.7854 F   0  0  0  0  0  0  0  0  0  0  0  0
   -2.1415    0.4435   -2.4834 F   0  0  0  0  0  0  0  0  0  0  0  0
   -2.1336   -1.6712   -2.0226 F   0  0  0  0  0  0  0  0  0  0  0  0
   -2.4962   -3.9816    0.6653 H   0  0  0  0  0  0  0  0  0  0  0  0
   -1.8092   -4.7364   -0.7670 H   0  0  0  0  0  0  0  0  0  0  0  0
   -1.6122   -5.5158    0.8212 H   0  0  0  0  0  0  0  0  0  0  0  0
   -0.1576   -3.6023    1.5722 H   0  0  0  0  0  0  0  0  0  0  0  0
    0.4976   -4.3841    0.1349 H   0  0  0  0  0  0  0  0  0  0  0  0
   -1.3029    0.7300    1.3472 H   0  0  0  0  0  0  0  0  0  0  0  0
   -2.3332    2.9543    1.5521 H   0  0  0  0  0  0  0  0  0  0  0  0
   -0.5812    3.1829    1.7425 H   0  0  0  0  0  0  0  0  0  0  0  0
   -1.7192    5.3496    1.3153 H   0  0  0  0  0  0  0  0  0  0  0  0
   -0.6252    4.9555   -0.0241 H   0  0  0  0  0  0  0  0  0  0  0  0
   -2.3700    4.7274   -0.2129 H   0  0  0  0  0  0  0  0  0  0  0  0
    0.2602    0.6760   -1.9517 H   0  0  0  0  0  0  0  0  0  0  0  0
    2.5299    0.6686   -2.5466 H   0  0  0  0  0  0  0  0  0  0  0  0
    4.8254    0.8730   -1.6968 H   0  0  0  0  0  0  0  0  0  0  0  0
    5.3241    0.3861    0.6871 H   0  0  0  0  0  0  0  0  0  0  0  0
    3.4905   -0.3185    2.2009 H   0  0  0  0  0  0  0  0  0  0  0  0
    1.2121   -0.5160    1.3877 H   0  0  0  0  0  0  0  0  0  0  0  0
  1  2  1  0
  2  3  1  0
  3  4  1  0
  4  5  2  0
  4  6  1  0
  6  7  1  0
  7  8  1  0
  8  9  2  0
  8 10  1  0
 10 11  1  0
  6 12  1  0
 12 13  1  0
 13 14  2  0
 14 15  1  0
 15 16  2  0
 16 17  1  0
 17 18  2  0
  6 19  1  0
 19 20  1  0
 19 21  1  0
 19 22  1  0
 18 13  1  0
  1 23  1  0
  1 24  1  0
  1 25  1  0
  2 26  1  0
  2 27  1  0
  7 28  1  0
 10 29  1  0
 10 30  1  0
 11 31  1  0
 11 32  1  0
 11 33  1  0
 12 34  1  0
 14 35  1  0
 15 36  1  0
 16 37  1  0
 17 38  1  0
 18 39  1  0
M  END
$$$$
