
     RDKit          3D

 41 42  0  0  0  0  0  0  0  0999 V2000
   -4.8097    1.9140   -1.1823 C   0  0  0  0  0  0  0  0  0  0  0  0
   -4.6394    1.0305    0.0453 C   0  0  0  0  0  0  0  0  0  0  0  0
   -3.7088   -0.0739   -0.2237 N   0  0  0  0  0  0  0  0  0  0  0  0
   -4.3204   -1.3197   -0.7052 C   0  0  0  0  0  0  0  0  0  0  0  0
   -4.6465   -2.2515    0.4533 C   0  0  0  0  0  0  0  0  0  0  0  0
   -2.3357    0.0547   -0.0439 C   0  0  0  0  0  0  0  0  0  0  0  0
   -1.4542   -1.0318   -0.1742 C   0  0  0  0  0  0  0  0  0  0  0  0
   -0.0663   -0.9083    0.0049 C   0  0  0  0  0  0  0  0  0  0  0  0
    0.5057    0.3241    0.3127 C   0  0  0  0  0  0  0  0  0  0  0  0
    1.9577    0.4086    0.5170 C   0  0  0  0  0  0  0  0  0  0  0  0
    2.6990    1.4613    0.1386 C   0  0  0  0  0  0  0  0  0  0  0  0
    4.1637    1.5770    0.3613 C   0  0  0  0  0  0  0  0  0  0  0  0
    4.6587    2.6862    0.5406 O   0  0  0  0  0  0  0  0  0  0  0  0
    5.0281    0.3804    0.3660 C   0  0  0  0  0  0  0  0  0  0  0  0
    6.1323    0.3320    1.2187 C   0  0  0  0  0  0  0  0  0  0  0  0
    6.9567   -0.7906    1.2070 C   0  0  0  0  0  0  0  0  0  0  0  0
    6.6511   -1.8216    0.3321 C   0  0  0  0  0  0  0  0  0  0  0  0
    5.6017   -1.7979   -0.5200 N   0  0  0  0  0  0  0  0  0  0  0  0
    4.8210   -0.6898   -0.4944 C   0  0  0  0  0  0  0  0  0  0  0  0
   -0.3437    1.4174    0.4660 C   0  0  0  0  0  0  0  0  0  0  0  0
   -1.7305    1.2793    0.2862 C   0  0  0  0  0  0  0  0  0  0  0  0
   -5.1903    1.3376   -2.0320 H   0  0  0  0  0  0  0  0  0  0  0  0
   -3.8637    2.3702   -1.4890 H   0  0  0  0  0  0  0  0  0  0  0  0
   -5.5216    2.7184   -0.9725 H   0  0  0  0  0  0  0  0  0  0  0  0
   -5.6224    0.6257    0.3184 H   0  0  0  0  0  0  0  0  0  0  0  0
   -4.3309    1.6214    0.9149 H   0  0  0  0  0  0  0  0  0  0  0  0
   -3.6919   -1.8225   -1.4487 H   0  0  0  0  0  0  0  0  0  0  0  0
   -5.2528   -1.0912   -1.2373 H   0  0  0  0  0  0  0  0  0  0  0  0
   -3.7489   -2.5372    1.0099 H   0  0  0  0  0  0  0  0  0  0  0  0
   -5.1199   -3.1654    0.0810 H   0  0  0  0  0  0  0  0  0  0  0  0
   -5.3360   -1.7757    1.1585 H   0  0  0  0  0  0  0  0  0  0  0  0
   -1.8228   -2.0253   -0.4096 H   0  0  0  0  0  0  0  0  0  0  0  0
    0.5532   -1.7953   -0.1082 H   0  0  0  0  0  0  0  0  0  0  0  0
    2.4032   -0.4552    1.0047 H   0  0  0  0  0  0  0  0  0  0  0  0
    2.2553    2.3469   -0.3065 H   0  0  0  0  0  0  0  0  0  0  0  0
    6.3496    1.1632    1.8856 H   0  0  0  0  0  0  0  0  0  0  0  0
    7.8190   -0.8569    1.8614 H   0  0  0  0  0  0  0  0  0  0  0  0
    7.2642   -2.7178    0.2873 H   0  0  0  0  0  0  0  0  0  0  0  0
    4.0127   -0.6967   -1.2201 H   0  0  0  0  0  0  0  0  0  0  0  0
    0.0466    2.3953    0.7375 H   0  0  0  0  0  0  0  0  0  0  0  0
   -2.3232    2.1802    0.4101 H   0  0  0  0  0  0  0  0  0  0  0  0
  1  2  1  0
  2  3  1  0
  3  4  1  0
  4  5  1  0
  3  6  1  0
  6  7  2  0
  7  8  1  0
  8  9  2  0
  9 10  1  0
 10 11  2  3
 11 12  1  0
 12 13  2  0
 12 14  1  0
 14 15  2  0
 15 16  1  0
 16 17  2  0
 17 18  1  0
 18 19  2  0
  9 20  1  0
 20 21  2  0
 21  6  1  0
 19 14  1  0
  1 22  1  0
  1 23  1  0
  1 24  1  0
  2 25  1  0
  2 26  1  0
  4 27  1  0
  4 28  1  0
  5 29  1  0
  5 30  1  0
  5 31  1  0
  7 32  1  0
  8 33  1  0
 10 34  1  0
 11 35  1  0
 15 36  1  0
 16 37  1  0
 17 38  1  0
 19 39  1  0
 20 40  1  0
 21 41  1  0
M  END
$$$$
