
     RDKit          3D

 35 35  0  0  0  0  0  0  0  0999 V2000
   -4.7452    0.4671   -0.7392 C   0  0  0  0  0  0  0  0  0  0  0  0
   -3.3434    0.3500   -0.1160 C   0  0  0  0  0  0  0  0  0  0  0  0
   -3.2561    1.3813    1.0214 C   0  0  0  0  0  0  0  0  0  0  0  0
   -2.2752    0.5390   -1.1238 N   0  0  0  0  0  0  0  0  0  0  0  0
   -2.3631   -0.4170   -2.2333 C   0  0  0  0  0  0  0  0  0  0  0  0
   -0.9031    0.5520   -0.5761 C   0  0  0  0  0  0  0  0  0  0  0  0
   -0.4387   -0.7005    0.1886 C   0  0  0  0  0  0  0  0  0  0  0  0
    0.9112   -0.5281    0.6583 O   0  0  0  0  0  0  0  0  0  0  0  0
    1.8768   -0.8192   -0.2487 C   0  0  0  0  0  0  0  0  0  0  0  0
    1.7164   -1.2243   -1.3856 O   0  0  0  0  0  0  0  0  0  0  0  0
    3.1872   -0.5547    0.3725 C   0  0  0  0  0  0  0  0  0  0  0  0
    3.5095   -1.2328    1.5587 C   0  0  0  0  0  0  0  0  0  0  0  0
    4.7502   -1.0328    2.1644 C   0  0  0  0  0  0  0  0  0  0  0  0
    5.6712   -0.1589    1.5893 C   0  0  0  0  0  0  0  0  0  0  0  0
    5.3529    0.5193    0.4102 C   0  0  0  0  0  0  0  0  0  0  0  0
    4.1103    0.3242   -0.2032 C   0  0  0  0  0  0  0  0  0  0  0  0
    3.7427    1.3274   -1.7718 Br  0  0  0  0  0  0  0  0  0  0  0  0
   -4.8620    1.4112   -1.2830 H   0  0  0  0  0  0  0  0  0  0  0  0
   -5.5201    0.4295    0.0349 H   0  0  0  0  0  0  0  0  0  0  0  0
   -4.9541   -0.3574   -1.4281 H   0  0  0  0  0  0  0  0  0  0  0  0
   -3.2648   -0.6506    0.3279 H   0  0  0  0  0  0  0  0  0  0  0  0
   -2.3566    1.2450    1.6295 H   0  0  0  0  0  0  0  0  0  0  0  0
   -4.1095    1.2831    1.7019 H   0  0  0  0  0  0  0  0  0  0  0  0
   -3.2570    2.4052    0.6310 H   0  0  0  0  0  0  0  0  0  0  0  0
   -2.3765   -1.4556   -1.8860 H   0  0  0  0  0  0  0  0  0  0  0  0
   -3.2585   -0.2395   -2.8371 H   0  0  0  0  0  0  0  0  0  0  0  0
   -1.5199   -0.2975   -2.9239 H   0  0  0  0  0  0  0  0  0  0  0  0
   -0.7717    1.4290    0.0701 H   0  0  0  0  0  0  0  0  0  0  0  0
   -0.1996    0.7535   -1.3953 H   0  0  0  0  0  0  0  0  0  0  0  0
   -0.5178   -1.6099   -0.4179 H   0  0  0  0  0  0  0  0  0  0  0  0
   -1.0538   -0.8570    1.0801 H   0  0  0  0  0  0  0  0  0  0  0  0
    2.7977   -1.9217    2.0085 H   0  0  0  0  0  0  0  0  0  0  0  0
    4.9998   -1.5599    3.0825 H   0  0  0  0  0  0  0  0  0  0  0  0
    6.6392   -0.0022    2.0601 H   0  0  0  0  0  0  0  0  0  0  0  0
    6.0814    1.2027   -0.0209 H   0  0  0  0  0  0  0  0  0  0  0  0
  1  2  1  0
  2  3  1  0
  2  4  1  0
  4  5  1  0
  4  6  1  0
  6  7  1  0
  7  8  1  0
  8  9  1  0
  9 10  2  0
  9 11  1  0
 11 12  2  0
 12 13  1  0
 13 14  2  0
 14 15  1  0
 15 16  2  0
 16 17  1  0
 16 11  1  0
  1 18  1  0
  1 19  1  0
  1 20  1  0
  2 21  1  0
  3 22  1  0
  3 23  1  0
  3 24  1  0
  5 25  1  0
  5 26  1  0
  5 27  1  0
  6 28  1  0
  6 29  1  0
  7 30  1  0
  7 31  1  0
 12 32  1  0
 13 33  1  0
 14 34  1  0
 15 35  1  0
M  END
$$$$
