
     RDKit          3D

 43 45  0  0  0  0  0  0  0  0999 V2000
   -7.1286   -1.3846    0.3855 C   0  0  0  0  0  0  0  0  0  0  0  0
   -5.7917   -1.4792    0.8616 O   0  0  0  0  0  0  0  0  0  0  0  0
   -4.9063   -0.5370    0.4198 C   0  0  0  0  0  0  0  0  0  0  0  0
   -5.1754    0.4765   -0.4972 C   0  0  0  0  0  0  0  0  0  0  0  0
   -4.1726    1.3840   -0.8672 C   0  0  0  0  0  0  0  0  0  0  0  0
   -2.8862    1.2946   -0.3249 C   0  0  0  0  0  0  0  0  0  0  0  0
   -1.8604    2.1333   -0.6557 O   0  0  0  0  0  0  0  0  0  0  0  0
   -2.1838    3.3411   -1.3324 C   0  0  0  0  0  0  0  0  0  0  0  0
   -2.6226    0.2657    0.5871 C   0  0  0  0  0  0  0  0  0  0  0  0
   -1.0151    0.0945    1.3225 S   0  0  0  0  0  6  0  0  0  0  0  0
   -0.6663    1.3570    1.9355 O   0  0  0  0  0  0  0  0  0  0  0  0
   -1.0061   -1.1391    2.0856 O   0  0  0  0  0  0  0  0  0  0  0  0
   -0.0351   -0.2273   -0.0414 N   0  0  0  0  0  0  0  0  0  0  0  0
    1.3550    0.0609    0.1563 C   0  0  0  0  0  0  0  0  0  0  0  0
    1.8118    1.3650   -0.0184 C   0  0  0  0  0  0  0  0  0  0  0  0
    3.1546    1.6628    0.2040 C   0  0  0  0  0  0  0  0  0  0  0  0
    4.0339    0.6566    0.6022 C   0  0  0  0  0  0  0  0  0  0  0  0
    5.3348    1.0410    0.7815 O   0  0  0  0  0  0  0  0  0  0  0  0
    3.5827   -0.6560    0.8081 C   0  0  0  0  0  0  0  0  0  0  0  0
    4.6135   -1.9818    1.4198 S   0  0  0  0  0  0  0  0  0  0  0  0
    5.7704   -2.1663    0.1356 C   0  0  0  0  0  0  0  0  0  0  0  0
    6.6407   -1.1644   -0.2115 N   0  0  0  0  0  0  0  0  0  0  0  0
    7.3393   -1.7080   -1.1813 C   0  0  0  0  0  0  0  0  0  0  0  0
    6.9074   -2.9793   -1.3950 N   0  0  0  0  0  0  0  0  0  0  0  0
    5.9041   -3.2970   -0.5619 N   0  0  0  0  0  0  0  0  0  0  0  0
    2.2262   -0.9411    0.5905 C   0  0  0  0  0  0  0  0  0  0  0  0
   -3.6257   -0.6408    0.9602 C   0  0  0  0  0  0  0  0  0  0  0  0
   -7.5846   -0.4312    0.6730 H   0  0  0  0  0  0  0  0  0  0  0  0
   -7.7080   -2.1858    0.8546 H   0  0  0  0  0  0  0  0  0  0  0  0
   -7.1714   -1.5330   -0.6986 H   0  0  0  0  0  0  0  0  0  0  0  0
   -6.1556    0.5911   -0.9492 H   0  0  0  0  0  0  0  0  0  0  0  0
   -4.4310    2.1482   -1.5941 H   0  0  0  0  0  0  0  0  0  0  0  0
   -2.5012    3.1385   -2.3602 H   0  0  0  0  0  0  0  0  0  0  0  0
   -1.2762    3.9506   -1.3789 H   0  0  0  0  0  0  0  0  0  0  0  0
   -2.9428    3.9138   -0.7889 H   0  0  0  0  0  0  0  0  0  0  0  0
   -0.1766   -1.2120   -0.2714 H   0  0  0  0  0  0  0  0  0  0  0  0
    1.1245    2.1515   -0.3183 H   0  0  0  0  0  0  0  0  0  0  0  0
    3.5168    2.6784    0.0707 H   0  0  0  0  0  0  0  0  0  0  0  0
    5.9028    0.2490    0.6796 H   0  0  0  0  0  0  0  0  0  0  0  0
    8.1407   -1.2489   -1.7429 H   0  0  0  0  0  0  0  0  0  0  0  0
    7.2369   -3.6666   -2.0640 H   0  0  0  0  0  0  0  0  0  0  0  0
    1.8483   -1.9442    0.7729 H   0  0  0  0  0  0  0  0  0  0  0  0
   -3.4208   -1.4304    1.6809 H   0  0  0  0  0  0  0  0  0  0  0  0
  1  2  1  0
  2  3  1  0
  3  4  2  0
  4  5  1  0
  5  6  2  0
  6  7  1  0
  7  8  1  0
  6  9  1  0
  9 10  1  0
 10 11  2  0
 10 12  2  0
 10 13  1  0
 13 14  1  0
 14 15  2  0
 15 16  1  0
 16 17  2  0
 17 18  1  0
 17 19  1  0
 19 20  1  0
 20 21  1  0
 21 22  1  0
 22 23  2  0
 23 24  1  0
 24 25  1  0
 19 26  2  0
  9 27  2  0
 27  3  1  0
 26 14  1  0
 25 21  2  0
  1 28  1  0
  1 29  1  0
  1 30  1  0
  4 31  1  0
  5 32  1  0
  8 33  1  0
  8 34  1  0
  8 35  1  0
 13 36  1  0
 15 37  1  0
 16 38  1  0
 18 39  1  0
 23 40  1  0
 24 41  1  0
 26 42  1  0
 27 43  1  0
M  END
$$$$
