
     RDKit          3D

 46 48  0  0  0  0  0  0  0  0999 V2000
   -1.5166    1.7194    1.6977 C   0  0  0  0  0  0  0  0  0  0  0  0
   -2.7530    1.6442    0.8181 C   0  0  0  0  0  0  0  0  0  0  0  0
   -2.7471    0.4657   -0.0589 N   0  0  0  0  0  4  0  0  0  0  0  0
   -2.3777    0.5140   -1.3316 C   0  0  0  0  0  0  0  0  0  0  0  0
   -1.9173    1.6435   -2.0520 C   0  0  0  0  0  0  0  0  0  0  0  0
   -0.6197    1.9785   -2.1537 C   0  0  0  0  0  0  0  0  0  0  0  0
    0.5026    1.2839   -1.5542 C   0  0  0  0  0  0  0  0  0  0  0  0
    1.7814    1.6708   -1.7031 C   0  0  0  0  0  0  0  0  0  0  0  0
    2.8927    1.0456   -1.1191 N   0  0  0  0  0  0  0  0  0  0  0  0
    4.1398    1.7157   -0.9982 C   0  0  0  0  0  0  0  0  0  0  0  0
    4.1639    3.1963   -1.3136 C   0  0  0  0  0  0  0  0  0  0  0  0
    5.1948    1.1757   -0.6565 O   0  0  0  0  0  0  0  0  0  0  0  0
    2.8459   -0.3306   -0.6697 C   0  0  0  0  0  0  0  0  0  0  0  0
    3.4467   -0.7195    0.5362 C   0  0  0  0  0  0  0  0  0  0  0  0
    3.3788   -2.0449    0.9763 C   0  0  0  0  0  0  0  0  0  0  0  0
    2.7174   -3.0034    0.2128 C   0  0  0  0  0  0  0  0  0  0  0  0
    2.1300   -2.6408   -0.9959 C   0  0  0  0  0  0  0  0  0  0  0  0
    2.1961   -1.3153   -1.4347 C   0  0  0  0  0  0  0  0  0  0  0  0
   -2.5411   -1.0196   -2.0824 S   0  0  0  0  0  0  0  0  0  0  0  0
   -3.0902   -1.7501   -0.6258 C   0  0  0  0  0  0  0  0  0  0  0  0
   -3.4498   -3.0873   -0.3976 C   0  0  0  0  0  0  0  0  0  0  0  0
   -3.8759   -3.4449    0.8836 C   0  0  0  0  0  0  0  0  0  0  0  0
   -3.9432   -2.5016    1.9038 C   0  0  0  0  0  0  0  0  0  0  0  0
   -3.5840   -1.1685    1.6703 C   0  0  0  0  0  0  0  0  0  0  0  0
   -3.1489   -0.7912    0.3830 C   0  0  0  0  0  0  0  0  0  0  0  0
   -1.4165    0.8281    2.3240 H   0  0  0  0  0  0  0  0  0  0  0  0
   -0.6081    1.8039    1.0965 H   0  0  0  0  0  0  0  0  0  0  0  0
   -1.5711    2.5930    2.3543 H   0  0  0  0  0  0  0  0  0  0  0  0
   -2.8377    2.5590    0.2209 H   0  0  0  0  0  0  0  0  0  0  0  0
   -3.6562    1.6177    1.4389 H   0  0  0  0  0  0  0  0  0  0  0  0
   -2.6583    2.2407   -2.5807 H   0  0  0  0  0  0  0  0  0  0  0  0
   -0.3729    2.8525   -2.7603 H   0  0  0  0  0  0  0  0  0  0  0  0
    0.2825    0.4215   -0.9322 H   0  0  0  0  0  0  0  0  0  0  0  0
    1.9899    2.5677   -2.2796 H   0  0  0  0  0  0  0  0  0  0  0  0
    5.1071    3.6226   -0.9563 H   0  0  0  0  0  0  0  0  0  0  0  0
    3.3545    3.7196   -0.7976 H   0  0  0  0  0  0  0  0  0  0  0  0
    4.1064    3.3521   -2.3939 H   0  0  0  0  0  0  0  0  0  0  0  0
    3.9732    0.0028    1.1561 H   0  0  0  0  0  0  0  0  0  0  0  0
    3.8602   -2.3289    1.9094 H   0  0  0  0  0  0  0  0  0  0  0  0
    2.6853   -4.0373    0.5485 H   0  0  0  0  0  0  0  0  0  0  0  0
    1.6468   -3.3956   -1.6112 H   0  0  0  0  0  0  0  0  0  0  0  0
    1.7774   -1.0730   -2.4082 H   0  0  0  0  0  0  0  0  0  0  0  0
   -3.4015   -3.8303   -1.1908 H   0  0  0  0  0  0  0  0  0  0  0  0
   -4.1596   -4.4783    1.0850 H   0  0  0  0  0  0  0  0  0  0  0  0
   -4.2788   -2.8083    2.8946 H   0  0  0  0  0  0  0  0  0  0  0  0
   -3.6484   -0.4649    2.4955 H   0  0  0  0  0  0  0  0  0  0  0  0
  1  2  1  0
  2  3  1  0
  3  4  2  0
  4  5  1  0
  5  6  2  3
  6  7  1  0
  7  8  2  3
  8  9  1  0
  9 10  1  0
 10 11  1  0
 10 12  2  0
  9 13  1  0
 13 14  2  0
 14 15  1  0
 15 16  2  0
 16 17  1  0
 17 18  2  0
  4 19  1  0
 19 20  1  0
 20 21  2  0
 21 22  1  0
 22 23  2  0
 23 24  1  0
 24 25  2  0
 25  3  1  0
 18 13  1  0
 25 20  1  0
  1 26  1  0
  1 27  1  0
  1 28  1  0
  2 29  1  0
  2 30  1  0
  5 31  1  0
  6 32  1  0
  7 33  1  0
  8 34  1  0
 11 35  1  0
 11 36  1  0
 11 37  1  0
 14 38  1  0
 15 39  1  0
 16 40  1  0
 17 41  1  0
 18 42  1  0
 21 43  1  0
 22 44  1  0
 23 45  1  0
 24 46  1  0
M  CHG  1   3   1
M  END
$$$$
