
     RDKit          3D

 39 40  0  0  0  0  0  0  0  0999 V2000
    5.8007   -0.7121    0.5744 C   0  0  0  0  0  0  0  0  0  0  0  0
    5.6373    0.6508   -0.0858 C   0  0  0  0  0  0  0  0  0  0  0  0
    4.7499    0.5983   -1.3387 C   0  0  0  0  0  0  0  0  0  0  0  0
    4.7434    1.9453   -2.0623 C   0  0  0  0  0  0  0  0  0  0  0  0
    3.3184    0.1472   -1.0307 C   0  0  0  0  0  0  0  0  0  0  0  0
    2.8852   -0.8842   -1.5361 O   0  0  0  0  0  0  0  0  0  0  0  0
    2.6407    0.9878   -0.1796 N   0  0  0  0  0  0  0  0  0  0  0  0
    1.3570    0.8381    0.2816 C   0  0  0  0  0  0  0  0  0  0  0  0
    0.8043    1.7147    1.0911 N   0  0  0  0  0  0  0  0  0  0  0  0
   -0.4881    1.3696    1.4316 N   0  0  0  0  0  0  0  0  0  0  0  0
   -0.8601    0.2410    0.8637 C   0  0  0  0  0  0  0  0  0  0  0  0
   -2.2007   -0.3933    1.0306 C   0  0  0  0  0  0  0  0  0  0  0  0
   -3.2255    0.2367    0.0863 C   0  0  0  0  0  0  0  0  0  0  0  0
   -4.5865   -0.3942    0.2456 C   0  0  0  0  0  0  0  0  0  0  0  0
   -5.4931    0.1043    1.1906 C   0  0  0  0  0  0  0  0  0  0  0  0
   -6.7438   -0.4932    1.3532 C   0  0  0  0  0  0  0  0  0  0  0  0
   -7.0976   -1.5950    0.5767 C   0  0  0  0  0  0  0  0  0  0  0  0
   -6.2010   -2.1013   -0.3624 C   0  0  0  0  0  0  0  0  0  0  0  0
   -4.9496   -1.5055   -0.5269 C   0  0  0  0  0  0  0  0  0  0  0  0
    0.3486   -0.4716   -0.1257 S   0  0  0  0  0  0  0  0  0  0  0  0
    6.2123   -1.4422   -0.1296 H   0  0  0  0  0  0  0  0  0  0  0  0
    4.8454   -1.0930    0.9482 H   0  0  0  0  0  0  0  0  0  0  0  0
    6.4864   -0.6380    1.4245 H   0  0  0  0  0  0  0  0  0  0  0  0
    6.6323    1.0192   -0.3647 H   0  0  0  0  0  0  0  0  0  0  0  0
    5.2372    1.3567    0.6510 H   0  0  0  0  0  0  0  0  0  0  0  0
    5.1718   -0.1432   -2.0307 H   0  0  0  0  0  0  0  0  0  0  0  0
    5.7455    2.1892   -2.4308 H   0  0  0  0  0  0  0  0  0  0  0  0
    4.4220    2.7609   -1.4059 H   0  0  0  0  0  0  0  0  0  0  0  0
    4.0636    1.9228   -2.9209 H   0  0  0  0  0  0  0  0  0  0  0  0
    3.0896    1.8214    0.1719 H   0  0  0  0  0  0  0  0  0  0  0  0
   -2.1396   -1.4760    0.8619 H   0  0  0  0  0  0  0  0  0  0  0  0
   -2.5217   -0.2648    2.0724 H   0  0  0  0  0  0  0  0  0  0  0  0
   -2.8994    0.1372   -0.9576 H   0  0  0  0  0  0  0  0  0  0  0  0
   -3.3019    1.3171    0.2677 H   0  0  0  0  0  0  0  0  0  0  0  0
   -5.2310    0.9626    1.8058 H   0  0  0  0  0  0  0  0  0  0  0  0
   -7.4425   -0.0986    2.0864 H   0  0  0  0  0  0  0  0  0  0  0  0
   -8.0720   -2.0592    0.7037 H   0  0  0  0  0  0  0  0  0  0  0  0
   -6.4766   -2.9611   -0.9675 H   0  0  0  0  0  0  0  0  0  0  0  0
   -4.2610   -1.9142   -1.2632 H   0  0  0  0  0  0  0  0  0  0  0  0
  1  2  1  0
  2  3  1  0
  3  4  1  0
  3  5  1  0
  5  6  2  0
  5  7  1  0
  7  8  1  0
  8  9  2  0
  9 10  1  0
 10 11  2  0
 11 12  1  0
 12 13  1  0
 13 14  1  0
 14 15  2  0
 15 16  1  0
 16 17  2  0
 17 18  1  0
 18 19  2  0
 11 20  1  0
 20  8  1  0
 19 14  1  0
  1 21  1  0
  1 22  1  0
  1 23  1  0
  2 24  1  0
  2 25  1  0
  3 26  1  0
  4 27  1  0
  4 28  1  0
  4 29  1  0
  7 30  1  0
 12 31  1  0
 12 32  1  0
 13 33  1  0
 13 34  1  0
 15 35  1  0
 16 36  1  0
 17 37  1  0
 18 38  1  0
 19 39  1  0
M  END
$$$$
