
     RDKit          3D

 36 37  0  0  0  0  0  0  0  0999 V2000
   -0.2352    0.3644   -0.9927 O   0  0  0  0  0  0  0  0  0  0  0  0
    0.3011   -0.1337   -0.0048 C   0  0  0  0  0  0  0  0  0  0  0  0
   -0.1585    0.1420    1.4297 C   0  0  0  0  0  0  0  0  0  0  0  0
   -1.5082    0.5990    1.4976 O   0  0  0  0  0  0  0  0  0  0  0  0
   -2.4296   -0.3760    1.3035 C   0  0  0  0  0  0  0  0  0  0  0  0
   -2.1931   -1.5681    1.1838 O   0  0  0  0  0  0  0  0  0  0  0  0
   -3.8032    0.1963    1.2809 C   0  0  0  0  0  0  0  0  0  0  0  0
   -4.8887   -0.6895    1.2161 C   0  0  0  0  0  0  0  0  0  0  0  0
   -6.1983   -0.2019    1.1920 C   0  0  0  0  0  0  0  0  0  0  0  0
   -6.4239    1.1730    1.2302 C   0  0  0  0  0  0  0  0  0  0  0  0
   -8.1944    1.8341    1.1972 Br  0  0  0  0  0  0  0  0  0  0  0  0
   -5.3537    2.0647    1.2905 C   0  0  0  0  0  0  0  0  0  0  0  0
   -4.0431    1.5776    1.3149 C   0  0  0  0  0  0  0  0  0  0  0  0
    1.3929   -0.9787   -0.0958 N   0  0  0  0  0  0  0  0  0  0  0  0
    2.0602   -1.1770   -1.3691 C   0  0  0  0  0  0  0  0  0  0  0  0
    2.9710    0.0022   -1.7506 C   0  0  0  0  0  0  0  0  0  0  0  0
    4.2103    0.0234   -0.9825 N   0  0  0  0  0  0  0  0  0  0  0  0
    5.3834   -0.5873   -1.3623 C   0  0  0  0  0  0  0  0  0  0  0  0
    5.5256   -1.1527   -2.5926 O   0  0  0  0  0  0  0  0  0  0  0  0
    6.3464   -0.5803   -0.4369 C   0  0  0  0  0  0  0  0  0  0  0  0
    5.8312    0.2249    1.0088 S   0  0  0  0  0  0  0  0  0  0  0  0
    4.2219    0.5097    0.3225 C   0  0  0  0  0  0  0  0  0  0  0  0
    3.3032    1.0067    0.9536 O   0  0  0  0  0  0  0  0  0  0  0  0
    0.4758    0.9405    1.8288 H   0  0  0  0  0  0  0  0  0  0  0  0
   -0.0140   -0.7407    2.0640 H   0  0  0  0  0  0  0  0  0  0  0  0
   -4.7177   -1.7642    1.1826 H   0  0  0  0  0  0  0  0  0  0  0  0
   -7.0294   -0.9008    1.1417 H   0  0  0  0  0  0  0  0  0  0  0  0
   -5.5264    3.1378    1.3155 H   0  0  0  0  0  0  0  0  0  0  0  0
   -3.2195    2.2868    1.3537 H   0  0  0  0  0  0  0  0  0  0  0  0
    1.9233   -1.1441    0.7519 H   0  0  0  0  0  0  0  0  0  0  0  0
    2.6298   -2.1094   -1.2987 H   0  0  0  0  0  0  0  0  0  0  0  0
    1.2921   -1.3030   -2.1403 H   0  0  0  0  0  0  0  0  0  0  0  0
    2.4529    0.9534   -1.5785 H   0  0  0  0  0  0  0  0  0  0  0  0
    3.2017   -0.0422   -2.8189 H   0  0  0  0  0  0  0  0  0  0  0  0
    5.0846   -0.5727   -3.2337 H   0  0  0  0  0  0  0  0  0  0  0  0
    7.3293   -1.0137   -0.5564 H   0  0  0  0  0  0  0  0  0  0  0  0
  1  2  2  0
  2  3  1  0
  3  4  1  0
  4  5  1  0
  5  6  2  0
  5  7  1  0
  7  8  2  0
  8  9  1  0
  9 10  2  0
 10 11  1  0
 10 12  1  0
 12 13  2  0
  2 14  1  0
 14 15  1  0
 15 16  1  0
 16 17  1  0
 17 18  1  0
 18 19  1  0
 18 20  2  0
 20 21  1  0
 21 22  1  0
 22 23  2  0
 13  7  1  0
 22 17  1  0
  3 24  1  0
  3 25  1  0
  8 26  1  0
  9 27  1  0
 12 28  1  0
 13 29  1  0
 14 30  1  0
 15 31  1  0
 15 32  1  0
 16 33  1  0
 16 34  1  0
 19 35  1  0
 20 36  1  0
M  END
$$$$
