
     RDKit          3D

 44 47  0  0  0  0  0  0  0  0999 V2000
   -3.7237    2.2380   -1.3438 C   0  0  0  0  0  0  0  0  0  0  0  0
   -2.4441    1.6789   -0.7297 C   0  0  0  0  0  0  0  0  0  0  0  0
   -2.6624    1.3397    0.7354 C   0  0  0  0  0  0  0  0  0  0  0  0
   -1.4745    0.6203    1.3314 C   0  0  0  0  0  0  0  0  0  0  0  0
   -0.5877    1.2570    1.9058 O   0  0  0  0  0  0  0  0  0  0  0  0
   -1.4464   -0.7670    1.2387 N   0  0  0  0  0  0  0  0  0  0  0  0
   -0.3859   -1.4789    1.9669 C   0  0  0  0  0  0  0  0  0  0  0  0
    0.9280   -1.5078    1.1750 C   0  0  0  0  0  0  0  0  0  0  0  0
    1.3339   -2.5511    0.6748 O   0  0  0  0  0  0  0  0  0  0  0  0
    1.5523   -0.2733    1.1271 N   0  0  0  0  0  0  0  0  0  0  0  0
    2.7620    0.0767    0.4954 C   0  0  0  0  0  0  0  0  0  0  0  0
    3.5751   -0.8389   -0.1975 C   0  0  0  0  0  0  0  0  0  0  0  0
    4.7639   -0.4290   -0.8131 C   0  0  0  0  0  0  0  0  0  0  0  0
    5.1117    0.8971   -0.7129 C   0  0  0  0  0  0  0  0  0  0  0  0
    4.3285    1.7957   -0.0306 C   0  0  0  0  0  0  0  0  0  0  0  0
    3.1516    1.4185    0.5789 C   0  0  0  0  0  0  0  0  0  0  0  0
    4.8448    3.0521   -0.0441 O   0  0  0  0  0  0  0  0  0  0  0  0
    6.0697    2.8260   -0.7716 C   0  0  0  0  0  0  0  0  0  0  0  0
    6.2174    1.4695   -1.2474 O   0  0  0  0  0  0  0  0  0  0  0  0
   -2.3039   -1.5205    0.3733 C   0  0  0  0  0  0  0  0  0  0  0  0
   -2.8719   -2.7147    0.8511 C   0  0  0  0  0  0  0  0  0  0  0  0
   -3.7326   -3.4755    0.0572 C   0  0  0  0  0  0  0  0  0  0  0  0
   -4.0356   -3.0599   -1.2345 C   0  0  0  0  0  0  0  0  0  0  0  0
   -3.4718   -1.8874   -1.7337 C   0  0  0  0  0  0  0  0  0  0  0  0
   -2.6139   -1.1061   -0.9414 C   0  0  0  0  0  0  0  0  0  0  0  0
   -1.8429    0.2881   -1.7581 S   0  0  0  0  0  0  0  0  0  0  0  0
   -4.5432    1.5118   -1.3009 H   0  0  0  0  0  0  0  0  0  0  0  0
   -3.5774    2.5363   -2.3880 H   0  0  0  0  0  0  0  0  0  0  0  0
   -4.0459    3.1290   -0.7926 H   0  0  0  0  0  0  0  0  0  0  0  0
   -1.6663    2.4478   -0.8030 H   0  0  0  0  0  0  0  0  0  0  0  0
   -3.5777    0.7605    0.8990 H   0  0  0  0  0  0  0  0  0  0  0  0
   -2.8089    2.2599    1.3121 H   0  0  0  0  0  0  0  0  0  0  0  0
   -0.2090   -0.9798    2.9282 H   0  0  0  0  0  0  0  0  0  0  0  0
   -0.6626   -2.5092    2.1960 H   0  0  0  0  0  0  0  0  0  0  0  0
    1.0369    0.5004    1.5562 H   0  0  0  0  0  0  0  0  0  0  0  0
    3.3068   -1.8869   -0.2750 H   0  0  0  0  0  0  0  0  0  0  0  0
    5.3884   -1.1346   -1.3528 H   0  0  0  0  0  0  0  0  0  0  0  0
    2.5545    2.1566    1.1009 H   0  0  0  0  0  0  0  0  0  0  0  0
    6.1001    3.5058   -1.6274 H   0  0  0  0  0  0  0  0  0  0  0  0
    6.9132    3.0578   -0.1100 H   0  0  0  0  0  0  0  0  0  0  0  0
   -2.6906   -3.0585    1.8663 H   0  0  0  0  0  0  0  0  0  0  0  0
   -4.1686   -4.3933    0.4501 H   0  0  0  0  0  0  0  0  0  0  0  0
   -4.6976   -3.6529   -1.8596 H   0  0  0  0  0  0  0  0  0  0  0  0
   -3.6938   -1.5980   -2.7573 H   0  0  0  0  0  0  0  0  0  0  0  0
  1  2  1  0
  2  3  1  0
  3  4  1  0
  4  5  2  0
  4  6  1  0
  6  7  1  0
  7  8  1  0
  8  9  2  0
  8 10  1  0
 10 11  1  0
 11 12  2  0
 12 13  1  0
 13 14  2  0
 14 15  1  0
 15 16  2  0
 15 17  1  0
 17 18  1  0
 18 19  1  0
  6 20  1  0
 20 21  2  0
 21 22  1  0
 22 23  2  0
 23 24  1  0
 24 25  2  0
 25 26  1  0
 26  2  1  0
 16 11  1  0
 25 20  1  0
 19 14  1  0
  1 27  1  0
  1 28  1  0
  1 29  1  0
  2 30  1  0
  3 31  1  0
  3 32  1  0
  7 33  1  0
  7 34  1  0
 10 35  1  0
 12 36  1  0
 13 37  1  0
 16 38  1  0
 18 39  1  0
 18 40  1  0
 21 41  1  0
 22 42  1  0
 23 43  1  0
 24 44  1  0
M  END
$$$$
