
     RDKit          3D

 54 58  0  0  0  0  0  0  0  0999 V2000
    2.4713   -1.1388   -2.2128 O   0  0  0  0  0  0  0  0  0  0  0  0
    2.7012   -1.4273   -1.0411 C   0  0  0  0  0  0  0  0  0  0  0  0
    2.2394   -2.7423   -0.4445 C   0  0  0  0  0  0  0  0  0  0  0  0
    0.9324   -2.5350    0.7987 S   0  0  0  0  0  0  0  0  0  0  0  0
   -0.0324   -1.2985    0.0032 C   0  0  0  0  0  0  0  0  0  0  0  0
    0.2748   -0.0869    0.3500 N   0  0  0  0  0  0  0  0  0  0  0  0
   -0.4558    0.9105   -0.3000 C   0  0  0  0  0  0  0  0  0  0  0  0
   -1.3917    0.6221   -1.2444 C   0  0  0  0  0  0  0  0  0  0  0  0
   -2.1070    2.0147   -1.8817 S   0  0  0  0  0  0  0  0  0  0  0  0
   -1.1421    3.0460   -0.8793 C   0  0  0  0  0  0  0  0  0  0  0  0
   -1.1630    4.4540   -0.8387 C   0  0  0  0  0  0  0  0  0  0  0  0
   -0.2994    5.1177    0.0370 C   0  0  0  0  0  0  0  0  0  0  0  0
    0.5656    4.4031    0.8559 C   0  0  0  0  0  0  0  0  0  0  0  0
    0.5814    3.0060    0.8166 C   0  0  0  0  0  0  0  0  0  0  0  0
   -0.2804    2.3039   -0.0610 C   0  0  0  0  0  0  0  0  0  0  0  0
   -1.7213   -0.7178   -1.6321 C   0  0  0  0  0  0  0  0  0  0  0  0
   -2.5292   -0.9948   -2.5157 O   0  0  0  0  0  0  0  0  0  0  0  0
   -1.0110   -1.6899   -0.9071 N   0  0  0  0  0  0  0  0  0  0  0  0
   -1.4337   -3.0832   -1.1101 C   0  0  0  0  0  0  0  0  0  0  0  0
   -2.3521   -3.6102    0.0083 C   0  0  0  0  0  0  0  0  0  0  0  0
   -3.5895   -2.7757    0.2294 C   0  0  0  0  0  0  0  0  0  0  0  0
   -4.6710   -2.8611   -0.6579 C   0  0  0  0  0  0  0  0  0  0  0  0
   -5.8011   -2.0637   -0.4733 C   0  0  0  0  0  0  0  0  0  0  0  0
   -5.8612   -1.1745    0.5980 C   0  0  0  0  0  0  0  0  0  0  0  0
   -4.7912   -1.0812    1.4868 C   0  0  0  0  0  0  0  0  0  0  0  0
   -3.6601   -1.8784    1.3049 C   0  0  0  0  0  0  0  0  0  0  0  0
    3.3955   -0.6113   -0.1764 N   0  0  0  0  0  0  0  0  0  0  0  0
    3.7294    0.7328   -0.5894 C   0  0  0  0  0  0  0  0  0  0  0  0
    4.6250    1.3285    0.4289 C   0  0  0  0  0  0  0  0  0  0  0  0
    5.9567    1.6894    0.4248 C   0  0  0  0  0  0  0  0  0  0  0  0
    6.2350    2.2050    1.7133 C   0  0  0  0  0  0  0  0  0  0  0  0
    5.0578    2.1272    2.4201 C   0  0  0  0  0  0  0  0  0  0  0  0
    4.0746    1.5933    1.6511 O   0  0  0  0  0  0  0  0  0  0  0  0
    3.0946   -3.2504    0.0125 H   0  0  0  0  0  0  0  0  0  0  0  0
    1.8712   -3.3826   -1.2525 H   0  0  0  0  0  0  0  0  0  0  0  0
   -1.8373    5.0161   -1.4792 H   0  0  0  0  0  0  0  0  0  0  0  0
   -0.3050    6.2050    0.0748 H   0  0  0  0  0  0  0  0  0  0  0  0
    1.2358    4.9289    1.5319 H   0  0  0  0  0  0  0  0  0  0  0  0
    1.2622    2.4513    1.4596 H   0  0  0  0  0  0  0  0  0  0  0  0
   -0.5515   -3.7259   -1.1827 H   0  0  0  0  0  0  0  0  0  0  0  0
   -1.9474   -3.1824   -2.0731 H   0  0  0  0  0  0  0  0  0  0  0  0
   -2.6602   -4.6338   -0.2363 H   0  0  0  0  0  0  0  0  0  0  0  0
   -1.8018   -3.6904    0.9515 H   0  0  0  0  0  0  0  0  0  0  0  0
   -4.6347   -3.5363   -1.5104 H   0  0  0  0  0  0  0  0  0  0  0  0
   -6.6305   -2.1300   -1.1737 H   0  0  0  0  0  0  0  0  0  0  0  0
   -6.7397   -0.5497    0.7362 H   0  0  0  0  0  0  0  0  0  0  0  0
   -4.8372   -0.3834    2.3196 H   0  0  0  0  0  0  0  0  0  0  0  0
   -2.8329   -1.7879    2.0055 H   0  0  0  0  0  0  0  0  0  0  0  0
    3.1627   -0.7114    0.8073 H   0  0  0  0  0  0  0  0  0  0  0  0
    4.2129    0.6981   -1.5719 H   0  0  0  0  0  0  0  0  0  0  0  0
    2.8049    1.3107   -0.6845 H   0  0  0  0  0  0  0  0  0  0  0  0
    6.6401    1.5893   -0.4078 H   0  0  0  0  0  0  0  0  0  0  0  0
    7.1757    2.5880    2.0830 H   0  0  0  0  0  0  0  0  0  0  0  0
    4.7714    2.3932    3.4285 H   0  0  0  0  0  0  0  0  0  0  0  0
  1  2  2  0
  2  3  1  0
  3  4  1  0
  4  5  1  0
  5  6  2  0
  6  7  1  0
  7  8  2  0
  8  9  1  0
  9 10  1  0
 10 11  2  0
 11 12  1  0
 12 13  2  0
 13 14  1  0
 14 15  2  0
  8 16  1  0
 16 17  2  0
 16 18  1  0
 18 19  1  0
 19 20  1  0
 20 21  1  0
 21 22  2  0
 22 23  1  0
 23 24  2  0
 24 25  1  0
 25 26  2  0
  2 27  1  0
 27 28  1  0
 28 29  1  0
 29 30  2  0
 30 31  1  0
 31 32  2  0
 32 33  1  0
 18  5  1  0
 26 21  1  0
 33 29  1  0
 15  7  1  0
 15 10  1  0
  3 34  1  0
  3 35  1  0
 11 36  1  0
 12 37  1  0
 13 38  1  0
 14 39  1  0
 19 40  1  0
 19 41  1  0
 20 42  1  0
 20 43  1  0
 22 44  1  0
 23 45  1  0
 24 46  1  0
 25 47  1  0
 26 48  1  0
 27 49  1  0
 28 50  1  0
 28 51  1  0
 30 52  1  0
 31 53  1  0
 32 54  1  0
M  END
$$$$
