
     RDKit          3D

 40 42  0  0  0  0  0  0  0  0999 V2000
   -6.5590    1.0867    0.4826 C   0  0  0  0  0  0  0  0  0  0  0  0
   -6.4609   -0.5450    1.1941 S   0  0  0  0  0  6  0  0  0  0  0  0
   -7.7671   -1.1552    1.0626 O   0  0  0  0  0  0  0  0  0  0  0  0
   -5.8032   -0.4516    2.4783 O   0  0  0  0  0  0  0  0  0  0  0  0
   -5.4709   -1.3584    0.1010 N   0  0  0  0  0  0  0  0  0  0  0  0
   -4.1449   -0.9028   -0.1397 C   0  0  0  0  0  0  0  0  0  0  0  0
   -3.7863   -0.5453   -1.4405 C   0  0  0  0  0  0  0  0  0  0  0  0
   -2.4942   -0.0848   -1.7079 C   0  0  0  0  0  0  0  0  0  0  0  0
   -1.5486    0.0036   -0.6782 C   0  0  0  0  0  0  0  0  0  0  0  0
   -0.1852    0.5082   -1.0081 C   0  0  0  0  0  0  0  0  0  0  0  0
   -0.0840    1.3508   -1.8914 O   0  0  0  0  0  0  0  0  0  0  0  0
    0.8427   -0.0720   -0.2881 N   0  0  0  0  0  0  0  0  0  0  0  0
    2.2185    0.2352   -0.3613 C   0  0  0  0  0  0  0  0  0  0  0  0
    2.7474    1.2689   -1.1389 C   0  0  0  0  0  0  0  0  0  0  0  0
    4.1261    1.5104   -1.1591 C   0  0  0  0  0  0  0  0  0  0  0  0
    4.9838    0.7194   -0.4021 C   0  0  0  0  0  0  0  0  0  0  0  0
    4.4616   -0.2954    0.4018 C   0  0  0  0  0  0  0  0  0  0  0  0
    3.0885   -0.5452    0.4117 C   0  0  0  0  0  0  0  0  0  0  0  0
    5.2379   -1.0942    1.2033 O   0  0  0  0  0  0  0  0  0  0  0  0
    6.5486   -0.5415    1.3758 C   0  0  0  0  0  0  0  0  0  0  0  0
    7.1128   -0.0701    0.0456 C   0  0  0  0  0  0  0  0  0  0  0  0
    6.3229    0.9988   -0.4875 O   0  0  0  0  0  0  0  0  0  0  0  0
   -1.9125   -0.3518    0.6262 C   0  0  0  0  0  0  0  0  0  0  0  0
   -3.2069   -0.8122    0.8894 C   0  0  0  0  0  0  0  0  0  0  0  0
   -7.2682    1.6670    1.0774 H   0  0  0  0  0  0  0  0  0  0  0  0
   -6.9200    1.0048   -0.5443 H   0  0  0  0  0  0  0  0  0  0  0  0
   -5.5765    1.5595    0.5210 H   0  0  0  0  0  0  0  0  0  0  0  0
   -5.9959   -1.7247   -0.6931 H   0  0  0  0  0  0  0  0  0  0  0  0
   -4.5009   -0.6109   -2.2565 H   0  0  0  0  0  0  0  0  0  0  0  0
   -2.2226    0.2038   -2.7222 H   0  0  0  0  0  0  0  0  0  0  0  0
    0.6036   -0.8495    0.3136 H   0  0  0  0  0  0  0  0  0  0  0  0
    2.1140    1.9093   -1.7448 H   0  0  0  0  0  0  0  0  0  0  0  0
    4.5252    2.3113   -1.7755 H   0  0  0  0  0  0  0  0  0  0  0  0
    2.7131   -1.3501    1.0370 H   0  0  0  0  0  0  0  0  0  0  0  0
    6.4875    0.2802    2.1001 H   0  0  0  0  0  0  0  0  0  0  0  0
    7.1848   -1.3243    1.8007 H   0  0  0  0  0  0  0  0  0  0  0  0
    8.1323    0.3051    0.1785 H   0  0  0  0  0  0  0  0  0  0  0  0
    7.1408   -0.8837   -0.6899 H   0  0  0  0  0  0  0  0  0  0  0  0
   -1.2160   -0.2530    1.4547 H   0  0  0  0  0  0  0  0  0  0  0  0
   -3.4683   -1.1011    1.9053 H   0  0  0  0  0  0  0  0  0  0  0  0
  1  2  1  0
  2  3  2  0
  2  4  2  0
  2  5  1  0
  5  6  1  0
  6  7  2  0
  7  8  1  0
  8  9  2  0
  9 10  1  0
 10 11  2  0
 10 12  1  0
 12 13  1  0
 13 14  2  0
 14 15  1  0
 15 16  2  0
 16 17  1  0
 17 18  2  0
 17 19  1  0
 19 20  1  0
 20 21  1  0
 21 22  1  0
  9 23  1  0
 23 24  2  0
 24  6  1  0
 18 13  1  0
 22 16  1  0
  1 25  1  0
  1 26  1  0
  1 27  1  0
  5 28  1  0
  7 29  1  0
  8 30  1  0
 12 31  1  0
 14 32  1  0
 15 33  1  0
 18 34  1  0
 20 35  1  0
 20 36  1  0
 21 37  1  0
 21 38  1  0
 23 39  1  0
 24 40  1  0
M  END
$$$$
