
     RDKit          3D

 52 55  0  0  0  0  0  0  0  0999 V2000
   -5.5964    3.3206   -0.7336 C   0  0  0  0  0  0  0  0  0  0  0  0
   -5.8122    2.4502    0.4964 C   0  0  0  0  0  0  0  0  0  0  0  0
   -4.5694    1.6405    0.8610 C   0  0  0  0  0  0  0  0  0  0  0  0
   -4.2846    0.7300   -0.2003 O   0  0  0  0  0  0  0  0  0  0  0  0
   -3.1641   -0.0425   -0.0769 C   0  0  0  0  0  0  0  0  0  0  0  0
   -2.3311   -0.1089    1.0387 C   0  0  0  0  0  0  0  0  0  0  0  0
   -1.2130   -0.9517    1.0326 C   0  0  0  0  0  0  0  0  0  0  0  0
   -0.9187   -1.7426   -0.0859 C   0  0  0  0  0  0  0  0  0  0  0  0
    0.2533   -2.6112   -0.0920 C   0  0  0  0  0  0  0  0  0  0  0  0
    1.6024   -2.2629   -0.0538 C   0  0  0  0  0  0  0  0  0  0  0  0
    2.2209   -0.9456    0.1118 C   0  0  0  0  0  0  0  0  0  0  0  0
    1.5659    0.0706    0.3198 O   0  0  0  0  0  0  0  0  0  0  0  0
    3.6084   -1.0047    0.0016 N   0  0  0  0  0  0  0  0  0  0  0  0
    4.4779    0.0546   -0.0606 N   0  0  0  0  0  0  0  0  0  0  0  0
    4.1837    1.1443    0.5746 C   0  0  0  0  0  0  0  0  0  0  0  0
    5.0557    2.3365    0.5097 C   0  0  0  0  0  0  0  0  0  0  0  0
    6.2354    2.3268   -0.2405 C   0  0  0  0  0  0  0  0  0  0  0  0
    7.0399    3.4665   -0.2825 C   0  0  0  0  0  0  0  0  0  0  0  0
    6.6661    4.6115    0.4219 C   0  0  0  0  0  0  0  0  0  0  0  0
    5.4877    4.6212    1.1693 C   0  0  0  0  0  0  0  0  0  0  0  0
    4.6794    3.4838    1.2149 C   0  0  0  0  0  0  0  0  0  0  0  0
    2.3657   -3.3773   -0.2603 N   0  0  0  0  0  0  0  0  0  0  0  0
    1.5595   -4.4020   -0.4473 N   0  0  0  0  0  0  0  0  0  0  0  0
    0.2614   -4.0031   -0.2767 N   0  0  0  0  0  0  0  0  0  0  0  0
   -0.7946   -4.9601   -0.3034 C   0  0  0  0  0  0  0  0  0  0  0  0
   -0.5052   -6.1678   -0.8056 N   0  0  0  0  0  0  0  0  0  0  0  0
   -1.6984   -6.8699   -0.7610 O   0  0  0  0  0  0  0  0  0  0  0  0
   -2.7028   -6.1042   -0.1956 N   0  0  0  0  0  0  0  0  0  0  0  0
   -2.1402   -4.9361    0.1163 C   0  0  0  0  0  0  0  0  0  0  0  0
   -2.8238   -3.9826    0.7730 N   0  0  0  0  0  0  0  0  0  0  0  0
   -1.7476   -1.6588   -1.2098 C   0  0  0  0  0  0  0  0  0  0  0  0
   -2.8662   -0.8208   -1.1972 C   0  0  0  0  0  0  0  0  0  0  0  0
   -6.4976    3.9050   -0.9448 H   0  0  0  0  0  0  0  0  0  0  0  0
   -4.7678    4.0189   -0.5783 H   0  0  0  0  0  0  0  0  0  0  0  0
   -5.3742    2.7142   -1.6172 H   0  0  0  0  0  0  0  0  0  0  0  0
   -6.0923    3.0859    1.3436 H   0  0  0  0  0  0  0  0  0  0  0  0
   -6.6485    1.7698    0.2979 H   0  0  0  0  0  0  0  0  0  0  0  0
   -3.7237    2.3204    1.0209 H   0  0  0  0  0  0  0  0  0  0  0  0
   -4.7746    1.0822    1.7822 H   0  0  0  0  0  0  0  0  0  0  0  0
   -2.5143    0.4882    1.9258 H   0  0  0  0  0  0  0  0  0  0  0  0
   -0.5652   -0.9670    1.9072 H   0  0  0  0  0  0  0  0  0  0  0  0
    3.9975   -1.8803   -0.3451 H   0  0  0  0  0  0  0  0  0  0  0  0
    3.2957    1.2424    1.2202 H   0  0  0  0  0  0  0  0  0  0  0  0
    6.5319    1.4384   -0.7927 H   0  0  0  0  0  0  0  0  0  0  0  0
    7.9574    3.4610   -0.8656 H   0  0  0  0  0  0  0  0  0  0  0  0
    7.2942    5.4985    0.3867 H   0  0  0  0  0  0  0  0  0  0  0  0
    5.1987    5.5162    1.7148 H   0  0  0  0  0  0  0  0  0  0  0  0
    3.7619    3.5041    1.7971 H   0  0  0  0  0  0  0  0  0  0  0  0
   -3.7497   -4.2265    1.1138 H   0  0  0  0  0  0  0  0  0  0  0  0
   -2.3774   -3.2711    1.3378 H   0  0  0  0  0  0  0  0  0  0  0  0
   -1.5389   -2.2366   -2.1075 H   0  0  0  0  0  0  0  0  0  0  0  0
   -3.5081   -0.7681   -2.0739 H   0  0  0  0  0  0  0  0  0  0  0  0
  1  2  1  0
  2  3  1  0
  3  4  1  0
  4  5  1  0
  5  6  2  0
  6  7  1  0
  7  8  2  0
  8  9  1  0
  9 10  2  0
 10 11  1  0
 11 12  2  0
 11 13  1  0
 13 14  1  0
 14 15  2  3
 15 16  1  0
 16 17  2  0
 17 18  1  0
 18 19  2  0
 19 20  1  0
 20 21  2  0
 10 22  1  0
 22 23  2  0
 23 24  1  0
 24 25  1  0
 25 26  2  0
 26 27  1  0
 27 28  1  0
 28 29  2  0
 29 30  1  0
  8 31  1  0
 31 32  2  0
 32  5  1  0
 24  9  1  0
 29 25  1  0
 21 16  1  0
  1 33  1  0
  1 34  1  0
  1 35  1  0
  2 36  1  0
  2 37  1  0
  3 38  1  0
  3 39  1  0
  6 40  1  0
  7 41  1  0
 13 42  1  0
 15 43  1  0
 17 44  1  0
 18 45  1  0
 19 46  1  0
 20 47  1  0
 21 48  1  0
 30 49  1  0
 30 50  1  0
 31 51  1  0
 32 52  1  0
M  END
$$$$
