
     RDKit          3D

 33 35  0  0  0  0  0  0  0  0999 V2000
    5.5413   -1.1947   -0.4707 C   0  0  0  0  0  0  0  0  0  0  0  0
    4.7471   -0.0206   -0.3519 O   0  0  0  0  0  0  0  0  0  0  0  0
    3.4219   -0.1969   -0.0644 C   0  0  0  0  0  0  0  0  0  0  0  0
    2.7806   -1.4191    0.1314 C   0  0  0  0  0  0  0  0  0  0  0  0
    1.4112   -1.4547    0.4141 C   0  0  0  0  0  0  0  0  0  0  0  0
    0.6734   -0.2680    0.5069 C   0  0  0  0  0  0  0  0  0  0  0  0
    1.3130    0.9678    0.3288 C   0  0  0  0  0  0  0  0  0  0  0  0
    2.6845    0.9881    0.0314 C   0  0  0  0  0  0  0  0  0  0  0  0
    0.5455    2.2601    0.4086 C   0  0  0  0  0  0  0  0  0  0  0  0
   -0.7083    2.1131    1.2662 C   0  0  0  0  0  0  0  0  0  0  0  0
   -1.5384    0.9488    0.7880 C   0  0  0  0  0  0  0  0  0  0  0  0
   -2.8040    1.1317    0.3697 C   0  0  0  0  0  0  0  0  0  0  0  0
   -3.6777    0.1597   -0.1860 C   0  0  0  0  0  0  0  0  0  0  0  0
   -4.0600   -1.1048    0.2456 C   0  0  0  0  0  0  0  0  0  0  0  0
   -4.9970   -1.6249   -0.6785 C   0  0  0  0  0  0  0  0  0  0  0  0
   -5.1693   -0.6472   -1.6220 C   0  0  0  0  0  0  0  0  0  0  0  0
   -4.4020    0.4297   -1.3303 O   0  0  0  0  0  0  0  0  0  0  0  0
   -0.7879   -0.3485    0.7923 C   0  0  0  0  0  0  0  0  0  0  0  0
   -1.3019   -1.4245    1.0654 O   0  0  0  0  0  0  0  0  0  0  0  0
    6.5641   -0.8839   -0.7045 H   0  0  0  0  0  0  0  0  0  0  0  0
    5.5692   -1.7491    0.4732 H   0  0  0  0  0  0  0  0  0  0  0  0
    5.1896   -1.8278   -1.2919 H   0  0  0  0  0  0  0  0  0  0  0  0
    3.3111   -2.3634    0.0674 H   0  0  0  0  0  0  0  0  0  0  0  0
    0.9197   -2.4157    0.5565 H   0  0  0  0  0  0  0  0  0  0  0  0
    3.1942    1.9368   -0.1274 H   0  0  0  0  0  0  0  0  0  0  0  0
    1.1769    3.0451    0.8417 H   0  0  0  0  0  0  0  0  0  0  0  0
    0.2761    2.5713   -0.6085 H   0  0  0  0  0  0  0  0  0  0  0  0
   -1.2726    3.0530    1.2403 H   0  0  0  0  0  0  0  0  0  0  0  0
   -0.4328    1.9446    2.3159 H   0  0  0  0  0  0  0  0  0  0  0  0
   -3.2054    2.1424    0.3588 H   0  0  0  0  0  0  0  0  0  0  0  0
   -3.7003   -1.5983    1.1384 H   0  0  0  0  0  0  0  0  0  0  0  0
   -5.4868   -2.5873   -0.6503 H   0  0  0  0  0  0  0  0  0  0  0  0
   -5.7748   -0.5628   -2.5131 H   0  0  0  0  0  0  0  0  0  0  0  0
  1  2  1  0
  2  3  1  0
  3  4  2  0
  4  5  1  0
  5  6  2  0
  6  7  1  0
  7  8  2  0
  7  9  1  0
  9 10  1  0
 10 11  1  0
 11 12  2  3
 12 13  1  0
 13 14  2  0
 14 15  1  0
 15 16  2  0
 16 17  1  0
 11 18  1  0
 18 19  2  0
  8  3  1  0
 17 13  1  0
 18  6  1  0
  1 20  1  0
  1 21  1  0
  1 22  1  0
  4 23  1  0
  5 24  1  0
  8 25  1  0
  9 26  1  0
  9 27  1  0
 10 28  1  0
 10 29  1  0
 12 30  1  0
 14 31  1  0
 15 32  1  0
 16 33  1  0
M  END
$$$$
