
     RDKit          3D

 49 50  0  0  0  0  0  0  0  0999 V2000
    6.4119    1.1720   -0.5687 C   0  0  0  0  0  0  0  0  0  0  0  0
    5.4217    0.9476    0.5576 C   0  0  0  0  0  0  0  0  0  0  0  0
    4.2385    0.3679   -0.0005 O   0  0  0  0  0  0  0  0  0  0  0  0
    3.2514    0.1110    0.9085 C   0  0  0  0  0  0  0  0  0  0  0  0
    3.3620    0.3554    2.1054 O   0  0  0  0  0  0  0  0  0  0  0  0
    2.0538   -0.4854    0.2977 C   0  0  0  0  0  0  0  0  0  0  0  0
    1.7024   -0.5619   -1.0959 C   0  0  0  0  0  0  0  0  0  0  0  0
    2.4999   -0.0337   -2.2424 C   0  0  0  0  0  0  0  0  0  0  0  0
    0.4875   -1.2280   -1.1866 C   0  0  0  0  0  0  0  0  0  0  0  0
   -0.2682   -1.6281   -2.4092 C   0  0  0  0  0  0  0  0  0  0  0  0
    0.0266   -1.4476    0.0986 N   0  0  0  0  0  0  0  0  0  0  0  0
   -1.2760   -2.0295    0.4536 C   0  0  0  0  0  0  0  0  0  0  0  0
   -2.4641   -1.2032    0.0132 C   0  0  0  0  0  0  0  0  0  0  0  0
   -3.3577   -1.7281   -0.9341 C   0  0  0  0  0  0  0  0  0  0  0  0
   -4.4708   -0.9973   -1.3449 C   0  0  0  0  0  0  0  0  0  0  0  0
   -4.7273    0.2607   -0.7979 C   0  0  0  0  0  0  0  0  0  0  0  0
   -3.8728    0.8002    0.1674 C   0  0  0  0  0  0  0  0  0  0  0  0
   -4.0761    2.0022    0.7938 O   0  0  0  0  0  0  0  0  0  0  0  0
   -5.2678    2.7128    0.4887 C   0  0  0  0  0  0  0  0  0  0  0  0
   -2.7304    0.0691    0.5525 C   0  0  0  0  0  0  0  0  0  0  0  0
   -1.8857    0.5257    1.5369 O   0  0  0  0  0  0  0  0  0  0  0  0
   -1.1755    1.6948    1.1224 C   0  0  0  0  0  0  0  0  0  0  0  0
    1.0229   -1.1099    1.0004 C   0  0  0  0  0  0  0  0  0  0  0  0
    0.9066   -1.3825    2.4666 C   0  0  0  0  0  0  0  0  0  0  0  0
    6.6507    0.2260   -1.0658 H   0  0  0  0  0  0  0  0  0  0  0  0
    7.3373    1.6168   -0.1922 H   0  0  0  0  0  0  0  0  0  0  0  0
    5.9858    1.8329   -1.3310 H   0  0  0  0  0  0  0  0  0  0  0  0
    5.1782    1.9051    1.0313 H   0  0  0  0  0  0  0  0  0  0  0  0
    5.8545    0.2665    1.2987 H   0  0  0  0  0  0  0  0  0  0  0  0
    3.3958   -0.6433   -2.3964 H   0  0  0  0  0  0  0  0  0  0  0  0
    2.8011    1.0027   -2.0588 H   0  0  0  0  0  0  0  0  0  0  0  0
    1.9268   -0.0362   -3.1742 H   0  0  0  0  0  0  0  0  0  0  0  0
   -0.9997   -0.8595   -2.6754 H   0  0  0  0  0  0  0  0  0  0  0  0
    0.4060   -1.7600   -3.2614 H   0  0  0  0  0  0  0  0  0  0  0  0
   -0.7817   -2.5838   -2.2722 H   0  0  0  0  0  0  0  0  0  0  0  0
   -1.3349   -2.1717    1.5358 H   0  0  0  0  0  0  0  0  0  0  0  0
   -1.2915   -3.0311    0.0073 H   0  0  0  0  0  0  0  0  0  0  0  0
   -3.1902   -2.7139   -1.3633 H   0  0  0  0  0  0  0  0  0  0  0  0
   -5.1488   -1.4133   -2.0865 H   0  0  0  0  0  0  0  0  0  0  0  0
   -5.6120    0.7879   -1.1383 H   0  0  0  0  0  0  0  0  0  0  0  0
   -5.2817    3.6198    1.1006 H   0  0  0  0  0  0  0  0  0  0  0  0
   -6.1562    2.1259    0.7442 H   0  0  0  0  0  0  0  0  0  0  0  0
   -5.2841    3.0212   -0.5617 H   0  0  0  0  0  0  0  0  0  0  0  0
   -0.9457    1.6908    0.0505 H   0  0  0  0  0  0  0  0  0  0  0  0
   -1.7334    2.5967    1.3897 H   0  0  0  0  0  0  0  0  0  0  0  0
   -0.2285    1.7219    1.6700 H   0  0  0  0  0  0  0  0  0  0  0  0
    0.2476   -0.6516    2.9435 H   0  0  0  0  0  0  0  0  0  0  0  0
    0.5150   -2.3881    2.6510 H   0  0  0  0  0  0  0  0  0  0  0  0
    1.8767   -1.3456    2.9681 H   0  0  0  0  0  0  0  0  0  0  0  0
  1  2  1  0
  2  3  1  0
  3  4  1  0
  4  5  2  0
  4  6  1  0
  6  7  1  0
  7  8  1  0
  7  9  2  0
  9 10  1  0
  9 11  1  0
 11 12  1  0
 12 13  1  0
 13 14  2  0
 14 15  1  0
 15 16  2  0
 16 17  1  0
 17 18  1  0
 18 19  1  0
 17 20  2  0
 20 21  1  0
 21 22  1  0
 11 23  1  0
 23 24  1  0
 23  6  2  0
 20 13  1  0
  1 25  1  0
  1 26  1  0
  1 27  1  0
  2 28  1  0
  2 29  1  0
  8 30  1  0
  8 31  1  0
  8 32  1  0
 10 33  1  0
 10 34  1  0
 10 35  1  0
 12 36  1  0
 12 37  1  0
 14 38  1  0
 15 39  1  0
 16 40  1  0
 19 41  1  0
 19 42  1  0
 19 43  1  0
 22 44  1  0
 22 45  1  0
 22 46  1  0
 24 47  1  0
 24 48  1  0
 24 49  1  0
M  END
$$$$
