
     RDKit          3D

 53 54  0  0  0  0  0  0  0  0999 V2000
   -3.2389   -2.3731   -1.3735 C   0  0  0  0  0  0  0  0  0  0  0  0
   -3.8900   -1.0077   -1.2411 C   0  0  0  0  0  0  0  0  0  0  0  0
   -4.9052   -0.9193   -0.1609 N   0  0  0  0  0  0  0  0  0  0  0  0
   -6.2067   -1.5511   -0.5044 C   0  0  0  0  0  0  0  0  0  0  0  0
   -7.2367   -0.4613   -0.7426 C   0  0  0  0  0  0  0  0  0  0  0  0
   -4.4293   -1.1062    1.4615 S   0  0  0  0  0  6  0  0  0  0  0  0
   -5.5379   -0.7044    2.3021 O   0  0  0  0  0  0  0  0  0  0  0  0
   -3.8243   -2.4118    1.6138 O   0  0  0  0  0  0  0  0  0  0  0  0
   -3.1637    0.1252    1.6541 C   0  0  0  0  0  0  0  0  0  0  0  0
   -3.5352    1.4716    1.7261 C   0  0  0  0  0  0  0  0  0  0  0  0
   -2.5544    2.4458    1.9009 C   0  0  0  0  0  0  0  0  0  0  0  0
   -1.2121    2.0722    2.0083 C   0  0  0  0  0  0  0  0  0  0  0  0
   -0.8395    0.7201    1.9439 C   0  0  0  0  0  0  0  0  0  0  0  0
    0.6050    0.3852    2.0681 C   0  0  0  0  0  0  0  0  0  0  0  0
    1.4823    1.2174    2.2481 O   0  0  0  0  0  0  0  0  0  0  0  0
    0.8020   -0.9462    1.9317 O   0  0  0  0  0  0  0  0  0  0  0  0
    2.1539   -1.3899    2.0627 C   0  0  0  0  0  0  0  0  0  0  0  0
    2.9949   -1.2171    0.7949 C   0  0  0  0  0  0  0  0  0  0  0  0
    3.4200   -2.1741    0.1537 O   0  0  0  0  0  0  0  0  0  0  0  0
    3.2600    0.0899    0.4547 N   0  0  0  0  0  0  0  0  0  0  0  0
    4.0644    0.4483   -0.6978 C   0  0  0  0  0  0  0  0  0  0  0  0
    5.5672    0.2597   -0.4600 C   0  0  0  0  0  0  0  0  0  0  0  0
    6.3667    0.8283   -1.5321 N   0  0  0  0  0  0  0  0  0  0  0  0
    6.7256    2.1527   -1.5878 C   0  0  0  0  0  0  0  0  0  0  0  0
    6.3394    2.9840   -0.5793 O   0  0  0  0  0  0  0  0  0  0  0  0
    7.4336    2.4927   -2.6709 C   0  0  0  0  0  0  0  0  0  0  0  0
    7.6780    1.1277   -3.7168 S   0  0  0  0  0  0  0  0  0  0  0  0
    6.7671    0.0678   -2.6196 C   0  0  0  0  0  0  0  0  0  0  0  0
    6.5590   -1.1121   -2.8443 O   0  0  0  0  0  0  0  0  0  0  0  0
   -1.8241   -0.2606    1.7705 C   0  0  0  0  0  0  0  0  0  0  0  0
   -2.6609   -2.4205   -2.3023 H   0  0  0  0  0  0  0  0  0  0  0  0
   -2.5409   -2.5650   -0.5541 H   0  0  0  0  0  0  0  0  0  0  0  0
   -3.9751   -3.1817   -1.3914 H   0  0  0  0  0  0  0  0  0  0  0  0
   -4.3774   -0.7495   -2.1905 H   0  0  0  0  0  0  0  0  0  0  0  0
   -3.1256   -0.2376   -1.0920 H   0  0  0  0  0  0  0  0  0  0  0  0
   -6.5478   -2.2161    0.2967 H   0  0  0  0  0  0  0  0  0  0  0  0
   -6.1185   -2.1739   -1.4013 H   0  0  0  0  0  0  0  0  0  0  0  0
   -6.9353    0.1886   -1.5705 H   0  0  0  0  0  0  0  0  0  0  0  0
   -8.2072   -0.9028   -0.9896 H   0  0  0  0  0  0  0  0  0  0  0  0
   -7.3620    0.1652    0.1461 H   0  0  0  0  0  0  0  0  0  0  0  0
   -4.5827    1.7595    1.6520 H   0  0  0  0  0  0  0  0  0  0  0  0
   -2.8336    3.4957    1.9608 H   0  0  0  0  0  0  0  0  0  0  0  0
   -0.4560    2.8435    2.1495 H   0  0  0  0  0  0  0  0  0  0  0  0
    2.1185   -2.4598    2.2967 H   0  0  0  0  0  0  0  0  0  0  0  0
    2.6543   -0.9016    2.9081 H   0  0  0  0  0  0  0  0  0  0  0  0
    2.9347    0.8285    1.0782 H   0  0  0  0  0  0  0  0  0  0  0  0
    3.8355    1.4954   -0.9248 H   0  0  0  0  0  0  0  0  0  0  0  0
    3.7412   -0.1542   -1.5544 H   0  0  0  0  0  0  0  0  0  0  0  0
    5.8707    0.7132    0.4917 H   0  0  0  0  0  0  0  0  0  0  0  0
    5.7948   -0.8105   -0.3796 H   0  0  0  0  0  0  0  0  0  0  0  0
    6.7002    3.8688   -0.7586 H   0  0  0  0  0  0  0  0  0  0  0  0
    7.8117    3.4762   -2.9071 H   0  0  0  0  0  0  0  0  0  0  0  0
   -1.5597   -1.3154    1.7289 H   0  0  0  0  0  0  0  0  0  0  0  0
  1  2  1  0
  2  3  1  0
  3  4  1  0
  4  5  1  0
  3  6  1  0
  6  7  2  0
  6  8  2  0
  6  9  1  0
  9 10  2  0
 10 11  1  0
 11 12  2  0
 12 13  1  0
 13 14  1  0
 14 15  2  0
 14 16  1  0
 16 17  1  0
 17 18  1  0
 18 19  2  0
 18 20  1  0
 20 21  1  0
 21 22  1  0
 22 23  1  0
 23 24  1  0
 24 25  1  0
 24 26  2  0
 26 27  1  0
 27 28  1  0
 28 29  2  0
 13 30  2  0
 30  9  1  0
 28 23  1  0
  1 31  1  0
  1 32  1  0
  1 33  1  0
  2 34  1  0
  2 35  1  0
  4 36  1  0
  4 37  1  0
  5 38  1  0
  5 39  1  0
  5 40  1  0
 10 41  1  0
 11 42  1  0
 12 43  1  0
 17 44  1  0
 17 45  1  0
 20 46  1  0
 21 47  1  0
 21 48  1  0
 22 49  1  0
 22 50  1  0
 25 51  1  0
 26 52  1  0
 30 53  1  0
M  END
$$$$
