
     RDKit          3D

 57 60  0  0  0  0  0  0  0  0999 V2000
   -8.4733    1.1348    2.7216 C   0  0  0  0  0  0  0  0  0  0  0  0
   -7.2953    0.3465    3.2729 C   0  0  0  0  0  0  0  0  0  0  0  0
   -6.1688    0.2506    2.2769 C   0  0  0  0  0  0  0  0  0  0  0  0
   -6.1195   -0.8000    1.3568 C   0  0  0  0  0  0  0  0  0  0  0  0
   -5.0819   -0.8752    0.4209 C   0  0  0  0  0  0  0  0  0  0  0  0
   -4.0608    0.0910    0.3717 C   0  0  0  0  0  0  0  0  0  0  0  0
   -2.9695   -0.0128   -0.6203 C   0  0  0  0  0  0  0  0  0  0  0  0
   -1.6891    0.4555   -0.3848 C   0  0  0  0  0  0  0  0  0  0  0  0
   -0.7288    0.3027   -1.3853 C   0  0  0  0  0  0  0  0  0  0  0  0
    0.6383    0.7632   -1.0521 C   0  0  0  0  0  0  0  0  0  0  0  0
    0.7861    1.9314   -0.7220 O   0  0  0  0  0  0  0  0  0  0  0  0
    1.5923   -0.2352   -1.0995 N   0  0  0  0  0  0  0  0  0  0  0  0
    2.9731   -0.1109   -0.8463 C   0  0  0  0  0  0  0  0  0  0  0  0
    3.7419   -1.2819   -0.9120 C   0  0  0  0  0  0  0  0  0  0  0  0
    5.1198   -1.2470   -0.6782 C   0  0  0  0  0  0  0  0  0  0  0  0
    5.7348   -0.0323   -0.3686 C   0  0  0  0  0  0  0  0  0  0  0  0
    7.4900    0.0258   -0.1172 S   0  0  0  0  0  6  0  0  0  0  0  0
    7.9745    1.3558   -0.4059 O   0  0  0  0  0  0  0  0  0  0  0  0
    8.0588   -1.1294   -0.7831 O   0  0  0  0  0  0  0  0  0  0  0  0
    7.6587   -0.2891    1.5042 N   0  0  0  0  0  0  0  0  0  0  0  0
    7.2414    0.5531    2.5404 C   0  0  0  0  0  0  0  0  0  0  0  0
    7.6134    0.0626    3.9112 C   0  0  0  0  0  0  0  0  0  0  0  0
    6.6101    1.5835    2.3625 O   0  0  0  0  0  0  0  0  0  0  0  0
    4.9854    1.1433   -0.3205 C   0  0  0  0  0  0  0  0  0  0  0  0
    3.6058    1.0996   -0.5517 C   0  0  0  0  0  0  0  0  0  0  0  0
   -1.0522   -0.2732   -2.6315 C   0  0  0  0  0  0  0  0  0  0  0  0
   -0.1629   -0.3971   -3.7306 C   0  0  0  0  0  0  0  0  0  0  0  0
   -0.5715   -0.9951   -4.9208 C   0  0  0  0  0  0  0  0  0  0  0  0
   -1.8701   -1.4690   -5.0345 C   0  0  0  0  0  0  0  0  0  0  0  0
   -2.7535   -1.3304   -3.9616 C   0  0  0  0  0  0  0  0  0  0  0  0
   -2.3730   -0.7346   -2.7664 C   0  0  0  0  0  0  0  0  0  0  0  0
   -3.2890   -0.6233   -1.7895 N   0  0  0  0  0  0  0  0  0  0  0  0
   -4.1363    1.1502    1.2942 C   0  0  0  0  0  0  0  0  0  0  0  0
   -5.1728    1.2303    2.2323 C   0  0  0  0  0  0  0  0  0  0  0  0
   -8.8787    0.6643    1.8195 H   0  0  0  0  0  0  0  0  0  0  0  0
   -9.2743    1.1883    3.4656 H   0  0  0  0  0  0  0  0  0  0  0  0
   -8.1809    2.1583    2.4639 H   0  0  0  0  0  0  0  0  0  0  0  0
   -7.6235   -0.6608    3.5565 H   0  0  0  0  0  0  0  0  0  0  0  0
   -6.9335    0.8176    4.1948 H   0  0  0  0  0  0  0  0  0  0  0  0
   -6.8897   -1.5681    1.3556 H   0  0  0  0  0  0  0  0  0  0  0  0
   -5.0739   -1.7062   -0.2833 H   0  0  0  0  0  0  0  0  0  0  0  0
   -1.4169    0.9127    0.5612 H   0  0  0  0  0  0  0  0  0  0  0  0
    1.2622   -1.1686   -1.3160 H   0  0  0  0  0  0  0  0  0  0  0  0
    3.2805   -2.2372   -1.1506 H   0  0  0  0  0  0  0  0  0  0  0  0
    5.6998   -2.1643   -0.7471 H   0  0  0  0  0  0  0  0  0  0  0  0
    8.1539   -1.1545    1.6912 H   0  0  0  0  0  0  0  0  0  0  0  0
    8.6975   -0.0615    3.9786 H   0  0  0  0  0  0  0  0  0  0  0  0
    7.2937    0.7896    4.6629 H   0  0  0  0  0  0  0  0  0  0  0  0
    7.1193   -0.8929    4.1067 H   0  0  0  0  0  0  0  0  0  0  0  0
    5.4601    2.0971   -0.0944 H   0  0  0  0  0  0  0  0  0  0  0  0
    3.0555    2.0345   -0.4991 H   0  0  0  0  0  0  0  0  0  0  0  0
    0.8522   -0.0072   -3.6760 H   0  0  0  0  0  0  0  0  0  0  0  0
    0.1183   -1.0794   -5.7570 H   0  0  0  0  0  0  0  0  0  0  0  0
   -2.2066   -1.9339   -5.9579 H   0  0  0  0  0  0  0  0  0  0  0  0
   -3.7754   -1.6902   -4.0646 H   0  0  0  0  0  0  0  0  0  0  0  0
   -3.3969    1.9484    1.2846 H   0  0  0  0  0  0  0  0  0  0  0  0
   -5.1988    2.0707    2.9229 H   0  0  0  0  0  0  0  0  0  0  0  0
  1  2  1  0
  2  3  1  0
  3  4  2  0
  4  5  1  0
  5  6  2  0
  6  7  1  0
  7  8  2  0
  8  9  1  0
  9 10  1  0
 10 11  2  0
 10 12  1  0
 12 13  1  0
 13 14  2  0
 14 15  1  0
 15 16  2  0
 16 17  1  0
 17 18  2  0
 17 19  2  0
 17 20  1  0
 20 21  1  0
 21 22  1  0
 21 23  2  0
 16 24  1  0
 24 25  2  0
  9 26  2  0
 26 27  1  0
 27 28  2  0
 28 29  1  0
 29 30  2  0
 30 31  1  0
 31 32  2  0
  6 33  1  0
 33 34  2  0
 34  3  1  0
 32  7  1  0
 25 13  1  0
 31 26  1  0
  1 35  1  0
  1 36  1  0
  1 37  1  0
  2 38  1  0
  2 39  1  0
  4 40  1  0
  5 41  1  0
  8 42  1  0
 12 43  1  0
 14 44  1  0
 15 45  1  0
 20 46  1  0
 22 47  1  0
 22 48  1  0
 22 49  1  0
 24 50  1  0
 25 51  1  0
 27 52  1  0
 28 53  1  0
 29 54  1  0
 30 55  1  0
 33 56  1  0
 34 57  1  0
M  END
$$$$
