
     RDKit          3D

 30 31  0  0  0  0  0  0  0  0999 V2000
   -2.9482    0.2220   -1.2634 C   0  0  0  0  0  0  0  0  0  0  0  0
   -3.3234   -0.1488    0.1746 C   0  0  0  0  0  0  0  0  0  0  0  0
   -4.8216   -0.4503    0.2409 C   0  0  0  0  0  0  0  0  0  0  0  0
   -3.1020    0.9586    1.0595 O   0  0  0  0  0  0  0  0  0  0  0  0
   -1.8669    1.1756    1.5384 C   0  0  0  0  0  0  0  0  0  0  0  0
   -1.5690    2.0953    2.2777 O   0  0  0  0  0  0  0  0  0  0  0  0
   -0.8761    0.1316    1.1024 C   0  0  0  0  0  0  0  0  0  0  0  0
    0.3280    0.5018    0.7688 N   0  0  0  0  0  0  0  0  0  0  0  0
    1.1835   -0.4725    0.3432 N   0  0  0  0  0  0  0  0  0  0  0  0
    2.5239   -0.1097    0.0784 C   0  0  0  0  0  0  0  0  0  0  0  0
    2.9262    1.2236   -0.0725 C   0  0  0  0  0  0  0  0  0  0  0  0
    4.2469    1.5439   -0.4004 C   0  0  0  0  0  0  0  0  0  0  0  0
    5.1799    0.5306   -0.6052 C   0  0  0  0  0  0  0  0  0  0  0  0
    4.7904   -0.8014   -0.4907 C   0  0  0  0  0  0  0  0  0  0  0  0
    3.4691   -1.1177   -0.1618 C   0  0  0  0  0  0  0  0  0  0  0  0
   -1.3910   -1.2779    1.0092 C   0  0  0  0  0  0  0  0  0  0  0  0
   -0.7009   -2.2371    1.3124 O   0  0  0  0  0  0  0  0  0  0  0  0
   -2.6580   -1.3543    0.5795 O   0  0  0  0  0  0  0  0  0  0  0  0
   -3.4904    1.1142   -1.5943 H   0  0  0  0  0  0  0  0  0  0  0  0
   -1.8815    0.4474   -1.3598 H   0  0  0  0  0  0  0  0  0  0  0  0
   -3.1596   -0.6040   -1.9510 H   0  0  0  0  0  0  0  0  0  0  0  0
   -5.4191    0.4221   -0.0449 H   0  0  0  0  0  0  0  0  0  0  0  0
   -5.1113   -0.7184    1.2640 H   0  0  0  0  0  0  0  0  0  0  0  0
   -5.0892   -1.2959   -0.4018 H   0  0  0  0  0  0  0  0  0  0  0  0
    1.1093   -1.4116    0.7556 H   0  0  0  0  0  0  0  0  0  0  0  0
    2.2096    2.0280    0.0726 H   0  0  0  0  0  0  0  0  0  0  0  0
    4.5409    2.5853   -0.4987 H   0  0  0  0  0  0  0  0  0  0  0  0
    6.2062    0.7792   -0.8614 H   0  0  0  0  0  0  0  0  0  0  0  0
    5.5118   -1.5957   -0.6625 H   0  0  0  0  0  0  0  0  0  0  0  0
    3.1824   -2.1640   -0.0939 H   0  0  0  0  0  0  0  0  0  0  0  0
  1  2  1  0
  2  3  1  0
  2  4  1  0
  4  5  1  0
  5  6  2  0
  5  7  1  0
  7  8  2  3
  8  9  1  0
  9 10  1  0
 10 11  2  0
 11 12  1  0
 12 13  2  0
 13 14  1  0
 14 15  2  0
  7 16  1  0
 16 17  2  0
 16 18  1  0
 18  2  1  0
 15 10  1  0
  1 19  1  0
  1 20  1  0
  1 21  1  0
  3 22  1  0
  3 23  1  0
  3 24  1  0
  9 25  1  0
 11 26  1  0
 12 27  1  0
 13 28  1  0
 14 29  1  0
 15 30  1  0
M  END
$$$$
