
     RDKit          3D

 43 43  0  0  0  0  0  0  0  0999 V2000
   -4.4504    2.9338    2.7704 C   0  0  0  0  0  0  0  0  0  0  0  0
   -4.2169    1.5206    2.3288 C   0  0  0  0  0  0  0  0  0  0  0  0
   -3.9939    0.3970    3.6283 Cl  0  0  0  0  0  0  0  0  0  0  0  0
   -4.1722    1.1366    1.0405 C   0  0  0  0  0  0  0  0  0  0  0  0
   -3.9943   -0.2535    0.5095 C   0  0  0  0  0  0  0  0  0  0  0  0
   -2.6028   -0.5712   -0.0651 N   0  0  0  0  0  4  0  0  0  0  0  0
   -2.6431   -2.0054   -0.6116 C   0  0  0  0  0  0  0  0  0  0  0  0
   -2.2427    0.3744   -1.1993 C   0  0  0  0  0  0  0  0  0  0  0  0
   -1.5353   -0.4726    1.0788 C   0  0  0  0  0  0  0  0  0  0  0  0
   -0.1116   -0.8715    0.7020 C   0  0  0  0  0  0  0  0  0  0  0  0
    0.1935   -1.9767    0.2730 O   0  0  0  0  0  0  0  0  0  0  0  0
    0.7415    0.1725    0.8785 O   0  0  0  0  0  0  0  0  0  0  0  0
    2.1317   -0.1009    0.6061 C   0  0  0  0  0  0  0  0  0  0  0  0
    2.4234    0.0306   -0.8888 C   0  0  0  0  0  0  0  0  0  0  0  0
    3.8767   -0.1924   -1.2073 C   0  0  0  0  0  0  0  0  0  0  0  0
    4.4196   -1.4858   -1.1724 C   0  0  0  0  0  0  0  0  0  0  0  0
    5.7714   -1.6939   -1.4502 C   0  0  0  0  0  0  0  0  0  0  0  0
    6.5923   -0.6124   -1.7666 C   0  0  0  0  0  0  0  0  0  0  0  0
    6.0630    0.6769   -1.8028 C   0  0  0  0  0  0  0  0  0  0  0  0
    4.7116    0.8870   -1.5235 C   0  0  0  0  0  0  0  0  0  0  0  0
   -5.3323    2.9961    3.4161 H   0  0  0  0  0  0  0  0  0  0  0  0
   -3.5848    3.3090    3.3252 H   0  0  0  0  0  0  0  0  0  0  0  0
   -4.6176    3.6042    1.9188 H   0  0  0  0  0  0  0  0  0  0  0  0
   -4.3401    1.9036    0.2822 H   0  0  0  0  0  0  0  0  0  0  0  0
   -4.2082   -1.0246    1.2598 H   0  0  0  0  0  0  0  0  0  0  0  0
   -4.7124   -0.4020   -0.3090 H   0  0  0  0  0  0  0  0  0  0  0  0
   -2.7427   -2.6949    0.2337 H   0  0  0  0  0  0  0  0  0  0  0  0
   -1.7302   -2.2016   -1.1793 H   0  0  0  0  0  0  0  0  0  0  0  0
   -3.5048   -2.0906   -1.2807 H   0  0  0  0  0  0  0  0  0  0  0  0
   -3.0433    0.3407   -1.9446 H   0  0  0  0  0  0  0  0  0  0  0  0
   -1.2983    0.0463   -1.6469 H   0  0  0  0  0  0  0  0  0  0  0  0
   -2.1313    1.3851   -0.7960 H   0  0  0  0  0  0  0  0  0  0  0  0
   -1.5415    0.5663    1.4356 H   0  0  0  0  0  0  0  0  0  0  0  0
   -1.8682   -1.1291    1.8905 H   0  0  0  0  0  0  0  0  0  0  0  0
    2.4079   -1.0875    0.9980 H   0  0  0  0  0  0  0  0  0  0  0  0
    2.7145    0.6335    1.1740 H   0  0  0  0  0  0  0  0  0  0  0  0
    1.8139   -0.6740   -1.4658 H   0  0  0  0  0  0  0  0  0  0  0  0
    2.1037    1.0239   -1.2317 H   0  0  0  0  0  0  0  0  0  0  0  0
    3.7951   -2.3449   -0.9299 H   0  0  0  0  0  0  0  0  0  0  0  0
    6.1859   -2.7002   -1.4228 H   0  0  0  0  0  0  0  0  0  0  0  0
    7.6449   -0.7754   -1.9844 H   0  0  0  0  0  0  0  0  0  0  0  0
    6.7057    1.5197   -2.0461 H   0  0  0  0  0  0  0  0  0  0  0  0
    4.3223    1.9037   -1.5529 H   0  0  0  0  0  0  0  0  0  0  0  0
  1  2  1  0
  2  3  1  0
  2  4  2  3
  4  5  1  0
  5  6  1  0
  6  7  1  0
  6  8  1  0
  6  9  1  0
  9 10  1  0
 10 11  2  0
 10 12  1  0
 12 13  1  0
 13 14  1  0
 14 15  1  0
 15 16  2  0
 16 17  1  0
 17 18  2  0
 18 19  1  0
 19 20  2  0
 20 15  1  0
  1 21  1  0
  1 22  1  0
  1 23  1  0
  4 24  1  0
  5 25  1  0
  5 26  1  0
  7 27  1  0
  7 28  1  0
  7 29  1  0
  8 30  1  0
  8 31  1  0
  8 32  1  0
  9 33  1  0
  9 34  1  0
 13 35  1  0
 13 36  1  0
 14 37  1  0
 14 38  1  0
 16 39  1  0
 17 40  1  0
 18 41  1  0
 19 42  1  0
 20 43  1  0
M  CHG  1   6   1
M  END
$$$$
