
     RDKit          3D

 33 33  0  0  0  0  0  0  0  0999 V2000
   -2.1786    1.9404   -2.0362 C   0  0  0  0  0  0  0  0  0  0  0  0
   -2.6443    1.0855   -0.8840 C   0  0  0  0  0  0  0  0  0  0  0  0
   -3.7530    0.5608   -0.8993 O   0  0  0  0  0  0  0  0  0  0  0  0
   -1.6853    0.9648    0.0993 N   0  0  0  0  0  0  0  0  0  0  0  0
   -1.7683    0.2547    1.3160 C   0  0  0  0  0  0  0  0  0  0  0  0
   -2.9153   -0.4128    1.7484 C   0  0  0  0  0  0  0  0  0  0  0  0
   -2.9269   -1.0807    2.9791 C   0  0  0  0  0  0  0  0  0  0  0  0
   -1.7961   -1.0812    3.7946 C   0  0  0  0  0  0  0  0  0  0  0  0
   -0.6437   -0.4205    3.3783 C   0  0  0  0  0  0  0  0  0  0  0  0
   -0.6290    0.2239    2.1390 C   0  0  0  0  0  0  0  0  0  0  0  0
    0.5131    0.8872    1.7630 O   0  0  0  0  0  0  0  0  0  0  0  0
    1.4434    0.0003    1.1407 C   0  0  0  0  0  0  0  0  0  0  0  0
    1.5840    0.3116   -0.3516 C   0  0  0  0  0  0  0  0  0  0  0  0
    0.9445    1.1939   -0.9214 O   0  0  0  0  0  0  0  0  0  0  0  0
    2.4931   -0.4892   -1.0124 N   0  0  0  0  0  0  0  0  0  0  0  0
    2.6485   -0.3899   -2.4677 C   0  0  0  0  0  0  0  0  0  0  0  0
    3.8907   -1.0803   -3.0242 C   0  0  0  0  0  0  0  0  0  0  0  0
    5.0235   -0.5047   -2.5659 F   0  0  0  0  0  0  0  0  0  0  0  0
    3.9151   -2.3823   -2.6526 F   0  0  0  0  0  0  0  0  0  0  0  0
    3.9157   -1.0350   -4.3726 F   0  0  0  0  0  0  0  0  0  0  0  0
   -1.5789    2.7831   -1.6802 H   0  0  0  0  0  0  0  0  0  0  0  0
   -3.0479    2.3429   -2.5641 H   0  0  0  0  0  0  0  0  0  0  0  0
   -1.5862    1.3307   -2.7234 H   0  0  0  0  0  0  0  0  0  0  0  0
   -0.7834    1.4081   -0.0840 H   0  0  0  0  0  0  0  0  0  0  0  0
   -3.8245   -0.4242    1.1554 H   0  0  0  0  0  0  0  0  0  0  0  0
   -3.8316   -1.5904    3.3029 H   0  0  0  0  0  0  0  0  0  0  0  0
   -1.8195   -1.5873    4.7562 H   0  0  0  0  0  0  0  0  0  0  0  0
    0.2332   -0.4002    4.0182 H   0  0  0  0  0  0  0  0  0  0  0  0
    1.1795   -1.0593    1.2574 H   0  0  0  0  0  0  0  0  0  0  0  0
    2.4184    0.1645    1.6126 H   0  0  0  0  0  0  0  0  0  0  0  0
    2.7982   -1.3477   -0.5646 H   0  0  0  0  0  0  0  0  0  0  0  0
    2.6605    0.6696   -2.7458 H   0  0  0  0  0  0  0  0  0  0  0  0
    1.7514   -0.8361   -2.9112 H   0  0  0  0  0  0  0  0  0  0  0  0
  1  2  1  0
  2  3  2  0
  2  4  1  0
  4  5  1  0
  5  6  2  0
  6  7  1  0
  7  8  2  0
  8  9  1  0
  9 10  2  0
 10 11  1  0
 11 12  1  0
 12 13  1  0
 13 14  2  0
 13 15  1  0
 15 16  1  0
 16 17  1  0
 17 18  1  0
 17 19  1  0
 17 20  1  0
 10  5  1  0
  1 21  1  0
  1 22  1  0
  1 23  1  0
  4 24  1  0
  6 25  1  0
  7 26  1  0
  8 27  1  0
  9 28  1  0
 12 29  1  0
 12 30  1  0
 15 31  1  0
 16 32  1  0
 16 33  1  0
M  END
$$$$
