
     RDKit          3D

 45 48  0  0  0  0  0  0  0  0999 V2000
    4.5829   -1.4141   -1.6846 C   0  0  0  0  0  0  0  0  0  0  0  0
    4.0821   -1.5366   -0.2550 C   0  0  0  0  0  0  0  0  0  0  0  0
    3.3176   -0.3620    0.0388 O   0  0  0  0  0  0  0  0  0  0  0  0
    2.7443   -0.4249    1.2881 C   0  0  0  0  0  0  0  0  0  0  0  0
    3.5689   -0.3415    2.4185 C   0  0  0  0  0  0  0  0  0  0  0  0
    3.0095   -0.3088    3.6957 C   0  0  0  0  0  0  0  0  0  0  0  0
    1.6261   -0.3322    3.8470 C   0  0  0  0  0  0  0  0  0  0  0  0
    0.8034   -0.3899    2.7189 C   0  0  0  0  0  0  0  0  0  0  0  0
    1.3417   -0.4391    1.4132 C   0  0  0  0  0  0  0  0  0  0  0  0
    0.4386   -0.5017    0.2568 C   0  0  0  0  0  0  0  0  0  0  0  0
    0.6956   -1.4280   -0.6978 N   0  0  0  0  0  0  0  0  0  0  0  0
   -0.1929   -1.4954   -1.7214 C   0  0  0  0  0  0  0  0  0  0  0  0
    0.0629   -2.5211   -2.7715 C   0  0  0  0  0  0  0  0  0  0  0  0
    1.1679   -3.3030   -2.5783 N   0  0  0  0  0  0  0  0  0  0  0  0
   -0.6689   -2.6666   -3.7422 O   0  0  0  0  0  0  0  0  0  0  0  0
   -1.2905   -0.6880   -1.7816 C   0  0  0  0  0  0  0  0  0  0  0  0
   -2.3459   -0.5980   -2.6769 N   0  0  0  0  0  0  0  0  0  0  0  0
   -3.2400    0.3805   -2.2172 C   0  0  0  0  0  0  0  0  0  0  0  0
   -4.2708    0.6746   -2.8005 O   0  0  0  0  0  0  0  0  0  0  0  0
   -2.6805    0.9057   -1.0144 N   0  0  0  0  0  0  0  0  0  0  0  0
   -3.2351    1.9086   -0.1786 C   0  0  0  0  0  0  0  0  0  0  0  0
   -2.4780    2.5956    0.7821 C   0  0  0  0  0  0  0  0  0  0  0  0
   -3.0484    3.5852    1.5942 C   0  0  0  0  0  0  0  0  0  0  0  0
   -4.3933    3.9080    1.4646 C   0  0  0  0  0  0  0  0  0  0  0  0
   -5.1626    3.2516    0.5139 C   0  0  0  0  0  0  0  0  0  0  0  0
   -4.5877    2.2675   -0.3005 C   0  0  0  0  0  0  0  0  0  0  0  0
   -1.4683    0.2161   -0.7619 C   0  0  0  0  0  0  0  0  0  0  0  0
   -0.6365    0.3204    0.2787 N   0  0  0  0  0  0  0  0  0  0  0  0
    3.7482   -1.2866   -2.3829 H   0  0  0  0  0  0  0  0  0  0  0  0
    5.1537   -2.3000   -1.9751 H   0  0  0  0  0  0  0  0  0  0  0  0
    5.2227   -0.5294   -1.7895 H   0  0  0  0  0  0  0  0  0  0  0  0
    3.4561   -2.4346   -0.1593 H   0  0  0  0  0  0  0  0  0  0  0  0
    4.9443   -1.6227    0.4170 H   0  0  0  0  0  0  0  0  0  0  0  0
    4.6484   -0.2740    2.3065 H   0  0  0  0  0  0  0  0  0  0  0  0
    3.6516   -0.2427    4.5706 H   0  0  0  0  0  0  0  0  0  0  0  0
    1.1837   -0.2901    4.8407 H   0  0  0  0  0  0  0  0  0  0  0  0
   -0.2771   -0.3924    2.8591 H   0  0  0  0  0  0  0  0  0  0  0  0
    1.7425   -3.1802   -1.7518 H   0  0  0  0  0  0  0  0  0  0  0  0
    1.3905   -4.0285   -3.2486 H   0  0  0  0  0  0  0  0  0  0  0  0
   -2.4676   -1.1615   -3.5108 H   0  0  0  0  0  0  0  0  0  0  0  0
   -1.4152    2.4186    0.9032 H   0  0  0  0  0  0  0  0  0  0  0  0
   -2.4308    4.1090    2.3189 H   0  0  0  0  0  0  0  0  0  0  0  0
   -4.8369    4.6753    2.0937 H   0  0  0  0  0  0  0  0  0  0  0  0
   -6.2149    3.4993    0.3981 H   0  0  0  0  0  0  0  0  0  0  0  0
   -5.2416    1.7775   -1.0182 H   0  0  0  0  0  0  0  0  0  0  0  0
  1  2  1  0
  2  3  1  0
  3  4  1  0
  4  5  2  0
  5  6  1  0
  6  7  2  0
  7  8  1  0
  8  9  2  0
  9 10  1  0
 10 11  2  0
 11 12  1  0
 12 13  1  0
 13 14  1  0
 13 15  2  0
 12 16  2  0
 16 17  1  0
 17 18  1  0
 18 19  2  0
 18 20  1  0
 20 21  1  0
 21 22  2  0
 22 23  1  0
 23 24  2  0
 24 25  1  0
 25 26  2  0
 20 27  1  0
 27 28  2  0
  9  4  1  0
 28 10  1  0
 27 16  1  0
 26 21  1  0
  1 29  1  0
  1 30  1  0
  1 31  1  0
  2 32  1  0
  2 33  1  0
  5 34  1  0
  6 35  1  0
  7 36  1  0
  8 37  1  0
 14 38  1  0
 14 39  1  0
 17 40  1  0
 22 41  1  0
 23 42  1  0
 24 43  1  0
 25 44  1  0
 26 45  1  0
M  END
$$$$
