
     RDKit          3D

 55 59  0  0  0  0  0  0  0  0999 V2000
    8.3671    0.5693    2.4583 C   0  0  0  0  0  0  0  0  0  0  0  0
    7.0271    0.0906    2.4011 O   0  0  0  0  0  0  0  0  0  0  0  0
    6.2213    0.6281    1.4330 C   0  0  0  0  0  0  0  0  0  0  0  0
    6.6408    1.4585    0.3916 C   0  0  0  0  0  0  0  0  0  0  0  0
    5.7111    1.9574   -0.5228 C   0  0  0  0  0  0  0  0  0  0  0  0
    4.3623    1.6143   -0.4084 C   0  0  0  0  0  0  0  0  0  0  0  0
    3.9292    0.7549    0.6092 C   0  0  0  0  0  0  0  0  0  0  0  0
    2.5122    0.3984    0.6871 C   0  0  0  0  0  0  0  0  0  0  0  0
    1.5054    1.2547    0.6007 N   0  0  0  0  0  0  0  0  0  0  0  0
    0.3246    0.5592    0.6732 N   0  0  0  0  0  0  0  0  0  0  0  0
    0.6254   -0.7105    0.7812 C   0  0  0  0  0  0  0  0  0  0  0  0
   -0.4945   -2.0212    0.8745 S   0  0  0  0  0  0  0  0  0  0  0  0
   -2.0212   -1.2043    0.2264 C   0  0  0  0  0  0  0  0  0  0  0  0
   -2.6448   -0.3037    1.3050 C   0  0  0  0  0  0  0  0  0  0  0  0
   -2.7105   -0.6665    2.4873 O   0  0  0  0  0  0  0  0  0  0  0  0
   -3.1940    1.0106    0.9250 C   0  0  0  0  0  0  0  0  0  0  0  0
   -3.3753    2.0265    1.8537 C   0  0  0  0  0  0  0  0  0  0  0  0
   -3.8692    3.1302    1.2192 N   0  0  0  0  0  0  0  0  0  0  0  0
   -4.0475    2.8650   -0.1180 C   0  0  0  0  0  0  0  0  0  0  0  0
   -4.5462    3.6990   -1.1292 C   0  0  0  0  0  0  0  0  0  0  0  0
   -4.6707    3.1641   -2.4103 C   0  0  0  0  0  0  0  0  0  0  0  0
   -4.3151    1.8439   -2.6683 C   0  0  0  0  0  0  0  0  0  0  0  0
   -3.8041    1.0284   -1.6467 C   0  0  0  0  0  0  0  0  0  0  0  0
   -3.6522    1.5363   -0.3359 C   0  0  0  0  0  0  0  0  0  0  0  0
   -2.9636   -2.2817   -0.3036 C   0  0  0  0  0  0  0  0  0  0  0  0
   -3.9090   -2.9252    0.5127 C   0  0  0  0  0  0  0  0  0  0  0  0
   -4.7428   -3.9182   -0.0089 C   0  0  0  0  0  0  0  0  0  0  0  0
   -4.6384   -4.2901   -1.3485 C   0  0  0  0  0  0  0  0  0  0  0  0
   -3.6896   -3.6800   -2.1675 C   0  0  0  0  0  0  0  0  0  0  0  0
   -2.8533   -2.6902   -1.6476 C   0  0  0  0  0  0  0  0  0  0  0  0
    1.9845   -0.8720    0.7781 N   0  0  0  0  0  0  0  0  0  0  0  0
    2.6971   -2.1230    0.7424 C   0  0  0  0  0  0  0  0  0  0  0  0
    4.8676    0.2800    1.5363 C   0  0  0  0  0  0  0  0  0  0  0  0
    8.4015    1.6631    2.5443 H   0  0  0  0  0  0  0  0  0  0  0  0
    8.8383    0.1495    3.3577 H   0  0  0  0  0  0  0  0  0  0  0  0
    8.9364    0.2266    1.5874 H   0  0  0  0  0  0  0  0  0  0  0  0
    7.6818    1.7413    0.2654 H   0  0  0  0  0  0  0  0  0  0  0  0
    6.0355    2.6184   -1.3227 H   0  0  0  0  0  0  0  0  0  0  0  0
    3.6453    2.0195   -1.1209 H   0  0  0  0  0  0  0  0  0  0  0  0
   -1.7052   -0.5739   -0.6124 H   0  0  0  0  0  0  0  0  0  0  0  0
   -3.1739    2.0454    2.9184 H   0  0  0  0  0  0  0  0  0  0  0  0
   -4.0778    4.0145    1.6628 H   0  0  0  0  0  0  0  0  0  0  0  0
   -4.8447    4.7252   -0.9235 H   0  0  0  0  0  0  0  0  0  0  0  0
   -5.0685    3.7824   -3.2130 H   0  0  0  0  0  0  0  0  0  0  0  0
   -4.4425    1.4346   -3.6667 H   0  0  0  0  0  0  0  0  0  0  0  0
   -3.5616   -0.0001   -1.8880 H   0  0  0  0  0  0  0  0  0  0  0  0
   -4.0027   -2.6726    1.5691 H   0  0  0  0  0  0  0  0  0  0  0  0
   -5.4718   -4.4063    0.6358 H   0  0  0  0  0  0  0  0  0  0  0  0
   -5.2892   -5.0622   -1.7506 H   0  0  0  0  0  0  0  0  0  0  0  0
   -3.5973   -3.9789   -3.2103 H   0  0  0  0  0  0  0  0  0  0  0  0
   -2.1103   -2.2334   -2.3016 H   0  0  0  0  0  0  0  0  0  0  0  0
    2.6733   -2.5667    1.7412 H   0  0  0  0  0  0  0  0  0  0  0  0
    3.7293   -1.9680    0.4230 H   0  0  0  0  0  0  0  0  0  0  0  0
    2.2180   -2.7863    0.0136 H   0  0  0  0  0  0  0  0  0  0  0  0
    4.5523   -0.3546    2.3634 H   0  0  0  0  0  0  0  0  0  0  0  0
  1  2  1  0
  2  3  1  0
  3  4  2  0
  4  5  1  0
  5  6  2  0
  6  7  1  0
  7  8  1  0
  8  9  2  0
  9 10  1  0
 10 11  2  0
 11 12  1  0
 12 13  1  0
 13 14  1  0
 14 15  2  0
 14 16  1  0
 16 17  2  0
 17 18  1  0
 18 19  1  0
 19 20  2  0
 20 21  1  0
 21 22  2  0
 22 23  1  0
 23 24  2  0
 13 25  1  0
 25 26  2  0
 26 27  1  0
 27 28  2  0
 28 29  1  0
 29 30  2  0
 11 31  1  0
 31 32  1  0
  7 33  2  0
 33  3  1  0
 31  8  1  0
 24 16  1  0
 30 25  1  0
 24 19  1  0
  1 34  1  0
  1 35  1  0
  1 36  1  0
  4 37  1  0
  5 38  1  0
  6 39  1  0
 13 40  1  0
 17 41  1  0
 18 42  1  0
 20 43  1  0
 21 44  1  0
 22 45  1  0
 23 46  1  0
 26 47  1  0
 27 48  1  0
 28 49  1  0
 29 50  1  0
 30 51  1  0
 32 52  1  0
 32 53  1  0
 32 54  1  0
 33 55  1  0
M  END
$$$$
