
     RDKit          3D

 43 45  0  0  0  0  0  0  0  0999 V2000
   -7.7227   -0.0051    0.8020 C   0  0  0  0  0  0  0  0  0  0  0  0
   -6.8073   -0.4339   -0.2542 N   0  0  0  0  0  0  0  0  0  0  0  0
   -7.1677   -1.6778   -0.9327 C   0  0  0  0  0  0  0  0  0  0  0  0
   -5.4555   -0.0797   -0.1641 C   0  0  0  0  0  0  0  0  0  0  0  0
   -4.4705   -0.6734   -0.9721 C   0  0  0  0  0  0  0  0  0  0  0  0
   -3.1151   -0.3127   -0.8964 C   0  0  0  0  0  0  0  0  0  0  0  0
   -2.6875    0.6667   -0.0013 C   0  0  0  0  0  0  0  0  0  0  0  0
   -1.2864    1.0996    0.0915 C   0  0  0  0  0  0  0  0  0  0  0  0
   -0.2371    0.2675   -0.0066 C   0  0  0  0  0  0  0  0  0  0  0  0
    1.1346    0.7272    0.0977 C   0  0  0  0  0  0  0  0  0  0  0  0
    2.2406   -0.0266    0.0102 C   0  0  0  0  0  0  0  0  0  0  0  0
    2.3437   -1.7131   -0.2562 S   0  0  0  0  0  0  0  0  0  0  0  0
    4.1031   -1.7266   -0.1140 C   0  0  0  0  0  0  0  0  0  0  0  0
    4.9091   -3.1944   -0.0635 S   0  0  0  0  0  0  0  0  0  0  0  0
    4.5788   -0.4260    0.0238 N   0  0  0  0  0  0  0  0  0  0  0  0
    5.9676   -0.0657    0.0749 C   0  0  0  0  0  0  0  0  0  0  0  0
    6.4178    0.9318    0.9553 C   0  0  0  0  0  0  0  0  0  0  0  0
    7.7670    1.2967    1.0084 C   0  0  0  0  0  0  0  0  0  0  0  0
    8.6906    0.6781    0.1730 C   0  0  0  0  0  0  0  0  0  0  0  0
    8.2637   -0.2985   -0.7205 C   0  0  0  0  0  0  0  0  0  0  0  0
    6.9137   -0.6631   -0.7722 C   0  0  0  0  0  0  0  0  0  0  0  0
    3.6022    0.5657    0.1322 C   0  0  0  0  0  0  0  0  0  0  0  0
    3.7640    1.7726    0.2742 O   0  0  0  0  0  0  0  0  0  0  0  0
   -3.6488    1.2968    0.7871 C   0  0  0  0  0  0  0  0  0  0  0  0
   -5.0013    0.9278    0.7042 C   0  0  0  0  0  0  0  0  0  0  0  0
   -8.7429   -0.3565    0.6104 H   0  0  0  0  0  0  0  0  0  0  0  0
   -7.7876    1.0871    0.8516 H   0  0  0  0  0  0  0  0  0  0  0  0
   -7.4144   -0.4013    1.7758 H   0  0  0  0  0  0  0  0  0  0  0  0
   -6.6990   -2.5414   -0.4480 H   0  0  0  0  0  0  0  0  0  0  0  0
   -6.8846   -1.6493   -1.9903 H   0  0  0  0  0  0  0  0  0  0  0  0
   -8.2516   -1.8390   -0.9179 H   0  0  0  0  0  0  0  0  0  0  0  0
   -4.7298   -1.4363   -1.6996 H   0  0  0  0  0  0  0  0  0  0  0  0
   -2.4104   -0.8031   -1.5631 H   0  0  0  0  0  0  0  0  0  0  0  0
   -1.1378    2.1625    0.2692 H   0  0  0  0  0  0  0  0  0  0  0  0
   -0.4055   -0.7966   -0.1566 H   0  0  0  0  0  0  0  0  0  0  0  0
    1.2584    1.7985    0.2642 H   0  0  0  0  0  0  0  0  0  0  0  0
    5.7326    1.4309    1.6372 H   0  0  0  0  0  0  0  0  0  0  0  0
    8.0920    2.0661    1.7046 H   0  0  0  0  0  0  0  0  0  0  0  0
    9.7389    0.9626    0.2121 H   0  0  0  0  0  0  0  0  0  0  0  0
    8.9786   -0.7734   -1.3883 H   0  0  0  0  0  0  0  0  0  0  0  0
    6.6225   -1.3925   -1.5233 H   0  0  0  0  0  0  0  0  0  0  0  0
   -3.3642    2.0822    1.4835 H   0  0  0  0  0  0  0  0  0  0  0  0
   -5.6919    1.4655    1.3463 H   0  0  0  0  0  0  0  0  0  0  0  0
  1  2  1  0
  2  3  1  0
  2  4  1  0
  4  5  2  0
  5  6  1  0
  6  7  2  0
  7  8  1  0
  8  9  2  3
  9 10  1  0
 10 11  2  3
 11 12  1  0
 12 13  1  0
 13 14  2  0
 13 15  1  0
 15 16  1  0
 16 17  2  0
 17 18  1  0
 18 19  2  0
 19 20  1  0
 20 21  2  0
 15 22  1  0
 22 23  2  0
  7 24  1  0
 24 25  2  0
 25  4  1  0
 22 11  1  0
 21 16  1  0
  1 26  1  0
  1 27  1  0
  1 28  1  0
  3 29  1  0
  3 30  1  0
  3 31  1  0
  5 32  1  0
  6 33  1  0
  8 34  1  0
  9 35  1  0
 10 36  1  0
 17 37  1  0
 18 38  1  0
 19 39  1  0
 20 40  1  0
 21 41  1  0
 24 42  1  0
 25 43  1  0
M  END
$$$$
