
     RDKit          3D

 56 60  0  0  0  0  0  0  0  0999 V2000
   -5.4377   -0.5303   -2.7249 C   0  0  0  0  0  0  0  0  0  0  0  0
   -4.0885   -0.3572   -2.0862 C   0  0  0  0  0  0  0  0  0  0  0  0
   -2.9628   -0.8325   -2.7755 C   0  0  0  0  0  0  0  0  0  0  0  0
   -1.6804   -0.7141   -2.2322 C   0  0  0  0  0  0  0  0  0  0  0  0
   -1.4763   -0.1112   -0.9849 C   0  0  0  0  0  0  0  0  0  0  0  0
   -0.1245   -0.0137   -0.4158 C   0  0  0  0  0  0  0  0  0  0  0  0
    0.7060    0.7881   -1.1169 N   0  0  0  0  0  0  0  0  0  0  0  0
    1.9903    0.9859   -0.6942 N   0  0  0  0  0  0  0  0  0  0  0  0
    2.4564    0.3905    0.4241 C   0  0  0  0  0  0  0  0  0  0  0  0
    3.7848    0.6431    0.8653 N   0  0  0  0  0  0  0  0  0  0  0  0
    4.8432    1.2462    0.1452 C   0  0  0  0  0  0  0  0  0  0  0  0
    4.9591    1.1392   -1.2587 C   0  0  0  0  0  0  0  0  0  0  0  0
    6.0511    1.6821   -1.9484 C   0  0  0  0  0  0  0  0  0  0  0  0
    7.0291    2.3064   -1.2104 C   0  0  0  0  0  0  0  0  0  0  0  0
    6.9501    2.3893    0.1582 C   0  0  0  0  0  0  0  0  0  0  0  0
    5.8854    1.8613    0.8607 C   0  0  0  0  0  0  0  0  0  0  0  0
    8.0245    3.0218    0.7022 O   0  0  0  0  0  0  0  0  0  0  0  0
    8.7781    3.3461   -0.4867 C   0  0  0  0  0  0  0  0  0  0  0  0
    8.1580    2.8806   -1.7026 O   0  0  0  0  0  0  0  0  0  0  0  0
    1.6326   -0.4814    1.1749 C   0  0  0  0  0  0  0  0  0  0  0  0
    2.0822   -1.1743    2.3285 C   0  0  0  0  0  0  0  0  0  0  0  0
    1.2504   -2.0369    3.0417 C   0  0  0  0  0  0  0  0  0  0  0  0
   -0.0518   -2.2402    2.6173 C   0  0  0  0  0  0  0  0  0  0  0  0
   -0.5187   -1.5824    1.4797 C   0  0  0  0  0  0  0  0  0  0  0  0
    0.3019   -0.6911    0.7428 C   0  0  0  0  0  0  0  0  0  0  0  0
   -2.5928    0.4009   -0.3085 C   0  0  0  0  0  0  0  0  0  0  0  0
   -3.8872    0.2709   -0.8431 C   0  0  0  0  0  0  0  0  0  0  0  0
   -5.2424    0.9022    0.1331 S   0  0  0  0  0  6  0  0  0  0  0  0
   -4.7211    1.6922    1.2265 O   0  0  0  0  0  0  0  0  0  0  0  0
   -6.2588    1.4219   -0.7523 O   0  0  0  0  0  0  0  0  0  0  0  0
   -5.8617   -0.5261    0.7765 N   0  0  0  0  0  0  0  0  0  0  0  0
   -5.3021   -1.0344    2.0435 C   0  0  0  0  0  0  0  0  0  0  0  0
   -5.1848   -2.5564    1.9611 C   0  0  0  0  0  0  0  0  0  0  0  0
   -4.2413   -2.9194    0.9555 O   0  0  0  0  0  0  0  0  0  0  0  0
   -6.1438   -0.9928   -2.0294 H   0  0  0  0  0  0  0  0  0  0  0  0
   -5.8242    0.4319   -3.0738 H   0  0  0  0  0  0  0  0  0  0  0  0
   -5.3821   -1.1944   -3.5954 H   0  0  0  0  0  0  0  0  0  0  0  0
   -3.0718   -1.3077   -3.7493 H   0  0  0  0  0  0  0  0  0  0  0  0
   -0.8289   -1.1005   -2.7928 H   0  0  0  0  0  0  0  0  0  0  0  0
    3.7486    0.9728    1.8240 H   0  0  0  0  0  0  0  0  0  0  0  0
    4.1958    0.6218   -1.8351 H   0  0  0  0  0  0  0  0  0  0  0  0
    6.1263    1.6047   -3.0279 H   0  0  0  0  0  0  0  0  0  0  0  0
    5.8708    1.9287    1.9421 H   0  0  0  0  0  0  0  0  0  0  0  0
    8.8907    4.4349   -0.5458 H   0  0  0  0  0  0  0  0  0  0  0  0
    9.7741    2.8929   -0.4046 H   0  0  0  0  0  0  0  0  0  0  0  0
    3.1086   -1.0662    2.6728 H   0  0  0  0  0  0  0  0  0  0  0  0
    1.6283   -2.5587    3.9172 H   0  0  0  0  0  0  0  0  0  0  0  0
   -0.7053   -2.9214    3.1571 H   0  0  0  0  0  0  0  0  0  0  0  0
   -1.5383   -1.7922    1.1621 H   0  0  0  0  0  0  0  0  0  0  0  0
   -2.4472    0.8978    0.6500 H   0  0  0  0  0  0  0  0  0  0  0  0
   -6.8683   -0.6079    0.6296 H   0  0  0  0  0  0  0  0  0  0  0  0
   -5.9678   -0.7461    2.8620 H   0  0  0  0  0  0  0  0  0  0  0  0
   -4.3067   -0.6182    2.2264 H   0  0  0  0  0  0  0  0  0  0  0  0
   -4.8330   -2.9633    2.9139 H   0  0  0  0  0  0  0  0  0  0  0  0
   -6.1476   -3.0205    1.7190 H   0  0  0  0  0  0  0  0  0  0  0  0
   -4.5287   -2.4626    0.1426 H   0  0  0  0  0  0  0  0  0  0  0  0
  1  2  1  0
  2  3  2  0
  3  4  1  0
  4  5  2  0
  5  6  1  0
  6  7  2  0
  7  8  1  0
  8  9  2  0
  9 10  1  0
 10 11  1  0
 11 12  2  0
 12 13  1  0
 13 14  2  0
 14 15  1  0
 15 16  2  0
 15 17  1  0
 17 18  1  0
 18 19  1  0
  9 20  1  0
 20 21  2  0
 21 22  1  0
 22 23  2  0
 23 24  1  0
 24 25  2  0
  5 26  1  0
 26 27  2  0
 27 28  1  0
 28 29  2  0
 28 30  2  0
 28 31  1  0
 31 32  1  0
 32 33  1  0
 33 34  1  0
 27  2  1  0
 25  6  1  0
 16 11  1  0
 25 20  1  0
 19 14  1  0
  1 35  1  0
  1 36  1  0
  1 37  1  0
  3 38  1  0
  4 39  1  0
 10 40  1  0
 12 41  1  0
 13 42  1  0
 16 43  1  0
 18 44  1  0
 18 45  1  0
 21 46  1  0
 22 47  1  0
 23 48  1  0
 24 49  1  0
 26 50  1  0
 31 51  1  0
 32 52  1  0
 32 53  1  0
 33 54  1  0
 33 55  1  0
 34 56  1  0
M  END
$$$$
