
     RDKit          3D

 51 55  0  0  0  0  0  0  0  0999 V2000
    8.1269    3.5617    0.7615 Cl  0  0  0  0  0  0  0  0  0  0  0  0
    6.8705    2.3740    0.7167 C   0  0  0  0  0  0  0  0  0  0  0  0
    5.7554    2.5751    1.5366 C   0  0  0  0  0  0  0  0  0  0  0  0
    4.7084    1.6495    1.5426 C   0  0  0  0  0  0  0  0  0  0  0  0
    4.7692    0.5064    0.7344 C   0  0  0  0  0  0  0  0  0  0  0  0
    3.6384   -0.4982    0.7333 C   0  0  0  0  0  0  0  0  0  0  0  0
    2.5816   -0.1686   -0.3325 C   0  0  0  0  0  0  0  0  0  0  0  0
    1.5519   -1.2165   -0.4842 N   0  0  0  0  0  0  0  0  0  0  0  0
    0.6940   -1.3386    0.7184 C   0  0  0  0  0  0  0  0  0  0  0  0
   -0.4472   -2.3698    0.5385 C   0  0  0  0  0  0  0  0  0  0  0  0
   -1.2835   -2.0321   -0.6290 N   0  0  0  0  0  0  0  0  0  0  0  0
   -2.3398   -1.1407   -0.4499 C   0  0  0  0  0  0  0  0  0  0  0  0
   -2.3402   -0.0036   -1.0990 N   0  0  0  0  0  0  0  0  0  0  0  0
   -3.3781    0.9327   -0.9088 C   0  0  0  0  0  0  0  0  0  0  0  0
   -3.3175    2.1397   -1.6090 C   0  0  0  0  0  0  0  0  0  0  0  0
   -4.3074    3.1093   -1.4441 C   0  0  0  0  0  0  0  0  0  0  0  0
   -5.3744    2.8799   -0.5744 C   0  0  0  0  0  0  0  0  0  0  0  0
   -5.4594    1.6798    0.1321 C   0  0  0  0  0  0  0  0  0  0  0  0
   -4.4590    0.7199   -0.0410 C   0  0  0  0  0  0  0  0  0  0  0  0
   -4.4665   -0.5168    0.6247 N   0  0  0  0  0  0  0  0  0  0  0  0
   -5.3868   -1.0340    1.5052 C   0  0  0  0  0  0  0  0  0  0  0  0
   -4.9935   -2.3128    1.8372 C   0  0  0  0  0  0  0  0  0  0  0  0
   -3.7844   -2.5716    1.1501 C   0  0  0  0  0  0  0  0  0  0  0  0
   -3.4585   -1.4361    0.4309 C   0  0  0  0  0  0  0  0  0  0  0  0
   -0.4558   -1.9164   -1.8465 C   0  0  0  0  0  0  0  0  0  0  0  0
    0.6912   -0.9009   -1.6561 C   0  0  0  0  0  0  0  0  0  0  0  0
    5.8877    0.3127   -0.0912 C   0  0  0  0  0  0  0  0  0  0  0  0
    6.9361    1.2404   -0.1011 C   0  0  0  0  0  0  0  0  0  0  0  0
    8.2778    0.9247   -1.1442 Cl  0  0  0  0  0  0  0  0  0  0  0  0
    5.6976    3.4508    2.1771 H   0  0  0  0  0  0  0  0  0  0  0  0
    3.8482    1.8250    2.1869 H   0  0  0  0  0  0  0  0  0  0  0  0
    3.1898   -0.5213    1.7334 H   0  0  0  0  0  0  0  0  0  0  0  0
    4.0509   -1.5002    0.5616 H   0  0  0  0  0  0  0  0  0  0  0  0
    2.1178    0.8020   -0.1120 H   0  0  0  0  0  0  0  0  0  0  0  0
    3.1015   -0.0531   -1.2933 H   0  0  0  0  0  0  0  0  0  0  0  0
    0.2621   -0.3628    0.9780 H   0  0  0  0  0  0  0  0  0  0  0  0
    1.2965   -1.6720    1.5706 H   0  0  0  0  0  0  0  0  0  0  0  0
   -1.0359   -2.4103    1.4613 H   0  0  0  0  0  0  0  0  0  0  0  0
   -0.0225   -3.3725    0.3933 H   0  0  0  0  0  0  0  0  0  0  0  0
   -2.4864    2.3222   -2.2850 H   0  0  0  0  0  0  0  0  0  0  0  0
   -4.2419    4.0446   -1.9933 H   0  0  0  0  0  0  0  0  0  0  0  0
   -6.1400    3.6403   -0.4469 H   0  0  0  0  0  0  0  0  0  0  0  0
   -6.2990    1.5229    0.8005 H   0  0  0  0  0  0  0  0  0  0  0  0
   -6.2578   -0.4737    1.8141 H   0  0  0  0  0  0  0  0  0  0  0  0
   -5.5247   -2.9870    2.4948 H   0  0  0  0  0  0  0  0  0  0  0  0
   -3.2121   -3.4899    1.1706 H   0  0  0  0  0  0  0  0  0  0  0  0
   -1.0707   -1.6402   -2.7118 H   0  0  0  0  0  0  0  0  0  0  0  0
   -0.0331   -2.9036   -2.0740 H   0  0  0  0  0  0  0  0  0  0  0  0
    0.2767    0.1096   -1.5551 H   0  0  0  0  0  0  0  0  0  0  0  0
    1.3034   -0.9108   -2.5652 H   0  0  0  0  0  0  0  0  0  0  0  0
    5.9427   -0.5693   -0.7288 H   0  0  0  0  0  0  0  0  0  0  0  0
  1  2  1  0
  2  3  2  0
  3  4  1  0
  4  5  2  0
  5  6  1  0
  6  7  1  0
  7  8  1  0
  8  9  1  0
  9 10  1  0
 10 11  1  0
 11 12  1  0
 12 13  2  0
 13 14  1  0
 14 15  2  0
 15 16  1  0
 16 17  2  0
 17 18  1  0
 18 19  2  0
 19 20  1  0
 20 21  1  0
 21 22  2  0
 22 23  1  0
 23 24  2  0
 11 25  1  0
 25 26  1  0
  5 27  1  0
 27 28  2  0
 28 29  1  0
 28  2  1  0
 26  8  1  0
 24 12  1  0
 19 14  1  0
 24 20  1  0
  3 30  1  0
  4 31  1  0
  6 32  1  0
  6 33  1  0
  7 34  1  0
  7 35  1  0
  9 36  1  0
  9 37  1  0
 10 38  1  0
 10 39  1  0
 15 40  1  0
 16 41  1  0
 17 42  1  0
 18 43  1  0
 21 44  1  0
 22 45  1  0
 23 46  1  0
 25 47  1  0
 25 48  1  0
 26 49  1  0
 26 50  1  0
 27 51  1  0
M  END
$$$$
