
     RDKit          3D

 47 48  0  0  0  0  0  0  0  0999 V2000
    7.7078   -1.2685   -2.5756 C   0  0  0  0  0  0  0  0  0  0  0  0
    7.4003    0.0923   -2.8408 O   0  0  0  0  0  0  0  0  0  0  0  0
    6.3303    0.6391   -2.1819 C   0  0  0  0  0  0  0  0  0  0  0  0
    5.5417   -0.0272   -1.2371 C   0  0  0  0  0  0  0  0  0  0  0  0
    4.4565    0.6164   -0.6191 C   0  0  0  0  0  0  0  0  0  0  0  0
    3.6798   -0.1210    0.3872 C   0  0  0  0  0  0  0  0  0  0  0  0
    2.3502   -0.0173    0.5314 C   0  0  0  0  0  0  0  0  0  0  0  0
    1.6451   -0.8235    1.5707 C   0  0  0  0  0  0  0  0  0  0  0  0
    2.2517   -1.6427    2.2611 O   0  0  0  0  0  0  0  0  0  0  0  0
    0.1818   -0.5435    1.8073 C   0  0  0  0  0  0  0  0  0  0  0  0
   -0.7221   -0.8700    0.6462 C   0  0  0  0  0  0  0  0  0  0  0  0
   -0.2981   -1.0897   -0.4875 O   0  0  0  0  0  0  0  0  0  0  0  0
   -2.1994   -0.8935    0.8459 C   0  0  0  0  0  0  0  0  0  0  0  0
   -2.8229   -0.5352    1.9780 C   0  0  0  0  0  0  0  0  0  0  0  0
   -4.2851   -0.5737    2.1409 C   0  0  0  0  0  0  0  0  0  0  0  0
   -4.8101   -0.9756    3.3779 C   0  0  0  0  0  0  0  0  0  0  0  0
   -6.1884   -0.9992    3.5879 C   0  0  0  0  0  0  0  0  0  0  0  0
   -7.0376   -0.6106    2.5616 C   0  0  0  0  0  0  0  0  0  0  0  0
   -8.3857   -0.6419    2.7928 O   0  0  0  0  0  0  0  0  0  0  0  0
   -6.5445   -0.1922    1.3214 C   0  0  0  0  0  0  0  0  0  0  0  0
   -7.5045    0.1689    0.4108 O   0  0  0  0  0  0  0  0  0  0  0  0
   -7.0481    0.5619   -0.8786 C   0  0  0  0  0  0  0  0  0  0  0  0
   -5.1627   -0.1688    1.1185 C   0  0  0  0  0  0  0  0  0  0  0  0
    4.1829    1.9520   -0.9394 C   0  0  0  0  0  0  0  0  0  0  0  0
    4.9629    2.6287   -1.8786 C   0  0  0  0  0  0  0  0  0  0  0  0
    6.0269    1.9709   -2.4936 C   0  0  0  0  0  0  0  0  0  0  0  0
    6.7935    2.6340   -3.4149 O   0  0  0  0  0  0  0  0  0  0  0  0
    7.9936   -1.4116   -1.5283 H   0  0  0  0  0  0  0  0  0  0  0  0
    6.8755   -1.9240   -2.8526 H   0  0  0  0  0  0  0  0  0  0  0  0
    8.5673   -1.5440   -3.1945 H   0  0  0  0  0  0  0  0  0  0  0  0
    5.7492   -1.0587   -0.9695 H   0  0  0  0  0  0  0  0  0  0  0  0
    4.2476   -0.8043    1.0175 H   0  0  0  0  0  0  0  0  0  0  0  0
    1.7432    0.6243   -0.0956 H   0  0  0  0  0  0  0  0  0  0  0  0
    0.0712    0.5145    2.0687 H   0  0  0  0  0  0  0  0  0  0  0  0
   -0.1218   -1.1472    2.6705 H   0  0  0  0  0  0  0  0  0  0  0  0
   -2.7482   -1.2376   -0.0265 H   0  0  0  0  0  0  0  0  0  0  0  0
   -2.2746   -0.2094    2.8577 H   0  0  0  0  0  0  0  0  0  0  0  0
   -4.1525   -1.2836    4.1881 H   0  0  0  0  0  0  0  0  0  0  0  0
   -6.5974   -1.3174    4.5422 H   0  0  0  0  0  0  0  0  0  0  0  0
   -8.7927   -0.3367    1.9587 H   0  0  0  0  0  0  0  0  0  0  0  0
   -6.5048   -0.2516   -1.3706 H   0  0  0  0  0  0  0  0  0  0  0  0
   -7.9274    0.7915   -1.4880 H   0  0  0  0  0  0  0  0  0  0  0  0
   -6.4373    1.4687   -0.8200 H   0  0  0  0  0  0  0  0  0  0  0  0
   -4.7491    0.1731    0.1759 H   0  0  0  0  0  0  0  0  0  0  0  0
    3.3694    2.4852   -0.4543 H   0  0  0  0  0  0  0  0  0  0  0  0
    4.7319    3.6631   -2.1124 H   0  0  0  0  0  0  0  0  0  0  0  0
    6.4545    3.5355   -3.5220 H   0  0  0  0  0  0  0  0  0  0  0  0
  1  2  1  0
  2  3  1  0
  3  4  2  0
  4  5  1  0
  5  6  1  0
  6  7  2  3
  7  8  1  0
  8  9  2  0
  8 10  1  0
 10 11  1  0
 11 12  2  0
 11 13  1  0
 13 14  2  3
 14 15  1  0
 15 16  2  0
 16 17  1  0
 17 18  2  0
 18 19  1  0
 18 20  1  0
 20 21  1  0
 21 22  1  0
 20 23  2  0
  5 24  2  0
 24 25  1  0
 25 26  2  0
 26 27  1  0
 26  3  1  0
 23 15  1  0
  1 28  1  0
  1 29  1  0
  1 30  1  0
  4 31  1  0
  6 32  1  0
  7 33  1  0
 10 34  1  0
 10 35  1  0
 13 36  1  0
 14 37  1  0
 16 38  1  0
 17 39  1  0
 19 40  1  0
 22 41  1  0
 22 42  1  0
 22 43  1  0
 23 44  1  0
 24 45  1  0
 25 46  1  0
 27 47  1  0
M  END
$$$$
