
     RDKit          3D

 38 39  0  0  0  0  0  0  0  0999 V2000
   -3.3785    2.3026    0.8890 C   0  0  0  0  0  0  0  0  0  0  0  0
   -3.6102    1.0063    1.4509 O   0  0  0  0  0  0  0  0  0  0  0  0
   -4.1615    0.1744    0.5154 C   0  0  0  0  0  0  0  0  0  0  0  0
   -5.5544    0.0577    0.5025 C   0  0  0  0  0  0  0  0  0  0  0  0
   -6.1793   -0.7516   -0.4460 C   0  0  0  0  0  0  0  0  0  0  0  0
   -5.4146   -1.4568   -1.3753 C   0  0  0  0  0  0  0  0  0  0  0  0
   -4.0218   -1.3635   -1.3468 C   0  0  0  0  0  0  0  0  0  0  0  0
   -3.3874   -0.5627   -0.3862 C   0  0  0  0  0  0  0  0  0  0  0  0
   -1.9060   -0.5400   -0.3926 C   0  0  0  0  0  0  0  0  0  0  0  0
   -1.3281   -0.4473   -1.4744 O   0  0  0  0  0  0  0  0  0  0  0  0
   -1.1738   -0.7435    0.9317 C   0  0  0  0  0  0  0  0  0  0  0  0
    0.2420   -0.6187    0.7573 O   0  0  0  0  0  0  0  0  0  0  0  0
    0.6871    0.6622    0.7385 C   0  0  0  0  0  0  0  0  0  0  0  0
    0.0184    1.6619    0.9620 O   0  0  0  0  0  0  0  0  0  0  0  0
    2.1360    0.7379    0.4609 C   0  0  0  0  0  0  0  0  0  0  0  0
    2.8479   -0.2584   -0.0904 C   0  0  0  0  0  0  0  0  0  0  0  0
    4.2890   -0.2013   -0.3914 C   0  0  0  0  0  0  0  0  0  0  0  0
    4.9827    1.0016   -0.5840 C   0  0  0  0  0  0  0  0  0  0  0  0
    6.3481    1.0003   -0.8870 C   0  0  0  0  0  0  0  0  0  0  0  0
    7.0350   -0.2057   -1.0139 C   0  0  0  0  0  0  0  0  0  0  0  0
    6.3569   -1.4099   -0.8412 C   0  0  0  0  0  0  0  0  0  0  0  0
    4.9922   -1.4069   -0.5371 C   0  0  0  0  0  0  0  0  0  0  0  0
   -3.0577    2.9595    1.7025 H   0  0  0  0  0  0  0  0  0  0  0  0
   -2.5841    2.2720    0.1378 H   0  0  0  0  0  0  0  0  0  0  0  0
   -4.2951    2.7226    0.4584 H   0  0  0  0  0  0  0  0  0  0  0  0
   -6.1533    0.6129    1.2207 H   0  0  0  0  0  0  0  0  0  0  0  0
   -7.2641   -0.8310   -0.4610 H   0  0  0  0  0  0  0  0  0  0  0  0
   -5.9031   -2.0911   -2.1118 H   0  0  0  0  0  0  0  0  0  0  0  0
   -3.4299   -1.9274   -2.0666 H   0  0  0  0  0  0  0  0  0  0  0  0
   -1.5143   -0.0704    1.7177 H   0  0  0  0  0  0  0  0  0  0  0  0
   -1.3633   -1.7688    1.2628 H   0  0  0  0  0  0  0  0  0  0  0  0
    2.5731    1.6944    0.7196 H   0  0  0  0  0  0  0  0  0  0  0  0
    2.3567   -1.1947   -0.3494 H   0  0  0  0  0  0  0  0  0  0  0  0
    4.4755    1.9601   -0.5134 H   0  0  0  0  0  0  0  0  0  0  0  0
    6.8722    1.9430   -1.0258 H   0  0  0  0  0  0  0  0  0  0  0  0
    8.0959   -0.2056   -1.2505 H   0  0  0  0  0  0  0  0  0  0  0  0
    6.8873   -2.3524   -0.9448 H   0  0  0  0  0  0  0  0  0  0  0  0
    4.4847   -2.3615   -0.4093 H   0  0  0  0  0  0  0  0  0  0  0  0
  1  2  1  0
  2  3  1  0
  3  4  2  0
  4  5  1  0
  5  6  2  0
  6  7  1  0
  7  8  2  0
  8  9  1  0
  9 10  2  0
  9 11  1  0
 11 12  1  0
 12 13  1  0
 13 14  2  0
 13 15  1  0
 15 16  2  3
 16 17  1  0
 17 18  2  0
 18 19  1  0
 19 20  2  0
 20 21  1  0
 21 22  2  0
  8  3  1  0
 22 17  1  0
  1 23  1  0
  1 24  1  0
  1 25  1  0
  4 26  1  0
  5 27  1  0
  6 28  1  0
  7 29  1  0
 11 30  1  0
 11 31  1  0
 15 32  1  0
 16 33  1  0
 18 34  1  0
 19 35  1  0
 20 36  1  0
 21 37  1  0
 22 38  1  0
M  END
$$$$
