
     RDKit          3D

 96101  0  0  0  0  0  0  0  0999 V2000
   -4.0957    3.6226    1.9704 C   0  0  0  0  0  0  0  0  0  0  0  0
   -4.3860    2.6899    0.8276 C   0  0  0  0  0  0  0  0  0  0  0  0
   -4.4941    1.3515    0.9617 C   0  0  0  0  0  0  0  0  0  0  0  0
   -4.1845    0.5106    2.1796 C   0  0  0  0  0  0  0  0  0  0  0  0
   -3.2218   -0.6624    1.8712 C   0  0  2  0  0  0  0  0  0  0  0  0
   -1.9574   -0.1999    1.1532 C   0  0  0  0  0  0  0  0  0  0  0  0
   -1.0914   -1.3672    0.7026 C   0  0  1  0  0  0  0  0  0  0  0  0
   -1.9355   -2.3993   -0.0383 C   0  0  0  0  0  0  0  0  0  0  0  0
   -3.1797   -2.7958    0.7612 C   0  0  1  0  0  0  0  0  0  0  0  0
   -4.0606   -3.7018   -0.1149 C   0  0  0  0  0  0  0  0  0  0  0  0
   -5.2342   -4.2726    0.6745 C   0  0  0  0  0  0  0  0  0  0  0  0
   -4.7317   -4.9657    1.9454 C   0  0  2  0  0  0  0  0  0  0  0  0
   -5.9158   -5.4853    2.7605 C   0  0  0  0  0  0  0  0  0  0  0  0
   -3.8359   -3.9971    2.7394 C   0  0  1  0  0  0  0  0  0  0  0  0
   -3.1887   -4.6556    3.9541 C   0  0  0  0  0  0  0  0  0  0  0  0
   -2.7592   -3.5132    1.9228 O   0  0  0  0  0  0  0  0  0  0  0  0
   -3.9361   -1.6255    1.0855 O   0  0  0  0  0  0  0  0  0  0  0  0
   -0.1443   -0.8282   -0.2477 O   0  0  0  0  0  0  0  0  0  0  0  0
    1.1907   -0.9148    0.0194 C   0  0  0  0  0  0  0  0  0  0  0  0
    1.6725   -1.4627    0.9998 O   0  0  0  0  0  0  0  0  0  0  0  0
    1.9607   -0.2546   -1.1267 C   0  0  0  0  0  0  0  0  0  0  0  0
    3.2109   -1.0289   -1.4584 C   0  0  0  0  0  0  0  0  0  0  0  0
    4.2934   -0.4545   -2.0122 C   0  0  0  0  0  0  0  0  0  0  0  0
    5.5412   -1.2454   -2.3277 C   0  0  0  0  0  0  0  0  0  0  0  0
    6.6294   -0.6638   -1.6045 O   0  0  0  0  0  0  0  0  0  0  0  0
    7.8337   -1.2403   -1.8496 C   0  0  0  0  0  0  0  0  0  0  0  0
    8.0211   -2.2232   -2.5544 O   0  0  0  0  0  0  0  0  0  0  0  0
    8.8759   -0.5181   -1.1613 C   0  0  0  0  0  0  0  0  0  0  0  0
    8.8207    0.6114   -0.3585 C   0  0  0  0  0  0  0  0  0  0  0  0
   10.1389    0.9165    0.0619 C   0  0  0  0  0  0  0  0  0  0  0  0
   10.9728   -0.0300   -0.4897 C   0  0  0  0  0  0  0  0  0  0  0  0
   10.2018   -0.8929   -1.2254 N   0  0  0  0  0  0  0  0  0  0  0  0
    4.3553    1.0242   -2.3021 C   0  0  1  0  0  0  0  0  0  0  0  0
    4.6637    1.1955   -3.6883 O   0  0  0  0  0  0  0  0  0  0  0  0
    3.1006    1.8781   -1.9514 C   0  0  1  0  0  0  0  0  0  0  0  0
    3.5912    3.3189   -1.6616 C   0  0  0  0  0  0  0  0  0  0  0  0
    2.1947    1.9630   -3.0940 O   0  0  0  0  0  0  0  0  0  0  0  0
    0.8928    2.3274   -2.5641 C   0  0  0  0  0  0  0  0  0  0  0  0
    0.9537    2.0572   -1.0861 C   0  0  0  0  0  0  0  0  0  0  0  0
    0.1488    2.5537   -0.1313 C   0  0  0  0  0  0  0  0  0  0  0  0
   -0.9849    3.4284   -0.3157 C   0  0  0  0  0  0  0  0  0  0  0  0
   -2.0673    3.1431   -1.0580 C   0  0  0  0  0  0  0  0  0  0  0  0
   -3.3197    3.9984   -1.1856 C   0  0  2  0  0  0  0  0  0  0  0  0
   -3.1659    5.4549   -0.7270 C   0  0  0  0  0  0  0  0  0  0  0  0
   -4.5701    3.3264   -0.5455 C   0  0  0  0  0  0  0  0  0  0  0  0
    2.2137    1.2532   -0.8497 C   0  0  1  0  0  0  0  0  0  0  0  0
    2.7546    1.4694    0.4484 O   0  0  0  0  0  0  0  0  0  0  0  0
   -3.0394    3.9037    1.9843 H   0  0  0  0  0  0  0  0  0  0  0  0
   -4.3433    3.1850    2.9408 H   0  0  0  0  0  0  0  0  0  0  0  0
   -4.7011    4.5310    1.8840 H   0  0  0  0  0  0  0  0  0  0  0  0
   -4.7614    0.7612    0.0848 H   0  0  0  0  0  0  0  0  0  0  0  0
   -3.7363    1.1144    2.9746 H   0  0  0  0  0  0  0  0  0  0  0  0
   -5.1329    0.1104    2.5583 H   0  0  0  0  0  0  0  0  0  0  0  0
   -2.9542   -1.1276    2.8278 H   0  0  0  0  0  0  0  0  0  0  0  0
   -1.3776    0.4792    1.7884 H   0  0  0  0  0  0  0  0  0  0  0  0
   -2.2178    0.3699    0.2543 H   0  0  0  0  0  0  0  0  0  0  0  0
   -0.5965   -1.8253    1.5668 H   0  0  0  0  0  0  0  0  0  0  0  0
   -2.2321   -1.9789   -1.0097 H   0  0  0  0  0  0  0  0  0  0  0  0
   -1.3110   -3.2756   -0.2547 H   0  0  0  0  0  0  0  0  0  0  0  0
   -3.4666   -4.5422   -0.4985 H   0  0  0  0  0  0  0  0  0  0  0  0
   -4.4525   -3.1428   -0.9738 H   0  0  0  0  0  0  0  0  0  0  0  0
   -5.7859   -4.9820    0.0459 H   0  0  0  0  0  0  0  0  0  0  0  0
   -5.9330   -3.4678    0.9356 H   0  0  0  0  0  0  0  0  0  0  0  0
   -4.1251   -5.8256    1.6301 H   0  0  0  0  0  0  0  0  0  0  0  0
   -5.5796   -6.1040    3.5981 H   0  0  0  0  0  0  0  0  0  0  0  0
   -6.5717   -6.1065    2.1404 H   0  0  0  0  0  0  0  0  0  0  0  0
   -6.5118   -4.6605    3.1636 H   0  0  0  0  0  0  0  0  0  0  0  0
   -4.4239   -3.1416    3.0936 H   0  0  0  0  0  0  0  0  0  0  0  0
   -3.9294   -4.9631    4.6968 H   0  0  0  0  0  0  0  0  0  0  0  0
   -2.4908   -3.9623    4.4367 H   0  0  0  0  0  0  0  0  0  0  0  0
   -2.6022   -5.5311    3.6582 H   0  0  0  0  0  0  0  0  0  0  0  0
    1.3317   -0.3797   -2.0207 H   0  0  0  0  0  0  0  0  0  0  0  0
    3.2045   -2.0977   -1.2501 H   0  0  0  0  0  0  0  0  0  0  0  0
    5.4289   -2.2931   -2.0231 H   0  0  0  0  0  0  0  0  0  0  0  0
    5.7401   -1.2134   -3.4056 H   0  0  0  0  0  0  0  0  0  0  0  0
    7.9215    1.1604   -0.1063 H   0  0  0  0  0  0  0  0  0  0  0  0
   10.4481    1.7397    0.6956 H   0  0  0  0  0  0  0  0  0  0  0  0
   12.0445   -0.1652   -0.4213 H   0  0  0  0  0  0  0  0  0  0  0  0
   10.5417   -1.6933   -1.7490 H   0  0  0  0  0  0  0  0  0  0  0  0
    5.2057    1.4149   -1.7312 H   0  0  0  0  0  0  0  0  0  0  0  0
    3.8022    1.3762   -4.1208 H   0  0  0  0  0  0  0  0  0  0  0  0
    4.0953    3.7335   -2.5446 H   0  0  0  0  0  0  0  0  0  0  0  0
    2.7712    4.0084   -1.4350 H   0  0  0  0  0  0  0  0  0  0  0  0
    4.2935    3.3446   -0.8206 H   0  0  0  0  0  0  0  0  0  0  0  0
    0.7126    3.3823   -2.7909 H   0  0  0  0  0  0  0  0  0  0  0  0
    0.1487    1.7021   -3.0657 H   0  0  0  0  0  0  0  0  0  0  0  0
    0.3678    2.3353    0.9131 H   0  0  0  0  0  0  0  0  0  0  0  0
   -0.9547    4.3310    0.2916 H   0  0  0  0  0  0  0  0  0  0  0  0
   -2.1063    2.1997   -1.6019 H   0  0  0  0  0  0  0  0  0  0  0  0
   -3.5251    4.0604   -2.2636 H   0  0  0  0  0  0  0  0  0  0  0  0
   -4.0784    6.0216   -0.9415 H   0  0  0  0  0  0  0  0  0  0  0  0
   -2.9658    5.5449    0.3427 H   0  0  0  0  0  0  0  0  0  0  0  0
   -2.3451    5.9452   -1.2626 H   0  0  0  0  0  0  0  0  0  0  0  0
   -5.3946    4.0496   -0.4902 H   0  0  0  0  0  0  0  0  0  0  0  0
   -4.9188    2.5579   -1.2521 H   0  0  0  0  0  0  0  0  0  0  0  0
    2.7344    2.4217    0.6437 H   0  0  0  0  0  0  0  0  0  0  0  0
  1  2  1  0
  2  3  2  0
  3  4  1  0
  4  5  1  0
  5  6  1  0
  6  7  1  0
  7  8  1  0
  8  9  1  0
  9 10  1  0
 10 11  1  0
 11 12  1  0
 12 13  1  0
 12 14  1  0
 14 15  1  0
 14 16  1  0
  9 17  1  1
  7 18  1  0
 18 19  1  0
 19 20  2  0
 19 21  1  0
 21 22  1  0
 22 23  2  0
 23 24  1  0
 24 25  1  0
 25 26  1  0
 26 27  2  0
 26 28  1  0
 28 29  2  0
 29 30  1  0
 30 31  2  0
 31 32  1  0
 23 33  1  0
 33 34  1  0
 33 35  1  0
 35 36  1  1
 35 37  1  0
 37 38  1  0
 38 39  1  0
 39 40  2  0
 40 41  1  0
 41 42  2  0
 42 43  1  0
 43 44  1  0
 43 45  1  0
 39 46  1  0
 46 47  1  1
 45  2  1  0
 17  5  1  0
 46 21  1  0
 16  9  1  0
 32 28  1  0
 46 35  1  0
  1 48  1  0
  1 49  1  0
  1 50  1  0
  3 51  1  0
  4 52  1  0
  4 53  1  0
  5 54  1  1
  6 55  1  0
  6 56  1  0
  7 57  1  1
  8 58  1  0
  8 59  1  0
 10 60  1  0
 10 61  1  0
 11 62  1  0
 11 63  1  0
 12 64  1  6
 13 65  1  0
 13 66  1  0
 13 67  1  0
 14 68  1  1
 15 69  1  0
 15 70  1  0
 15 71  1  0
 21 72  1  0
 22 73  1  0
 24 74  1  0
 24 75  1  0
 29 76  1  0
 30 77  1  0
 31 78  1  0
 32 79  1  0
 33 80  1  1
 34 81  1  0
 36 82  1  0
 36 83  1  0
 36 84  1  0
 38 85  1  0
 38 86  1  0
 40 87  1  0
 41 88  1  0
 42 89  1  0
 43 90  1  6
 44 91  1  0
 44 92  1  0
 44 93  1  0
 45 94  1  0
 45 95  1  0
 47 96  1  0
M  END
$$$$
