
     RDKit          3D

 32 33  0  0  0  0  0  0  0  0999 V2000
    4.1679    0.6308   -0.7251 C   0  0  0  0  0  0  0  0  0  0  0  0
    4.2087   -0.8372   -0.3366 C   0  0  0  0  0  0  0  0  0  0  0  0
    2.9380   -1.2389    0.9009 S   0  0  0  0  0  0  0  0  0  0  0  0
    1.4771   -1.1592   -0.0307 C   0  0  0  0  0  0  0  0  0  0  0  0
    1.1761   -1.6063   -1.2944 C   0  0  0  0  0  0  0  0  0  0  0  0
   -0.1246   -1.3284   -1.6137 N   0  0  0  0  0  0  0  0  0  0  0  0
   -0.6364   -0.7136   -0.5628 C   0  0  0  0  0  0  0  0  0  0  0  0
   -2.0182   -0.2505   -0.4689 C   0  0  0  0  0  0  0  0  0  0  0  0
   -3.0551   -1.1793   -0.3229 C   0  0  0  0  0  0  0  0  0  0  0  0
   -4.3794   -0.7481   -0.2238 C   0  0  0  0  0  0  0  0  0  0  0  0
   -4.6750    0.6133   -0.2803 C   0  0  0  0  0  0  0  0  0  0  0  0
   -3.6497    1.5439   -0.4446 C   0  0  0  0  0  0  0  0  0  0  0  0
   -2.3249    1.1133   -0.5434 C   0  0  0  0  0  0  0  0  0  0  0  0
    0.3103   -0.6058    0.4447 N   0  0  0  0  0  0  0  0  0  0  0  0
    0.0745   -0.0652    1.7729 C   0  0  0  0  0  0  0  0  0  0  0  0
    0.5238    1.3799    1.9145 C   0  0  0  0  0  0  0  0  0  0  0  0
    3.2254    0.8981   -1.2133 H   0  0  0  0  0  0  0  0  0  0  0  0
    4.9761    0.8506   -1.4303 H   0  0  0  0  0  0  0  0  0  0  0  0
    4.3041    1.2800    0.1464 H   0  0  0  0  0  0  0  0  0  0  0  0
    4.0992   -1.4763   -1.2182 H   0  0  0  0  0  0  0  0  0  0  0  0
    5.1836   -1.0644    0.1069 H   0  0  0  0  0  0  0  0  0  0  0  0
    1.8211   -2.1211   -1.9935 H   0  0  0  0  0  0  0  0  0  0  0  0
   -2.8314   -2.2436   -0.2934 H   0  0  0  0  0  0  0  0  0  0  0  0
   -5.1793   -1.4755   -0.1121 H   0  0  0  0  0  0  0  0  0  0  0  0
   -5.7070    0.9481   -0.2104 H   0  0  0  0  0  0  0  0  0  0  0  0
   -3.8823    2.6037   -0.5078 H   0  0  0  0  0  0  0  0  0  0  0  0
   -1.5358    1.8451   -0.6973 H   0  0  0  0  0  0  0  0  0  0  0  0
    0.5908   -0.7039    2.4973 H   0  0  0  0  0  0  0  0  0  0  0  0
   -0.9931   -0.1518    1.9999 H   0  0  0  0  0  0  0  0  0  0  0  0
    0.0030    2.0319    1.2073 H   0  0  0  0  0  0  0  0  0  0  0  0
    1.5975    1.4884    1.7322 H   0  0  0  0  0  0  0  0  0  0  0  0
    0.3150    1.7419    2.9262 H   0  0  0  0  0  0  0  0  0  0  0  0
  1  2  1  0
  2  3  1  0
  3  4  1  0
  4  5  2  0
  5  6  1  0
  6  7  2  0
  7  8  1  0
  8  9  2  0
  9 10  1  0
 10 11  2  0
 11 12  1  0
 12 13  2  0
  7 14  1  0
 14 15  1  0
 15 16  1  0
 14  4  1  0
 13  8  1  0
  1 17  1  0
  1 18  1  0
  1 19  1  0
  2 20  1  0
  2 21  1  0
  5 22  1  0
  9 23  1  0
 10 24  1  0
 11 25  1  0
 12 26  1  0
 13 27  1  0
 15 28  1  0
 15 29  1  0
 16 30  1  0
 16 31  1  0
 16 32  1  0
M  END
$$$$
