
     RDKit          3D

 57 60  0  0  0  0  0  0  0  0999 V2000
   -0.6184    4.5520    0.0366 C   0  0  0  0  0  0  0  0  0  0  0  0
   -1.4216    3.5169   -0.7431 C   0  0  0  0  0  0  0  0  0  0  0  0
   -0.5487    2.3757   -1.2820 C   0  0  0  0  0  0  0  0  0  0  0  0
   -1.2875    1.4972   -2.7132 S   0  0  0  0  0  0  0  0  0  0  0  0
   -2.6070    0.6164   -1.9519 C   0  0  0  0  0  0  0  0  0  0  0  0
   -3.5010    1.3539   -1.3667 N   0  0  0  0  0  0  0  0  0  0  0  0
   -4.5214    0.6458   -0.7383 C   0  0  0  0  0  0  0  0  0  0  0  0
   -5.5790    1.2518   -0.0232 C   0  0  0  0  0  0  0  0  0  0  0  0
   -6.4295    0.2956    0.4983 C   0  0  0  0  0  0  0  0  0  0  0  0
   -5.9223   -1.3031    0.1049 S   0  0  0  0  0  0  0  0  0  0  0  0
   -4.5841   -0.7140   -0.7544 C   0  0  0  0  0  0  0  0  0  0  0  0
   -3.6258   -1.5255   -1.4431 C   0  0  0  0  0  0  0  0  0  0  0  0
   -3.6884   -2.7538   -1.5058 O   0  0  0  0  0  0  0  0  0  0  0  0
   -2.6206   -0.7766   -2.0696 N   0  0  0  0  0  0  0  0  0  0  0  0
   -1.6770   -1.5353   -2.8960 C   0  0  0  0  0  0  0  0  0  0  0  0
   -0.3655   -1.8726   -2.2127 C   0  0  0  0  0  0  0  0  0  0  0  0
   -0.3325   -2.6973   -1.0777 C   0  0  0  0  0  0  0  0  0  0  0  0
    0.8845   -3.0429   -0.4775 C   0  0  0  0  0  0  0  0  0  0  0  0
    2.0879   -2.5623   -1.0024 C   0  0  0  0  0  0  0  0  0  0  0  0
    3.4030   -2.9075   -0.4090 C   0  0  0  0  0  0  0  0  0  0  0  0
    4.4898   -2.5800   -0.8473 O   0  0  0  0  0  0  0  0  0  0  0  0
    3.2996   -3.6547    0.7032 O   0  0  0  0  0  0  0  0  0  0  0  0
    2.0653   -1.7423   -2.1375 C   0  0  0  0  0  0  0  0  0  0  0  0
    0.8491   -1.4078   -2.7415 C   0  0  0  0  0  0  0  0  0  0  0  0
   -0.1371    1.3997   -0.1660 C   0  0  0  0  0  0  0  0  0  0  0  0
   -0.8888    0.5232    0.2509 O   0  0  0  0  0  0  0  0  0  0  0  0
    1.1332    1.6725    0.3316 N   0  0  0  0  0  0  0  0  0  0  0  0
    1.8425    0.9528    1.3160 C   0  0  0  0  0  0  0  0  0  0  0  0
    1.4143   -0.2566    1.8599 C   0  0  0  0  0  0  0  0  0  0  0  0
    2.2001   -0.9314    2.8047 C   0  0  0  0  0  0  0  0  0  0  0  0
    3.4278   -0.4023    3.2309 C   0  0  0  0  0  0  0  0  0  0  0  0
    4.2529   -1.1534    4.2343 C   0  0  0  0  0  0  0  0  0  0  0  0
    3.8431    0.8242    2.6954 C   0  0  0  0  0  0  0  0  0  0  0  0
    5.3306    1.5640    3.1775 Cl  0  0  0  0  0  0  0  0  0  0  0  0
    3.0619    1.4897    1.7444 C   0  0  0  0  0  0  0  0  0  0  0  0
   -0.2086    4.1278    0.9591 H   0  0  0  0  0  0  0  0  0  0  0  0
   -1.2626    5.3916    0.3173 H   0  0  0  0  0  0  0  0  0  0  0  0
    0.2098    4.9466   -0.5632 H   0  0  0  0  0  0  0  0  0  0  0  0
   -1.9170    4.0354   -1.5713 H   0  0  0  0  0  0  0  0  0  0  0  0
   -2.2031    3.1363   -0.0750 H   0  0  0  0  0  0  0  0  0  0  0  0
    0.3612    2.8151   -1.7089 H   0  0  0  0  0  0  0  0  0  0  0  0
   -5.7149    2.3183    0.1072 H   0  0  0  0  0  0  0  0  0  0  0  0
   -7.3211    0.4524    1.0923 H   0  0  0  0  0  0  0  0  0  0  0  0
   -2.1308   -2.4774   -3.2261 H   0  0  0  0  0  0  0  0  0  0  0  0
   -1.4906   -0.9813   -3.8218 H   0  0  0  0  0  0  0  0  0  0  0  0
   -1.2537   -3.0927   -0.6528 H   0  0  0  0  0  0  0  0  0  0  0  0
    0.8787   -3.6897    0.3958 H   0  0  0  0  0  0  0  0  0  0  0  0
    4.2320   -3.8166    0.9601 H   0  0  0  0  0  0  0  0  0  0  0  0
    2.9962   -1.3712   -2.5637 H   0  0  0  0  0  0  0  0  0  0  0  0
    0.8610   -0.7833   -3.6326 H   0  0  0  0  0  0  0  0  0  0  0  0
    1.6016    2.4983   -0.0240 H   0  0  0  0  0  0  0  0  0  0  0  0
    0.4798   -0.7226    1.5589 H   0  0  0  0  0  0  0  0  0  0  0  0
    1.8424   -1.8835    3.1926 H   0  0  0  0  0  0  0  0  0  0  0  0
    3.7698   -2.0898    4.5332 H   0  0  0  0  0  0  0  0  0  0  0  0
    5.2269   -1.4120    3.8042 H   0  0  0  0  0  0  0  0  0  0  0  0
    4.4011   -0.5532    5.1364 H   0  0  0  0  0  0  0  0  0  0  0  0
    3.4127    2.4395    1.3526 H   0  0  0  0  0  0  0  0  0  0  0  0
  1  2  1  0
  2  3  1  0
  3  4  1  0
  4  5  1  0
  5  6  2  0
  6  7  1  0
  7  8  1  0
  8  9  2  0
  9 10  1  0
 10 11  1  0
 11 12  1  0
 12 13  2  0
 12 14  1  0
 14 15  1  0
 15 16  1  0
 16 17  2  0
 17 18  1  0
 18 19  2  0
 19 20  1  0
 20 21  2  0
 20 22  1  0
 19 23  1  0
 23 24  2  0
  3 25  1  0
 25 26  2  0
 25 27  1  0
 27 28  1  0
 28 29  2  0
 29 30  1  0
 30 31  2  0
 31 32  1  0
 31 33  1  0
 33 34  1  0
 33 35  2  0
 14  5  1  0
 24 16  1  0
 35 28  1  0
 11  7  2  0
  1 36  1  0
  1 37  1  0
  1 38  1  0
  2 39  1  0
  2 40  1  0
  3 41  1  0
  8 42  1  0
  9 43  1  0
 15 44  1  0
 15 45  1  0
 17 46  1  0
 18 47  1  0
 22 48  1  0
 23 49  1  0
 24 50  1  0
 27 51  1  0
 29 52  1  0
 30 53  1  0
 32 54  1  0
 32 55  1  0
 32 56  1  0
 35 57  1  0
M  END
$$$$
