
     RDKit          3D

 41 44  0  0  0  0  0  0  0  0999 V2000
    0.6133   -1.2235   -2.0016 O   0  0  0  0  0  0  0  0  0  0  0  0
    0.3978   -0.1087   -1.5336 C   0  0  0  0  0  0  0  0  0  0  0  0
   -0.9485    0.5893   -1.7635 C   0  0  0  0  0  0  0  0  0  0  0  0
   -1.7744    0.6379   -0.5513 N   0  0  0  0  0  0  0  0  0  0  0  0
   -1.4767    1.6100    0.3970 C   0  0  0  0  0  0  0  0  0  0  0  0
   -0.5713    2.4334    0.2260 O   0  0  0  0  0  0  0  0  0  0  0  0
   -2.2270    1.5697    1.7071 C   0  0  0  0  0  0  0  0  0  0  0  0
   -3.5489    2.3004    1.6306 C   0  0  0  0  0  0  0  0  0  0  0  0
   -4.6189    1.8595    0.2284 S   0  0  0  0  0  0  0  0  0  0  0  0
   -4.1624    0.1470   -0.0291 C   0  0  0  0  0  0  0  0  0  0  0  0
   -5.2036   -0.7904    0.0520 C   0  0  0  0  0  0  0  0  0  0  0  0
   -4.9853   -2.1283   -0.2707 C   0  0  0  0  0  0  0  0  0  0  0  0
   -3.7301   -2.5375   -0.7036 C   0  0  0  0  0  0  0  0  0  0  0  0
   -2.6881   -1.6126   -0.8015 C   0  0  0  0  0  0  0  0  0  0  0  0
   -2.8788   -0.2654   -0.4514 C   0  0  0  0  0  0  0  0  0  0  0  0
    1.2776    0.6506   -0.7817 N   0  0  0  0  0  0  0  0  0  0  0  0
    2.5957    0.3312   -0.4033 C   0  0  0  0  0  0  0  0  0  0  0  0
    3.2720    1.2799    0.3966 C   0  0  0  0  0  0  0  0  0  0  0  0
    4.5885    1.0658    0.8200 C   0  0  0  0  0  0  0  0  0  0  0  0
    5.1992   -0.1043    0.4325 C   0  0  0  0  0  0  0  0  0  0  0  0
    4.5469   -1.0341   -0.3406 C   0  0  0  0  0  0  0  0  0  0  0  0
    3.2497   -0.8465   -0.7770 C   0  0  0  0  0  0  0  0  0  0  0  0
    5.3235   -2.1196   -0.6061 O   0  0  0  0  0  0  0  0  0  0  0  0
    6.5360   -1.7647    0.0891 C   0  0  0  0  0  0  0  0  0  0  0  0
    6.4678   -0.4809    0.7437 O   0  0  0  0  0  0  0  0  0  0  0  0
   -1.4824    0.0864   -2.5784 H   0  0  0  0  0  0  0  0  0  0  0  0
   -0.7537    1.6121   -2.1105 H   0  0  0  0  0  0  0  0  0  0  0  0
   -2.3502    0.5339    2.0433 H   0  0  0  0  0  0  0  0  0  0  0  0
   -1.5964    2.0425    2.4705 H   0  0  0  0  0  0  0  0  0  0  0  0
   -3.3694    3.3784    1.5590 H   0  0  0  0  0  0  0  0  0  0  0  0
   -4.1112    2.1309    2.5548 H   0  0  0  0  0  0  0  0  0  0  0  0
   -6.2036   -0.4806    0.3497 H   0  0  0  0  0  0  0  0  0  0  0  0
   -5.8002   -2.8448   -0.2044 H   0  0  0  0  0  0  0  0  0  0  0  0
   -3.5559   -3.5787   -0.9649 H   0  0  0  0  0  0  0  0  0  0  0  0
   -1.7167   -1.9795   -1.1242 H   0  0  0  0  0  0  0  0  0  0  0  0
    0.9087    1.5360   -0.4290 H   0  0  0  0  0  0  0  0  0  0  0  0
    2.7748    2.2007    0.6938 H   0  0  0  0  0  0  0  0  0  0  0  0
    5.1100    1.7941    1.4303 H   0  0  0  0  0  0  0  0  0  0  0  0
    2.7866   -1.6092   -1.3890 H   0  0  0  0  0  0  0  0  0  0  0  0
    7.3610   -1.7492   -0.6321 H   0  0  0  0  0  0  0  0  0  0  0  0
    6.7445   -2.5311    0.8439 H   0  0  0  0  0  0  0  0  0  0  0  0
  1  2  2  0
  2  3  1  0
  3  4  1  0
  4  5  1  0
  5  6  2  0
  5  7  1  0
  7  8  1  0
  8  9  1  0
  9 10  1  0
 10 11  2  0
 11 12  1  0
 12 13  2  0
 13 14  1  0
 14 15  2  0
  2 16  1  0
 16 17  1  0
 17 18  2  0
 18 19  1  0
 19 20  2  0
 20 21  1  0
 21 22  2  0
 21 23  1  0
 23 24  1  0
 24 25  1  0
 15  4  1  0
 22 17  1  0
 15 10  1  0
 25 20  1  0
  3 26  1  0
  3 27  1  0
  7 28  1  0
  7 29  1  0
  8 30  1  0
  8 31  1  0
 11 32  1  0
 12 33  1  0
 13 34  1  0
 14 35  1  0
 16 36  1  0
 18 37  1  0
 19 38  1  0
 22 39  1  0
 24 40  1  0
 24 41  1  0
M  END
$$$$
