
     RDKit          3D

 52 56  0  0  0  0  0  0  0  0999 V2000
    1.3254    0.5896    3.3999 O   0  0  0  0  0  0  0  0  0  0  0  0
    1.2485    1.0465    2.2627 C   0  0  0  0  0  0  0  0  0  0  0  0
   -0.1001    1.3613    1.6376 C   0  0  0  0  0  0  0  0  0  0  0  0
   -0.6507   -0.0551    0.6443 S   0  0  0  0  0  0  0  0  0  0  0  0
   -2.1372    0.5822    0.0153 C   0  0  0  0  0  0  0  0  0  0  0  0
   -2.3847    1.8657   -0.1068 N   0  0  0  0  0  0  0  0  0  0  0  0
   -3.6780    2.0069   -0.5165 N   0  0  0  0  0  0  0  0  0  0  0  0
   -4.2067    0.8029   -0.6507 C   0  0  0  0  0  0  0  0  0  0  0  0
   -5.5558    0.5471   -1.2427 C   0  0  0  0  0  0  0  0  0  0  0  0
   -5.4833   -0.0189   -2.6347 C   0  0  0  0  0  0  0  0  0  0  0  0
   -4.8634    0.5193   -3.7476 C   0  0  0  0  0  0  0  0  0  0  0  0
   -5.0144   -0.2986   -4.9040 C   0  0  0  0  0  0  0  0  0  0  0  0
   -5.7518   -1.4310   -4.6391 C   0  0  0  0  0  0  0  0  0  0  0  0
   -6.2570   -1.5025   -3.0070 S   0  0  0  0  0  0  0  0  0  0  0  0
   -3.2651   -0.1600   -0.2966 N   0  0  0  0  0  0  0  0  0  0  0  0
   -3.4351   -1.5677   -0.2684 C   0  0  0  0  0  0  0  0  0  0  0  0
   -2.4709   -2.4056   -0.8422 C   0  0  0  0  0  0  0  0  0  0  0  0
   -2.6514   -3.7901   -0.8231 C   0  0  0  0  0  0  0  0  0  0  0  0
   -3.7856   -4.3411   -0.2293 C   0  0  0  0  0  0  0  0  0  0  0  0
   -4.7425   -3.5097    0.3496 C   0  0  0  0  0  0  0  0  0  0  0  0
   -4.5710   -2.1238    0.3327 C   0  0  0  0  0  0  0  0  0  0  0  0
    2.3110    1.3418    1.4208 N   0  0  0  0  0  0  0  0  0  0  0  0
    3.6888    1.2083    1.6901 C   0  0  0  0  0  0  0  0  0  0  0  0
    4.2075    0.7219    2.8936 C   0  0  0  0  0  0  0  0  0  0  0  0
    5.5912    0.6162    3.0820 C   0  0  0  0  0  0  0  0  0  0  0  0
    6.4635    1.0004    2.0689 C   0  0  0  0  0  0  0  0  0  0  0  0
    5.9556    1.5195    0.8757 C   0  0  0  0  0  0  0  0  0  0  0  0
    4.5761    1.6043    0.6798 C   0  0  0  0  0  0  0  0  0  0  0  0
    6.7541    1.9647   -0.1496 O   0  0  0  0  0  0  0  0  0  0  0  0
    8.1036    2.1575    0.2911 C   0  0  0  0  0  0  0  0  0  0  0  0
    8.5710    0.9652    1.1093 C   0  0  0  0  0  0  0  0  0  0  0  0
    7.8043    0.8502    2.3151 O   0  0  0  0  0  0  0  0  0  0  0  0
   -0.8178    1.5660    2.4381 H   0  0  0  0  0  0  0  0  0  0  0  0
   -0.0153    2.2638    1.0218 H   0  0  0  0  0  0  0  0  0  0  0  0
   -6.0886    1.5059   -1.3050 H   0  0  0  0  0  0  0  0  0  0  0  0
   -6.1658   -0.0704   -0.5784 H   0  0  0  0  0  0  0  0  0  0  0  0
   -4.3249    1.4612   -3.7318 H   0  0  0  0  0  0  0  0  0  0  0  0
   -4.6101   -0.0655   -5.8810 H   0  0  0  0  0  0  0  0  0  0  0  0
   -6.0231   -2.2200   -5.3275 H   0  0  0  0  0  0  0  0  0  0  0  0
   -1.5935   -2.0072   -1.3481 H   0  0  0  0  0  0  0  0  0  0  0  0
   -1.9084   -4.4404   -1.2786 H   0  0  0  0  0  0  0  0  0  0  0  0
   -3.9219   -5.4199   -0.2151 H   0  0  0  0  0  0  0  0  0  0  0  0
   -5.6208   -3.9440    0.8201 H   0  0  0  0  0  0  0  0  0  0  0  0
   -5.3129   -1.5087    0.8340 H   0  0  0  0  0  0  0  0  0  0  0  0
    2.0752    1.6961    0.5018 H   0  0  0  0  0  0  0  0  0  0  0  0
    3.5636    0.4067    3.7088 H   0  0  0  0  0  0  0  0  0  0  0  0
    5.9817    0.2295    4.0198 H   0  0  0  0  0  0  0  0  0  0  0  0
    4.2091    1.9953   -0.2644 H   0  0  0  0  0  0  0  0  0  0  0  0
    8.7308    2.2796   -0.5985 H   0  0  0  0  0  0  0  0  0  0  0  0
    8.1514    3.0867    0.8744 H   0  0  0  0  0  0  0  0  0  0  0  0
    8.4755    0.0284    0.5483 H   0  0  0  0  0  0  0  0  0  0  0  0
    9.6197    1.0891    1.3951 H   0  0  0  0  0  0  0  0  0  0  0  0
  1  2  2  0
  2  3  1  0
  3  4  1  0
  4  5  1  0
  5  6  2  0
  6  7  1  0
  7  8  2  0
  8  9  1  0
  9 10  1  0
 10 11  2  0
 11 12  1  0
 12 13  2  0
 13 14  1  0
  8 15  1  0
 15 16  1  0
 16 17  2  0
 17 18  1  0
 18 19  2  0
 19 20  1  0
 20 21  2  0
  2 22  1  0
 22 23  1  0
 23 24  2  0
 24 25  1  0
 25 26  2  0
 26 27  1  0
 27 28  2  0
 27 29  1  0
 29 30  1  0
 30 31  1  0
 31 32  1  0
 15  5  1  0
 21 16  1  0
 28 23  1  0
 14 10  1  0
 32 26  1  0
  3 33  1  0
  3 34  1  0
  9 35  1  0
  9 36  1  0
 11 37  1  0
 12 38  1  0
 13 39  1  0
 17 40  1  0
 18 41  1  0
 19 42  1  0
 20 43  1  0
 21 44  1  0
 22 45  1  0
 24 46  1  0
 25 47  1  0
 28 48  1  0
 30 49  1  0
 30 50  1  0
 31 51  1  0
 31 52  1  0
M  END
$$$$
