
     RDKit          3D

 36 38  0  0  0  0  0  0  0  0999 V2000
   -2.1033    3.3893    1.0748 C   0  0  0  0  0  0  0  0  0  0  0  0
   -2.3048    2.1194    0.4554 O   0  0  0  0  0  0  0  0  0  0  0  0
   -1.1647    1.3812    0.3131 C   0  0  0  0  0  0  0  0  0  0  0  0
   -0.0563    1.7585    0.6791 O   0  0  0  0  0  0  0  0  0  0  0  0
   -1.4029    0.0866   -0.3197 C   0  0  0  0  0  0  0  0  0  0  0  0
   -0.3945   -0.8555   -0.5463 C   0  0  0  0  0  0  0  0  0  0  0  0
    0.9448   -0.7180   -0.2265 N   0  0  0  0  0  0  0  0  0  0  0  0
    1.9740   -1.6175   -0.4293 C   0  0  0  0  0  0  0  0  0  0  0  0
    1.9104   -2.7306   -0.9377 O   0  0  0  0  0  0  0  0  0  0  0  0
    3.2608   -1.0813    0.0573 C   0  0  0  0  0  0  0  0  0  0  0  0
    4.5269   -1.7215    0.0157 C   0  0  0  0  0  0  0  0  0  0  0  0
    5.4065   -0.8309    0.5824 C   0  0  0  0  0  0  0  0  0  0  0  0
    4.6649    0.2587    0.9254 N   0  0  0  0  0  0  0  0  0  0  0  0
    5.1388    1.4672    1.5558 C   0  0  0  0  0  0  0  0  0  0  0  0
    3.3593    0.1412    0.6215 N   0  0  0  0  0  0  0  0  0  0  0  0
   -0.9774   -2.2869   -1.2936 S   0  0  0  0  0  0  0  0  0  0  0  0
   -2.5273   -1.6805   -1.3251 C   0  0  0  0  0  0  0  0  0  0  0  0
   -2.6449   -0.4272   -0.7954 C   0  0  0  0  0  0  0  0  0  0  0  0
   -4.0548    0.0408   -0.8602 C   0  0  0  0  0  0  0  0  0  0  0  0
   -4.7099   -0.9957   -1.8264 C   0  0  0  0  0  0  0  0  0  0  0  0
   -3.7969   -2.2583   -1.8203 C   0  0  0  0  0  0  0  0  0  0  0  0
   -3.0719    3.8929    1.1372 H   0  0  0  0  0  0  0  0  0  0  0  0
   -1.7128    3.2641    2.0895 H   0  0  0  0  0  0  0  0  0  0  0  0
   -1.4305    4.0080    0.4726 H   0  0  0  0  0  0  0  0  0  0  0  0
    1.2324    0.1581    0.2178 H   0  0  0  0  0  0  0  0  0  0  0  0
    4.7469   -2.7038   -0.3797 H   0  0  0  0  0  0  0  0  0  0  0  0
    6.4709   -0.8852    0.7634 H   0  0  0  0  0  0  0  0  0  0  0  0
    4.6180    1.5850    2.5094 H   0  0  0  0  0  0  0  0  0  0  0  0
    4.9235    2.3088    0.8927 H   0  0  0  0  0  0  0  0  0  0  0  0
    6.2156    1.3913    1.7252 H   0  0  0  0  0  0  0  0  0  0  0  0
   -4.5209   -0.0104    0.1294 H   0  0  0  0  0  0  0  0  0  0  0  0
   -4.1501    1.0551   -1.2569 H   0  0  0  0  0  0  0  0  0  0  0  0
   -4.7286   -0.5742   -2.8403 H   0  0  0  0  0  0  0  0  0  0  0  0
   -5.7429   -1.2273   -1.5489 H   0  0  0  0  0  0  0  0  0  0  0  0
   -3.7158   -2.6937   -2.8200 H   0  0  0  0  0  0  0  0  0  0  0  0
   -4.1827   -3.0078   -1.1218 H   0  0  0  0  0  0  0  0  0  0  0  0
  1  2  1  0
  2  3  1  0
  3  4  2  0
  3  5  1  0
  5  6  2  0
  6  7  1  0
  7  8  1  0
  8  9  2  0
  8 10  1  0
 10 11  1  0
 11 12  2  0
 12 13  1  0
 13 14  1  0
 13 15  1  0
  6 16  1  0
 16 17  1  0
 17 18  2  0
 18 19  1  0
 19 20  1  0
 20 21  1  0
 18  5  1  0
 15 10  2  0
 21 17  1  0
  1 22  1  0
  1 23  1  0
  1 24  1  0
  7 25  1  0
 11 26  1  0
 12 27  1  0
 14 28  1  0
 14 29  1  0
 14 30  1  0
 19 31  1  0
 19 32  1  0
 20 33  1  0
 20 34  1  0
 21 35  1  0
 21 36  1  0
M  END
$$$$
