
     RDKit          3D

 57 60  0  0  0  0  0  0  0  0999 V2000
    5.2318    3.0094    0.6303 C   0  0  0  0  0  0  0  0  0  0  0  0
    4.2799    1.9431    0.1980 C   0  0  0  0  0  0  0  0  0  0  0  0
    2.9143    2.0667    0.0333 C   0  0  0  0  0  0  0  0  0  0  0  0
    2.3921    0.7970   -0.2881 C   0  0  0  0  0  0  0  0  0  0  0  0
    1.0263    0.4497   -0.5323 C   0  0  0  0  0  0  0  0  0  0  0  0
   -0.0210    1.2784   -0.3858 C   0  0  0  0  0  0  0  0  0  0  0  0
   -1.3947    0.8352   -0.6339 C   0  0  0  0  0  0  0  0  0  0  0  0
   -1.8298    0.7486   -1.9561 C   0  0  0  0  0  0  0  0  0  0  0  0
   -3.1137    0.3161   -2.2334 C   0  0  0  0  0  0  0  0  0  0  0  0
   -3.9592   -0.0414   -1.1870 C   0  0  0  0  0  0  0  0  0  0  0  0
   -5.2625   -0.5051   -1.4589 C   0  0  0  0  0  0  0  0  0  0  0  0
   -6.1609   -0.8977   -0.4525 C   0  0  0  0  0  0  0  0  0  0  0  0
   -7.4319   -1.3822   -0.7466 N   0  0  0  0  0  0  0  0  0  0  0  0
   -8.3735   -1.7040    0.3287 C   0  0  0  0  0  0  0  0  0  0  0  0
   -8.0417   -1.0816   -2.0458 C   0  0  0  0  0  0  0  0  0  0  0  0
   -5.6762   -0.8144    0.8587 C   0  0  0  0  0  0  0  0  0  0  0  0
   -4.3838   -0.3516    1.1584 C   0  0  0  0  0  0  0  0  0  0  0  0
   -3.4993    0.0503    0.1474 C   0  0  0  0  0  0  0  0  0  0  0  0
   -2.2268    0.5059    0.3958 N   0  0  0  0  0  4  0  0  0  0  0  0
   -1.7486    0.5977    1.7982 C   0  0  0  0  0  0  0  0  0  0  0  0
    3.4591   -0.0894   -0.3510 C   0  0  0  0  0  0  0  0  0  0  0  0
    3.4676   -1.5269   -0.7734 C   0  0  0  0  0  0  0  0  0  0  0  0
    4.6240    0.6098   -0.0139 N   0  0  0  0  0  0  0  0  0  0  0  0
    5.9304    0.0542    0.1138 C   0  0  0  0  0  0  0  0  0  0  0  0
    6.1173   -1.1371    0.8277 C   0  0  0  0  0  0  0  0  0  0  0  0
    7.3980   -1.6783    0.9591 C   0  0  0  0  0  0  0  0  0  0  0  0
    8.4911   -1.0374    0.3778 C   0  0  0  0  0  0  0  0  0  0  0  0
    8.3080    0.1477   -0.3348 C   0  0  0  0  0  0  0  0  0  0  0  0
    7.0307    0.6970   -0.4669 C   0  0  0  0  0  0  0  0  0  0  0  0
    4.6890    3.8394    1.0972 H   0  0  0  0  0  0  0  0  0  0  0  0
    5.7741    3.4156   -0.2286 H   0  0  0  0  0  0  0  0  0  0  0  0
    5.9468    2.6390    1.3717 H   0  0  0  0  0  0  0  0  0  0  0  0
    2.3733    2.9960    0.1571 H   0  0  0  0  0  0  0  0  0  0  0  0
    0.8372   -0.5754   -0.8478 H   0  0  0  0  0  0  0  0  0  0  0  0
    0.0983    2.3104   -0.0708 H   0  0  0  0  0  0  0  0  0  0  0  0
   -1.1665    1.0159   -2.7780 H   0  0  0  0  0  0  0  0  0  0  0  0
   -3.4414    0.2493   -3.2703 H   0  0  0  0  0  0  0  0  0  0  0  0
   -5.5685   -0.5748   -2.5011 H   0  0  0  0  0  0  0  0  0  0  0  0
   -8.6675   -0.7996    0.8726 H   0  0  0  0  0  0  0  0  0  0  0  0
   -7.9450   -2.4309    1.0277 H   0  0  0  0  0  0  0  0  0  0  0  0
   -9.2841   -2.1685   -0.0647 H   0  0  0  0  0  0  0  0  0  0  0  0
   -7.4880   -1.5601   -2.8616 H   0  0  0  0  0  0  0  0  0  0  0  0
   -9.0669   -1.4640   -2.1079 H   0  0  0  0  0  0  0  0  0  0  0  0
   -8.0853    0.0007   -2.2167 H   0  0  0  0  0  0  0  0  0  0  0  0
   -6.3001   -1.1112    1.6993 H   0  0  0  0  0  0  0  0  0  0  0  0
   -4.1144   -0.3347    2.2114 H   0  0  0  0  0  0  0  0  0  0  0  0
   -2.4871    1.1571    2.3810 H   0  0  0  0  0  0  0  0  0  0  0  0
   -0.8022    1.1314    1.8804 H   0  0  0  0  0  0  0  0  0  0  0  0
   -1.6262   -0.4242    2.1720 H   0  0  0  0  0  0  0  0  0  0  0  0
    3.2881   -2.1777    0.0881 H   0  0  0  0  0  0  0  0  0  0  0  0
    4.4086   -1.8148   -1.2519 H   0  0  0  0  0  0  0  0  0  0  0  0
    2.6837   -1.7221   -1.5116 H   0  0  0  0  0  0  0  0  0  0  0  0
    5.2888   -1.6359    1.3221 H   0  0  0  0  0  0  0  0  0  0  0  0
    7.5463   -2.5979    1.5222 H   0  0  0  0  0  0  0  0  0  0  0  0
    9.4876   -1.4612    0.4804 H   0  0  0  0  0  0  0  0  0  0  0  0
    9.1614    0.6395   -0.7951 H   0  0  0  0  0  0  0  0  0  0  0  0
    6.9126    1.5988   -1.0616 H   0  0  0  0  0  0  0  0  0  0  0  0
  1  2  1  0
  2  3  2  0
  3  4  1  0
  4  5  1  0
  5  6  2  3
  6  7  1  0
  7  8  2  0
  8  9  1  0
  9 10  2  0
 10 11  1  0
 11 12  2  0
 12 13  1  0
 13 14  1  0
 13 15  1  0
 12 16  1  0
 16 17  2  0
 17 18  1  0
 18 19  2  0
 19 20  1  0
  4 21  2  0
 21 22  1  0
 21 23  1  0
 23 24  1  0
 24 25  2  0
 25 26  1  0
 26 27  2  0
 27 28  1  0
 28 29  2  0
 23  2  1  0
 29 24  1  0
 19  7  1  0
 18 10  1  0
  1 30  1  0
  1 31  1  0
  1 32  1  0
  3 33  1  0
  5 34  1  0
  6 35  1  0
  8 36  1  0
  9 37  1  0
 11 38  1  0
 14 39  1  0
 14 40  1  0
 14 41  1  0
 15 42  1  0
 15 43  1  0
 15 44  1  0
 16 45  1  0
 17 46  1  0
 20 47  1  0
 20 48  1  0
 20 49  1  0
 22 50  1  0
 22 51  1  0
 22 52  1  0
 25 53  1  0
 26 54  1  0
 27 55  1  0
 28 56  1  0
 29 57  1  0
M  CHG  1  19   1
M  END
$$$$
