
     RDKit          3D

 48 49  0  0  0  0  0  0  0  0999 V2000
   -5.4106    0.5618    2.1119 C   0  0  0  0  0  0  0  0  0  0  0  0
   -4.9177    1.2558    0.8520 C   0  0  0  0  0  0  0  0  0  0  0  0
   -5.1904    0.4819   -0.3647 N   0  0  0  0  0  0  0  0  0  0  0  0
   -6.5825    0.3995   -0.8076 C   0  0  0  0  0  0  0  0  0  0  0  0
   -7.1499   -1.0045   -0.6604 C   0  0  0  0  0  0  0  0  0  0  0  0
   -4.2105   -0.0123   -1.2316 C   0  0  0  0  0  0  0  0  0  0  0  0
   -4.4541   -0.4232   -2.3649 O   0  0  0  0  0  0  0  0  0  0  0  0
   -2.7996   -0.0556   -0.7895 C   0  0  0  0  0  0  0  0  0  0  0  0
   -2.4266   -0.7633    0.3545 C   0  0  0  0  0  0  0  0  0  0  0  0
   -1.0839   -0.8013    0.7473 C   0  0  0  0  0  0  0  0  0  0  0  0
   -0.1054   -0.1567   -0.0142 C   0  0  0  0  0  0  0  0  0  0  0  0
    1.2617   -0.1477    0.3134 N   0  0  0  0  0  0  0  0  0  0  0  0
    1.8761   -0.6698    1.4376 C   0  0  0  0  0  0  0  0  0  0  0  0
    1.3260   -1.2349    2.3781 O   0  0  0  0  0  0  0  0  0  0  0  0
    3.3972   -0.4891    1.4254 C   0  0  0  0  0  0  0  0  0  0  0  0
    3.8060    0.3576    0.3483 O   0  0  0  0  0  0  0  0  0  0  0  0
    5.1292    0.2122    0.0237 C   0  0  0  0  0  0  0  0  0  0  0  0
    6.1350    0.4104    0.9744 C   0  0  0  0  0  0  0  0  0  0  0  0
    7.4778    0.3044    0.6012 C   0  0  0  0  0  0  0  0  0  0  0  0
    7.8074    0.0092   -0.7291 C   0  0  0  0  0  0  0  0  0  0  0  0
    9.2183   -0.0967   -1.1203 N   0  0  0  0  0  4  0  0  0  0  0  0
   10.0723    0.2070   -0.2756 O   0  0  0  0  0  0  0  0  0  0  0  0
    9.4680   -0.4840   -2.2693 O   0  0  0  0  0  1  0  0  0  0  0  0
    6.8063   -0.1735   -1.6912 C   0  0  0  0  0  0  0  0  0  0  0  0
    5.4687   -0.0600   -1.3090 C   0  0  0  0  0  0  0  0  0  0  0  0
    4.2438   -0.2737   -2.5076 Cl  0  0  0  0  0  0  0  0  0  0  0  0
   -0.4851    0.5152   -1.1843 C   0  0  0  0  0  0  0  0  0  0  0  0
   -1.8263    0.5638   -1.5750 C   0  0  0  0  0  0  0  0  0  0  0  0
   -4.9742   -0.4363    2.2117 H   0  0  0  0  0  0  0  0  0  0  0  0
   -6.4989    0.4506    2.1056 H   0  0  0  0  0  0  0  0  0  0  0  0
   -5.1388    1.1456    2.9967 H   0  0  0  0  0  0  0  0  0  0  0  0
   -3.8504    1.4720    0.9462 H   0  0  0  0  0  0  0  0  0  0  0  0
   -5.4122    2.2281    0.7427 H   0  0  0  0  0  0  0  0  0  0  0  0
   -7.1901    1.1061   -0.2323 H   0  0  0  0  0  0  0  0  0  0  0  0
   -6.6378    0.7105   -1.8570 H   0  0  0  0  0  0  0  0  0  0  0  0
   -8.2045   -1.0197   -0.9514 H   0  0  0  0  0  0  0  0  0  0  0  0
   -7.0735   -1.3588    0.3707 H   0  0  0  0  0  0  0  0  0  0  0  0
   -6.6158   -1.7174   -1.2950 H   0  0  0  0  0  0  0  0  0  0  0  0
   -3.1702   -1.2982    0.9379 H   0  0  0  0  0  0  0  0  0  0  0  0
   -0.8341   -1.3558    1.6463 H   0  0  0  0  0  0  0  0  0  0  0  0
    1.8878    0.3253   -0.3346 H   0  0  0  0  0  0  0  0  0  0  0  0
    3.8417   -1.4871    1.3351 H   0  0  0  0  0  0  0  0  0  0  0  0
    3.6780   -0.0269    2.3787 H   0  0  0  0  0  0  0  0  0  0  0  0
    5.8904    0.6715    2.0005 H   0  0  0  0  0  0  0  0  0  0  0  0
    8.2503    0.4648    1.3524 H   0  0  0  0  0  0  0  0  0  0  0  0
    7.0548   -0.3921   -2.7277 H   0  0  0  0  0  0  0  0  0  0  0  0
    0.2562    1.0082   -1.8096 H   0  0  0  0  0  0  0  0  0  0  0  0
   -2.1100    1.0768   -2.4904 H   0  0  0  0  0  0  0  0  0  0  0  0
  1  2  1  0
  2  3  1  0
  3  4  1  0
  4  5  1  0
  3  6  1  0
  6  7  2  0
  6  8  1  0
  8  9  2  0
  9 10  1  0
 10 11  2  0
 11 12  1  0
 12 13  1  0
 13 14  2  0
 13 15  1  0
 15 16  1  0
 16 17  1  0
 17 18  2  0
 18 19  1  0
 19 20  2  0
 20 21  1  0
 21 22  2  0
 21 23  1  0
 20 24  1  0
 24 25  2  0
 25 26  1  0
 11 27  1  0
 27 28  2  0
 28  8  1  0
 25 17  1  0
  1 29  1  0
  1 30  1  0
  1 31  1  0
  2 32  1  0
  2 33  1  0
  4 34  1  0
  4 35  1  0
  5 36  1  0
  5 37  1  0
  5 38  1  0
  9 39  1  0
 10 40  1  0
 12 41  1  0
 15 42  1  0
 15 43  1  0
 18 44  1  0
 19 45  1  0
 24 46  1  0
 27 47  1  0
 28 48  1  0
M  CHG  2  21   1  23  -1
M  END
$$$$
