
     RDKit          3D

 72 77  0  0  0  0  0  0  0  0999 V2000
   -3.5622    0.0998   -2.6717 O   0  0  0  0  0  0  0  0  0  0  0  0
   -3.3243    0.2254   -1.4654 C   0  0  0  0  0  0  0  0  0  0  0  0
   -4.4534    0.4915   -0.4397 C   0  0  0  0  0  0  0  0  0  0  0  0
   -5.0238   -0.7882    0.1760 C   0  0  0  0  0  0  0  0  0  0  0  0
   -5.1078   -1.9922   -0.5412 C   0  0  0  0  0  0  0  0  0  0  0  0
   -5.6468   -3.1367    0.0490 C   0  0  0  0  0  0  0  0  0  0  0  0
   -6.1178   -3.0928    1.3591 C   0  0  0  0  0  0  0  0  0  0  0  0
   -6.0547   -1.9040    2.0804 C   0  0  0  0  0  0  0  0  0  0  0  0
   -5.5164   -0.7580    1.4926 C   0  0  0  0  0  0  0  0  0  0  0  0
   -5.5471    1.4124   -0.9919 C   0  0  0  0  0  0  0  0  0  0  0  0
   -5.6770    2.7226   -0.4982 C   0  0  0  0  0  0  0  0  0  0  0  0
   -6.6739    3.5729   -0.9825 C   0  0  0  0  0  0  0  0  0  0  0  0
   -7.5537    3.1285   -1.9665 C   0  0  0  0  0  0  0  0  0  0  0  0
   -7.4346    1.8361   -2.4714 C   0  0  0  0  0  0  0  0  0  0  0  0
   -6.4387    0.9845   -1.9886 C   0  0  0  0  0  0  0  0  0  0  0  0
   -2.0098    0.1423   -0.9904 N   0  0  0  0  0  0  0  0  0  0  0  0
   -0.9462   -0.1055   -1.9656 C   0  0  0  0  0  0  0  0  0  0  0  0
   -0.5344   -1.5931   -1.9489 C   0  0  0  0  0  0  0  0  0  0  0  0
   -0.1440   -2.1109   -0.6094 N   0  0  0  0  0  0  0  0  0  0  0  0
    1.1689   -1.5938   -0.1467 C   0  0  0  0  0  0  0  0  0  0  0  0
    2.3419   -2.2029   -0.9503 C   0  0  0  0  0  0  0  0  0  0  0  0
    2.1833   -3.6272   -1.0007 O   0  0  0  0  0  0  0  0  0  0  0  0
    3.7002   -1.8553   -0.3218 C   0  0  0  0  0  0  0  0  0  0  0  0
    4.0038   -0.4387   -0.4897 N   0  0  0  0  0  0  0  0  0  0  0  0
    4.9679    0.1853    0.2772 C   0  0  0  0  0  0  0  0  0  0  0  0
    5.3925   -0.3750    1.3789 N   0  0  0  0  0  0  0  0  0  0  0  0
    6.3856    0.2487    2.1608 C   0  0  0  0  0  0  0  0  0  0  0  0
    6.8065   -0.3867    3.3306 C   0  0  0  0  0  0  0  0  0  0  0  0
    7.7941    0.1852    4.1378 C   0  0  0  0  0  0  0  0  0  0  0  0
    8.3712    1.4048    3.7807 C   0  0  0  0  0  0  0  0  0  0  0  0
    7.9647    2.0590    2.6170 C   0  0  0  0  0  0  0  0  0  0  0  0
    6.9761    1.4746    1.8195 C   0  0  0  0  0  0  0  0  0  0  0  0
    6.5042    2.0670    0.6357 N   0  0  0  0  0  0  0  0  0  0  0  0
    6.8695    3.2499    0.0390 C   0  0  0  0  0  0  0  0  0  0  0  0
    6.1089    3.4116   -1.1000 C   0  0  0  0  0  0  0  0  0  0  0  0
    5.2570    2.2860   -1.2010 C   0  0  0  0  0  0  0  0  0  0  0  0
    5.5260    1.4621   -0.1225 C   0  0  0  0  0  0  0  0  0  0  0  0
   -1.2151   -1.7739    0.3671 C   0  0  0  0  0  0  0  0  0  0  0  0
   -1.6492   -0.2882    0.3665 C   0  0  0  0  0  0  0  0  0  0  0  0
   -3.9831    1.0565    0.3763 H   0  0  0  0  0  0  0  0  0  0  0  0
   -4.7662   -2.0539   -1.5731 H   0  0  0  0  0  0  0  0  0  0  0  0
   -5.7087   -4.0606   -0.5199 H   0  0  0  0  0  0  0  0  0  0  0  0
   -6.5442   -3.9833    1.8130 H   0  0  0  0  0  0  0  0  0  0  0  0
   -6.4355   -1.8659    3.0978 H   0  0  0  0  0  0  0  0  0  0  0  0
   -5.4922    0.1655    2.0676 H   0  0  0  0  0  0  0  0  0  0  0  0
   -5.0031    3.0957    0.2692 H   0  0  0  0  0  0  0  0  0  0  0  0
   -6.7638    4.5838   -0.5909 H   0  0  0  0  0  0  0  0  0  0  0  0
   -8.3287    3.7894   -2.3453 H   0  0  0  0  0  0  0  0  0  0  0  0
   -8.1147    1.4885   -3.2446 H   0  0  0  0  0  0  0  0  0  0  0  0
   -6.3576   -0.0165   -2.4070 H   0  0  0  0  0  0  0  0  0  0  0  0
   -0.0983    0.5363   -1.7016 H   0  0  0  0  0  0  0  0  0  0  0  0
   -1.2581    0.1824   -2.9748 H   0  0  0  0  0  0  0  0  0  0  0  0
   -1.3861   -2.1942   -2.2941 H   0  0  0  0  0  0  0  0  0  0  0  0
    0.2585   -1.7671   -2.6832 H   0  0  0  0  0  0  0  0  0  0  0  0
    1.2968   -1.9062    0.8976 H   0  0  0  0  0  0  0  0  0  0  0  0
    1.2167   -0.5000   -0.1636 H   0  0  0  0  0  0  0  0  0  0  0  0
    2.3235   -1.8424   -1.9841 H   0  0  0  0  0  0  0  0  0  0  0  0
    1.2139   -3.7716   -0.9839 H   0  0  0  0  0  0  0  0  0  0  0  0
    3.6892   -2.1441    0.7364 H   0  0  0  0  0  0  0  0  0  0  0  0
    4.4894   -2.4504   -0.7965 H   0  0  0  0  0  0  0  0  0  0  0  0
    3.9917   -0.1316   -1.4556 H   0  0  0  0  0  0  0  0  0  0  0  0
    6.3611   -1.3377    3.6114 H   0  0  0  0  0  0  0  0  0  0  0  0
    8.1123   -0.3233    5.0450 H   0  0  0  0  0  0  0  0  0  0  0  0
    9.1410    1.8443    4.4114 H   0  0  0  0  0  0  0  0  0  0  0  0
    8.4277    3.0059    2.3613 H   0  0  0  0  0  0  0  0  0  0  0  0
    7.6314    3.8896    0.4610 H   0  0  0  0  0  0  0  0  0  0  0  0
    6.1627    4.2515   -1.7808 H   0  0  0  0  0  0  0  0  0  0  0  0
    4.5266    2.1047   -1.9784 H   0  0  0  0  0  0  0  0  0  0  0  0
   -2.0860   -2.3954    0.1232 H   0  0  0  0  0  0  0  0  0  0  0  0
   -0.9143   -2.0708    1.3790 H   0  0  0  0  0  0  0  0  0  0  0  0
   -0.8256    0.3509    0.7043 H   0  0  0  0  0  0  0  0  0  0  0  0
   -2.4670   -0.1571    1.0744 H   0  0  0  0  0  0  0  0  0  0  0  0
  1  2  2  0
  2  3  1  0
  3  4  1  0
  4  5  2  0
  5  6  1  0
  6  7  2  0
  7  8  1  0
  8  9  2  0
  3 10  1  0
 10 11  2  0
 11 12  1  0
 12 13  2  0
 13 14  1  0
 14 15  2  0
  2 16  1  0
 16 17  1  0
 17 18  1  0
 18 19  1  0
 19 20  1  0
 20 21  1  0
 21 22  1  0
 21 23  1  0
 23 24  1  0
 24 25  1  0
 25 26  2  0
 26 27  1  0
 27 28  2  0
 28 29  1  0
 29 30  2  0
 30 31  1  0
 31 32  2  0
 32 33  1  0
 33 34  1  0
 34 35  2  0
 35 36  1  0
 36 37  2  0
 19 38  1  0
 38 39  1  0
  9  4  1  0
 15 10  1  0
 39 16  1  0
 37 25  1  0
 32 27  1  0
 37 33  1  0
  3 40  1  0
  5 41  1  0
  6 42  1  0
  7 43  1  0
  8 44  1  0
  9 45  1  0
 11 46  1  0
 12 47  1  0
 13 48  1  0
 14 49  1  0
 15 50  1  0
 17 51  1  0
 17 52  1  0
 18 53  1  0
 18 54  1  0
 20 55  1  0
 20 56  1  0
 21 57  1  0
 22 58  1  0
 23 59  1  0
 23 60  1  0
 24 61  1  0
 28 62  1  0
 29 63  1  0
 30 64  1  0
 31 65  1  0
 34 66  1  0
 35 67  1  0
 36 68  1  0
 38 69  1  0
 38 70  1  0
 39 71  1  0
 39 72  1  0
M  END
$$$$
