
     RDKit          3D

 47 50  0  0  0  0  0  0  0  0999 V2000
   -6.4548    1.4295    2.3463 C   0  0  0  0  0  0  0  0  0  0  0  0
   -5.6789    0.3235    1.6534 C   0  0  0  0  0  0  0  0  0  0  0  0
   -4.8730    0.8541    0.4705 C   0  0  0  0  0  0  0  0  0  0  0  0
   -4.1947   -0.2109   -0.1931 O   0  0  0  0  0  0  0  0  0  0  0  0
   -2.9370   -0.5645    0.2125 C   0  0  0  0  0  0  0  0  0  0  0  0
   -2.2752   -0.0554    1.3320 C   0  0  0  0  0  0  0  0  0  0  0  0
   -0.9979   -0.5179    1.6765 C   0  0  0  0  0  0  0  0  0  0  0  0
   -0.3691   -1.5035    0.9104 C   0  0  0  0  0  0  0  0  0  0  0  0
    0.9559   -2.0041    1.2757 C   0  0  0  0  0  0  0  0  0  0  0  0
    2.1159   -1.3892    1.0027 C   0  0  0  0  0  0  0  0  0  0  0  0
    3.6640   -2.0881    1.4782 S   0  0  0  0  0  0  0  0  0  0  0  0
    4.4763   -0.7563    0.7708 C   0  0  0  0  0  0  0  0  0  0  0  0
    5.7203   -0.3984    0.6368 N   0  0  0  0  0  0  0  0  0  0  0  0
    5.5866    0.8041   -0.0450 C   0  0  0  0  0  0  0  0  0  0  0  0
    6.8260    1.6612   -0.4620 C   0  0  0  0  0  0  0  0  0  0  0  0
    8.1450    1.3334   -0.2119 C   0  0  0  0  0  0  0  0  0  0  0  0
    8.9345    2.3756   -0.7559 C   0  0  0  0  0  0  0  0  0  0  0  0
    8.0513    3.2749   -1.3039 C   0  0  0  0  0  0  0  0  0  0  0  0
    6.7730    2.8524   -1.1316 O   0  0  0  0  0  0  0  0  0  0  0  0
    4.3181    1.1723   -0.3168 N   0  0  0  0  0  0  0  0  0  0  0  0
    3.6398    0.1449    0.2205 N   0  0  0  0  0  0  0  0  0  0  0  0
    2.2807   -0.0839    0.2787 C   0  0  0  0  0  0  0  0  0  0  0  0
    1.4524    0.6754   -0.1865 O   0  0  0  0  0  0  0  0  0  0  0  0
   -1.0240   -2.0238   -0.2056 C   0  0  0  0  0  0  0  0  0  0  0  0
   -2.2862   -1.5397   -0.5599 C   0  0  0  0  0  0  0  0  0  0  0  0
   -2.8804   -2.1151   -1.6572 O   0  0  0  0  0  0  0  0  0  0  0  0
   -2.8128   -1.2325   -2.7838 C   0  0  0  0  0  0  0  0  0  0  0  0
   -3.3092   -1.9920   -4.0005 C   0  0  0  0  0  0  0  0  0  0  0  0
   -7.1556    1.9098    1.6561 H   0  0  0  0  0  0  0  0  0  0  0  0
   -5.7784    2.1957    2.7386 H   0  0  0  0  0  0  0  0  0  0  0  0
   -7.0291    1.0218    3.1844 H   0  0  0  0  0  0  0  0  0  0  0  0
   -5.0196   -0.1693    2.3763 H   0  0  0  0  0  0  0  0  0  0  0  0
   -6.3707   -0.4522    1.3036 H   0  0  0  0  0  0  0  0  0  0  0  0
   -4.1979    1.6724    0.7453 H   0  0  0  0  0  0  0  0  0  0  0  0
   -5.5670    1.2789   -0.2650 H   0  0  0  0  0  0  0  0  0  0  0  0
   -2.7246    0.6962    1.9716 H   0  0  0  0  0  0  0  0  0  0  0  0
   -0.5070   -0.1012    2.5532 H   0  0  0  0  0  0  0  0  0  0  0  0
    0.9426   -2.9603    1.7952 H   0  0  0  0  0  0  0  0  0  0  0  0
    8.4864    0.4452    0.3021 H   0  0  0  0  0  0  0  0  0  0  0  0
   10.0121    2.4610   -0.7500 H   0  0  0  0  0  0  0  0  0  0  0  0
    8.1646    4.2155   -1.8252 H   0  0  0  0  0  0  0  0  0  0  0  0
   -0.5656   -2.7989   -0.8135 H   0  0  0  0  0  0  0  0  0  0  0  0
   -1.7792   -0.9080   -2.9570 H   0  0  0  0  0  0  0  0  0  0  0  0
   -3.4456   -0.3522   -2.6280 H   0  0  0  0  0  0  0  0  0  0  0  0
   -3.2780   -1.3613   -4.8932 H   0  0  0  0  0  0  0  0  0  0  0  0
   -4.3371   -2.3364   -3.8467 H   0  0  0  0  0  0  0  0  0  0  0  0
   -2.6970   -2.8829   -4.1751 H   0  0  0  0  0  0  0  0  0  0  0  0
  1  2  1  0
  2  3  1  0
  3  4  1  0
  4  5  1  0
  5  6  2  0
  6  7  1  0
  7  8  2  0
  8  9  1  0
  9 10  2  3
 10 11  1  0
 11 12  1  0
 12 13  2  0
 13 14  1  0
 14 15  1  0
 15 16  2  0
 16 17  1  0
 17 18  2  0
 18 19  1  0
 14 20  2  0
 20 21  1  0
 21 22  1  0
 22 23  2  0
  8 24  1  0
 24 25  2  0
 25 26  1  0
 26 27  1  0
 27 28  1  0
 25  5  1  0
 22 10  1  0
 21 12  1  0
 19 15  1  0
  1 29  1  0
  1 30  1  0
  1 31  1  0
  2 32  1  0
  2 33  1  0
  3 34  1  0
  3 35  1  0
  6 36  1  0
  7 37  1  0
  9 38  1  0
 16 39  1  0
 17 40  1  0
 18 41  1  0
 24 42  1  0
 27 43  1  0
 27 44  1  0
 28 45  1  0
 28 46  1  0
 28 47  1  0
M  END
$$$$
