
     RDKit          3D

 54 57  0  0  0  0  0  0  0  0999 V2000
    7.8739    0.7329    1.7550 C   0  0  0  0  0  0  0  0  0  0  0  0
    6.4484    0.5937    2.2950 C   0  0  0  0  0  0  0  0  0  0  0  0
    6.3691   -0.5172    3.3452 C   0  0  0  0  0  0  0  0  0  0  0  0
    5.4454    0.3750    1.1768 C   0  0  0  0  0  0  0  0  0  0  0  0
    5.5079   -0.7453    0.3373 C   0  0  0  0  0  0  0  0  0  0  0  0
    4.5731   -0.9314   -0.6889 C   0  0  0  0  0  0  0  0  0  0  0  0
    3.5559   -0.0018   -0.8953 C   0  0  0  0  0  0  0  0  0  0  0  0
    2.5779   -0.1104   -1.9024 N   0  0  0  0  0  0  0  0  0  0  0  0
    2.3964   -1.1423   -2.8061 C   0  0  0  0  0  0  0  0  0  0  0  0
    3.0626   -2.1707   -2.8876 O   0  0  0  0  0  0  0  0  0  0  0  0
    1.2301   -0.8905   -3.7698 C   0  0  0  0  0  0  0  0  0  0  0  0
   -0.0580   -1.0982   -3.1858 O   0  0  0  0  0  0  0  0  0  0  0  0
   -0.5232   -0.0785   -2.4283 C   0  0  0  0  0  0  0  0  0  0  0  0
    0.0747    0.9627   -2.2011 O   0  0  0  0  0  0  0  0  0  0  0  0
   -1.8716   -0.3900   -1.8832 C   0  0  0  0  0  0  0  0  0  0  0  0
   -2.5139   -1.6115   -2.1156 C   0  0  0  0  0  0  0  0  0  0  0  0
   -3.7836   -1.8543   -1.5753 C   0  0  0  0  0  0  0  0  0  0  0  0
   -4.4349   -0.8858   -0.7939 C   0  0  0  0  0  0  0  0  0  0  0  0
   -3.7862    0.3199   -0.5726 C   0  0  0  0  0  0  0  0  0  0  0  0
   -2.5139    0.5793   -1.1059 C   0  0  0  0  0  0  0  0  0  0  0  0
   -4.5428    1.5707    0.3871 S   0  0  0  0  0  6  0  0  0  0  0  0
   -3.6967    1.7546    1.5489 O   0  0  0  0  0  0  0  0  0  0  0  0
   -4.8376    2.6562   -0.5260 O   0  0  0  0  0  0  0  0  0  0  0  0
   -6.0786    0.9825    0.9766 C   0  0  0  0  0  0  0  0  0  0  0  0
   -6.8303    1.8222    1.8102 C   0  0  0  0  0  0  0  0  0  0  0  0
   -8.0610    1.3888    2.2970 C   0  0  0  0  0  0  0  0  0  0  0  0
   -8.5343    0.1255    1.9514 C   0  0  0  0  0  0  0  0  0  0  0  0
   -7.7756   -0.7038    1.1200 C   0  0  0  0  0  0  0  0  0  0  0  0
   -6.5321   -0.2807    0.6226 C   0  0  0  0  0  0  0  0  0  0  0  0
   -5.7759   -1.2080   -0.2514 C   0  0  0  0  0  0  0  0  0  0  0  0
   -6.2771   -2.2922   -0.5376 O   0  0  0  0  0  0  0  0  0  0  0  0
    3.4887    1.1193   -0.0613 C   0  0  0  0  0  0  0  0  0  0  0  0
    4.4218    1.3064    0.9638 C   0  0  0  0  0  0  0  0  0  0  0  0
    8.5699    0.9764    2.5651 H   0  0  0  0  0  0  0  0  0  0  0  0
    7.9339    1.5338    1.0095 H   0  0  0  0  0  0  0  0  0  0  0  0
    8.2253   -0.1906    1.2819 H   0  0  0  0  0  0  0  0  0  0  0  0
    6.2039    1.5358    2.8036 H   0  0  0  0  0  0  0  0  0  0  0  0
    6.6550   -1.4913    2.9336 H   0  0  0  0  0  0  0  0  0  0  0  0
    5.3519   -0.6081    3.7426 H   0  0  0  0  0  0  0  0  0  0  0  0
    7.0388   -0.3016    4.1847 H   0  0  0  0  0  0  0  0  0  0  0  0
    6.2875   -1.4924    0.4697 H   0  0  0  0  0  0  0  0  0  0  0  0
    4.6726   -1.8161   -1.3095 H   0  0  0  0  0  0  0  0  0  0  0  0
    1.8843    0.6383   -1.9315 H   0  0  0  0  0  0  0  0  0  0  0  0
    1.3254   -1.5958   -4.6028 H   0  0  0  0  0  0  0  0  0  0  0  0
    1.3120    0.1127   -4.2067 H   0  0  0  0  0  0  0  0  0  0  0  0
   -2.0426   -2.3906   -2.7122 H   0  0  0  0  0  0  0  0  0  0  0  0
   -4.2610   -2.8153   -1.7708 H   0  0  0  0  0  0  0  0  0  0  0  0
   -2.0297    1.5372   -0.9128 H   0  0  0  0  0  0  0  0  0  0  0  0
   -6.4600    2.8103    2.0794 H   0  0  0  0  0  0  0  0  0  0  0  0
   -8.6510    2.0343    2.9442 H   0  0  0  0  0  0  0  0  0  0  0  0
   -9.4954   -0.2182    2.3282 H   0  0  0  0  0  0  0  0  0  0  0  0
   -8.1659   -1.6885    0.8634 H   0  0  0  0  0  0  0  0  0  0  0  0
    2.7075    1.8640   -0.1946 H   0  0  0  0  0  0  0  0  0  0  0  0
    4.3390    2.1886    1.5947 H   0  0  0  0  0  0  0  0  0  0  0  0
  1  2  1  0
  2  3  1  0
  2  4  1  0
  4  5  2  0
  5  6  1  0
  6  7  2  0
  7  8  1  0
  8  9  1  0
  9 10  2  0
  9 11  1  0
 11 12  1  0
 12 13  1  0
 13 14  2  0
 13 15  1  0
 15 16  2  0
 16 17  1  0
 17 18  2  0
 18 19  1  0
 19 20  2  0
 19 21  1  0
 21 22  2  0
 21 23  2  0
 21 24  1  0
 24 25  2  0
 25 26  1  0
 26 27  2  0
 27 28  1  0
 28 29  2  0
 29 30  1  0
 30 31  2  0
  7 32  1  0
 32 33  2  0
 33  4  1  0
 20 15  1  0
 29 24  1  0
 30 18  1  0
  1 34  1  0
  1 35  1  0
  1 36  1  0
  2 37  1  0
  3 38  1  0
  3 39  1  0
  3 40  1  0
  5 41  1  0
  6 42  1  0
  8 43  1  0
 11 44  1  0
 11 45  1  0
 16 46  1  0
 17 47  1  0
 20 48  1  0
 25 49  1  0
 26 50  1  0
 27 51  1  0
 28 52  1  0
 32 53  1  0
 33 54  1  0
M  END
$$$$
