
     RDKit          3D

 69 71  0  0  0  0  0  0  0  0999 V2000
   -2.3418    4.5920   -3.5740 C   0  0  0  0  0  0  0  0  0  0  0  0
   -1.8901    3.6337   -2.6263 O   0  0  0  0  0  0  0  0  0  0  0  0
   -2.6852    2.5366   -2.4054 C   0  0  0  0  0  0  0  0  0  0  0  0
   -3.9175    2.3136   -3.0275 C   0  0  0  0  0  0  0  0  0  0  0  0
   -4.6389    1.1537   -2.7571 C   0  0  0  0  0  0  0  0  0  0  0  0
   -4.1266    0.2012   -1.8785 C   0  0  0  0  0  0  0  0  0  0  0  0
   -2.8830    0.3852   -1.2367 C   0  0  0  0  0  0  0  0  0  0  0  0
   -2.3996   -0.7190   -0.2903 C   0  0  0  0  0  0  0  0  0  0  0  0
   -2.8577   -0.5129    1.1866 C   0  0  0  0  0  0  0  0  0  0  0  0
   -3.7106    0.3118    1.5044 O   0  0  0  0  0  0  0  0  0  0  0  0
   -2.3654   -1.4665    2.0683 N   0  0  0  0  0  0  0  0  0  0  0  0
   -2.6175   -1.4587    3.5172 C   0  0  0  0  0  0  0  0  0  0  0  0
   -2.0211   -0.1995    4.1684 C   0  0  0  0  0  0  0  0  0  0  0  0
   -4.1202   -1.5537    3.8296 C   0  0  0  0  0  0  0  0  0  0  0  0
   -1.9230   -2.6982    4.1204 C   0  0  0  0  0  0  0  0  0  0  0  0
   -1.0209   -1.2201   -0.5588 N   0  0  0  0  0  0  0  0  0  0  0  0
    0.0479   -0.6182    0.1051 C   0  0  0  0  0  0  0  0  0  0  0  0
   -0.0948   -0.0470    1.1896 O   0  0  0  0  0  0  0  0  0  0  0  0
    1.4278   -0.7615   -0.5114 C   0  0  0  0  0  0  0  0  0  0  0  0
    2.4124    0.2036    0.1440 C   0  0  0  0  0  0  0  0  0  0  0  0
    3.8449   -0.0478   -0.2775 C   0  0  0  0  0  0  0  0  0  0  0  0
    4.1570   -0.9318   -1.0681 O   0  0  0  0  0  0  0  0  0  0  0  0
    4.7121    0.8174    0.3522 N   0  0  0  0  0  0  0  0  0  0  0  0
    6.0834    0.8037    0.2348 C   0  0  0  0  0  0  0  0  0  0  0  0
    6.9131   -0.0229   -0.5540 C   0  0  0  0  0  0  0  0  0  0  0  0
    8.1883    0.3946   -0.2677 C   0  0  0  0  0  0  0  0  0  0  0  0
    9.5287   -0.0006   -0.7311 C   0  0  0  0  0  0  0  0  0  0  0  0
    8.1313    1.4078    0.6364 O   0  0  0  0  0  0  0  0  0  0  0  0
    6.8106    1.6675    0.9517 N   0  0  0  0  0  0  0  0  0  0  0  0
   -0.8496   -1.9167   -1.8195 C   0  0  0  0  0  0  0  0  0  0  0  0
   -1.5415   -3.2325   -2.0812 C   0  0  0  0  0  0  0  0  0  0  0  0
   -0.0551   -3.1906   -1.9382 C   0  0  0  0  0  0  0  0  0  0  0  0
   -2.1959    1.5857   -1.4820 C   0  0  0  0  0  0  0  0  0  0  0  0
   -0.9843    1.8092   -0.8735 O   0  0  0  0  0  0  0  0  0  0  0  0
   -1.1393    2.7199    0.2188 C   0  0  0  0  0  0  0  0  0  0  0  0
   -1.5902    5.3866   -3.6373 H   0  0  0  0  0  0  0  0  0  0  0  0
   -2.4325    4.1491   -4.5728 H   0  0  0  0  0  0  0  0  0  0  0  0
   -3.2828    5.0532   -3.2530 H   0  0  0  0  0  0  0  0  0  0  0  0
   -4.3403    3.0205   -3.7304 H   0  0  0  0  0  0  0  0  0  0  0  0
   -5.6057    0.9918   -3.2311 H   0  0  0  0  0  0  0  0  0  0  0  0
   -4.7192   -0.6923   -1.6859 H   0  0  0  0  0  0  0  0  0  0  0  0
   -3.0109   -1.5962   -0.5523 H   0  0  0  0  0  0  0  0  0  0  0  0
   -1.4507   -1.8084    1.7919 H   0  0  0  0  0  0  0  0  0  0  0  0
   -0.9395   -0.1544    4.0131 H   0  0  0  0  0  0  0  0  0  0  0  0
   -2.2033   -0.1898    5.2482 H   0  0  0  0  0  0  0  0  0  0  0  0
   -2.4475    0.7190    3.7535 H   0  0  0  0  0  0  0  0  0  0  0  0
   -4.6585   -0.6475    3.5397 H   0  0  0  0  0  0  0  0  0  0  0  0
   -4.2939   -1.6995    4.9034 H   0  0  0  0  0  0  0  0  0  0  0  0
   -4.5785   -2.3950    3.2962 H   0  0  0  0  0  0  0  0  0  0  0  0
   -2.0750   -2.7554    5.2036 H   0  0  0  0  0  0  0  0  0  0  0  0
   -0.8415   -2.6736    3.9383 H   0  0  0  0  0  0  0  0  0  0  0  0
   -2.3072   -3.6227    3.6723 H   0  0  0  0  0  0  0  0  0  0  0  0
    1.3841   -0.5575   -1.5857 H   0  0  0  0  0  0  0  0  0  0  0  0
    1.7638   -1.7908   -0.3578 H   0  0  0  0  0  0  0  0  0  0  0  0
    2.1439    1.2345   -0.1135 H   0  0  0  0  0  0  0  0  0  0  0  0
    2.3725    0.1091    1.2363 H   0  0  0  0  0  0  0  0  0  0  0  0
    4.3641    1.5047    1.0085 H   0  0  0  0  0  0  0  0  0  0  0  0
    6.6285   -0.7930   -1.2506 H   0  0  0  0  0  0  0  0  0  0  0  0
   10.2599    0.7968   -0.5577 H   0  0  0  0  0  0  0  0  0  0  0  0
    9.8654   -0.8954   -0.1996 H   0  0  0  0  0  0  0  0  0  0  0  0
    9.5181   -0.2209   -1.8034 H   0  0  0  0  0  0  0  0  0  0  0  0
   -0.7845   -1.2301   -2.6630 H   0  0  0  0  0  0  0  0  0  0  0  0
   -2.1072   -3.6994   -1.2824 H   0  0  0  0  0  0  0  0  0  0  0  0
   -1.9641   -3.3885   -3.0666 H   0  0  0  0  0  0  0  0  0  0  0  0
    0.3646   -3.6408   -1.0475 H   0  0  0  0  0  0  0  0  0  0  0  0
    0.5489   -3.3292   -2.8291 H   0  0  0  0  0  0  0  0  0  0  0  0
   -1.3991    3.7243   -0.1269 H   0  0  0  0  0  0  0  0  0  0  0  0
   -1.8833    2.3655    0.9390 H   0  0  0  0  0  0  0  0  0  0  0  0
   -0.1764    2.7863    0.7344 H   0  0  0  0  0  0  0  0  0  0  0  0
  1  2  1  0
  2  3  1  0
  3  4  2  0
  4  5  1  0
  5  6  2  0
  6  7  1  0
  7  8  1  0
  8  9  1  0
  9 10  2  0
  9 11  1  0
 11 12  1  0
 12 13  1  0
 12 14  1  0
 12 15  1  0
  8 16  1  0
 16 17  1  0
 17 18  2  0
 17 19  1  0
 19 20  1  0
 20 21  1  0
 21 22  2  0
 21 23  1  0
 23 24  1  0
 24 25  1  0
 25 26  2  0
 26 27  1  0
 26 28  1  0
 28 29  1  0
 16 30  1  0
 30 31  1  0
 31 32  1  0
  7 33  2  0
 33 34  1  0
 34 35  1  0
 33  3  1  0
 29 24  2  0
 32 30  1  0
  1 36  1  0
  1 37  1  0
  1 38  1  0
  4 39  1  0
  5 40  1  0
  6 41  1  0
  8 42  1  0
 11 43  1  0
 13 44  1  0
 13 45  1  0
 13 46  1  0
 14 47  1  0
 14 48  1  0
 14 49  1  0
 15 50  1  0
 15 51  1  0
 15 52  1  0
 19 53  1  0
 19 54  1  0
 20 55  1  0
 20 56  1  0
 23 57  1  0
 25 58  1  0
 27 59  1  0
 27 60  1  0
 27 61  1  0
 30 62  1  0
 31 63  1  0
 31 64  1  0
 32 65  1  0
 32 66  1  0
 35 67  1  0
 35 68  1  0
 35 69  1  0
M  END
$$$$
