
     RDKit          3D

 28 28  0  0  0  0  0  0  0  0999 V2000
   -2.4281   -0.3834   -0.5258 C   0  0  0  0  0  0  0  0  0  0  0  0
   -1.8403   -1.6294    0.1484 C   0  0  0  0  0  0  0  0  0  0  0  0
   -2.1323   -1.6061    1.6549 C   0  0  0  0  0  0  0  0  0  0  0  0
   -2.5127   -2.8717   -0.4651 C   0  0  0  0  0  0  0  0  0  0  0  0
   -0.3123   -1.7178   -0.0625 C   0  0  0  0  0  0  0  0  0  0  0  0
    0.2189   -2.7607   -0.4596 O   0  0  0  0  0  0  0  0  0  0  0  0
    0.5441   -0.5090    0.2693 C   0  0  0  0  0  0  0  0  0  0  0  0
    1.0142    0.3429   -1.2606 S   0  0  0  0  0  0  0  0  0  0  0  0
    2.0665    1.6026   -0.5891 C   0  0  0  0  0  0  0  0  0  0  0  0
    2.8023    2.2988   -1.4713 N   0  0  0  0  0  0  0  0  0  0  0  0
    3.5946    3.2618   -0.9669 C   0  0  0  0  0  0  0  0  0  0  0  0
    3.6724    3.5540    0.3728 C   0  0  0  0  0  0  0  0  0  0  0  0
    2.8753    2.7899    1.1901 C   0  0  0  0  0  0  0  0  0  0  0  0
    2.0643    1.8139    0.7393 N   0  0  0  0  0  0  0  0  0  0  0  0
   -2.0543    0.5419   -0.0754 H   0  0  0  0  0  0  0  0  0  0  0  0
   -3.5205   -0.3653   -0.4384 H   0  0  0  0  0  0  0  0  0  0  0  0
   -2.1783   -0.3569   -1.5923 H   0  0  0  0  0  0  0  0  0  0  0  0
   -1.6782   -2.4678    2.1576 H   0  0  0  0  0  0  0  0  0  0  0  0
   -1.7332   -0.7054    2.1330 H   0  0  0  0  0  0  0  0  0  0  0  0
   -3.2103   -1.6314    1.8503 H   0  0  0  0  0  0  0  0  0  0  0  0
   -2.1522   -3.7946    0.0038 H   0  0  0  0  0  0  0  0  0  0  0  0
   -3.6008   -2.8398   -0.3383 H   0  0  0  0  0  0  0  0  0  0  0  0
   -2.3023   -2.9453   -1.5385 H   0  0  0  0  0  0  0  0  0  0  0  0
    1.4336   -0.8691    0.7980 H   0  0  0  0  0  0  0  0  0  0  0  0
    0.0059    0.1638    0.9410 H   0  0  0  0  0  0  0  0  0  0  0  0
    4.1831    3.8079   -1.6986 H   0  0  0  0  0  0  0  0  0  0  0  0
    4.3165    4.3324    0.7567 H   0  0  0  0  0  0  0  0  0  0  0  0
    2.8641    2.9439    2.2654 H   0  0  0  0  0  0  0  0  0  0  0  0
  1  2  1  0
  2  3  1  0
  2  4  1  0
  2  5  1  0
  5  6  2  0
  5  7  1  0
  7  8  1  0
  8  9  1  0
  9 10  2  0
 10 11  1  0
 11 12  2  0
 12 13  1  0
 13 14  2  0
 14  9  1  0
  1 15  1  0
  1 16  1  0
  1 17  1  0
  3 18  1  0
  3 19  1  0
  3 20  1  0
  4 21  1  0
  4 22  1  0
  4 23  1  0
  7 24  1  0
  7 25  1  0
 11 26  1  0
 12 27  1  0
 13 28  1  0
M  END
$$$$
