
     RDKit          3D

 48 51  0  0  0  0  0  0  0  0999 V2000
   -1.6074    0.0843    2.6613 C   0  0  0  0  0  0  0  0  0  0  0  0
   -1.1701   -1.3461    2.3930 C   0  0  0  0  0  0  0  0  0  0  0  0
   -1.1452   -1.6652    0.9835 N   0  0  0  0  0  0  0  0  0  0  0  0
   -2.1692   -2.2010    0.2475 C   0  0  0  0  0  0  0  0  0  0  0  0
   -3.7524   -2.5230    0.8612 S   0  0  0  0  0  0  0  0  0  0  0  0
   -4.7614   -1.8007   -0.4705 C   0  0  0  0  0  0  0  0  0  0  0  0
   -4.7309   -0.2897   -0.4487 C   0  0  0  0  0  0  0  0  0  0  0  0
   -3.8544    0.4159   -1.2902 C   0  0  0  0  0  0  0  0  0  0  0  0
   -3.8024    1.8096   -1.2480 C   0  0  0  0  0  0  0  0  0  0  0  0
   -4.6250    2.4993   -0.3663 C   0  0  0  0  0  0  0  0  0  0  0  0
   -4.5720    3.8370   -0.3231 F   0  0  0  0  0  0  0  0  0  0  0  0
   -5.4992    1.8222    0.4754 C   0  0  0  0  0  0  0  0  0  0  0  0
   -5.5523    0.4282    0.4367 C   0  0  0  0  0  0  0  0  0  0  0  0
   -1.7814   -2.3913   -0.9889 N   0  0  0  0  0  0  0  0  0  0  0  0
   -0.4847   -1.9611   -1.0824 N   0  0  0  0  0  0  0  0  0  0  0  0
   -0.1006   -1.5135    0.0976 C   0  0  0  0  0  0  0  0  0  0  0  0
    1.3111   -0.8865    0.3140 C   0  0  0  0  0  0  0  0  0  0  0  0
    1.8611   -0.2632    1.4370 C   0  0  0  0  0  0  0  0  0  0  0  0
    3.1016    0.1649    1.2189 N   0  0  0  0  0  0  0  0  0  0  0  0
    3.3112   -0.0418   -0.1138 N   0  0  0  0  0  0  0  0  0  0  0  0
    4.4093    0.6271   -0.7366 C   0  0  0  0  0  0  0  0  0  0  0  0
    4.4458    0.8814   -2.1132 C   0  0  0  0  0  0  0  0  0  0  0  0
    5.5328    1.5594   -2.6756 C   0  0  0  0  0  0  0  0  0  0  0  0
    6.5806    2.0017   -1.8713 C   0  0  0  0  0  0  0  0  0  0  0  0
    6.5411    1.7789   -0.4980 C   0  0  0  0  0  0  0  0  0  0  0  0
    5.4583    1.1032    0.0693 C   0  0  0  0  0  0  0  0  0  0  0  0
    2.3261   -0.8632   -0.6300 C   0  0  0  0  0  0  0  0  0  0  0  0
    2.4558   -1.5826   -1.9063 C   0  0  0  0  0  0  0  0  0  0  0  0
    1.9075   -2.8224   -1.8619 F   0  0  0  0  0  0  0  0  0  0  0  0
    3.7512   -1.7893   -2.2605 F   0  0  0  0  0  0  0  0  0  0  0  0
    1.8713   -0.9137   -2.9298 F   0  0  0  0  0  0  0  0  0  0  0  0
   -1.5819    0.2927    3.7353 H   0  0  0  0  0  0  0  0  0  0  0  0
   -2.6281    0.2599    2.3065 H   0  0  0  0  0  0  0  0  0  0  0  0
   -0.9558    0.8053    2.1576 H   0  0  0  0  0  0  0  0  0  0  0  0
   -1.8405   -2.0472    2.9008 H   0  0  0  0  0  0  0  0  0  0  0  0
   -0.1779   -1.5430    2.8066 H   0  0  0  0  0  0  0  0  0  0  0  0
   -4.4447   -2.1854   -1.4466 H   0  0  0  0  0  0  0  0  0  0  0  0
   -5.7951   -2.1392   -0.3341 H   0  0  0  0  0  0  0  0  0  0  0  0
   -3.2005   -0.1195   -1.9784 H   0  0  0  0  0  0  0  0  0  0  0  0
   -3.1258    2.3579   -1.8957 H   0  0  0  0  0  0  0  0  0  0  0  0
   -6.1315    2.3834    1.1559 H   0  0  0  0  0  0  0  0  0  0  0  0
   -6.2344   -0.0967    1.1026 H   0  0  0  0  0  0  0  0  0  0  0  0
    1.4406   -0.0898    2.4169 H   0  0  0  0  0  0  0  0  0  0  0  0
    3.6369    0.6070   -2.7815 H   0  0  0  0  0  0  0  0  0  0  0  0
    5.5551    1.7515   -3.7460 H   0  0  0  0  0  0  0  0  0  0  0  0
    7.4220    2.5289   -2.3137 H   0  0  0  0  0  0  0  0  0  0  0  0
    7.3514    2.1319    0.1349 H   0  0  0  0  0  0  0  0  0  0  0  0
    5.4541    0.9435    1.1465 H   0  0  0  0  0  0  0  0  0  0  0  0
  1  2  1  0
  2  3  1  0
  3  4  1  0
  4  5  1  0
  5  6  1  0
  6  7  1  0
  7  8  2  0
  8  9  1  0
  9 10  2  0
 10 11  1  0
 10 12  1  0
 12 13  2  0
  4 14  2  0
 14 15  1  0
 15 16  2  0
 16 17  1  0
 17 18  1  0
 18 19  2  0
 19 20  1  0
 20 21  1  0
 21 22  2  0
 22 23  1  0
 23 24  2  0
 24 25  1  0
 25 26  2  0
 20 27  1  0
 27 28  1  0
 28 29  1  0
 28 30  1  0
 28 31  1  0
 16  3  1  0
 27 17  2  0
 13  7  1  0
 26 21  1  0
  1 32  1  0
  1 33  1  0
  1 34  1  0
  2 35  1  0
  2 36  1  0
  6 37  1  0
  6 38  1  0
  8 39  1  0
  9 40  1  0
 12 41  1  0
 13 42  1  0
 18 43  1  0
 22 44  1  0
 23 45  1  0
 24 46  1  0
 25 47  1  0
 26 48  1  0
M  END
$$$$
