
     RDKit          3D

 46 49  0  0  0  0  0  0  0  0999 V2000
   -5.5213    3.1079   -0.7911 C   0  0  0  0  0  0  0  0  0  0  0  0
   -5.1357    1.6677   -1.0773 C   0  0  0  0  0  0  0  0  0  0  0  0
   -3.8639    1.4262   -0.4749 O   0  0  0  0  0  0  0  0  0  0  0  0
   -3.3318    0.1698   -0.6283 C   0  0  0  0  0  0  0  0  0  0  0  0
   -3.9261   -0.8925   -1.3048 C   0  0  0  0  0  0  0  0  0  0  0  0
   -3.2735   -2.1238   -1.3697 C   0  0  0  0  0  0  0  0  0  0  0  0
   -2.0243   -2.2930   -0.7653 C   0  0  0  0  0  0  0  0  0  0  0  0
   -1.3887   -1.2373   -0.0839 C   0  0  0  0  0  0  0  0  0  0  0  0
   -0.0705   -1.4449    0.5270 C   0  0  0  0  0  0  0  0  0  0  0  0
    0.1057   -2.5927    1.2252 N   0  0  0  0  0  0  0  0  0  0  0  0
    1.3381   -2.7842    1.7593 C   0  0  0  0  0  0  0  0  0  0  0  0
    1.5475   -4.0362    2.5380 C   0  0  0  0  0  0  0  0  0  0  0  0
    0.4535   -4.8510    2.6531 N   0  0  0  0  0  0  0  0  0  0  0  0
    2.6235   -4.3220    3.0480 O   0  0  0  0  0  0  0  0  0  0  0  0
    2.3468   -1.8826    1.5938 C   0  0  0  0  0  0  0  0  0  0  0  0
    3.6669   -1.8601    2.0142 N   0  0  0  0  0  0  0  0  0  0  0  0
    4.2673   -0.6861    1.5398 C   0  0  0  0  0  0  0  0  0  0  0  0
    5.4309   -0.3947    1.7615 O   0  0  0  0  0  0  0  0  0  0  0  0
    3.2609    0.0210    0.8137 N   0  0  0  0  0  0  0  0  0  0  0  0
    3.4001    1.2707    0.1500 C   0  0  0  0  0  0  0  0  0  0  0  0
    2.3018    1.9967   -0.3428 C   0  0  0  0  0  0  0  0  0  0  0  0
    2.4614    3.2273   -0.9939 C   0  0  0  0  0  0  0  0  0  0  0  0
    3.7297    3.7661   -1.1665 C   0  0  0  0  0  0  0  0  0  0  0  0
    4.8302    3.0705   -0.6830 C   0  0  0  0  0  0  0  0  0  0  0  0
    6.4077    3.7292   -0.8945 Cl  0  0  0  0  0  0  0  0  0  0  0  0
    4.6711    1.8424   -0.0318 C   0  0  0  0  0  0  0  0  0  0  0  0
    2.0733   -0.7534    0.8611 C   0  0  0  0  0  0  0  0  0  0  0  0
    0.8857   -0.5205    0.2980 N   0  0  0  0  0  0  0  0  0  0  0  0
   -2.0745   -0.0140   -0.0234 C   0  0  0  0  0  0  0  0  0  0  0  0
   -1.5382    1.0463    0.6703 O   0  0  0  0  0  0  0  0  0  0  0  0
   -4.7712    3.7953   -1.1960 H   0  0  0  0  0  0  0  0  0  0  0  0
   -5.5682    3.2873    0.2882 H   0  0  0  0  0  0  0  0  0  0  0  0
   -6.4934    3.3462   -1.2316 H   0  0  0  0  0  0  0  0  0  0  0  0
   -5.0768    1.5216   -2.1620 H   0  0  0  0  0  0  0  0  0  0  0  0
   -5.8925    1.0022   -0.6465 H   0  0  0  0  0  0  0  0  0  0  0  0
   -4.8935   -0.8005   -1.7868 H   0  0  0  0  0  0  0  0  0  0  0  0
   -3.7365   -2.9563   -1.8950 H   0  0  0  0  0  0  0  0  0  0  0  0
   -1.5347   -3.2635   -0.8375 H   0  0  0  0  0  0  0  0  0  0  0  0
   -0.4398   -4.5645    2.2686 H   0  0  0  0  0  0  0  0  0  0  0  0
    0.5182   -5.6925    3.2085 H   0  0  0  0  0  0  0  0  0  0  0  0
    4.1273   -2.5732    2.5678 H   0  0  0  0  0  0  0  0  0  0  0  0
    1.2805    1.6501   -0.2186 H   0  0  0  0  0  0  0  0  0  0  0  0
    1.5870    3.7608   -1.3586 H   0  0  0  0  0  0  0  0  0  0  0  0
    3.8529    4.7198   -1.6712 H   0  0  0  0  0  0  0  0  0  0  0  0
    5.5706    1.3409    0.3120 H   0  0  0  0  0  0  0  0  0  0  0  0
   -2.1832    1.7736    0.5690 H   0  0  0  0  0  0  0  0  0  0  0  0
  1  2  1  0
  2  3  1  0
  3  4  1  0
  4  5  2  0
  5  6  1  0
  6  7  2  0
  7  8  1  0
  8  9  1  0
  9 10  2  0
 10 11  1  0
 11 12  1  0
 12 13  1  0
 12 14  2  0
 11 15  2  0
 15 16  1  0
 16 17  1  0
 17 18  2  0
 17 19  1  0
 19 20  1  0
 20 21  2  0
 21 22  1  0
 22 23  2  0
 23 24  1  0
 24 25  1  0
 24 26  2  0
 19 27  1  0
 27 28  2  0
  8 29  2  0
 29 30  1  0
 29  4  1  0
 28  9  1  0
 27 15  1  0
 26 20  1  0
  1 31  1  0
  1 32  1  0
  1 33  1  0
  2 34  1  0
  2 35  1  0
  5 36  1  0
  6 37  1  0
  7 38  1  0
 13 39  1  0
 13 40  1  0
 16 41  1  0
 21 42  1  0
 22 43  1  0
 23 44  1  0
 26 45  1  0
 30 46  1  0
M  END
$$$$
