
     RDKit          3D

 55 60  0  0  0  0  0  0  0  0999 V2000
    5.0485    0.1293    1.6341 O   0  0  0  0  0  0  0  0  0  0  0  0
    4.1081    0.8543    1.3143 C   0  0  0  0  0  0  0  0  0  0  0  0
    4.2449    2.3005    1.4070 C   0  0  0  0  0  0  0  0  0  0  0  0
    5.4318    3.0669    1.2079 C   0  0  0  0  0  0  0  0  0  0  0  0
    5.0986    4.3802    1.4373 C   0  0  0  0  0  0  0  0  0  0  0  0
    3.7931    4.4791    1.7938 O   0  0  0  0  0  0  0  0  0  0  0  0
    3.2901    3.2181    1.7985 C   0  0  0  0  0  0  0  0  0  0  0  0
    2.8952    0.3188    0.8630 N   0  0  0  0  0  0  0  0  0  0  0  0
    2.7312   -1.1288    0.9602 C   0  0  0  0  0  0  0  0  0  0  0  0
    1.2632   -1.5236    0.8624 C   0  0  0  0  0  0  0  0  0  0  0  0
    0.6755   -1.1369   -0.5208 C   0  0  0  0  0  0  0  0  0  0  0  0
    1.3291    0.1681   -1.0561 C   0  0  0  0  0  0  0  0  0  0  0  0
    1.9343    1.0462    0.0366 C   0  0  0  0  0  0  0  0  0  0  0  0
    1.1318   -2.2243   -1.3784 O   0  0  0  0  0  0  0  0  0  0  0  0
    0.4681   -2.4425   -2.5475 C   0  0  0  0  0  0  0  0  0  0  0  0
    1.0880   -3.3054   -3.4516 C   0  0  0  0  0  0  0  0  0  0  0  0
    0.4933   -3.5731   -4.6873 C   0  0  0  0  0  0  0  0  0  0  0  0
   -0.7238   -2.9766   -5.0151 C   0  0  0  0  0  0  0  0  0  0  0  0
   -1.4494   -3.3014   -6.5399 Cl  0  0  0  0  0  0  0  0  0  0  0  0
   -1.3558   -2.1232   -4.1150 C   0  0  0  0  0  0  0  0  0  0  0  0
   -0.7556   -1.8721   -2.8767 C   0  0  0  0  0  0  0  0  0  0  0  0
   -1.4064   -0.9939   -1.8976 C   0  0  0  0  0  0  0  0  0  0  0  0
   -2.3072   -0.2410   -2.2591 O   0  0  0  0  0  0  0  0  0  0  0  0
   -0.8774   -1.0737   -0.4687 C   0  0  0  0  0  0  0  0  0  0  0  0
   -1.4615    0.0429    0.3862 C   0  0  0  0  0  0  0  0  0  0  0  0
   -2.6248   -0.6959    0.9579 C   0  0  0  0  0  0  0  0  0  0  0  0
   -3.7365   -0.0053    1.6538 C   0  0  0  0  0  0  0  0  0  0  0  0
   -3.7187    1.3769    1.8756 C   0  0  0  0  0  0  0  0  0  0  0  0
   -4.7849    1.9933    2.5398 C   0  0  0  0  0  0  0  0  0  0  0  0
   -5.8651    1.2310    2.9824 C   0  0  0  0  0  0  0  0  0  0  0  0
   -7.1716    1.9948    3.7994 Cl  0  0  0  0  0  0  0  0  0  0  0  0
   -5.8905   -0.1447    2.7678 C   0  0  0  0  0  0  0  0  0  0  0  0
   -4.8268   -0.7626    2.1045 C   0  0  0  0  0  0  0  0  0  0  0  0
   -2.5638   -1.9832    0.8293 N   0  0  0  0  0  0  0  0  0  0  0  0
   -1.3874   -2.2859    0.1106 O   0  0  0  0  0  0  0  0  0  0  0  0
    6.4074    2.6912    0.9303 H   0  0  0  0  0  0  0  0  0  0  0  0
    5.6484    5.3108    1.4051 H   0  0  0  0  0  0  0  0  0  0  0  0
    2.2585    3.1388    2.1103 H   0  0  0  0  0  0  0  0  0  0  0  0
    3.3228   -1.5913    0.1609 H   0  0  0  0  0  0  0  0  0  0  0  0
    3.1459   -1.4725    1.9150 H   0  0  0  0  0  0  0  0  0  0  0  0
    1.1799   -2.6062    1.0220 H   0  0  0  0  0  0  0  0  0  0  0  0
    0.7238   -1.0377    1.6820 H   0  0  0  0  0  0  0  0  0  0  0  0
    0.6096    0.7640   -1.6290 H   0  0  0  0  0  0  0  0  0  0  0  0
    2.1295   -0.0866   -1.7648 H   0  0  0  0  0  0  0  0  0  0  0  0
    1.1512    1.4233    0.7013 H   0  0  0  0  0  0  0  0  0  0  0  0
    2.4174    1.9061   -0.4374 H   0  0  0  0  0  0  0  0  0  0  0  0
    2.0391   -3.7682   -3.1979 H   0  0  0  0  0  0  0  0  0  0  0  0
    0.9844   -4.2444   -5.3876 H   0  0  0  0  0  0  0  0  0  0  0  0
   -2.3101   -1.6660   -4.3662 H   0  0  0  0  0  0  0  0  0  0  0  0
   -0.8226    0.3436    1.2192 H   0  0  0  0  0  0  0  0  0  0  0  0
   -1.7547    0.9314   -0.1772 H   0  0  0  0  0  0  0  0  0  0  0  0
   -2.8917    1.9975    1.5451 H   0  0  0  0  0  0  0  0  0  0  0  0
   -4.7675    3.0674    2.7084 H   0  0  0  0  0  0  0  0  0  0  0  0
   -6.7310   -0.7425    3.1110 H   0  0  0  0  0  0  0  0  0  0  0  0
   -4.8577   -1.8386    1.9406 H   0  0  0  0  0  0  0  0  0  0  0  0
  1  2  2  0
  2  3  1  0
  3  4  1  0
  4  5  2  0
  5  6  1  0
  6  7  1  0
  2  8  1  0
  8  9  1  0
  9 10  1  0
 10 11  1  0
 11 12  1  0
 12 13  1  0
 11 14  1  0
 14 15  1  0
 15 16  2  0
 16 17  1  0
 17 18  2  0
 18 19  1  0
 18 20  1  0
 20 21  2  0
 21 22  1  0
 22 23  2  0
 22 24  1  0
 24 25  1  0
 25 26  1  0
 26 27  1  0
 27 28  2  0
 28 29  1  0
 29 30  2  0
 30 31  1  0
 30 32  1  0
 32 33  2  0
 26 34  2  0
 34 35  1  0
  7  3  2  0
 13  8  1  0
 21 15  1  0
 35 24  1  0
 24 11  1  0
 33 27  1  0
  4 36  1  0
  5 37  1  0
  7 38  1  0
  9 39  1  0
  9 40  1  0
 10 41  1  0
 10 42  1  0
 12 43  1  0
 12 44  1  0
 13 45  1  0
 13 46  1  0
 16 47  1  0
 17 48  1  0
 20 49  1  0
 25 50  1  0
 25 51  1  0
 28 52  1  0
 29 53  1  0
 32 54  1  0
 33 55  1  0
M  END
$$$$
