
     RDKit          3D

 46 48  0  0  0  0  0  0  0  0999 V2000
   -7.7169   -1.8703    2.2741 C   0  0  0  0  0  0  0  0  0  0  0  0
   -7.3066   -0.8335    1.3913 O   0  0  0  0  0  0  0  0  0  0  0  0
   -6.0471   -0.9336    0.8641 C   0  0  0  0  0  0  0  0  0  0  0  0
   -5.1586   -1.9868    1.0665 C   0  0  0  0  0  0  0  0  0  0  0  0
   -3.8985   -1.9632    0.4628 C   0  0  0  0  0  0  0  0  0  0  0  0
   -3.5093   -0.8819   -0.3390 C   0  0  0  0  0  0  0  0  0  0  0  0
   -2.1904   -0.8924   -0.9891 C   0  0  0  0  0  0  0  0  0  0  0  0
   -0.9952   -0.8446   -0.3836 C   0  0  0  0  0  0  0  0  0  0  0  0
    0.4935   -0.8363   -1.2916 S   0  0  0  0  0  0  0  0  0  0  0  0
    1.4417   -0.7378    0.1526 C   0  0  0  0  0  0  0  0  0  0  0  0
    2.7743   -0.6627    0.2407 C   0  0  0  0  0  0  0  0  0  0  0  0
    3.7107   -0.7194   -0.9136 C   0  0  0  0  0  0  0  0  0  0  0  0
    3.5205   -1.4551   -1.8740 O   0  0  0  0  0  0  0  0  0  0  0  0
    4.9578    0.0894   -0.8218 C   0  0  0  0  0  0  0  0  0  0  0  0
    6.0666   -0.3145   -1.5749 C   0  0  0  0  0  0  0  0  0  0  0  0
    7.2580    0.4131   -1.5234 C   0  0  0  0  0  0  0  0  0  0  0  0
    7.3573    1.5536   -0.7185 C   0  0  0  0  0  0  0  0  0  0  0  0
    8.6253    2.3557   -0.6931 C   0  0  0  0  0  0  0  0  0  0  0  0
    6.2377    1.9737    0.0098 C   0  0  0  0  0  0  0  0  0  0  0  0
    5.0437    1.2471   -0.0386 C   0  0  0  0  0  0  0  0  0  0  0  0
    0.6474   -0.7054    1.2616 N   0  0  0  0  0  0  0  0  0  0  0  0
   -0.7122   -0.7673    1.0784 C   0  0  0  0  0  0  0  0  0  0  0  0
   -1.5152   -0.7597    1.9957 O   0  0  0  0  0  0  0  0  0  0  0  0
   -4.4087    0.1788   -0.5558 C   0  0  0  0  0  0  0  0  0  0  0  0
   -3.9663    1.1910   -1.3720 O   0  0  0  0  0  0  0  0  0  0  0  0
   -4.8259    2.3092   -1.5493 C   0  0  0  0  0  0  0  0  0  0  0  0
   -5.6696    0.1414    0.0508 C   0  0  0  0  0  0  0  0  0  0  0  0
   -8.7242   -1.6292    2.6272 H   0  0  0  0  0  0  0  0  0  0  0  0
   -7.7681   -2.8327    1.7545 H   0  0  0  0  0  0  0  0  0  0  0  0
   -7.0619   -1.9269    3.1500 H   0  0  0  0  0  0  0  0  0  0  0  0
   -5.4087   -2.8402    1.6871 H   0  0  0  0  0  0  0  0  0  0  0  0
   -3.2173   -2.7937    0.6338 H   0  0  0  0  0  0  0  0  0  0  0  0
   -2.2444   -0.9026   -2.0762 H   0  0  0  0  0  0  0  0  0  0  0  0
    3.2491   -0.5625    1.2107 H   0  0  0  0  0  0  0  0  0  0  0  0
    6.0066   -1.1982   -2.2081 H   0  0  0  0  0  0  0  0  0  0  0  0
    8.1063    0.0843   -2.1203 H   0  0  0  0  0  0  0  0  0  0  0  0
    8.7535    2.8525    0.2743 H   0  0  0  0  0  0  0  0  0  0  0  0
    8.6036    3.1148   -1.4811 H   0  0  0  0  0  0  0  0  0  0  0  0
    9.4978    1.7116   -0.8452 H   0  0  0  0  0  0  0  0  0  0  0  0
    6.2870    2.8776    0.6142 H   0  0  0  0  0  0  0  0  0  0  0  0
    4.1902    1.6184    0.5214 H   0  0  0  0  0  0  0  0  0  0  0  0
    1.0012   -0.6528    2.2055 H   0  0  0  0  0  0  0  0  0  0  0  0
   -5.0327    2.8055   -0.5953 H   0  0  0  0  0  0  0  0  0  0  0  0
   -4.3092    3.0284   -2.1921 H   0  0  0  0  0  0  0  0  0  0  0  0
   -5.7521    2.0179   -2.0552 H   0  0  0  0  0  0  0  0  0  0  0  0
   -6.3911    0.9394   -0.0893 H   0  0  0  0  0  0  0  0  0  0  0  0
  1  2  1  0
  2  3  1  0
  3  4  2  0
  4  5  1  0
  5  6  2  0
  6  7  1  0
  7  8  2  3
  8  9  1  0
  9 10  1  0
 10 11  2  3
 11 12  1  0
 12 13  2  0
 12 14  1  0
 14 15  2  0
 15 16  1  0
 16 17  2  0
 17 18  1  0
 17 19  1  0
 19 20  2  0
 10 21  1  0
 21 22  1  0
 22 23  2  0
  6 24  1  0
 24 25  1  0
 25 26  1  0
 24 27  2  0
 27  3  1  0
 22  8  1  0
 20 14  1  0
  1 28  1  0
  1 29  1  0
  1 30  1  0
  4 31  1  0
  5 32  1  0
  7 33  1  0
 11 34  1  0
 15 35  1  0
 16 36  1  0
 18 37  1  0
 18 38  1  0
 18 39  1  0
 19 40  1  0
 20 41  1  0
 21 42  1  0
 26 43  1  0
 26 44  1  0
 26 45  1  0
 27 46  1  0
M  END
$$$$
