
     RDKit          3D

 30 31  0  0  0  0  0  0  0  0999 V2000
   -2.8155    1.1157    1.2318 C   0  0  0  0  0  0  0  0  0  0  0  0
   -3.2870   -0.1788    0.5624 C   0  0  0  0  0  0  0  0  0  0  0  0
   -4.7473   -0.4356    0.9385 C   0  0  0  0  0  0  0  0  0  0  0  0
   -2.5466   -1.3053    1.0551 O   0  0  0  0  0  0  0  0  0  0  0  0
   -1.3400   -1.5623    0.5316 C   0  0  0  0  0  0  0  0  0  0  0  0
   -0.5900   -2.4450    0.9145 O   0  0  0  0  0  0  0  0  0  0  0  0
   -0.9789   -0.6538   -0.6107 C   0  0  0  0  0  0  0  0  0  0  0  0
    0.2087   -0.1565   -0.8120 N   0  0  0  0  0  0  0  0  0  0  0  0
    1.1932   -0.5236    0.0586 N   0  0  0  0  0  0  0  0  0  0  0  0
    2.5101   -0.0812   -0.2035 C   0  0  0  0  0  0  0  0  0  0  0  0
    3.5693   -0.6054    0.5518 C   0  0  0  0  0  0  0  0  0  0  0  0
    4.8779   -0.1488    0.3695 C   0  0  0  0  0  0  0  0  0  0  0  0
    5.1422    0.8560   -0.5578 C   0  0  0  0  0  0  0  0  0  0  0  0
    4.0979    1.4093   -1.2942 C   0  0  0  0  0  0  0  0  0  0  0  0
    2.7905    0.9508   -1.1085 C   0  0  0  0  0  0  0  0  0  0  0  0
   -2.1055   -0.2459   -1.5196 C   0  0  0  0  0  0  0  0  0  0  0  0
   -1.9720   -0.1428   -2.7249 O   0  0  0  0  0  0  0  0  0  0  0  0
   -3.2618   -0.0508   -0.8663 O   0  0  0  0  0  0  0  0  0  0  0  0
   -1.7722    1.3416    0.9901 H   0  0  0  0  0  0  0  0  0  0  0  0
   -2.8775    1.0402    2.3227 H   0  0  0  0  0  0  0  0  0  0  0  0
   -3.4098    1.9721    0.8954 H   0  0  0  0  0  0  0  0  0  0  0  0
   -5.3987    0.3744    0.5930 H   0  0  0  0  0  0  0  0  0  0  0  0
   -5.1047   -1.3596    0.4685 H   0  0  0  0  0  0  0  0  0  0  0  0
   -4.8672   -0.5572    2.0204 H   0  0  0  0  0  0  0  0  0  0  0  0
    1.1739   -1.4712    0.4573 H   0  0  0  0  0  0  0  0  0  0  0  0
    3.3828   -1.3787    1.2925 H   0  0  0  0  0  0  0  0  0  0  0  0
    5.6877   -0.5745    0.9559 H   0  0  0  0  0  0  0  0  0  0  0  0
    6.1585    1.2131   -0.7010 H   0  0  0  0  0  0  0  0  0  0  0  0
    4.2950    2.2012   -2.0117 H   0  0  0  0  0  0  0  0  0  0  0  0
    1.9869    1.4027   -1.6844 H   0  0  0  0  0  0  0  0  0  0  0  0
  1  2  1  0
  2  3  1  0
  2  4  1  0
  4  5  1  0
  5  6  2  0
  5  7  1  0
  7  8  2  3
  8  9  1  0
  9 10  1  0
 10 11  2  0
 11 12  1  0
 12 13  2  0
 13 14  1  0
 14 15  2  0
  7 16  1  0
 16 17  2  0
 16 18  1  0
 18  2  1  0
 15 10  1  0
  1 19  1  0
  1 20  1  0
  1 21  1  0
  3 22  1  0
  3 23  1  0
  3 24  1  0
  9 25  1  0
 11 26  1  0
 12 27  1  0
 13 28  1  0
 14 29  1  0
 15 30  1  0
M  END
$$$$
