
     RDKit          3D

 40 42  0  0  0  0  0  0  0  0999 V2000
    2.8050    3.6032   -1.2315 C   0  0  0  0  0  0  0  0  0  0  0  0
    1.9349    4.0860   -0.0835 C   0  0  0  0  0  0  0  0  0  0  0  0
    0.1592    3.8539   -0.4344 S   0  0  0  0  0  0  0  0  0  0  0  0
   -0.0495    2.1047   -0.1214 C   0  0  0  0  0  0  0  0  0  0  0  0
   -1.2686    1.5296   -0.4101 C   0  0  0  0  0  0  0  0  0  0  0  0
   -1.4122    0.1790   -0.1657 C   0  0  0  0  0  0  0  0  0  0  0  0
   -2.6143   -0.4738   -0.4143 N   0  0  0  0  0  0  0  0  0  0  0  0
   -3.4017   -0.1299   -1.6120 C   0  0  0  0  0  0  0  0  0  0  0  0
   -3.7863   -1.3963   -2.3965 C   0  0  0  0  0  0  0  0  0  0  0  0
   -4.5253   -2.3515   -1.6242 O   0  0  0  0  0  0  0  0  0  0  0  0
   -4.1207   -2.4052   -0.2464 C   0  0  0  0  0  0  0  0  0  0  0  0
   -2.6989   -1.8815    0.0095 C   0  0  0  0  0  0  0  0  0  0  0  0
   -0.3972   -0.5222    0.3663 N   0  0  0  0  0  0  0  0  0  0  0  0
    0.7607    0.1135    0.6252 C   0  0  0  0  0  0  0  0  0  0  0  0
    1.8688   -0.6777    1.2002 C   0  0  0  0  0  0  0  0  0  0  0  0
    3.1162   -0.0925    1.4956 C   0  0  0  0  0  0  0  0  0  0  0  0
    4.1658   -0.8394    2.0407 C   0  0  0  0  0  0  0  0  0  0  0  0
    3.9928   -2.1944    2.3045 C   0  0  0  0  0  0  0  0  0  0  0  0
    2.7728   -2.8018    2.0241 C   0  0  0  0  0  0  0  0  0  0  0  0
    1.7259   -2.0513    1.4786 C   0  0  0  0  0  0  0  0  0  0  0  0
    0.9765    1.4162    0.3931 N   0  0  0  0  0  0  0  0  0  0  0  0
    3.8591    3.7906   -1.0007 H   0  0  0  0  0  0  0  0  0  0  0  0
    2.6957    2.5294   -1.4120 H   0  0  0  0  0  0  0  0  0  0  0  0
    2.5728    4.1358   -2.1604 H   0  0  0  0  0  0  0  0  0  0  0  0
    2.2142    3.6040    0.8586 H   0  0  0  0  0  0  0  0  0  0  0  0
    2.0966    5.1607    0.0528 H   0  0  0  0  0  0  0  0  0  0  0  0
   -2.0859    2.1267   -0.7913 H   0  0  0  0  0  0  0  0  0  0  0  0
   -4.3110    0.3839   -1.2796 H   0  0  0  0  0  0  0  0  0  0  0  0
   -2.8617    0.5380   -2.2925 H   0  0  0  0  0  0  0  0  0  0  0  0
   -2.8886   -1.8961   -2.7798 H   0  0  0  0  0  0  0  0  0  0  0  0
   -4.4010   -1.1281   -3.2619 H   0  0  0  0  0  0  0  0  0  0  0  0
   -4.8486   -1.8218    0.3295 H   0  0  0  0  0  0  0  0  0  0  0  0
   -4.2042   -3.4467    0.0796 H   0  0  0  0  0  0  0  0  0  0  0  0
   -2.4777   -1.9753    1.0793 H   0  0  0  0  0  0  0  0  0  0  0  0
   -1.9796   -2.4885   -0.5553 H   0  0  0  0  0  0  0  0  0  0  0  0
    3.2799    0.9661    1.3004 H   0  0  0  0  0  0  0  0  0  0  0  0
    5.1162   -0.3590    2.2578 H   0  0  0  0  0  0  0  0  0  0  0  0
    4.8070   -2.7760    2.7285 H   0  0  0  0  0  0  0  0  0  0  0  0
    2.6312   -3.8599    2.2281 H   0  0  0  0  0  0  0  0  0  0  0  0
    0.7819   -2.5523    1.2692 H   0  0  0  0  0  0  0  0  0  0  0  0
  1  2  1  0
  2  3  1  0
  3  4  1  0
  4  5  2  0
  5  6  1  0
  6  7  1  0
  7  8  1  0
  8  9  1  0
  9 10  1  0
 10 11  1  0
 11 12  1  0
  6 13  2  0
 13 14  1  0
 14 15  1  0
 15 16  2  0
 16 17  1  0
 17 18  2  0
 18 19  1  0
 19 20  2  0
 14 21  2  0
 21  4  1  0
 12  7  1  0
 20 15  1  0
  1 22  1  0
  1 23  1  0
  1 24  1  0
  2 25  1  0
  2 26  1  0
  5 27  1  0
  8 28  1  0
  8 29  1  0
  9 30  1  0
  9 31  1  0
 11 32  1  0
 11 33  1  0
 12 34  1  0
 12 35  1  0
 16 36  1  0
 17 37  1  0
 18 38  1  0
 19 39  1  0
 20 40  1  0
M  END
$$$$
