
     RDKit          3D

 49 52  0  0  0  0  0  0  0  0999 V2000
    0.0542    4.5547    0.9484 O   0  0  0  0  0  0  0  0  0  0  0  0
   -0.3860    3.8341    0.0722 C   0  0  0  0  0  0  0  0  0  0  0  0
    0.2386    3.6966   -1.1091 O   0  0  0  0  0  0  0  0  0  0  0  0
   -1.6740    3.1077    0.1158 C   0  0  0  0  0  0  0  0  0  0  0  0
   -2.7424    3.8621    0.6417 C   0  0  0  0  0  0  0  0  0  0  0  0
   -4.0449    3.3780    0.5960 C   0  0  0  0  0  0  0  0  0  0  0  0
   -4.2908    2.1524   -0.0071 C   0  0  0  0  0  0  0  0  0  0  0  0
   -3.2254    1.3926   -0.5163 C   0  0  0  0  0  0  0  0  0  0  0  0
   -3.5395    0.1176   -1.2014 C   0  0  0  0  0  0  0  0  0  0  0  0
   -4.6834   -0.3254   -1.2084 O   0  0  0  0  0  0  0  0  0  0  0  0
   -2.4517   -0.6009   -1.8929 C   0  0  0  0  0  0  0  0  0  0  0  0
   -2.7563   -1.7005   -2.7066 C   0  0  0  0  0  0  0  0  0  0  0  0
   -1.7333   -2.3856   -3.3552 C   0  0  0  0  0  0  0  0  0  0  0  0
   -0.4153   -1.9690   -3.1925 C   0  0  0  0  0  0  0  0  0  0  0  0
   -0.1173   -0.8747   -2.3722 C   0  0  0  0  0  0  0  0  0  0  0  0
   -1.1293   -0.1780   -1.6907 C   0  0  0  0  0  0  0  0  0  0  0  0
   -0.8591    0.9266   -0.8431 N   0  0  0  0  0  0  0  0  0  0  0  0
    0.3539    0.7860    0.0224 C   0  0  0  0  0  0  0  0  0  0  0  0
    0.2675   -0.4262    0.9848 C   0  0  0  0  0  0  0  0  0  0  0  0
   -0.7839   -0.2247    1.9436 O   0  0  0  0  0  0  0  0  0  0  0  0
    1.5879   -0.6136    1.7656 C   0  0  0  0  0  0  0  0  0  0  0  0
    2.7595   -0.8729    0.9045 N   0  0  0  0  0  0  0  0  0  0  0  0
    2.7771   -2.2502    0.3822 C   0  0  0  0  0  0  0  0  0  0  0  0
    3.4168   -3.1108    1.4629 C   0  0  0  0  0  0  0  0  0  0  0  0
    4.1985   -2.1395    2.3353 C   0  0  0  0  0  0  0  0  0  0  0  0
    4.0125   -0.7826    1.6748 C   0  0  0  0  0  0  0  0  0  0  0  0
   -1.8805    1.8098   -0.4054 C   0  0  0  0  0  0  0  0  0  0  0  0
    1.0308    4.2678   -1.0378 H   0  0  0  0  0  0  0  0  0  0  0  0
   -2.5579    4.8503    1.0623 H   0  0  0  0  0  0  0  0  0  0  0  0
   -4.8664    3.9692    0.9932 H   0  0  0  0  0  0  0  0  0  0  0  0
   -5.3134    1.7876   -0.0890 H   0  0  0  0  0  0  0  0  0  0  0  0
   -3.7890   -2.0175   -2.8361 H   0  0  0  0  0  0  0  0  0  0  0  0
   -1.9651   -3.2354   -3.9925 H   0  0  0  0  0  0  0  0  0  0  0  0
    0.3863   -2.4903   -3.7108 H   0  0  0  0  0  0  0  0  0  0  0  0
    0.9223   -0.5674   -2.2964 H   0  0  0  0  0  0  0  0  0  0  0  0
    1.2435    0.7288   -0.6136 H   0  0  0  0  0  0  0  0  0  0  0  0
    0.5033    1.6685    0.6483 H   0  0  0  0  0  0  0  0  0  0  0  0
    0.0260   -1.3499    0.4516 H   0  0  0  0  0  0  0  0  0  0  0  0
   -1.6140   -0.1834    1.4363 H   0  0  0  0  0  0  0  0  0  0  0  0
    1.7561    0.3091    2.3384 H   0  0  0  0  0  0  0  0  0  0  0  0
    1.4519   -1.3986    2.5214 H   0  0  0  0  0  0  0  0  0  0  0  0
    1.7972   -2.6295    0.0774 H   0  0  0  0  0  0  0  0  0  0  0  0
    3.4076   -2.2676   -0.5160 H   0  0  0  0  0  0  0  0  0  0  0  0
    4.0680   -3.8763    1.0285 H   0  0  0  0  0  0  0  0  0  0  0  0
    2.6531   -3.6194    2.0621 H   0  0  0  0  0  0  0  0  0  0  0  0
    5.2560   -2.4140    2.4025 H   0  0  0  0  0  0  0  0  0  0  0  0
    3.7866   -2.1370    3.3511 H   0  0  0  0  0  0  0  0  0  0  0  0
    4.0270    0.0419    2.3960 H   0  0  0  0  0  0  0  0  0  0  0  0
    4.8370   -0.6004    0.9739 H   0  0  0  0  0  0  0  0  0  0  0  0
  1  2  2  0
  2  3  1  0
  2  4  1  0
  4  5  2  0
  5  6  1  0
  6  7  2  0
  7  8  1  0
  8  9  1  0
  9 10  2  0
  9 11  1  0
 11 12  2  0
 12 13  1  0
 13 14  2  0
 14 15  1  0
 15 16  2  0
 16 17  1  0
 17 18  1  0
 18 19  1  0
 19 20  1  0
 19 21  1  0
 21 22  1  0
 22 23  1  0
 23 24  1  0
 24 25  1  0
 25 26  1  0
 17 27  1  0
 27  4  1  0
 27  8  2  0
 16 11  1  0
 26 22  1  0
  3 28  1  0
  5 29  1  0
  6 30  1  0
  7 31  1  0
 12 32  1  0
 13 33  1  0
 14 34  1  0
 15 35  1  0
 18 36  1  0
 18 37  1  0
 19 38  1  0
 20 39  1  0
 21 40  1  0
 21 41  1  0
 23 42  1  0
 23 43  1  0
 24 44  1  0
 24 45  1  0
 25 46  1  0
 25 47  1  0
 26 48  1  0
 26 49  1  0
M  END
$$$$
