
     RDKit          3D

 39 41  0  0  0  0  0  0  0  0999 V2000
   -4.7712   -0.5517    4.7141 C   0  0  0  0  0  0  0  0  0  0  0  0
   -3.3561   -0.4322    4.6399 O   0  0  0  0  0  0  0  0  0  0  0  0
   -2.7406   -1.0090    3.5635 C   0  0  0  0  0  0  0  0  0  0  0  0
   -3.3778   -1.6746    2.5133 C   0  0  0  0  0  0  0  0  0  0  0  0
   -2.6262   -2.2186    1.4667 C   0  0  0  0  0  0  0  0  0  0  0  0
   -1.2349   -2.0868    1.4713 C   0  0  0  0  0  0  0  0  0  0  0  0
   -0.2867   -2.7920    0.1480 S   0  0  0  0  0  6  0  0  0  0  0  0
   -0.9758   -3.9904   -0.2846 O   0  0  0  0  0  0  0  0  0  0  0  0
    1.1065   -2.8337    0.5345 O   0  0  0  0  0  0  0  0  0  0  0  0
   -0.4930   -1.6650   -1.0987 N   0  0  0  0  0  0  0  0  0  0  0  0
    0.3174   -0.4965   -1.0777 C   0  0  0  0  0  0  0  0  0  0  0  0
   -0.1225    0.6319   -0.3897 C   0  0  0  0  0  0  0  0  0  0  0  0
    0.6868    1.7649   -0.3332 C   0  0  0  0  0  0  0  0  0  0  0  0
    1.9299    1.7643   -0.9644 C   0  0  0  0  0  0  0  0  0  0  0  0
    2.6506    2.9230   -0.8623 O   0  0  0  0  0  0  0  0  0  0  0  0
    2.3908    0.6301   -1.6495 C   0  0  0  0  0  0  0  0  0  0  0  0
    4.0070    0.5185   -2.4025 S   0  0  0  0  0  0  0  0  0  0  0  0
    3.8985    1.7131   -3.6620 C   0  0  0  0  0  0  0  0  0  0  0  0
    3.8011    1.4097   -4.9898 N   0  0  0  0  0  0  0  0  0  0  0  0
    3.7585    2.5908   -5.5599 C   0  0  0  0  0  0  0  0  0  0  0  0
    3.8297    3.5580   -4.6079 N   0  0  0  0  0  0  0  0  0  0  0  0
    3.9199    3.0220   -3.3774 N   0  0  0  0  0  0  0  0  0  0  0  0
    1.5708   -0.5066   -1.6931 C   0  0  0  0  0  0  0  0  0  0  0  0
   -0.5867   -1.4374    2.5228 C   0  0  0  0  0  0  0  0  0  0  0  0
   -1.3458   -0.8955    3.5614 C   0  0  0  0  0  0  0  0  0  0  0  0
   -5.2540   -0.0464    3.8711 H   0  0  0  0  0  0  0  0  0  0  0  0
   -5.0766   -1.6016    4.7742 H   0  0  0  0  0  0  0  0  0  0  0  0
   -5.1009   -0.0560    5.6322 H   0  0  0  0  0  0  0  0  0  0  0  0
   -4.4563   -1.7904    2.4803 H   0  0  0  0  0  0  0  0  0  0  0  0
   -3.1294   -2.7417    0.6563 H   0  0  0  0  0  0  0  0  0  0  0  0
   -0.6000   -2.1448   -1.9923 H   0  0  0  0  0  0  0  0  0  0  0  0
   -1.0936    0.6443    0.0972 H   0  0  0  0  0  0  0  0  0  0  0  0
    0.3510    2.6504    0.2000 H   0  0  0  0  0  0  0  0  0  0  0  0
    3.3370    2.9190   -1.5636 H   0  0  0  0  0  0  0  0  0  0  0  0
    3.6809    2.7990   -6.6176 H   0  0  0  0  0  0  0  0  0  0  0  0
    3.8233    4.5666   -4.7167 H   0  0  0  0  0  0  0  0  0  0  0  0
    1.9188   -1.4088   -2.1907 H   0  0  0  0  0  0  0  0  0  0  0  0
    0.4969   -1.3433    2.5407 H   0  0  0  0  0  0  0  0  0  0  0  0
   -0.8470   -0.3827    4.3811 H   0  0  0  0  0  0  0  0  0  0  0  0
  1  2  1  0
  2  3  1  0
  3  4  2  0
  4  5  1  0
  5  6  2  0
  6  7  1  0
  7  8  2  0
  7  9  2  0
  7 10  1  0
 10 11  1  0
 11 12  2  0
 12 13  1  0
 13 14  2  0
 14 15  1  0
 14 16  1  0
 16 17  1  0
 17 18  1  0
 18 19  1  0
 19 20  2  0
 20 21  1  0
 21 22  1  0
 16 23  2  0
  6 24  1  0
 24 25  2  0
 25  3  1  0
 23 11  1  0
 22 18  2  0
  1 26  1  0
  1 27  1  0
  1 28  1  0
  4 29  1  0
  5 30  1  0
 10 31  1  0
 12 32  1  0
 13 33  1  0
 15 34  1  0
 20 35  1  0
 21 36  1  0
 23 37  1  0
 24 38  1  0
 25 39  1  0
M  END
$$$$
