
     RDKit          3D

 57 60  0  0  0  0  0  0  0  0999 V2000
    5.3370    2.8527   -0.8633 C   0  0  0  0  0  0  0  0  0  0  0  0
    4.3145    1.8875   -0.3646 C   0  0  0  0  0  0  0  0  0  0  0  0
    2.9424    2.0353   -0.4084 C   0  0  0  0  0  0  0  0  0  0  0  0
    2.3553    0.8437    0.0667 C   0  0  0  0  0  0  0  0  0  0  0  0
    0.9622    0.5421    0.1856 C   0  0  0  0  0  0  0  0  0  0  0  0
   -0.0408    1.3497   -0.2001 C   0  0  0  0  0  0  0  0  0  0  0  0
   -1.4419    0.9527   -0.0534 C   0  0  0  0  0  0  0  0  0  0  0  0
   -2.0611    1.1751    1.1750 C   0  0  0  0  0  0  0  0  0  0  0  0
   -3.3745    0.7863    1.3653 C   0  0  0  0  0  0  0  0  0  0  0  0
   -4.0619    0.1568    0.3305 C   0  0  0  0  0  0  0  0  0  0  0  0
   -5.3918   -0.2694    0.5224 C   0  0  0  0  0  0  0  0  0  0  0  0
   -6.1345   -0.9298   -0.4695 C   0  0  0  0  0  0  0  0  0  0  0  0
   -7.4369   -1.3710   -0.2432 N   0  0  0  0  0  0  0  0  0  0  0  0
   -8.2061   -1.9840   -1.3274 C   0  0  0  0  0  0  0  0  0  0  0  0
   -8.2424   -0.7261    0.7977 C   0  0  0  0  0  0  0  0  0  0  0  0
   -5.4630   -1.1600   -1.6775 C   0  0  0  0  0  0  0  0  0  0  0  0
   -4.1405   -0.7403   -1.8980 C   0  0  0  0  0  0  0  0  0  0  0  0
   -3.4134   -0.0667   -0.9062 C   0  0  0  0  0  0  0  0  0  0  0  0
   -2.1193    0.3608   -1.0787 N   0  0  0  0  0  4  0  0  0  0  0  0
   -1.4503    0.1491   -2.3847 C   0  0  0  0  0  0  0  0  0  0  0  0
    3.3848   -0.0104    0.4331 C   0  0  0  0  0  0  0  0  0  0  0  0
    3.3048   -1.3500    1.1001 C   0  0  0  0  0  0  0  0  0  0  0  0
    4.5994    0.6244    0.1446 N   0  0  0  0  0  0  0  0  0  0  0  0
    5.9007    0.0704    0.3200 C   0  0  0  0  0  0  0  0  0  0  0  0
    6.1747   -1.2323   -0.1170 C   0  0  0  0  0  0  0  0  0  0  0  0
    7.4533   -1.7690    0.0491 C   0  0  0  0  0  0  0  0  0  0  0  0
    8.4568   -1.0132    0.6533 C   0  0  0  0  0  0  0  0  0  0  0  0
    8.1863    0.2825    1.0913 C   0  0  0  0  0  0  0  0  0  0  0  0
    6.9116    0.8278    0.9236 C   0  0  0  0  0  0  0  0  0  0  0  0
    6.1438    2.3503   -1.4001 H   0  0  0  0  0  0  0  0  0  0  0  0
    4.8810    3.5584   -1.5641 H   0  0  0  0  0  0  0  0  0  0  0  0
    5.7572    3.4358   -0.0394 H   0  0  0  0  0  0  0  0  0  0  0  0
    2.4429    2.9228   -0.7738 H   0  0  0  0  0  0  0  0  0  0  0  0
    0.7126   -0.4256    0.6200 H   0  0  0  0  0  0  0  0  0  0  0  0
    0.1357    2.3302   -0.6351 H   0  0  0  0  0  0  0  0  0  0  0  0
   -1.5195    1.6492    1.9931 H   0  0  0  0  0  0  0  0  0  0  0  0
   -3.8493    0.9646    2.3308 H   0  0  0  0  0  0  0  0  0  0  0  0
   -5.8447   -0.0940    1.4960 H   0  0  0  0  0  0  0  0  0  0  0  0
   -8.4112   -1.2556   -2.1209 H   0  0  0  0  0  0  0  0  0  0  0  0
   -7.6801   -2.8499   -1.7481 H   0  0  0  0  0  0  0  0  0  0  0  0
   -9.1686   -2.3639   -0.9638 H   0  0  0  0  0  0  0  0  0  0  0  0
   -9.2640   -1.1226    0.8177 H   0  0  0  0  0  0  0  0  0  0  0  0
   -8.3116    0.3537    0.6238 H   0  0  0  0  0  0  0  0  0  0  0  0
   -7.8270   -0.9108    1.7932 H   0  0  0  0  0  0  0  0  0  0  0  0
   -5.9570   -1.6825   -2.4948 H   0  0  0  0  0  0  0  0  0  0  0  0
   -3.7181   -0.9820   -2.8704 H   0  0  0  0  0  0  0  0  0  0  0  0
   -1.2493   -0.9209   -2.4833 H   0  0  0  0  0  0  0  0  0  0  0  0
   -0.5184    0.7096   -2.4682 H   0  0  0  0  0  0  0  0  0  0  0  0
   -2.1120    0.5091   -3.1759 H   0  0  0  0  0  0  0  0  0  0  0  0
    3.2477   -2.1435    0.3473 H   0  0  0  0  0  0  0  0  0  0  0  0
    4.1582   -1.5405    1.7597 H   0  0  0  0  0  0  0  0  0  0  0  0
    2.4149   -1.4196    1.7321 H   0  0  0  0  0  0  0  0  0  0  0  0
    5.4222   -1.8291   -0.6244 H   0  0  0  0  0  0  0  0  0  0  0  0
    7.6708   -2.7760   -0.2990 H   0  0  0  0  0  0  0  0  0  0  0  0
    9.4514   -1.4332    0.7834 H   0  0  0  0  0  0  0  0  0  0  0  0
    8.9685    0.8660    1.5710 H   0  0  0  0  0  0  0  0  0  0  0  0
    6.7185    1.8251    1.3097 H   0  0  0  0  0  0  0  0  0  0  0  0
  1  2  1  0
  2  3  2  0
  3  4  1  0
  4  5  1  0
  5  6  2  3
  6  7  1  0
  7  8  2  0
  8  9  1  0
  9 10  2  0
 10 11  1  0
 11 12  2  0
 12 13  1  0
 13 14  1  0
 13 15  1  0
 12 16  1  0
 16 17  2  0
 17 18  1  0
 18 19  2  0
 19 20  1  0
  4 21  2  0
 21 22  1  0
 21 23  1  0
 23 24  1  0
 24 25  2  0
 25 26  1  0
 26 27  2  0
 27 28  1  0
 28 29  2  0
 23  2  1  0
 29 24  1  0
 19  7  1  0
 18 10  1  0
  1 30  1  0
  1 31  1  0
  1 32  1  0
  3 33  1  0
  5 34  1  0
  6 35  1  0
  8 36  1  0
  9 37  1  0
 11 38  1  0
 14 39  1  0
 14 40  1  0
 14 41  1  0
 15 42  1  0
 15 43  1  0
 15 44  1  0
 16 45  1  0
 17 46  1  0
 20 47  1  0
 20 48  1  0
 20 49  1  0
 22 50  1  0
 22 51  1  0
 22 52  1  0
 25 53  1  0
 26 54  1  0
 27 55  1  0
 28 56  1  0
 29 57  1  0
M  CHG  1  19   1
M  END
$$$$
