
     RDKit          3D

 59 62  0  0  0  0  0  0  0  0999 V2000
    7.2227   -3.1368   -0.6151 C   0  0  0  0  0  0  0  0  0  0  0  0
    6.1395   -2.2132   -0.1413 C   0  0  0  0  0  0  0  0  0  0  0  0
    6.0166   -0.9294   -0.6849 C   0  0  0  0  0  0  0  0  0  0  0  0
    4.9889   -0.0782   -0.2670 C   0  0  0  0  0  0  0  0  0  0  0  0
    4.0690   -0.4931    0.7113 C   0  0  0  0  0  0  0  0  0  0  0  0
    3.0289    0.4038    1.1047 N   0  0  0  0  0  0  0  0  0  0  0  0
    2.7397    1.4607    0.2984 N   0  0  0  0  0  0  0  0  0  0  0  0
    1.5912    1.9515    0.7683 C   0  0  0  0  0  0  0  0  0  0  0  0
    0.8080    3.0339    0.1864 C   0  0  0  0  0  0  0  0  0  0  0  0
    1.1155    3.6213   -0.8483 O   0  0  0  0  0  0  0  0  0  0  0  0
   -0.3537    3.3238    0.9334 N   0  0  0  0  0  0  0  0  0  0  0  0
   -1.2882    4.3270    0.4345 C   0  0  0  0  0  0  0  0  0  0  0  0
   -2.2239    3.7890   -0.6490 C   0  0  0  0  0  0  0  0  0  0  0  0
   -3.0525    2.5978   -0.1779 C   0  0  0  0  0  0  0  0  0  0  0  0
   -4.0514    2.1610   -1.2288 C   0  0  0  0  0  0  0  0  0  0  0  0
   -4.6593    2.9469   -1.9512 O   0  0  0  0  0  0  0  0  0  0  0  0
   -4.2510    0.8003   -1.2624 N   0  0  0  0  0  0  0  0  0  0  0  0
   -5.1447    0.2089   -2.2290 C   0  0  0  0  0  0  0  0  0  0  0  0
   -5.0066   -1.2616   -2.1503 C   0  0  0  0  0  0  0  0  0  0  0  0
   -5.5982   -2.2329   -1.3705 C   0  0  0  0  0  0  0  0  0  0  0  0
   -5.0071   -3.4635   -1.7457 C   0  0  0  0  0  0  0  0  0  0  0  0
   -4.0896   -3.1664   -2.7280 C   0  0  0  0  0  0  0  0  0  0  0  0
   -3.1459   -3.9807   -3.5201 C   0  0  0  0  0  0  0  0  0  0  0  0
   -4.0827   -1.8280   -2.9786 O   0  0  0  0  0  0  0  0  0  0  0  0
   -0.7418    2.6677    2.1093 N   0  0  0  0  0  0  0  0  0  0  0  0
   -0.0186    1.7082    2.6136 C   0  0  0  0  0  0  0  0  0  0  0  0
   -0.4926    1.0451    3.8731 C   0  0  0  0  0  0  0  0  0  0  0  0
    1.1946    1.3100    1.9460 C   0  0  0  0  0  0  0  0  0  0  0  0
    2.1883    0.3865    2.2244 C   0  0  0  0  0  0  0  0  0  0  0  0
    2.4151   -0.4314    3.4444 C   0  0  0  0  0  0  0  0  0  0  0  0
    4.1701   -1.7922    1.2251 C   0  0  0  0  0  0  0  0  0  0  0  0
    5.1983   -2.6448    0.8010 C   0  0  0  0  0  0  0  0  0  0  0  0
    6.9058   -3.6464   -1.5350 H   0  0  0  0  0  0  0  0  0  0  0  0
    8.1465   -2.5782   -0.8116 H   0  0  0  0  0  0  0  0  0  0  0  0
    7.4551   -3.8947    0.1449 H   0  0  0  0  0  0  0  0  0  0  0  0
    6.7181   -0.5794   -1.4413 H   0  0  0  0  0  0  0  0  0  0  0  0
    4.9259    0.9170   -0.7111 H   0  0  0  0  0  0  0  0  0  0  0  0
   -0.7127    5.1648    0.0252 H   0  0  0  0  0  0  0  0  0  0  0  0
   -1.8675    4.7150    1.2793 H   0  0  0  0  0  0  0  0  0  0  0  0
   -2.8853    4.6032   -0.9703 H   0  0  0  0  0  0  0  0  0  0  0  0
   -1.6448    3.4946   -1.5308 H   0  0  0  0  0  0  0  0  0  0  0  0
   -2.3947    1.7602    0.0679 H   0  0  0  0  0  0  0  0  0  0  0  0
   -3.6189    2.8571    0.7205 H   0  0  0  0  0  0  0  0  0  0  0  0
   -3.6467    0.1934   -0.7282 H   0  0  0  0  0  0  0  0  0  0  0  0
   -6.1697    0.5224   -1.9877 H   0  0  0  0  0  0  0  0  0  0  0  0
   -4.8963    0.5858   -3.2266 H   0  0  0  0  0  0  0  0  0  0  0  0
   -6.3472   -2.0723   -0.6137 H   0  0  0  0  0  0  0  0  0  0  0  0
   -5.2163   -4.4434   -1.3465 H   0  0  0  0  0  0  0  0  0  0  0  0
   -3.4128   -3.9512   -4.5794 H   0  0  0  0  0  0  0  0  0  0  0  0
   -3.1599   -5.0232   -3.1962 H   0  0  0  0  0  0  0  0  0  0  0  0
   -2.1266   -3.6052   -3.4069 H   0  0  0  0  0  0  0  0  0  0  0  0
   -0.5092   -0.0378    3.7468 H   0  0  0  0  0  0  0  0  0  0  0  0
    0.1712    1.3121    4.6956 H   0  0  0  0  0  0  0  0  0  0  0  0
   -1.5046    1.3810    4.1233 H   0  0  0  0  0  0  0  0  0  0  0  0
    1.8586   -1.3711    3.3951 H   0  0  0  0  0  0  0  0  0  0  0  0
    2.0863    0.1067    4.3331 H   0  0  0  0  0  0  0  0  0  0  0  0
    3.4725   -0.6438    3.6089 H   0  0  0  0  0  0  0  0  0  0  0  0
    3.4434   -2.2003    1.9176 H   0  0  0  0  0  0  0  0  0  0  0  0
    5.2509   -3.6573    1.2022 H   0  0  0  0  0  0  0  0  0  0  0  0
  1  2  1  0
  2  3  2  0
  3  4  1  0
  4  5  2  0
  5  6  1  0
  6  7  1  0
  7  8  2  0
  8  9  1  0
  9 10  2  0
  9 11  1  0
 11 12  1  0
 12 13  1  0
 13 14  1  0
 14 15  1  0
 15 16  2  0
 15 17  1  0
 17 18  1  0
 18 19  1  0
 19 20  2  0
 20 21  1  0
 21 22  2  0
 22 23  1  0
 22 24  1  0
 11 25  1  0
 25 26  2  0
 26 27  1  0
 26 28  1  0
 28 29  2  0
 29 30  1  0
  5 31  1  0
 31 32  2  0
 32  2  1  0
 29  6  1  0
 28  8  1  0
 24 19  1  0
  1 33  1  0
  1 34  1  0
  1 35  1  0
  3 36  1  0
  4 37  1  0
 12 38  1  0
 12 39  1  0
 13 40  1  0
 13 41  1  0
 14 42  1  0
 14 43  1  0
 17 44  1  0
 18 45  1  0
 18 46  1  0
 20 47  1  0
 21 48  1  0
 23 49  1  0
 23 50  1  0
 23 51  1  0
 27 52  1  0
 27 53  1  0
 27 54  1  0
 30 55  1  0
 30 56  1  0
 30 57  1  0
 31 58  1  0
 32 59  1  0
M  END
$$$$
