
     RDKit          3D

 44 47  0  0  0  0  0  0  0  0999 V2000
   -3.9521    1.6957   -2.7386 C   0  0  0  0  0  0  0  0  0  0  0  0
   -4.0538    0.9566   -1.4040 C   0  0  0  0  0  0  0  0  0  0  0  0
   -2.8598    1.2521   -0.5076 C   0  0  0  0  0  0  0  0  0  0  0  0
   -1.6223    0.4639   -0.8830 C   0  0  0  0  0  0  0  0  0  0  0  0
   -0.7576    0.9642   -1.6094 O   0  0  0  0  0  0  0  0  0  0  0  0
   -1.4756   -0.7984   -0.3121 N   0  0  0  0  0  0  0  0  0  0  0  0
   -0.1719   -1.4380   -0.4828 C   0  0  0  0  0  0  0  0  0  0  0  0
    0.8845   -0.7825    0.4229 C   0  0  0  0  0  0  0  0  0  0  0  0
    0.7176   -0.7017    1.6396 O   0  0  0  0  0  0  0  0  0  0  0  0
    1.9849   -0.3168   -0.2823 N   0  0  0  0  0  0  0  0  0  0  0  0
    3.1495    0.2884    0.2356 C   0  0  0  0  0  0  0  0  0  0  0  0
    3.4127    0.4344    1.6133 C   0  0  0  0  0  0  0  0  0  0  0  0
    4.5972    1.0360    2.0621 C   0  0  0  0  0  0  0  0  0  0  0  0
    5.4947    1.4781    1.1141 C   0  0  0  0  0  0  0  0  0  0  0  0
    5.2425    1.3448   -0.2300 C   0  0  0  0  0  0  0  0  0  0  0  0
    4.0846    0.7579   -0.6991 C   0  0  0  0  0  0  0  0  0  0  0  0
    6.2406    1.8586   -1.0002 O   0  0  0  0  0  0  0  0  0  0  0  0
    7.1708    2.2886    0.0185 C   0  0  0  0  0  0  0  0  0  0  0  0
    6.6852    2.0845    1.3630 O   0  0  0  0  0  0  0  0  0  0  0  0
   -2.5312   -1.5256    0.3248 C   0  0  0  0  0  0  0  0  0  0  0  0
   -2.2457   -2.2706    1.4835 C   0  0  0  0  0  0  0  0  0  0  0  0
   -3.2445   -2.9889    2.1467 C   0  0  0  0  0  0  0  0  0  0  0  0
   -4.5443   -2.9911    1.6521 C   0  0  0  0  0  0  0  0  0  0  0  0
   -4.8451   -2.2785    0.4902 C   0  0  0  0  0  0  0  0  0  0  0  0
   -3.8542   -1.5396   -0.1769 C   0  0  0  0  0  0  0  0  0  0  0  0
   -4.3286   -0.8175   -1.7491 S   0  0  0  0  0  0  0  0  0  0  0  0
   -4.8597    1.5653   -3.3409 H   0  0  0  0  0  0  0  0  0  0  0  0
   -3.0970    1.3626   -3.3386 H   0  0  0  0  0  0  0  0  0  0  0  0
   -3.8396    2.7722   -2.5625 H   0  0  0  0  0  0  0  0  0  0  0  0
   -4.9518    1.3230   -0.8922 H   0  0  0  0  0  0  0  0  0  0  0  0
   -3.1125    1.0615    0.5435 H   0  0  0  0  0  0  0  0  0  0  0  0
   -2.6116    2.3224   -0.5452 H   0  0  0  0  0  0  0  0  0  0  0  0
    0.1180   -1.3587   -1.5383 H   0  0  0  0  0  0  0  0  0  0  0  0
   -0.2115   -2.5095   -0.2516 H   0  0  0  0  0  0  0  0  0  0  0  0
    1.9154   -0.3273   -1.2979 H   0  0  0  0  0  0  0  0  0  0  0  0
    2.7109    0.0854    2.3670 H   0  0  0  0  0  0  0  0  0  0  0  0
    4.7940    1.1585    3.1222 H   0  0  0  0  0  0  0  0  0  0  0  0
    3.9192    0.6817   -1.7695 H   0  0  0  0  0  0  0  0  0  0  0  0
    8.1088    1.7315   -0.1058 H   0  0  0  0  0  0  0  0  0  0  0  0
    7.3768    3.3562   -0.1220 H   0  0  0  0  0  0  0  0  0  0  0  0
   -1.2488   -2.2695    1.9201 H   0  0  0  0  0  0  0  0  0  0  0  0
   -3.0055   -3.5376    3.0548 H   0  0  0  0  0  0  0  0  0  0  0  0
   -5.3227   -3.5532    2.1621 H   0  0  0  0  0  0  0  0  0  0  0  0
   -5.8607   -2.3197    0.0985 H   0  0  0  0  0  0  0  0  0  0  0  0
  1  2  1  0
  2  3  1  0
  3  4  1  0
  4  5  2  0
  4  6  1  0
  6  7  1  0
  7  8  1  0
  8  9  2  0
  8 10  1  0
 10 11  1  0
 11 12  2  0
 12 13  1  0
 13 14  2  0
 14 15  1  0
 15 16  2  0
 15 17  1  0
 17 18  1  0
 18 19  1  0
  6 20  1  0
 20 21  2  0
 21 22  1  0
 22 23  2  0
 23 24  1  0
 24 25  2  0
 25 26  1  0
 26  2  1  0
 16 11  1  0
 25 20  1  0
 19 14  1  0
  1 27  1  0
  1 28  1  0
  1 29  1  0
  2 30  1  0
  3 31  1  0
  3 32  1  0
  7 33  1  0
  7 34  1  0
 10 35  1  0
 12 36  1  0
 13 37  1  0
 16 38  1  0
 18 39  1  0
 18 40  1  0
 21 41  1  0
 22 42  1  0
 23 43  1  0
 24 44  1  0
M  END
$$$$
