
     RDKit          3D

 49 53  0  0  0  0  0  0  0  0999 V2000
    2.9074    2.6612    3.1210 C   0  0  0  0  0  0  0  0  0  0  0  0
    2.8934    1.7557    1.9319 C   0  0  0  0  0  0  0  0  0  0  0  0
    3.7908    2.1873    0.5479 S   0  0  0  0  0  0  0  0  0  0  0  0
    3.3101    0.7908   -0.2868 C   0  0  0  0  0  0  0  0  0  0  0  0
    3.7543    0.5822   -1.5380 N   0  0  0  0  0  0  0  0  0  0  0  0
    3.2883   -0.5463   -2.0675 C   0  0  0  0  0  0  0  0  0  0  0  0
    2.4603   -1.4247   -1.4943 N   0  0  0  0  0  0  0  0  0  0  0  0
    2.0274   -1.1734   -0.2438 C   0  0  0  0  0  0  0  0  0  0  0  0
    0.9212   -2.3385    0.4930 S   0  0  0  0  0  0  0  0  0  0  0  0
   -0.2744   -2.6762   -0.8658 C   0  0  0  0  0  0  0  0  0  0  0  0
    0.2725   -3.7247   -1.8317 C   0  0  0  0  0  0  0  0  0  0  0  0
   -0.7499   -1.3952   -1.5912 C   0  0  0  0  0  0  0  0  0  0  0  0
   -0.6488   -1.2760   -2.8147 O   0  0  0  0  0  0  0  0  0  0  0  0
   -1.3300   -0.4184   -0.7601 N   0  0  0  0  0  0  0  0  0  0  0  0
   -2.5455   -0.7183   -0.0416 C   0  0  0  0  0  0  0  0  0  0  0  0
   -3.3506   -1.8007   -0.4606 C   0  0  0  0  0  0  0  0  0  0  0  0
   -4.5362   -2.1393    0.1978 C   0  0  0  0  0  0  0  0  0  0  0  0
   -4.9585   -1.3918    1.2859 C   0  0  0  0  0  0  0  0  0  0  0  0
   -4.2024   -0.2988    1.6974 C   0  0  0  0  0  0  0  0  0  0  0  0
   -3.0125    0.0505    1.0342 C   0  0  0  0  0  0  0  0  0  0  0  0
   -2.1558    1.4721    1.6414 S   0  0  0  0  0  0  0  0  0  0  0  0
   -1.2020    1.8863    0.2039 C   0  0  0  0  0  0  0  0  0  0  0  0
   -0.7058    3.2028    0.1547 C   0  0  0  0  0  0  0  0  0  0  0  0
    0.1291    3.6141   -0.8777 C   0  0  0  0  0  0  0  0  0  0  0  0
    0.4816    2.7075   -1.8632 C   0  0  0  0  0  0  0  0  0  0  0  0
   -0.0070    1.3969   -1.8170 C   0  0  0  0  0  0  0  0  0  0  0  0
   -0.8713    0.9529   -0.7955 C   0  0  0  0  0  0  0  0  0  0  0  0
    2.4597   -0.0250    0.4484 C   0  0  0  0  0  0  0  0  0  0  0  0
    2.2276    0.5456    1.7736 C   0  0  0  0  0  0  0  0  0  0  0  0
    1.3853   -0.0771    2.8448 C   0  0  0  0  0  0  0  0  0  0  0  0
    1.8918    3.0059    3.3441 H   0  0  0  0  0  0  0  0  0  0  0  0
    3.5328    3.5468    2.9672 H   0  0  0  0  0  0  0  0  0  0  0  0
    3.2940    2.1301    3.9974 H   0  0  0  0  0  0  0  0  0  0  0  0
    3.6122   -0.7783   -3.0776 H   0  0  0  0  0  0  0  0  0  0  0  0
   -1.1322   -3.1406   -0.3736 H   0  0  0  0  0  0  0  0  0  0  0  0
    0.5841   -4.6327   -1.3034 H   0  0  0  0  0  0  0  0  0  0  0  0
   -0.5052   -4.0160   -2.5472 H   0  0  0  0  0  0  0  0  0  0  0  0
    1.1180   -3.3607   -2.4214 H   0  0  0  0  0  0  0  0  0  0  0  0
   -3.0964   -2.3846   -1.3431 H   0  0  0  0  0  0  0  0  0  0  0  0
   -5.1330   -2.9776   -0.1529 H   0  0  0  0  0  0  0  0  0  0  0  0
   -5.8804   -1.6448    1.8027 H   0  0  0  0  0  0  0  0  0  0  0  0
   -4.5548    0.2923    2.5417 H   0  0  0  0  0  0  0  0  0  0  0  0
   -0.9589    3.9166    0.9365 H   0  0  0  0  0  0  0  0  0  0  0  0
    0.5122    4.6306   -0.9042 H   0  0  0  0  0  0  0  0  0  0  0  0
    1.1465    3.0073   -2.6701 H   0  0  0  0  0  0  0  0  0  0  0  0
    0.3129    0.7426   -2.6229 H   0  0  0  0  0  0  0  0  0  0  0  0
    0.3694   -0.2570    2.4868 H   0  0  0  0  0  0  0  0  0  0  0  0
    1.8257   -1.0245    3.1708 H   0  0  0  0  0  0  0  0  0  0  0  0
    1.3030    0.5631    3.7277 H   0  0  0  0  0  0  0  0  0  0  0  0
  1  2  1  0
  2  3  1  0
  3  4  1  0
  4  5  2  0
  5  6  1  0
  6  7  2  0
  7  8  1  0
  8  9  1  0
  9 10  1  0
 10 11  1  0
 10 12  1  0
 12 13  2  0
 12 14  1  0
 14 15  1  0
 15 16  2  0
 16 17  1  0
 17 18  2  0
 18 19  1  0
 19 20  2  0
 20 21  1  0
 21 22  1  0
 22 23  2  0
 23 24  1  0
 24 25  2  0
 25 26  1  0
 26 27  2  0
  8 28  2  0
 28 29  1  0
 29 30  1  0
 29  2  2  0
 28  4  1  0
 27 14  1  0
 20 15  1  0
 27 22  1  0
  1 31  1  0
  1 32  1  0
  1 33  1  0
  6 34  1  0
 10 35  1  0
 11 36  1  0
 11 37  1  0
 11 38  1  0
 16 39  1  0
 17 40  1  0
 18 41  1  0
 19 42  1  0
 23 43  1  0
 24 44  1  0
 25 45  1  0
 26 46  1  0
 30 47  1  0
 30 48  1  0
 30 49  1  0
M  END
$$$$
