
     RDKit          3D

 57 62  0  0  0  0  0  0  0  0999 V2000
    6.0613   -1.5885   -1.8130 C   0  0  0  0  0  0  0  0  0  0  0  0
    4.8618   -1.3373   -1.0924 O   0  0  0  0  0  0  0  0  0  0  0  0
    3.6977   -1.3121   -1.8130 C   0  0  0  0  0  0  0  0  0  0  0  0
    3.5870   -1.5207   -3.2011 C   0  0  0  0  0  0  0  0  0  0  0  0
    2.3410   -1.4735   -3.8387 C   0  0  0  0  0  0  0  0  0  0  0  0
    1.2335   -1.2172   -3.0595 C   0  0  0  0  0  0  0  0  0  0  0  0
    1.3199   -1.0055   -1.6827 C   0  0  0  0  0  0  0  0  0  0  0  0
    2.5531   -1.0535   -1.0479 C   0  0  0  0  0  0  0  0  0  0  0  0
   -0.0610   -0.7678   -1.1419 C   0  0  0  0  0  0  0  0  0  0  0  0
   -0.4956   -1.7597   -0.0971 N   0  0  0  0  0  0  0  0  0  0  0  0
   -1.1440   -1.0093    1.0465 C   0  0  2  0  0  0  0  0  0  0  0  0
   -2.6720   -1.1871    1.0632 C   0  0  0  0  0  0  0  0  0  0  0  0
   -3.1007   -2.5679    1.5051 C   0  0  0  0  0  0  0  0  0  0  0  0
   -3.2826   -2.8565    2.8644 C   0  0  0  0  0  0  0  0  0  0  0  0
   -3.6653   -4.1363    3.2693 C   0  0  0  0  0  0  0  0  0  0  0  0
   -3.8657   -5.1382    2.3210 C   0  0  0  0  0  0  0  0  0  0  0  0
   -3.6826   -4.8619    0.9672 C   0  0  0  0  0  0  0  0  0  0  0  0
   -3.3007   -3.5830    0.5606 C   0  0  0  0  0  0  0  0  0  0  0  0
   -0.7351    0.3880    0.7859 C   0  0  0  0  0  0  0  0  0  0  0  0
   -0.1136    0.5256   -0.4509 C   0  0  0  0  0  0  0  0  0  0  0  0
    0.1885    1.8462   -0.6486 C   0  0  0  0  0  0  0  0  0  0  0  0
    0.6706    2.4246   -1.7476 O   0  0  0  0  0  0  0  0  0  0  0  0
   -0.1867    2.5314    0.5225 N   0  0  0  0  0  0  0  0  0  0  0  0
   -0.0268    3.9276    0.7591 C   0  0  0  0  0  0  0  0  0  0  0  0
    1.1369    4.5821    0.3335 C   0  0  0  0  0  0  0  0  0  0  0  0
    1.2910    5.9494    0.5685 C   0  0  0  0  0  0  0  0  0  0  0  0
    0.2879    6.6648    1.2214 C   0  0  0  0  0  0  0  0  0  0  0  0
   -0.8725    6.0165    1.6430 C   0  0  0  0  0  0  0  0  0  0  0  0
   -1.0331    4.6487    1.4154 C   0  0  0  0  0  0  0  0  0  0  0  0
   -0.7478    1.6009    1.4175 C   0  0  0  0  0  0  0  0  0  0  0  0
   -1.1430    1.8753    2.6597 O   0  0  0  0  0  0  0  0  0  0  0  0
   -0.9463   -0.8489   -2.4195 C   0  0  0  0  0  0  0  0  0  0  0  0
   -2.1562   -0.7091   -2.5287 O   0  0  0  0  0  0  0  0  0  0  0  0
   -0.0848   -1.1313   -3.4848 N   0  0  0  0  0  0  0  0  0  0  0  0
    6.0425   -2.5799   -2.2775 H   0  0  0  0  0  0  0  0  0  0  0  0
    6.2468   -0.8059   -2.5561 H   0  0  0  0  0  0  0  0  0  0  0  0
    6.8901   -1.5718   -1.0987 H   0  0  0  0  0  0  0  0  0  0  0  0
    4.4599   -1.7225   -3.8137 H   0  0  0  0  0  0  0  0  0  0  0  0
    2.2591   -1.6344   -4.9075 H   0  0  0  0  0  0  0  0  0  0  0  0
    2.6365   -0.8849    0.0214 H   0  0  0  0  0  0  0  0  0  0  0  0
    0.3541   -2.1694    0.2848 H   0  0  0  0  0  0  0  0  0  0  0  0
   -0.7043   -1.3607    1.9881 H   0  0  0  0  0  0  0  0  0  0  0  0
   -3.1245   -0.4514    1.7425 H   0  0  0  0  0  0  0  0  0  0  0  0
   -3.1067   -0.9645    0.0796 H   0  0  0  0  0  0  0  0  0  0  0  0
   -3.1294   -2.0841    3.6146 H   0  0  0  0  0  0  0  0  0  0  0  0
   -3.8074   -4.3514    4.3248 H   0  0  0  0  0  0  0  0  0  0  0  0
   -4.1637   -6.1342    2.6364 H   0  0  0  0  0  0  0  0  0  0  0  0
   -3.8350   -5.6414    0.2258 H   0  0  0  0  0  0  0  0  0  0  0  0
   -3.1524   -3.3776   -0.4983 H   0  0  0  0  0  0  0  0  0  0  0  0
    0.4204    3.3659   -1.7457 H   0  0  0  0  0  0  0  0  0  0  0  0
    1.9526    4.0386   -0.1405 H   0  0  0  0  0  0  0  0  0  0  0  0
    2.1991    6.4565    0.2505 H   0  0  0  0  0  0  0  0  0  0  0  0
    0.4100    7.7305    1.4011 H   0  0  0  0  0  0  0  0  0  0  0  0
   -1.6586    6.5806    2.1397 H   0  0  0  0  0  0  0  0  0  0  0  0
   -1.9679    4.1765    1.7129 H   0  0  0  0  0  0  0  0  0  0  0  0
   -0.7228    2.7041    2.9508 H   0  0  0  0  0  0  0  0  0  0  0  0
   -0.4124   -1.2342   -4.4322 H   0  0  0  0  0  0  0  0  0  0  0  0
  1  2  1  0
  2  3  1  0
  3  4  2  0
  4  5  1  0
  5  6  2  0
  6  7  1  0
  7  8  2  0
  7  9  1  0
  9 10  1  0
 10 11  1  0
 11 12  1  0
 12 13  1  0
 13 14  2  0
 14 15  1  0
 15 16  2  0
 16 17  1  0
 17 18  2  0
 11 19  1  0
 19 20  1  0
 20 21  2  0
 21 22  1  0
 21 23  1  0
 23 24  1  0
 24 25  2  0
 25 26  1  0
 26 27  2  0
 27 28  1  0
 28 29  2  0
 23 30  1  0
 30 31  1  0
  9 32  1  0
 32 33  2  0
 32 34  1  0
  8  3  1  0
 20  9  1  0
 29 24  1  0
 34  6  1  0
 18 13  1  0
 30 19  2  0
  1 35  1  0
  1 36  1  0
  1 37  1  0
  4 38  1  0
  5 39  1  0
  8 40  1  0
 10 41  1  0
 11 42  1  1
 12 43  1  0
 12 44  1  0
 14 45  1  0
 15 46  1  0
 16 47  1  0
 17 48  1  0
 18 49  1  0
 22 50  1  0
 25 51  1  0
 26 52  1  0
 27 53  1  0
 28 54  1  0
 29 55  1  0
 31 56  1  0
 34 57  1  0
M  END
$$$$
