
     RDKit          3D

 46 49  0  0  0  0  0  0  0  0999 V2000
   -4.2672   -3.4472   -1.8910 C   0  0  0  0  0  0  0  0  0  0  0  0
   -3.0237   -2.7772   -1.7246 O   0  0  0  0  0  0  0  0  0  0  0  0
   -3.0543   -1.5538   -1.1169 C   0  0  0  0  0  0  0  0  0  0  0  0
   -4.1865   -0.8955   -0.6534 C   0  0  0  0  0  0  0  0  0  0  0  0
   -4.0703    0.3583   -0.0428 C   0  0  0  0  0  0  0  0  0  0  0  0
   -2.8199    0.9741    0.1098 C   0  0  0  0  0  0  0  0  0  0  0  0
   -2.6418    2.1845    0.7329 O   0  0  0  0  0  0  0  0  0  0  0  0
   -3.7862    2.8379    1.2658 C   0  0  0  0  0  0  0  0  0  0  0  0
   -1.6588    0.3274   -0.3688 C   0  0  0  0  0  0  0  0  0  0  0  0
   -0.3118    0.9124   -0.2607 C   0  0  0  0  0  0  0  0  0  0  0  0
   -0.1616    2.2247   -0.5442 N   0  0  0  0  0  0  0  0  0  0  0  0
    1.0948    2.7230   -0.4548 C   0  0  0  0  0  0  0  0  0  0  0  0
    1.2621    4.1734   -0.7455 C   0  0  0  0  0  0  0  0  0  0  0  0
    0.1097    4.8480   -1.0459 N   0  0  0  0  0  0  0  0  0  0  0  0
    2.3528    4.7294   -0.7154 O   0  0  0  0  0  0  0  0  0  0  0  0
    2.1586    1.9418   -0.1178 C   0  0  0  0  0  0  0  0  0  0  0  0
    3.5111    2.2056    0.0208 N   0  0  0  0  0  0  0  0  0  0  0  0
    4.1650    1.0176    0.3721 C   0  0  0  0  0  0  0  0  0  0  0  0
    5.3682    0.9520    0.5629 O   0  0  0  0  0  0  0  0  0  0  0  0
    3.1579    0.0056    0.4514 N   0  0  0  0  0  0  0  0  0  0  0  0
    3.3464   -1.3677    0.7713 C   0  0  0  0  0  0  0  0  0  0  0  0
    4.6449   -1.8947    0.9094 C   0  0  0  0  0  0  0  0  0  0  0  0
    4.8666   -3.2424    1.2222 C   0  0  0  0  0  0  0  0  0  0  0  0
    3.7876   -4.0892    1.4054 C   0  0  0  0  0  0  0  0  0  0  0  0
    3.9949   -5.3776    1.7047 F   0  0  0  0  0  0  0  0  0  0  0  0
    2.4946   -3.6106    1.2829 C   0  0  0  0  0  0  0  0  0  0  0  0
    2.2784   -2.2613    0.9700 C   0  0  0  0  0  0  0  0  0  0  0  0
    1.9141    0.6146    0.1392 C   0  0  0  0  0  0  0  0  0  0  0  0
    0.6959    0.0701    0.0644 N   0  0  0  0  0  0  0  0  0  0  0  0
   -1.8078   -0.9420   -0.9704 C   0  0  0  0  0  0  0  0  0  0  0  0
   -4.9411   -2.8734   -2.5357 H   0  0  0  0  0  0  0  0  0  0  0  0
   -4.0683   -4.4035   -2.3842 H   0  0  0  0  0  0  0  0  0  0  0  0
   -4.7325   -3.6616   -0.9232 H   0  0  0  0  0  0  0  0  0  0  0  0
   -5.1775   -1.3282   -0.7450 H   0  0  0  0  0  0  0  0  0  0  0  0
   -4.9839    0.8265    0.3097 H   0  0  0  0  0  0  0  0  0  0  0  0
   -4.4964    3.0975    0.4740 H   0  0  0  0  0  0  0  0  0  0  0  0
   -3.4514    3.7707    1.7299 H   0  0  0  0  0  0  0  0  0  0  0  0
   -4.2611    2.2316    2.0440 H   0  0  0  0  0  0  0  0  0  0  0  0
    0.1436    5.8389   -1.2375 H   0  0  0  0  0  0  0  0  0  0  0  0
   -0.7799    4.3588   -1.0366 H   0  0  0  0  0  0  0  0  0  0  0  0
    3.9581    3.1049   -0.1155 H   0  0  0  0  0  0  0  0  0  0  0  0
    5.5290   -1.2800    0.7671 H   0  0  0  0  0  0  0  0  0  0  0  0
    5.8773   -3.6260    1.3200 H   0  0  0  0  0  0  0  0  0  0  0  0
    1.6552   -4.2821    1.4338 H   0  0  0  0  0  0  0  0  0  0  0  0
    1.2427   -1.9480    0.9083 H   0  0  0  0  0  0  0  0  0  0  0  0
   -0.9277   -1.4672   -1.3419 H   0  0  0  0  0  0  0  0  0  0  0  0
  1  2  1  0
  2  3  1  0
  3  4  2  0
  4  5  1  0
  5  6  2  0
  6  7  1  0
  7  8  1  0
  6  9  1  0
  9 10  1  0
 10 11  2  0
 11 12  1  0
 12 13  1  0
 13 14  1  0
 13 15  2  0
 12 16  2  0
 16 17  1  0
 17 18  1  0
 18 19  2  0
 18 20  1  0
 20 21  1  0
 21 22  2  0
 22 23  1  0
 23 24  2  0
 24 25  1  0
 24 26  1  0
 26 27  2  0
 20 28  1  0
 28 29  2  0
  9 30  2  0
 30  3  1  0
 29 10  1  0
 28 16  1  0
 27 21  1  0
  1 31  1  0
  1 32  1  0
  1 33  1  0
  4 34  1  0
  5 35  1  0
  8 36  1  0
  8 37  1  0
  8 38  1  0
 14 39  1  0
 14 40  1  0
 17 41  1  0
 22 42  1  0
 23 43  1  0
 26 44  1  0
 27 45  1  0
 30 46  1  0
M  END
$$$$
