
     RDKit          3D

 43 43  0  0  0  0  0  0  0  0999 V2000
   -4.7989   -2.0827    1.0648 C   0  0  0  0  0  0  0  0  0  0  0  0
   -4.8129   -1.0805   -0.0440 C   0  0  0  0  0  0  0  0  0  0  0  0
   -5.3804   -1.7130   -1.5579 Cl  0  0  0  0  0  0  0  0  0  0  0  0
   -4.4321    0.2067   -0.0068 C   0  0  0  0  0  0  0  0  0  0  0  0
   -3.9338    0.9770    1.1709 C   0  0  0  0  0  0  0  0  0  0  0  0
   -2.4603    1.4101    1.0974 N   0  0  0  0  0  4  0  0  0  0  0  0
   -2.2124    2.3226   -0.0990 C   0  0  0  0  0  0  0  0  0  0  0  0
   -2.1384    2.1895    2.3780 C   0  0  0  0  0  0  0  0  0  0  0  0
   -1.5432    0.1416    0.9884 C   0  0  0  0  0  0  0  0  0  0  0  0
   -0.0393    0.3991    0.9434 C   0  0  0  0  0  0  0  0  0  0  0  0
    0.5406    1.1885    1.6764 O   0  0  0  0  0  0  0  0  0  0  0  0
    0.5447   -0.3559   -0.0283 O   0  0  0  0  0  0  0  0  0  0  0  0
    1.9750   -0.2211   -0.1277 C   0  0  0  0  0  0  0  0  0  0  0  0
    2.4411   -0.8927   -1.4122 C   0  0  0  0  0  0  0  0  0  0  0  0
    3.9409   -0.9128   -1.5312 C   0  0  0  0  0  0  0  0  0  0  0  0
    4.6583   -2.0853   -1.2483 C   0  0  0  0  0  0  0  0  0  0  0  0
    6.0512   -2.0973   -1.3353 C   0  0  0  0  0  0  0  0  0  0  0  0
    6.7387   -0.9433   -1.7106 C   0  0  0  0  0  0  0  0  0  0  0  0
    6.0353    0.2258   -1.9923 C   0  0  0  0  0  0  0  0  0  0  0  0
    4.6423    0.2417   -1.9044 C   0  0  0  0  0  0  0  0  0  0  0  0
   -5.8195   -2.3051    1.3880 H   0  0  0  0  0  0  0  0  0  0  0  0
   -4.2410   -1.7380    1.9386 H   0  0  0  0  0  0  0  0  0  0  0  0
   -4.3240   -3.0158    0.7472 H   0  0  0  0  0  0  0  0  0  0  0  0
   -4.5436    0.7853   -0.9218 H   0  0  0  0  0  0  0  0  0  0  0  0
   -4.5276    1.8936    1.2659 H   0  0  0  0  0  0  0  0  0  0  0  0
   -4.0488    0.4221    2.1065 H   0  0  0  0  0  0  0  0  0  0  0  0
   -1.1909    2.7090   -0.0417 H   0  0  0  0  0  0  0  0  0  0  0  0
   -2.9288    3.1470   -0.0601 H   0  0  0  0  0  0  0  0  0  0  0  0
   -2.3413    1.7397   -1.0166 H   0  0  0  0  0  0  0  0  0  0  0  0
   -2.1588    1.4975    3.2208 H   0  0  0  0  0  0  0  0  0  0  0  0
   -1.1644    2.6699    2.2846 H   0  0  0  0  0  0  0  0  0  0  0  0
   -2.8994    2.9637    2.5024 H   0  0  0  0  0  0  0  0  0  0  0  0
   -1.7686   -0.4966    1.8484 H   0  0  0  0  0  0  0  0  0  0  0  0
   -1.8407   -0.3734    0.0727 H   0  0  0  0  0  0  0  0  0  0  0  0
    2.2529    0.8387   -0.1301 H   0  0  0  0  0  0  0  0  0  0  0  0
    2.4276   -0.6962    0.7476 H   0  0  0  0  0  0  0  0  0  0  0  0
    2.0078   -0.3821   -2.2805 H   0  0  0  0  0  0  0  0  0  0  0  0
    2.0380   -1.9131   -1.4673 H   0  0  0  0  0  0  0  0  0  0  0  0
    4.1405   -2.9994   -0.9605 H   0  0  0  0  0  0  0  0  0  0  0  0
    6.6014   -3.0052   -1.1148 H   0  0  0  0  0  0  0  0  0  0  0  0
    7.8240   -0.9529   -1.7797 H   0  0  0  0  0  0  0  0  0  0  0  0
    6.5764    1.1272   -2.2738 H   0  0  0  0  0  0  0  0  0  0  0  0
    4.1127    1.1660   -2.1251 H   0  0  0  0  0  0  0  0  0  0  0  0
  1  2  1  0
  2  3  1  0
  2  4  2  3
  4  5  1  0
  5  6  1  0
  6  7  1  0
  6  8  1  0
  6  9  1  0
  9 10  1  0
 10 11  2  0
 10 12  1  0
 12 13  1  0
 13 14  1  0
 14 15  1  0
 15 16  2  0
 16 17  1  0
 17 18  2  0
 18 19  1  0
 19 20  2  0
 20 15  1  0
  1 21  1  0
  1 22  1  0
  1 23  1  0
  4 24  1  0
  5 25  1  0
  5 26  1  0
  7 27  1  0
  7 28  1  0
  7 29  1  0
  8 30  1  0
  8 31  1  0
  8 32  1  0
  9 33  1  0
  9 34  1  0
 13 35  1  0
 13 36  1  0
 14 37  1  0
 14 38  1  0
 16 39  1  0
 17 40  1  0
 18 41  1  0
 19 42  1  0
 20 43  1  0
M  CHG  1   6   1
M  END
$$$$
