
     RDKit          3D

 51 55  0  0  0  0  0  0  0  0999 V2000
    8.7002    0.9773    0.2898 Cl  0  0  0  0  0  0  0  0  0  0  0  0
    7.0540    0.6659    0.7125 C   0  0  0  0  0  0  0  0  0  0  0  0
    6.1011    1.6288    0.3716 C   0  0  0  0  0  0  0  0  0  0  0  0
    4.7552    1.4296    0.6881 C   0  0  0  0  0  0  0  0  0  0  0  0
    4.3452    0.2674    1.3522 C   0  0  0  0  0  0  0  0  0  0  0  0
    2.8866    0.0424    1.6815 C   0  0  0  0  0  0  0  0  0  0  0  0
    2.1190   -0.7145    0.5792 C   0  0  0  0  0  0  0  0  0  0  0  0
    1.8920    0.0745   -0.6468 N   0  0  0  0  0  0  0  0  0  0  0  0
    1.4241   -0.7777   -1.7612 C   0  0  0  0  0  0  0  0  0  0  0  0
   -0.0967   -1.0521   -1.8022 C   0  0  0  0  0  0  0  0  0  0  0  0
   -0.9092    0.1788   -1.6814 N   0  0  0  0  0  0  0  0  0  0  0  0
   -2.1293    0.0921   -1.0065 C   0  0  0  0  0  0  0  0  0  0  0  0
   -2.3658    0.9234   -0.0214 N   0  0  0  0  0  0  0  0  0  0  0  0
   -3.5624    0.8468    0.7166 C   0  0  0  0  0  0  0  0  0  0  0  0
   -3.7558    1.7527    1.7615 C   0  0  0  0  0  0  0  0  0  0  0  0
   -4.9193    1.7129    2.5344 C   0  0  0  0  0  0  0  0  0  0  0  0
   -5.9044    0.7613    2.2679 C   0  0  0  0  0  0  0  0  0  0  0  0
   -5.7325   -0.1532    1.2282 C   0  0  0  0  0  0  0  0  0  0  0  0
   -4.5629   -0.1010    0.4640 C   0  0  0  0  0  0  0  0  0  0  0  0
   -4.3145   -0.9727   -0.6083 N   0  0  0  0  0  0  0  0  0  0  0  0
   -5.1002   -1.9815   -1.1134 C   0  0  0  0  0  0  0  0  0  0  0  0
   -4.4641   -2.5122   -2.2140 C   0  0  0  0  0  0  0  0  0  0  0  0
   -3.2459   -1.8111   -2.3713 C   0  0  0  0  0  0  0  0  0  0  0  0
   -3.1531   -0.8868   -1.3455 C   0  0  0  0  0  0  0  0  0  0  0  0
   -0.0980    1.4017   -1.5194 C   0  0  0  0  0  0  0  0  0  0  0  0
    0.9492    1.1995   -0.4054 C   0  0  0  0  0  0  0  0  0  0  0  0
    5.3064   -0.6980    1.6876 C   0  0  0  0  0  0  0  0  0  0  0  0
    6.6556   -0.5014    1.3714 C   0  0  0  0  0  0  0  0  0  0  0  0
    7.7742   -1.7399    1.8214 Cl  0  0  0  0  0  0  0  0  0  0  0  0
    6.3981    2.5374   -0.1465 H   0  0  0  0  0  0  0  0  0  0  0  0
    4.0245    2.1840    0.4033 H   0  0  0  0  0  0  0  0  0  0  0  0
    2.8273   -0.5416    2.6096 H   0  0  0  0  0  0  0  0  0  0  0  0
    2.4080    1.0007    1.9169 H   0  0  0  0  0  0  0  0  0  0  0  0
    2.6949   -1.6157    0.3309 H   0  0  0  0  0  0  0  0  0  0  0  0
    1.1601   -1.0621    0.9858 H   0  0  0  0  0  0  0  0  0  0  0  0
    1.7087   -0.2750   -2.6953 H   0  0  0  0  0  0  0  0  0  0  0  0
    1.9699   -1.7293   -1.7827 H   0  0  0  0  0  0  0  0  0  0  0  0
   -0.3306   -1.5449   -2.7511 H   0  0  0  0  0  0  0  0  0  0  0  0
   -0.3461   -1.7463   -0.9899 H   0  0  0  0  0  0  0  0  0  0  0  0
   -2.9902    2.4945    1.9722 H   0  0  0  0  0  0  0  0  0  0  0  0
   -5.0551    2.4258    3.3436 H   0  0  0  0  0  0  0  0  0  0  0  0
   -6.8088    0.7348    2.8712 H   0  0  0  0  0  0  0  0  0  0  0  0
   -6.5140   -0.8812    1.0378 H   0  0  0  0  0  0  0  0  0  0  0  0
   -6.0535   -2.2365   -0.6739 H   0  0  0  0  0  0  0  0  0  0  0  0
   -4.8439   -3.3081   -2.8418 H   0  0  0  0  0  0  0  0  0  0  0  0
   -2.5204   -1.9636   -3.1579 H   0  0  0  0  0  0  0  0  0  0  0  0
    0.3981    1.6304   -2.4711 H   0  0  0  0  0  0  0  0  0  0  0  0
   -0.7227    2.2756   -1.2995 H   0  0  0  0  0  0  0  0  0  0  0  0
    1.5366    2.1184   -0.3009 H   0  0  0  0  0  0  0  0  0  0  0  0
    0.4081    1.0597    0.5393 H   0  0  0  0  0  0  0  0  0  0  0  0
    5.0021   -1.6099    2.1970 H   0  0  0  0  0  0  0  0  0  0  0  0
  1  2  1  0
  2  3  2  0
  3  4  1  0
  4  5  2  0
  5  6  1  0
  6  7  1  0
  7  8  1  0
  8  9  1  0
  9 10  1  0
 10 11  1  0
 11 12  1  0
 12 13  2  0
 13 14  1  0
 14 15  2  0
 15 16  1  0
 16 17  2  0
 17 18  1  0
 18 19  2  0
 19 20  1  0
 20 21  1  0
 21 22  2  0
 22 23  1  0
 23 24  2  0
 11 25  1  0
 25 26  1  0
  5 27  1  0
 27 28  2  0
 28 29  1  0
 28  2  1  0
 26  8  1  0
 24 12  1  0
 19 14  1  0
 24 20  1  0
  3 30  1  0
  4 31  1  0
  6 32  1  0
  6 33  1  0
  7 34  1  0
  7 35  1  0
  9 36  1  0
  9 37  1  0
 10 38  1  0
 10 39  1  0
 15 40  1  0
 16 41  1  0
 17 42  1  0
 18 43  1  0
 21 44  1  0
 22 45  1  0
 23 46  1  0
 25 47  1  0
 25 48  1  0
 26 49  1  0
 26 50  1  0
 27 51  1  0
M  END
$$$$
