
     RDKit          3D

 34 34  0  0  0  0  0  0  0  0999 V2000
    4.9845    1.0942   -1.7608 C   0  0  0  0  0  0  0  0  0  0  0  0
    4.0812    0.2445   -0.8805 C   0  0  0  0  0  0  0  0  0  0  0  0
    4.1992    0.6445    0.5913 C   0  0  0  0  0  0  0  0  0  0  0  0
    3.3571   -0.2383    1.5091 C   0  0  0  0  0  0  0  0  0  0  0  0
    1.9605   -0.0320    1.2447 O   0  0  0  0  0  0  0  0  0  0  0  0
    1.2958   -1.0548    0.6528 C   0  0  0  0  0  0  0  0  0  0  0  0
    1.7717   -2.1283    0.3210 O   0  0  0  0  0  0  0  0  0  0  0  0
   -0.1326   -0.6912    0.4425 C   0  0  0  0  0  0  0  0  0  0  0  0
   -0.6586    0.5499    0.8178 C   0  0  0  0  0  0  0  0  0  0  0  0
   -2.0105    0.8383    0.5943 C   0  0  0  0  0  0  0  0  0  0  0  0
   -2.8567   -0.1035   -0.0059 C   0  0  0  0  0  0  0  0  0  0  0  0
   -4.2036    0.2691   -0.1927 N   0  0  0  0  0  0  0  0  0  0  0  0
   -5.2132   -0.4823   -0.7674 C   0  0  0  0  0  0  0  0  0  0  0  0
   -6.5283    0.2564   -0.7959 C   0  0  0  0  0  0  0  0  0  0  0  0
   -5.1172   -1.6083   -1.2413 O   0  0  0  0  0  0  0  0  0  0  0  0
   -2.3285   -1.3403   -0.3787 C   0  0  0  0  0  0  0  0  0  0  0  0
   -0.9764   -1.6328   -0.1569 C   0  0  0  0  0  0  0  0  0  0  0  0
    6.0344    0.9785   -1.4734 H   0  0  0  0  0  0  0  0  0  0  0  0
    4.7217    2.1542   -1.6847 H   0  0  0  0  0  0  0  0  0  0  0  0
    4.8842    0.7936   -2.8084 H   0  0  0  0  0  0  0  0  0  0  0  0
    4.3507   -0.8110   -1.0021 H   0  0  0  0  0  0  0  0  0  0  0  0
    3.0466    0.3587   -1.2224 H   0  0  0  0  0  0  0  0  0  0  0  0
    5.2476    0.5841    0.9059 H   0  0  0  0  0  0  0  0  0  0  0  0
    3.8800    1.6882    0.7008 H   0  0  0  0  0  0  0  0  0  0  0  0
    3.5266    0.0604    2.5492 H   0  0  0  0  0  0  0  0  0  0  0  0
    3.6554   -1.2895    1.4267 H   0  0  0  0  0  0  0  0  0  0  0  0
   -0.0310    1.3047    1.2849 H   0  0  0  0  0  0  0  0  0  0  0  0
   -2.3875    1.8119    0.8977 H   0  0  0  0  0  0  0  0  0  0  0  0
   -4.4547    1.1968    0.1246 H   0  0  0  0  0  0  0  0  0  0  0  0
   -6.6658    0.8458    0.1153 H   0  0  0  0  0  0  0  0  0  0  0  0
   -6.5549    0.9149   -1.6680 H   0  0  0  0  0  0  0  0  0  0  0  0
   -7.3485   -0.4645   -0.8595 H   0  0  0  0  0  0  0  0  0  0  0  0
   -2.9397   -2.1066   -0.8462 H   0  0  0  0  0  0  0  0  0  0  0  0
   -0.5895   -2.6052   -0.4578 H   0  0  0  0  0  0  0  0  0  0  0  0
  1  2  1  0
  2  3  1  0
  3  4  1  0
  4  5  1  0
  5  6  1  0
  6  7  2  0
  6  8  1  0
  8  9  2  0
  9 10  1  0
 10 11  2  0
 11 12  1  0
 12 13  1  0
 13 14  1  0
 13 15  2  0
 11 16  1  0
 16 17  2  0
 17  8  1  0
  1 18  1  0
  1 19  1  0
  1 20  1  0
  2 21  1  0
  2 22  1  0
  3 23  1  0
  3 24  1  0
  4 25  1  0
  4 26  1  0
  9 27  1  0
 10 28  1  0
 12 29  1  0
 14 30  1  0
 14 31  1  0
 14 32  1  0
 16 33  1  0
 17 34  1  0
M  END
$$$$
