
     RDKit          3D

 60 65  0  0  0  0  0  0  0  0999 V2000
    4.4381    1.1011    1.3275 C   0  0  0  0  0  0  0  0  0  0  0  0
    5.1355    0.2742    0.3137 C   0  0  0  0  0  0  0  0  0  0  0  0
    6.3605   -0.1980    0.5778 N   0  0  0  0  0  0  0  0  0  0  0  0
    6.7696   -0.8470   -0.5708 O   0  0  0  0  0  0  0  0  0  0  0  0
    5.7873   -0.7781   -1.5062 C   0  0  0  0  0  0  0  0  0  0  0  0
    6.0774   -1.4010   -2.8115 C   0  0  0  0  0  0  0  0  0  0  0  0
    4.6995   -0.1117   -0.9839 C   0  0  0  0  0  0  0  0  0  0  0  0
    3.4674    0.1672   -1.6919 C   0  0  0  0  0  0  0  0  0  0  0  0
    3.4899    0.5228   -2.8682 O   0  0  0  0  0  0  0  0  0  0  0  0
    2.2662    0.0368   -0.9754 N   0  0  0  0  0  0  0  0  0  0  0  0
    1.0618    0.4778   -1.6656 C   0  0  0  0  0  0  0  0  0  0  0  0
   -0.0742    0.7736   -0.6885 C   0  0  0  0  0  0  0  0  0  0  0  0
   -0.3843   -0.4300    0.2388 C   0  0  0  0  0  0  0  0  0  0  0  0
    0.9520   -0.8119    0.9367 C   0  0  0  0  0  0  0  0  0  0  0  0
    2.0682   -1.0897   -0.0658 C   0  0  0  0  0  0  0  0  0  0  0  0
   -0.8118   -1.4976   -0.6414 O   0  0  0  0  0  0  0  0  0  0  0  0
   -1.3562   -2.5955   -0.0370 C   0  0  0  0  0  0  0  0  0  0  0  0
   -1.4195   -3.7542   -0.8121 C   0  0  0  0  0  0  0  0  0  0  0  0
   -1.9430   -4.9278   -0.2673 C   0  0  0  0  0  0  0  0  0  0  0  0
   -2.4034   -4.9322    1.0460 C   0  0  0  0  0  0  0  0  0  0  0  0
   -2.9033   -6.0612    1.5630 F   0  0  0  0  0  0  0  0  0  0  0  0
   -2.3603   -3.7831    1.8247 C   0  0  0  0  0  0  0  0  0  0  0  0
   -1.8427   -2.6096    1.2709 C   0  0  0  0  0  0  0  0  0  0  0  0
   -1.8213   -1.3600    2.0541 C   0  0  0  0  0  0  0  0  0  0  0  0
   -2.0960   -1.3887    3.2488 O   0  0  0  0  0  0  0  0  0  0  0  0
   -1.5043   -0.0949    1.2648 C   0  0  0  0  0  0  0  0  0  0  0  0
   -2.8147    0.4202    0.6797 C   0  0  0  0  0  0  0  0  0  0  0  0
   -2.6712    1.8659    1.0057 C   0  0  0  0  0  0  0  0  0  0  0  0
   -3.5774    2.8937    0.4422 C   0  0  0  0  0  0  0  0  0  0  0  0
   -4.6850    2.5443   -0.3396 C   0  0  0  0  0  0  0  0  0  0  0  0
   -5.5172    3.5417   -0.8592 C   0  0  0  0  0  0  0  0  0  0  0  0
   -5.2448    4.8837   -0.5970 C   0  0  0  0  0  0  0  0  0  0  0  0
   -6.2713    6.1047   -1.2396 Cl  0  0  0  0  0  0  0  0  0  0  0  0
   -4.1476    5.2399    0.1833 C   0  0  0  0  0  0  0  0  0  0  0  0
   -3.3147    4.2455    0.7037 C   0  0  0  0  0  0  0  0  0  0  0  0
   -1.6998    2.1460    1.8130 N   0  0  0  0  0  0  0  0  0  0  0  0
   -1.0706    0.9303    2.1643 O   0  0  0  0  0  0  0  0  0  0  0  0
    3.9150    0.4629    2.0462 H   0  0  0  0  0  0  0  0  0  0  0  0
    5.1485    1.7254    1.8799 H   0  0  0  0  0  0  0  0  0  0  0  0
    3.7071    1.7692    0.8619 H   0  0  0  0  0  0  0  0  0  0  0  0
    6.9362   -2.0764   -2.7473 H   0  0  0  0  0  0  0  0  0  0  0  0
    6.3024   -0.6329   -3.5576 H   0  0  0  0  0  0  0  0  0  0  0  0
    5.2191   -1.9824   -3.1624 H   0  0  0  0  0  0  0  0  0  0  0  0
    0.7767   -0.2992   -2.3855 H   0  0  0  0  0  0  0  0  0  0  0  0
    1.2816    1.3854   -2.2402 H   0  0  0  0  0  0  0  0  0  0  0  0
    0.2048    1.6490   -0.0897 H   0  0  0  0  0  0  0  0  0  0  0  0
   -0.9538    1.0429   -1.2838 H   0  0  0  0  0  0  0  0  0  0  0  0
    1.2688    0.0025    1.6004 H   0  0  0  0  0  0  0  0  0  0  0  0
    0.8371   -1.7051    1.5600 H   0  0  0  0  0  0  0  0  0  0  0  0
    2.9849   -1.3358    0.4740 H   0  0  0  0  0  0  0  0  0  0  0  0
    1.8333   -1.9684   -0.6795 H   0  0  0  0  0  0  0  0  0  0  0  0
   -1.0526   -3.7495   -1.8360 H   0  0  0  0  0  0  0  0  0  0  0  0
   -1.9923   -5.8394   -0.8559 H   0  0  0  0  0  0  0  0  0  0  0  0
   -2.7349   -3.8100    2.8443 H   0  0  0  0  0  0  0  0  0  0  0  0
   -2.9180    0.2372   -0.3921 H   0  0  0  0  0  0  0  0  0  0  0  0
   -3.6997    0.0332    1.1974 H   0  0  0  0  0  0  0  0  0  0  0  0
   -4.9291    1.5078   -0.5530 H   0  0  0  0  0  0  0  0  0  0  0  0
   -6.3777    3.2662   -1.4644 H   0  0  0  0  0  0  0  0  0  0  0  0
   -3.9343    6.2851    0.3930 H   0  0  0  0  0  0  0  0  0  0  0  0
   -2.4618    4.5351    1.3156 H   0  0  0  0  0  0  0  0  0  0  0  0
  1  2  1  0
  2  3  2  0
  3  4  1  0
  4  5  1  0
  5  6  1  0
  5  7  2  0
  7  8  1  0
  8  9  2  0
  8 10  1  0
 10 11  1  0
 11 12  1  0
 12 13  1  0
 13 14  1  0
 14 15  1  0
 13 16  1  0
 16 17  1  0
 17 18  2  0
 18 19  1  0
 19 20  2  0
 20 21  1  0
 20 22  1  0
 22 23  2  0
 23 24  1  0
 24 25  2  0
 24 26  1  0
 26 27  1  0
 27 28  1  0
 28 29  1  0
 29 30  2  0
 30 31  1  0
 31 32  2  0
 32 33  1  0
 32 34  1  0
 34 35  2  0
 28 36  2  0
 36 37  1  0
  7  2  1  0
 15 10  1  0
 23 17  1  0
 37 26  1  0
 26 13  1  0
 35 29  1  0
  1 38  1  0
  1 39  1  0
  1 40  1  0
  6 41  1  0
  6 42  1  0
  6 43  1  0
 11 44  1  0
 11 45  1  0
 12 46  1  0
 12 47  1  0
 14 48  1  0
 14 49  1  0
 15 50  1  0
 15 51  1  0
 18 52  1  0
 19 53  1  0
 22 54  1  0
 27 55  1  0
 27 56  1  0
 30 57  1  0
 31 58  1  0
 34 59  1  0
 35 60  1  0
M  END
$$$$
