
     RDKit          3D

 58 62  0  0  0  0  0  0  0  0999 V2000
    7.4997    1.0410    3.4983 C   0  0  0  0  0  0  0  0  0  0  0  0
    7.2300    0.4478    2.2342 O   0  0  0  0  0  0  0  0  0  0  0  0
    5.9248    0.4301    1.8245 C   0  0  0  0  0  0  0  0  0  0  0  0
    4.8359    0.9382    2.5360 C   0  0  0  0  0  0  0  0  0  0  0  0
    3.5437    0.8565    2.0011 C   0  0  0  0  0  0  0  0  0  0  0  0
    3.3194    0.2702    0.7554 C   0  0  0  0  0  0  0  0  0  0  0  0
    1.9977    0.2068    0.2729 N   0  0  0  0  0  0  0  0  0  0  0  0
    1.7385   -0.3482   -0.8846 C   0  0  0  0  0  0  0  0  0  0  0  0
    0.4175   -0.4257   -1.3220 N   0  0  0  0  0  0  0  0  0  0  0  0
   -0.1691   -1.7703   -1.4763 C   0  0  0  0  0  0  0  0  0  0  0  0
   -1.4735   -1.7016   -2.2975 C   0  0  0  0  0  0  0  0  0  0  0  0
   -2.5076   -0.7875   -1.7586 N   0  0  0  0  0  0  0  0  0  0  0  0
   -3.1230   -1.3165   -0.5259 C   0  0  0  0  0  0  0  0  0  0  0  0
   -4.6533   -1.1175   -0.4918 C   0  0  0  0  0  0  0  0  0  0  0  0
   -5.1309    0.3027   -0.2646 C   0  0  0  0  0  0  0  0  0  0  0  0
   -5.3745    1.1078   -1.3928 C   0  0  0  0  0  0  0  0  0  0  0  0
   -5.8075    2.4257   -1.2578 C   0  0  0  0  0  0  0  0  0  0  0  0
   -6.0102    2.9620    0.0077 C   0  0  0  0  0  0  0  0  0  0  0  0
   -5.7818    2.1783    1.1385 C   0  0  0  0  0  0  0  0  0  0  0  0
   -5.3407    0.8446    1.0249 C   0  0  0  0  0  0  0  0  0  0  0  0
   -5.1423    0.0320    2.2862 C   0  0  0  0  0  0  0  0  0  0  0  0
   -6.0441   -0.9825    2.4032 F   0  0  0  0  0  0  0  0  0  0  0  0
   -3.9130   -0.5512    2.3564 F   0  0  0  0  0  0  0  0  0  0  0  0
   -5.2620    0.7624    3.4319 F   0  0  0  0  0  0  0  0  0  0  0  0
   -1.8733    0.5389   -1.5413 C   0  0  0  0  0  0  0  0  0  0  0  0
   -0.5483    0.5300   -0.7427 C   0  0  0  0  0  0  0  0  0  0  0  0
    2.8470   -0.8536   -1.6776 C   0  0  0  0  0  0  0  0  0  0  0  0
    2.8967   -1.3861   -2.9536 C   0  0  0  0  0  0  0  0  0  0  0  0
    4.2438   -1.7170   -3.2285 C   0  0  0  0  0  0  0  0  0  0  0  0
    4.9869   -1.3542   -2.1256 C   0  0  0  0  0  0  0  0  0  0  0  0
    4.1361   -0.8022   -1.1975 N   0  0  0  0  0  0  0  0  0  0  0  0
    4.4211   -0.2350    0.0544 C   0  0  0  0  0  0  0  0  0  0  0  0
    5.7161   -0.1600    0.5750 C   0  0  0  0  0  0  0  0  0  0  0  0
    6.9977    0.4966    4.3050 H   0  0  0  0  0  0  0  0  0  0  0  0
    8.5779    0.9768    3.6743 H   0  0  0  0  0  0  0  0  0  0  0  0
    7.2241    2.1008    3.5040 H   0  0  0  0  0  0  0  0  0  0  0  0
    4.9524    1.4040    3.5087 H   0  0  0  0  0  0  0  0  0  0  0  0
    2.7004    1.2524    2.5611 H   0  0  0  0  0  0  0  0  0  0  0  0
   -0.3634   -2.2006   -0.4858 H   0  0  0  0  0  0  0  0  0  0  0  0
    0.5214   -2.4481   -1.9875 H   0  0  0  0  0  0  0  0  0  0  0  0
   -1.2281   -1.3654   -3.3140 H   0  0  0  0  0  0  0  0  0  0  0  0
   -1.8896   -2.7095   -2.4176 H   0  0  0  0  0  0  0  0  0  0  0  0
   -2.9688   -2.4028   -0.4763 H   0  0  0  0  0  0  0  0  0  0  0  0
   -2.6548   -0.9105    0.3762 H   0  0  0  0  0  0  0  0  0  0  0  0
   -5.0915   -1.5011   -1.4237 H   0  0  0  0  0  0  0  0  0  0  0  0
   -5.0727   -1.7645    0.2881 H   0  0  0  0  0  0  0  0  0  0  0  0
   -5.2111    0.7060   -2.3924 H   0  0  0  0  0  0  0  0  0  0  0  0
   -5.9849    3.0316   -2.1427 H   0  0  0  0  0  0  0  0  0  0  0  0
   -6.3502    3.9890    0.1156 H   0  0  0  0  0  0  0  0  0  0  0  0
   -5.9564    2.6164    2.1209 H   0  0  0  0  0  0  0  0  0  0  0  0
   -2.5705    1.2294   -1.0572 H   0  0  0  0  0  0  0  0  0  0  0  0
   -1.6744    0.9700   -2.5317 H   0  0  0  0  0  0  0  0  0  0  0  0
   -0.1277    1.5427   -0.7727 H   0  0  0  0  0  0  0  0  0  0  0  0
   -0.7379    0.2807    0.3081 H   0  0  0  0  0  0  0  0  0  0  0  0
    2.0511   -1.5180   -3.6156 H   0  0  0  0  0  0  0  0  0  0  0  0
    4.6340   -2.1606   -4.1355 H   0  0  0  0  0  0  0  0  0  0  0  0
    6.0497   -1.4337   -1.9480 H   0  0  0  0  0  0  0  0  0  0  0  0
    6.5734   -0.5476    0.0344 H   0  0  0  0  0  0  0  0  0  0  0  0
  1  2  1  0
  2  3  1  0
  3  4  2  0
  4  5  1  0
  5  6  2  0
  6  7  1  0
  7  8  2  0
  8  9  1  0
  9 10  1  0
 10 11  1  0
 11 12  1  0
 12 13  1  0
 13 14  1  0
 14 15  1  0
 15 16  2  0
 16 17  1  0
 17 18  2  0
 18 19  1  0
 19 20  2  0
 20 21  1  0
 21 22  1  0
 21 23  1  0
 21 24  1  0
 12 25  1  0
 25 26  1  0
  8 27  1  0
 27 28  2  0
 28 29  1  0
 29 30  2  0
 30 31  1  0
 31 32  1  0
 32 33  2  0
 33  3  1  0
 32  6  1  0
 26  9  1  0
 31 27  1  0
 20 15  1  0
  1 34  1  0
  1 35  1  0
  1 36  1  0
  4 37  1  0
  5 38  1  0
 10 39  1  0
 10 40  1  0
 11 41  1  0
 11 42  1  0
 13 43  1  0
 13 44  1  0
 14 45  1  0
 14 46  1  0
 16 47  1  0
 17 48  1  0
 18 49  1  0
 19 50  1  0
 25 51  1  0
 25 52  1  0
 26 53  1  0
 26 54  1  0
 28 55  1  0
 29 56  1  0
 30 57  1  0
 33 58  1  0
M  END
$$$$
