
     RDKit          3D

 44 45  0  0  0  0  0  0  0  0999 V2000
    8.1603    0.1637    0.1569 C   0  0  0  0  0  0  0  0  0  0  0  0
    7.3777    0.6839    1.3479 C   0  0  0  0  0  0  0  0  0  0  0  0
    5.9803    0.7575    1.0273 O   0  0  0  0  0  0  0  0  0  0  0  0
    5.2681   -0.3777    1.2323 C   0  0  0  0  0  0  0  0  0  0  0  0
    5.7063   -1.4363    1.6528 O   0  0  0  0  0  0  0  0  0  0  0  0
    3.8395   -0.1723    0.8649 C   0  0  0  0  0  0  0  0  0  0  0  0
    3.3532    1.0543    0.3867 C   0  0  0  0  0  0  0  0  0  0  0  0
    2.0021    1.1969    0.0552 C   0  0  0  0  0  0  0  0  0  0  0  0
    1.1386    0.1066    0.1953 C   0  0  0  0  0  0  0  0  0  0  0  0
   -0.5798    0.2864   -0.1963 S   0  0  0  0  0  6  0  0  0  0  0  0
   -1.3475   -0.5741    0.6828 O   0  0  0  0  0  0  0  0  0  0  0  0
   -0.8848    1.6907   -0.3458 O   0  0  0  0  0  0  0  0  0  0  0  0
   -0.6416   -0.4246   -1.7659 N   0  0  0  0  0  0  0  0  0  0  0  0
   -1.8132   -1.2522   -1.9185 N   0  0  0  0  0  0  0  0  0  0  0  0
   -3.1267   -0.3868   -2.6453 S   0  0  0  0  0  6  0  0  0  0  0  0
   -3.7521   -1.2669   -3.6077 O   0  0  0  0  0  0  0  0  0  0  0  0
   -2.6048    0.9096   -3.0334 O   0  0  0  0  0  0  0  0  0  0  0  0
   -4.2411   -0.1874   -1.2835 C   0  0  0  0  0  0  0  0  0  0  0  0
   -4.2896    1.0246   -0.5928 C   0  0  0  0  0  0  0  0  0  0  0  0
   -5.1775    1.1708    0.4739 C   0  0  0  0  0  0  0  0  0  0  0  0
   -6.0187    0.1145    0.8499 C   0  0  0  0  0  0  0  0  0  0  0  0
   -6.9952    0.2901    1.9762 C   0  0  0  0  0  0  0  0  0  0  0  0
   -5.9829   -1.0841    0.1245 C   0  0  0  0  0  0  0  0  0  0  0  0
   -5.0957   -1.2390   -0.9416 C   0  0  0  0  0  0  0  0  0  0  0  0
    1.6067   -1.1171    0.6817 C   0  0  0  0  0  0  0  0  0  0  0  0
    2.9575   -1.2545    1.0113 C   0  0  0  0  0  0  0  0  0  0  0  0
    7.8514   -0.8539   -0.1021 H   0  0  0  0  0  0  0  0  0  0  0  0
    7.9772    0.7863   -0.7250 H   0  0  0  0  0  0  0  0  0  0  0  0
    9.2331    0.1595    0.3696 H   0  0  0  0  0  0  0  0  0  0  0  0
    7.5505    0.0715    2.2404 H   0  0  0  0  0  0  0  0  0  0  0  0
    7.7046    1.7011    1.5875 H   0  0  0  0  0  0  0  0  0  0  0  0
    4.0152    1.9100    0.2707 H   0  0  0  0  0  0  0  0  0  0  0  0
    1.6383    2.1573   -0.3058 H   0  0  0  0  0  0  0  0  0  0  0  0
   -0.6313    0.3468   -2.4602 H   0  0  0  0  0  0  0  0  0  0  0  0
   -2.1106   -1.6830   -1.0258 H   0  0  0  0  0  0  0  0  0  0  0  0
   -3.6454    1.8572   -0.8693 H   0  0  0  0  0  0  0  0  0  0  0  0
   -5.2099    2.1166    1.0117 H   0  0  0  0  0  0  0  0  0  0  0  0
   -7.1980   -0.6660    2.4700 H   0  0  0  0  0  0  0  0  0  0  0  0
   -7.9362    0.6984    1.5950 H   0  0  0  0  0  0  0  0  0  0  0  0
   -6.5956    0.9695    2.7364 H   0  0  0  0  0  0  0  0  0  0  0  0
   -6.6513   -1.9024    0.3855 H   0  0  0  0  0  0  0  0  0  0  0  0
   -5.0871   -2.1721   -1.5012 H   0  0  0  0  0  0  0  0  0  0  0  0
    0.9340   -1.9633    0.8063 H   0  0  0  0  0  0  0  0  0  0  0  0
    3.3218   -2.2102    1.3867 H   0  0  0  0  0  0  0  0  0  0  0  0
  1  2  1  0
  2  3  1  0
  3  4  1  0
  4  5  2  0
  4  6  1  0
  6  7  2  0
  7  8  1  0
  8  9  2  0
  9 10  1  0
 10 11  2  0
 10 12  2  0
 10 13  1  0
 13 14  1  0
 14 15  1  0
 15 16  2  0
 15 17  2  0
 15 18  1  0
 18 19  2  0
 19 20  1  0
 20 21  2  0
 21 22  1  0
 21 23  1  0
 23 24  2  0
  9 25  1  0
 25 26  2  0
 26  6  1  0
 24 18  1  0
  1 27  1  0
  1 28  1  0
  1 29  1  0
  2 30  1  0
  2 31  1  0
  7 32  1  0
  8 33  1  0
 13 34  1  0
 14 35  1  0
 19 36  1  0
 20 37  1  0
 22 38  1  0
 22 39  1  0
 22 40  1  0
 23 41  1  0
 24 42  1  0
 25 43  1  0
 26 44  1  0
M  END
$$$$
