
     RDKit          3D

 53 55  0  0  0  0  0  0  0  0999 V2000
   -6.8918    0.7637    1.4616 C   0  0  0  0  0  0  0  0  0  0  0  0
   -5.8101    0.1863    0.7416 O   0  0  0  0  0  0  0  0  0  0  0  0
   -4.6126    0.0540    1.3989 C   0  0  0  0  0  0  0  0  0  0  0  0
   -4.3945    0.4242    2.7315 C   0  0  0  0  0  0  0  0  0  0  0  0
   -3.1418    0.2443    3.3209 C   0  0  0  0  0  0  0  0  0  0  0  0
   -2.1005   -0.3083    2.5853 C   0  0  0  0  0  0  0  0  0  0  0  0
   -2.3068   -0.6804    1.2569 C   0  0  0  0  0  0  0  0  0  0  0  0
   -3.5604   -0.5041    0.6418 C   0  0  0  0  0  0  0  0  0  0  0  0
   -3.8245   -0.8978   -0.7991 C   0  0  0  0  0  0  0  0  0  0  0  0
   -2.6827   -1.4630   -1.4766 N   0  0  0  0  0  0  0  0  0  0  0  0
   -1.8291   -0.6955   -2.2316 C   0  0  0  0  0  0  0  0  0  0  0  0
   -2.0212    0.4435   -2.6336 O   0  0  0  0  0  0  0  0  0  0  0  0
   -0.4706   -1.3777   -2.4931 C   0  0  0  0  0  0  0  0  0  0  0  0
   -0.2282   -2.4615   -1.9830 O   0  0  0  0  0  0  0  0  0  0  0  0
    0.3874   -0.6173   -3.2574 N   0  0  0  0  0  0  0  0  0  0  0  0
    1.8286   -0.7622   -3.1120 C   0  0  0  0  0  0  0  0  0  0  0  0
    2.4246    0.1448   -2.0025 C   0  0  0  0  0  0  0  0  0  0  0  0
    2.2629    1.5311   -2.3779 O   0  0  0  0  0  0  0  0  0  0  0  0
    1.2376    2.0875   -1.5443 C   0  0  0  0  0  0  0  0  0  0  0  0
    1.3177    1.3045   -0.2544 C   0  0  0  0  0  0  0  0  0  0  0  0
    1.7355   -0.0167   -0.7173 N   0  0  0  0  0  0  0  0  0  0  0  0
    2.3215   -1.1417    0.3744 S   0  0  0  0  0  6  0  0  0  0  0  0
    1.3855   -1.2108    1.4772 O   0  0  0  0  0  0  0  0  0  0  0  0
    2.7207   -2.3229   -0.3578 O   0  0  0  0  0  0  0  0  0  0  0  0
    3.8191   -0.4026    1.0081 C   0  0  0  0  0  0  0  0  0  0  0  0
    5.0450   -0.6812    0.3940 C   0  0  0  0  0  0  0  0  0  0  0  0
    6.2183   -0.1287    0.9115 C   0  0  0  0  0  0  0  0  0  0  0  0
    6.1611    0.6796    2.0475 C   0  0  0  0  0  0  0  0  0  0  0  0
    7.7516    1.4260    2.7456 Br  0  0  0  0  0  0  0  0  0  0  0  0
    4.9432    0.9328    2.6801 C   0  0  0  0  0  0  0  0  0  0  0  0
    3.7674    0.3821    2.1664 C   0  0  0  0  0  0  0  0  0  0  0  0
   -7.7557    0.8035    0.7911 H   0  0  0  0  0  0  0  0  0  0  0  0
   -7.1676    0.1464    2.3226 H   0  0  0  0  0  0  0  0  0  0  0  0
   -6.6615    1.7899    1.7651 H   0  0  0  0  0  0  0  0  0  0  0  0
   -5.1818    0.8528    3.3424 H   0  0  0  0  0  0  0  0  0  0  0  0
   -2.9824    0.5295    4.3569 H   0  0  0  0  0  0  0  0  0  0  0  0
   -1.1242   -0.4605    3.0407 H   0  0  0  0  0  0  0  0  0  0  0  0
   -1.4663   -1.1152    0.7209 H   0  0  0  0  0  0  0  0  0  0  0  0
   -4.6059   -1.6648   -0.8235 H   0  0  0  0  0  0  0  0  0  0  0  0
   -4.1677   -0.0189   -1.3554 H   0  0  0  0  0  0  0  0  0  0  0  0
   -2.3073   -2.3484   -1.1463 H   0  0  0  0  0  0  0  0  0  0  0  0
    0.0304    0.2974   -3.5190 H   0  0  0  0  0  0  0  0  0  0  0  0
    2.2606   -0.4849   -4.0787 H   0  0  0  0  0  0  0  0  0  0  0  0
    2.0613   -1.8124   -2.9116 H   0  0  0  0  0  0  0  0  0  0  0  0
    3.5007   -0.0291   -1.9280 H   0  0  0  0  0  0  0  0  0  0  0  0
    1.4138    3.1571   -1.4010 H   0  0  0  0  0  0  0  0  0  0  0  0
    0.2706    1.9593   -2.0397 H   0  0  0  0  0  0  0  0  0  0  0  0
    2.0768    1.7532    0.3917 H   0  0  0  0  0  0  0  0  0  0  0  0
    0.3587    1.2804    0.2684 H   0  0  0  0  0  0  0  0  0  0  0  0
    5.0997   -1.3343   -0.4751 H   0  0  0  0  0  0  0  0  0  0  0  0
    7.1702   -0.3428    0.4312 H   0  0  0  0  0  0  0  0  0  0  0  0
    4.9020    1.5470    3.5763 H   0  0  0  0  0  0  0  0  0  0  0  0
    2.8228    0.5629    2.6748 H   0  0  0  0  0  0  0  0  0  0  0  0
  1  2  1  0
  2  3  1  0
  3  4  2  0
  4  5  1  0
  5  6  2  0
  6  7  1  0
  7  8  2  0
  8  9  1  0
  9 10  1  0
 10 11  1  0
 11 12  2  0
 11 13  1  0
 13 14  2  0
 13 15  1  0
 15 16  1  0
 16 17  1  0
 17 18  1  0
 18 19  1  0
 19 20  1  0
 20 21  1  0
 21 22  1  0
 22 23  2  0
 22 24  2  0
 22 25  1  0
 25 26  2  0
 26 27  1  0
 27 28  2  0
 28 29  1  0
 28 30  1  0
 30 31  2  0
  8  3  1  0
 21 17  1  0
 31 25  1  0
  1 32  1  0
  1 33  1  0
  1 34  1  0
  4 35  1  0
  5 36  1  0
  6 37  1  0
  7 38  1  0
  9 39  1  0
  9 40  1  0
 10 41  1  0
 15 42  1  0
 16 43  1  0
 16 44  1  0
 17 45  1  0
 19 46  1  0
 19 47  1  0
 20 48  1  0
 20 49  1  0
 26 50  1  0
 27 51  1  0
 30 52  1  0
 31 53  1  0
M  END
$$$$
