
     RDKit          3D

 54 58  0  0  0  0  0  0  0  0999 V2000
    2.3760   -1.9882    2.5027 O   0  0  0  0  0  0  0  0  0  0  0  0
    2.4302   -1.4656    1.3909 C   0  0  0  0  0  0  0  0  0  0  0  0
    1.6809   -2.0053    0.1844 C   0  0  0  0  0  0  0  0  0  0  0  0
   -0.1024   -2.0750    0.4878 S   0  0  0  0  0  0  0  0  0  0  0  0
   -0.5805   -0.5022   -0.1334 C   0  0  0  0  0  0  0  0  0  0  0  0
    0.1375    0.5106    0.2496 N   0  0  0  0  0  0  0  0  0  0  0  0
   -0.2949    1.7536   -0.2298 C   0  0  0  0  0  0  0  0  0  0  0  0
   -1.3737    1.8792   -1.0497 C   0  0  0  0  0  0  0  0  0  0  0  0
   -1.6637    3.4824   -1.4979 S   0  0  0  0  0  0  0  0  0  0  0  0
   -0.3303    4.0510   -0.5537 C   0  0  0  0  0  0  0  0  0  0  0  0
    0.0988    5.3848   -0.4100 C   0  0  0  0  0  0  0  0  0  0  0  0
    1.1945    5.6574    0.4124 C   0  0  0  0  0  0  0  0  0  0  0  0
    1.8465    4.6324    1.0830 C   0  0  0  0  0  0  0  0  0  0  0  0
    1.4174    3.3110    0.9368 C   0  0  0  0  0  0  0  0  0  0  0  0
    0.3209    2.9969    0.1004 C   0  0  0  0  0  0  0  0  0  0  0  0
   -2.1665    0.7647   -1.4692 C   0  0  0  0  0  0  0  0  0  0  0  0
   -3.1682    0.8591   -2.1759 O   0  0  0  0  0  0  0  0  0  0  0  0
   -1.6932   -0.4605   -0.9789 N   0  0  0  0  0  0  0  0  0  0  0  0
   -2.4805   -1.6419   -1.3623 C   0  0  0  0  0  0  0  0  0  0  0  0
   -3.6274   -1.9042   -0.3791 C   0  0  0  0  0  0  0  0  0  0  0  0
   -4.4011   -3.1433   -0.7537 C   0  0  0  0  0  0  0  0  0  0  0  0
   -4.0479   -4.3903   -0.2200 C   0  0  0  0  0  0  0  0  0  0  0  0
   -4.7517   -5.5396   -0.5852 C   0  0  0  0  0  0  0  0  0  0  0  0
   -5.8092   -5.4544   -1.4893 C   0  0  0  0  0  0  0  0  0  0  0  0
   -6.1641   -4.2196   -2.0299 C   0  0  0  0  0  0  0  0  0  0  0  0
   -5.4623   -3.0683   -1.6660 C   0  0  0  0  0  0  0  0  0  0  0  0
    3.2320   -0.3776    1.1199 N   0  0  0  0  0  0  0  0  0  0  0  0
    3.9677    0.2583    2.1879 C   0  0  0  0  0  0  0  0  0  0  0  0
    4.9711    1.1774    1.5972 C   0  0  0  0  0  0  0  0  0  0  0  0
    6.3410    1.2934    1.7171 C   0  0  0  0  0  0  0  0  0  0  0  0
    6.7216    2.3935    0.9108 C   0  0  0  0  0  0  0  0  0  0  0  0
    5.5633    2.8734    0.3461 C   0  0  0  0  0  0  0  0  0  0  0  0
    4.4977    2.1402    0.7525 O   0  0  0  0  0  0  0  0  0  0  0  0
    1.9007   -1.4284   -0.7200 H   0  0  0  0  0  0  0  0  0  0  0  0
    2.0445   -3.0234    0.0087 H   0  0  0  0  0  0  0  0  0  0  0  0
   -0.4149    6.1902   -0.9270 H   0  0  0  0  0  0  0  0  0  0  0  0
    1.5352    6.6831    0.5302 H   0  0  0  0  0  0  0  0  0  0  0  0
    2.6963    4.8523    1.7250 H   0  0  0  0  0  0  0  0  0  0  0  0
    1.9277    2.5165    1.4728 H   0  0  0  0  0  0  0  0  0  0  0  0
   -2.8888   -1.4880   -2.3693 H   0  0  0  0  0  0  0  0  0  0  0  0
   -1.8334   -2.5196   -1.4520 H   0  0  0  0  0  0  0  0  0  0  0  0
   -4.3070   -1.0428   -0.3487 H   0  0  0  0  0  0  0  0  0  0  0  0
   -3.2462   -2.0064    0.6445 H   0  0  0  0  0  0  0  0  0  0  0  0
   -3.2238   -4.4745    0.4865 H   0  0  0  0  0  0  0  0  0  0  0  0
   -4.4751   -6.5026   -0.1630 H   0  0  0  0  0  0  0  0  0  0  0  0
   -6.3574   -6.3495   -1.7706 H   0  0  0  0  0  0  0  0  0  0  0  0
   -6.9887   -4.1521   -2.7349 H   0  0  0  0  0  0  0  0  0  0  0  0
   -5.7501   -2.1113   -2.0984 H   0  0  0  0  0  0  0  0  0  0  0  0
    2.9602    0.2274    0.3514 H   0  0  0  0  0  0  0  0  0  0  0  0
    3.2574    0.8110    2.8125 H   0  0  0  0  0  0  0  0  0  0  0  0
    4.4472   -0.5059    2.8081 H   0  0  0  0  0  0  0  0  0  0  0  0
    6.9836    0.6642    2.3178 H   0  0  0  0  0  0  0  0  0  0  0  0
    7.7149    2.7895    0.7601 H   0  0  0  0  0  0  0  0  0  0  0  0
    5.3384    3.6869   -0.3292 H   0  0  0  0  0  0  0  0  0  0  0  0
  1  2  2  0
  2  3  1  0
  3  4  1  0
  4  5  1  0
  5  6  2  0
  6  7  1  0
  7  8  2  0
  8  9  1  0
  9 10  1  0
 10 11  2  0
 11 12  1  0
 12 13  2  0
 13 14  1  0
 14 15  2  0
  8 16  1  0
 16 17  2  0
 16 18  1  0
 18 19  1  0
 19 20  1  0
 20 21  1  0
 21 22  2  0
 22 23  1  0
 23 24  2  0
 24 25  1  0
 25 26  2  0
  2 27  1  0
 27 28  1  0
 28 29  1  0
 29 30  2  0
 30 31  1  0
 31 32  2  0
 32 33  1  0
 18  5  1  0
 26 21  1  0
 33 29  1  0
 15  7  1  0
 15 10  1  0
  3 34  1  0
  3 35  1  0
 11 36  1  0
 12 37  1  0
 13 38  1  0
 14 39  1  0
 19 40  1  0
 19 41  1  0
 20 42  1  0
 20 43  1  0
 22 44  1  0
 23 45  1  0
 24 46  1  0
 25 47  1  0
 26 48  1  0
 27 49  1  0
 28 50  1  0
 28 51  1  0
 30 52  1  0
 31 53  1  0
 32 54  1  0
M  END
$$$$
