
     RDKit          3D

 48 50  0  0  0  0  0  0  0  0999 V2000
   -2.2620    1.3908    2.6760 C   0  0  0  0  0  0  0  0  0  0  0  0
   -2.6829    1.6193    1.3362 O   0  0  0  0  0  0  0  0  0  0  0  0
   -2.3286    0.6641    0.4171 C   0  0  0  0  0  0  0  0  0  0  0  0
   -2.1233   -0.6839    0.7296 C   0  0  0  0  0  0  0  0  0  0  0  0
   -1.7779   -1.6061   -0.2723 C   0  0  0  0  0  0  0  0  0  0  0  0
   -1.5515   -3.0215    0.0460 C   0  0  0  0  0  0  0  0  0  0  0  0
   -0.6495   -3.5028    0.9257 C   0  0  0  0  0  0  0  0  0  0  0  0
   -0.5899   -4.8965    1.2069 C   0  0  0  0  0  0  0  0  0  0  0  0
   -0.5566   -6.0440    1.3760 N   0  0  0  0  0  0  0  0  0  0  0  0
    0.2824   -2.6225    1.6925 C   0  0  0  0  0  0  0  0  0  0  0  0
    0.2673   -2.6579    2.9169 O   0  0  0  0  0  0  0  0  0  0  0  0
    1.0876   -1.8443    0.8791 N   0  0  0  0  0  0  0  0  0  0  0  0
    2.0387   -0.8630    1.2677 C   0  0  0  0  0  0  0  0  0  0  0  0
    2.3216   -0.6151    2.6150 C   0  0  0  0  0  0  0  0  0  0  0  0
    3.2430    0.3622    2.9792 C   0  0  0  0  0  0  0  0  0  0  0  0
    3.8887    1.1023    1.9959 C   0  0  0  0  0  0  0  0  0  0  0  0
    3.6483    0.8896    0.6481 C   0  0  0  0  0  0  0  0  0  0  0  0
    4.3274    1.6540   -0.2239 N   0  0  0  0  0  0  0  0  0  0  0  0
    4.1262    1.4606   -1.5434 C   0  0  0  0  0  0  0  0  0  0  0  0
    3.2598    0.5181   -2.0502 C   0  0  0  0  0  0  0  0  0  0  0  0
    2.5511   -0.2662   -1.1444 C   0  0  0  0  0  0  0  0  0  0  0  0
    2.7198   -0.1071    0.2565 C   0  0  0  0  0  0  0  0  0  0  0  0
   -1.6585   -1.1769   -1.5969 C   0  0  0  0  0  0  0  0  0  0  0  0
   -1.8487    0.1674   -1.9119 C   0  0  0  0  0  0  0  0  0  0  0  0
   -1.7403    0.5234   -3.2306 O   0  0  0  0  0  0  0  0  0  0  0  0
   -0.5543    1.2864   -3.4587 C   0  0  0  0  0  0  0  0  0  0  0  0
   -2.2228    1.0787   -0.9179 C   0  0  0  0  0  0  0  0  0  0  0  0
   -2.4232    2.3969   -1.2459 O   0  0  0  0  0  0  0  0  0  0  0  0
   -3.8011    2.6201   -1.5469 C   0  0  0  0  0  0  0  0  0  0  0  0
   -1.2007    1.1203    2.7267 H   0  0  0  0  0  0  0  0  0  0  0  0
   -2.8871    0.6265    3.1541 H   0  0  0  0  0  0  0  0  0  0  0  0
   -2.3970    2.3264    3.2310 H   0  0  0  0  0  0  0  0  0  0  0  0
   -2.2469   -1.0322    1.7518 H   0  0  0  0  0  0  0  0  0  0  0  0
   -2.2077   -3.7093   -0.4885 H   0  0  0  0  0  0  0  0  0  0  0  0
    0.9416   -1.9466   -0.1124 H   0  0  0  0  0  0  0  0  0  0  0  0
    1.8455   -1.1666    3.4171 H   0  0  0  0  0  0  0  0  0  0  0  0
    3.4605    0.5459    4.0302 H   0  0  0  0  0  0  0  0  0  0  0  0
    4.6058    1.8668    2.2908 H   0  0  0  0  0  0  0  0  0  0  0  0
    4.7023    2.1057   -2.2001 H   0  0  0  0  0  0  0  0  0  0  0  0
    3.1379    0.3931   -3.1224 H   0  0  0  0  0  0  0  0  0  0  0  0
    1.8729   -1.0038   -1.5626 H   0  0  0  0  0  0  0  0  0  0  0  0
   -1.4138   -1.8746   -2.3933 H   0  0  0  0  0  0  0  0  0  0  0  0
   -0.5955    1.6635   -4.4908 H   0  0  0  0  0  0  0  0  0  0  0  0
    0.3262    0.6383   -3.3653 H   0  0  0  0  0  0  0  0  0  0  0  0
   -0.4552    2.1489   -2.7893 H   0  0  0  0  0  0  0  0  0  0  0  0
   -3.9137    3.6687   -1.8423 H   0  0  0  0  0  0  0  0  0  0  0  0
   -4.4324    2.4485   -0.6694 H   0  0  0  0  0  0  0  0  0  0  0  0
   -4.1337    1.9965   -2.3868 H   0  0  0  0  0  0  0  0  0  0  0  0
  1  2  1  0
  2  3  1  0
  3  4  2  0
  4  5  1  0
  5  6  1  0
  6  7  2  3
  7  8  1  0
  8  9  3  0
  7 10  1  0
 10 11  2  0
 10 12  1  0
 12 13  1  0
 13 14  2  0
 14 15  1  0
 15 16  2  0
 16 17  1  0
 17 18  2  0
 18 19  1  0
 19 20  2  0
 20 21  1  0
 21 22  2  0
  5 23  2  0
 23 24  1  0
 24 25  1  0
 25 26  1  0
 24 27  2  0
 27 28  1  0
 28 29  1  0
 27  3  1  0
 22 13  1  0
 22 17  1  0
  1 30  1  0
  1 31  1  0
  1 32  1  0
  4 33  1  0
  6 34  1  0
 12 35  1  0
 14 36  1  0
 15 37  1  0
 16 38  1  0
 19 39  1  0
 20 40  1  0
 21 41  1  0
 23 42  1  0
 26 43  1  0
 26 44  1  0
 26 45  1  0
 29 46  1  0
 29 47  1  0
 29 48  1  0
M  END
$$$$
