
     RDKit          3D

 43 45  0  0  0  0  0  0  0  0999 V2000
   -1.1029    4.5923   -2.7446 C   0  0  0  0  0  0  0  0  0  0  0  0
   -2.0447    3.4803   -2.3891 C   0  0  0  0  0  0  0  0  0  0  0  0
   -2.4436    2.6395   -3.1830 O   0  0  0  0  0  0  0  0  0  0  0  0
   -2.3697    3.5894   -1.0425 O   0  0  0  0  0  0  0  0  0  0  0  0
   -3.2091    2.5595   -0.6012 C   0  0  0  0  0  0  0  0  0  0  0  0
   -4.5886    2.7177   -0.7584 C   0  0  0  0  0  0  0  0  0  0  0  0
   -5.4474    1.7230   -0.2967 C   0  0  0  0  0  0  0  0  0  0  0  0
   -4.9273    0.5910    0.3310 C   0  0  0  0  0  0  0  0  0  0  0  0
   -3.5457    0.4498    0.5013 C   0  0  0  0  0  0  0  0  0  0  0  0
   -2.6633    1.4333    0.0336 C   0  0  0  0  0  0  0  0  0  0  0  0
   -1.2138    1.3168    0.2555 C   0  0  0  0  0  0  0  0  0  0  0  0
   -0.5217    0.1976   -0.0131 C   0  0  0  0  0  0  0  0  0  0  0  0
    0.9182    0.0091    0.1964 C   0  0  0  0  0  0  0  0  0  0  0  0
    1.8358    1.0493    0.1787 C   0  0  0  0  0  0  0  0  0  0  0  0
    3.1836    0.7539    0.3601 C   0  0  0  0  0  0  0  0  0  0  0  0
    3.5887   -0.5715    0.5499 C   0  0  0  0  0  0  0  0  0  0  0  0
    4.9455   -0.9069    0.7286 C   0  0  0  0  0  0  0  0  0  0  0  0
    5.3349   -2.2352    0.9021 C   0  0  0  0  0  0  0  0  0  0  0  0
    4.3729   -3.2365    0.9060 C   0  0  0  0  0  0  0  0  0  0  0  0
    3.0288   -2.8871    0.7481 C   0  0  0  0  0  0  0  0  0  0  0  0
    2.0866   -3.9260    0.7324 O   0  0  0  0  0  0  0  0  0  0  0  0
    1.4153   -4.0296    1.9429 C   0  0  0  0  0  0  0  0  0  0  0  0
    0.2722   -4.9865    1.7787 C   0  0  0  0  0  0  0  0  0  0  0  0
    1.7100   -3.4870    3.0004 O   0  0  0  0  0  0  0  0  0  0  0  0
    2.5964   -1.5715    0.5498 C   0  0  0  0  0  0  0  0  0  0  0  0
    1.2880   -1.2812    0.3606 N   0  0  0  0  0  0  0  0  0  0  0  0
   -0.8280    4.5105   -3.8001 H   0  0  0  0  0  0  0  0  0  0  0  0
   -0.1942    4.5147   -2.1422 H   0  0  0  0  0  0  0  0  0  0  0  0
   -1.5910    5.5569   -2.5848 H   0  0  0  0  0  0  0  0  0  0  0  0
   -4.9902    3.6018   -1.2437 H   0  0  0  0  0  0  0  0  0  0  0  0
   -6.5217    1.8291   -0.4237 H   0  0  0  0  0  0  0  0  0  0  0  0
   -5.5979   -0.1831    0.6963 H   0  0  0  0  0  0  0  0  0  0  0  0
   -3.1674   -0.4317    1.0146 H   0  0  0  0  0  0  0  0  0  0  0  0
   -0.7342    2.2057    0.6541 H   0  0  0  0  0  0  0  0  0  0  0  0
   -1.0257   -0.6834   -0.4045 H   0  0  0  0  0  0  0  0  0  0  0  0
    1.5281    2.0756    0.0167 H   0  0  0  0  0  0  0  0  0  0  0  0
    3.9115    1.5611    0.3478 H   0  0  0  0  0  0  0  0  0  0  0  0
    5.7080   -0.1307    0.7295 H   0  0  0  0  0  0  0  0  0  0  0  0
    6.3845   -2.4844    1.0355 H   0  0  0  0  0  0  0  0  0  0  0  0
    4.6583   -4.2752    1.0406 H   0  0  0  0  0  0  0  0  0  0  0  0
    0.6555   -5.9925    1.5926 H   0  0  0  0  0  0  0  0  0  0  0  0
   -0.3700   -4.6602    0.9565 H   0  0  0  0  0  0  0  0  0  0  0  0
   -0.3246   -4.9977    2.6952 H   0  0  0  0  0  0  0  0  0  0  0  0
  1  2  1  0
  2  3  2  0
  2  4  1  0
  4  5  1  0
  5  6  2  0
  6  7  1  0
  7  8  2  0
  8  9  1  0
  9 10  2  0
 10 11  1  0
 11 12  2  0
 12 13  1  0
 13 14  2  0
 14 15  1  0
 15 16  2  0
 16 17  1  0
 17 18  2  0
 18 19  1  0
 19 20  2  0
 20 21  1  0
 21 22  1  0
 22 23  1  0
 22 24  2  0
 20 25  1  0
 25 26  2  0
 10  5  1  0
 26 13  1  0
 25 16  1  0
  1 27  1  0
  1 28  1  0
  1 29  1  0
  6 30  1  0
  7 31  1  0
  8 32  1  0
  9 33  1  0
 11 34  1  0
 12 35  1  0
 14 36  1  0
 15 37  1  0
 17 38  1  0
 18 39  1  0
 19 40  1  0
 23 41  1  0
 23 42  1  0
 23 43  1  0
M  END
$$$$
