
     RDKit          3D

 28 29  0  0  0  0  0  0  0  0999 V2000
    4.6368   -1.6092    1.2600 C   0  0  0  0  0  0  0  0  0  0  0  0
    4.1055   -0.2153    1.5368 C   0  0  0  0  0  0  0  0  0  0  0  0
    2.8078   -0.0538    0.9463 O   0  0  0  0  0  0  0  0  0  0  0  0
    2.7998    0.3504   -0.3566 C   0  0  0  0  0  0  0  0  0  0  0  0
    3.7948    0.5719   -1.0324 O   0  0  0  0  0  0  0  0  0  0  0  0
    1.4355    0.4712   -0.8103 C   0  0  0  0  0  0  0  0  0  0  0  0
    0.9689    0.8511   -2.0575 C   0  0  0  0  0  0  0  0  0  0  0  0
   -0.4476    0.8201   -2.0261 C   0  0  0  0  0  0  0  0  0  0  0  0
   -0.8262    0.4216   -0.7607 C   0  0  0  0  0  0  0  0  0  0  0  0
   -2.1204    0.2248   -0.1896 C   0  0  0  0  0  0  0  0  0  0  0  0
   -3.3652    0.3830   -0.7603 C   0  0  0  0  0  0  0  0  0  0  0  0
   -4.2846    0.0526    0.2592 C   0  0  0  0  0  0  0  0  0  0  0  0
   -5.7626    0.0480    0.2017 C   0  0  0  0  0  0  0  0  0  0  0  0
   -3.6530   -0.2878    1.3869 N   0  0  0  0  0  0  0  0  0  0  0  0
   -2.3045   -0.1801    1.1059 O   0  0  0  0  0  0  0  0  0  0  0  0
    0.3229    0.2149   -0.0385 N   0  0  0  0  0  0  0  0  0  0  0  0
    4.7676   -1.7740    0.1858 H   0  0  0  0  0  0  0  0  0  0  0  0
    3.9306   -2.3671    1.6147 H   0  0  0  0  0  0  0  0  0  0  0  0
    5.5990   -1.7632    1.7565 H   0  0  0  0  0  0  0  0  0  0  0  0
    4.8020    0.5568    1.1901 H   0  0  0  0  0  0  0  0  0  0  0  0
    3.9844   -0.0762    2.6162 H   0  0  0  0  0  0  0  0  0  0  0  0
    1.5943    1.1219   -2.9003 H   0  0  0  0  0  0  0  0  0  0  0  0
   -1.1115    1.0643   -2.8454 H   0  0  0  0  0  0  0  0  0  0  0  0
   -3.5794    0.6935   -1.7716 H   0  0  0  0  0  0  0  0  0  0  0  0
   -6.1788    0.7434    0.9377 H   0  0  0  0  0  0  0  0  0  0  0  0
   -6.1202    0.3497   -0.7880 H   0  0  0  0  0  0  0  0  0  0  0  0
   -6.1531   -0.9531    0.4112 H   0  0  0  0  0  0  0  0  0  0  0  0
    0.3571   -0.0849    0.9283 H   0  0  0  0  0  0  0  0  0  0  0  0
  1  2  1  0
  2  3  1  0
  3  4  1  0
  4  5  2  0
  4  6  1  0
  6  7  2  0
  7  8  1  0
  8  9  2  0
  9 10  1  0
 10 11  2  0
 11 12  1  0
 12 13  1  0
 12 14  2  0
 14 15  1  0
  9 16  1  0
 16  6  1  0
 15 10  1  0
  1 17  1  0
  1 18  1  0
  1 19  1  0
  2 20  1  0
  2 21  1  0
  7 22  1  0
  8 23  1  0
 11 24  1  0
 13 25  1  0
 13 26  1  0
 13 27  1  0
 16 28  1  0
M  END
$$$$
