
     RDKit          3D

 60 63  0  0  0  0  0  0  0  0999 V2000
    8.9335   -1.9600    0.0955 C   0  0  0  0  0  0  0  0  0  0  0  0
    7.8602   -1.5446    1.0865 C   0  0  0  0  0  0  0  0  0  0  0  0
    6.6440   -2.2496    0.8434 O   0  0  0  0  0  0  0  0  0  0  0  0
    5.7365   -1.7179   -0.0289 C   0  0  0  0  0  0  0  0  0  0  0  0
    5.9125   -0.5846   -0.8206 C   0  0  0  0  0  0  0  0  0  0  0  0
    4.8897   -0.1559   -1.6743 C   0  0  0  0  0  0  0  0  0  0  0  0
    3.6800   -0.8582   -1.7553 C   0  0  0  0  0  0  0  0  0  0  0  0
    2.5739   -0.3670   -2.6527 C   0  0  0  0  0  0  0  0  0  0  0  0
    1.8126    0.6678   -1.9967 N   0  0  0  0  0  0  0  0  0  0  0  0
    2.0248    2.0075   -2.2378 C   0  0  0  0  0  0  0  0  0  0  0  0
    2.8129    2.4199   -3.0868 O   0  0  0  0  0  0  0  0  0  0  0  0
    1.2948    2.9579   -1.2862 C   0  0  0  0  0  0  0  0  0  0  0  0
    0.1931    2.3123   -0.5727 N   0  0  0  0  0  0  0  0  0  0  0  0
    0.5356    1.6105    0.5926 N   0  0  0  0  0  0  0  0  0  0  0  0
   -0.3738    1.0045    1.3056 C   0  0  0  0  0  0  0  0  0  0  0  0
    0.0597    0.2785    2.5472 C   0  0  0  0  0  0  0  0  0  0  0  0
   -1.7498    1.0446    0.8766 C   0  0  0  0  0  0  0  0  0  0  0  0
   -2.9410    0.5825    1.4118 C   0  0  0  0  0  0  0  0  0  0  0  0
   -3.2177   -0.0170    2.7431 C   0  0  0  0  0  0  0  0  0  0  0  0
   -3.9150    0.8556    0.4421 N   0  0  0  0  0  0  0  0  0  0  0  0
   -5.2774    0.4334    0.3443 C   0  0  0  0  0  0  0  0  0  0  0  0
   -5.7784   -0.6612    1.0568 C   0  0  0  0  0  0  0  0  0  0  0  0
   -7.1198   -1.0409    0.9214 C   0  0  0  0  0  0  0  0  0  0  0  0
   -7.9810   -0.3382    0.0729 C   0  0  0  0  0  0  0  0  0  0  0  0
   -9.4072   -0.7709   -0.0950 C   0  0  0  0  0  0  0  0  0  0  0  0
   -7.4730    0.7302   -0.6701 C   0  0  0  0  0  0  0  0  0  0  0  0
   -6.1344    1.1113   -0.5388 C   0  0  0  0  0  0  0  0  0  0  0  0
   -3.4096    1.6511   -0.5398 N   0  0  0  0  0  0  0  0  0  0  0  0
   -2.0980    1.7069   -0.3052 C   0  0  0  0  0  0  0  0  0  0  0  0
   -1.1026    2.3884   -1.1228 C   0  0  0  0  0  0  0  0  0  0  0  0
   -1.3615    2.9674   -2.1745 O   0  0  0  0  0  0  0  0  0  0  0  0
    3.5067   -1.9943   -0.9571 C   0  0  0  0  0  0  0  0  0  0  0  0
    4.5306   -2.4196   -0.1068 C   0  0  0  0  0  0  0  0  0  0  0  0
    9.8844   -1.4729    0.3295 H   0  0  0  0  0  0  0  0  0  0  0  0
    9.0788   -3.0451    0.1211 H   0  0  0  0  0  0  0  0  0  0  0  0
    8.6537   -1.7023   -0.9302 H   0  0  0  0  0  0  0  0  0  0  0  0
    7.7182   -0.4588    1.1206 H   0  0  0  0  0  0  0  0  0  0  0  0
    8.1888   -1.8343    2.0913 H   0  0  0  0  0  0  0  0  0  0  0  0
    6.8315   -0.0094   -0.8080 H   0  0  0  0  0  0  0  0  0  0  0  0
    5.0396    0.7377   -2.2798 H   0  0  0  0  0  0  0  0  0  0  0  0
    2.9834   -0.0082   -3.6035 H   0  0  0  0  0  0  0  0  0  0  0  0
    1.8806   -1.1831   -2.8841 H   0  0  0  0  0  0  0  0  0  0  0  0
    1.3661    0.4472   -1.1122 H   0  0  0  0  0  0  0  0  0  0  0  0
    2.0146    3.3324   -0.5506 H   0  0  0  0  0  0  0  0  0  0  0  0
    0.9151    3.8018   -1.8709 H   0  0  0  0  0  0  0  0  0  0  0  0
   -0.3839   -0.7200    2.5776 H   0  0  0  0  0  0  0  0  0  0  0  0
   -0.2492    0.8472    3.4282 H   0  0  0  0  0  0  0  0  0  0  0  0
    1.1488    0.1751    2.5655 H   0  0  0  0  0  0  0  0  0  0  0  0
   -3.1181   -1.1058    2.7070 H   0  0  0  0  0  0  0  0  0  0  0  0
   -4.2116    0.2496    3.1141 H   0  0  0  0  0  0  0  0  0  0  0  0
   -2.5167    0.3584    3.4938 H   0  0  0  0  0  0  0  0  0  0  0  0
   -5.1532   -1.2793    1.6891 H   0  0  0  0  0  0  0  0  0  0  0  0
   -7.4859   -1.9026    1.4765 H   0  0  0  0  0  0  0  0  0  0  0  0
   -9.4819   -1.5107   -0.8979 H   0  0  0  0  0  0  0  0  0  0  0  0
   -9.7926   -1.2118    0.8304 H   0  0  0  0  0  0  0  0  0  0  0  0
  -10.0483    0.0830   -0.3390 H   0  0  0  0  0  0  0  0  0  0  0  0
   -8.1125    1.2758   -1.3609 H   0  0  0  0  0  0  0  0  0  0  0  0
   -5.7763    1.9521   -1.1321 H   0  0  0  0  0  0  0  0  0  0  0  0
    2.5780   -2.5585   -0.9915 H   0  0  0  0  0  0  0  0  0  0  0  0
    4.3877   -3.3076    0.5045 H   0  0  0  0  0  0  0  0  0  0  0  0
  1  2  1  0
  2  3  1  0
  3  4  1  0
  4  5  2  0
  5  6  1  0
  6  7  2  0
  7  8  1  0
  8  9  1  0
  9 10  1  0
 10 11  2  0
 10 12  1  0
 12 13  1  0
 13 14  1  0
 14 15  2  0
 15 16  1  0
 15 17  1  0
 17 18  2  0
 18 19  1  0
 18 20  1  0
 20 21  1  0
 21 22  2  0
 22 23  1  0
 23 24  2  0
 24 25  1  0
 24 26  1  0
 26 27  2  0
 20 28  1  0
 28 29  2  0
 29 30  1  0
 30 31  2  0
  7 32  1  0
 32 33  2  0
 33  4  1  0
 30 13  1  0
 29 17  1  0
 27 21  1  0
  1 34  1  0
  1 35  1  0
  1 36  1  0
  2 37  1  0
  2 38  1  0
  5 39  1  0
  6 40  1  0
  8 41  1  0
  8 42  1  0
  9 43  1  0
 12 44  1  0
 12 45  1  0
 16 46  1  0
 16 47  1  0
 16 48  1  0
 19 49  1  0
 19 50  1  0
 19 51  1  0
 22 52  1  0
 23 53  1  0
 25 54  1  0
 25 55  1  0
 25 56  1  0
 26 57  1  0
 27 58  1  0
 32 59  1  0
 33 60  1  0
M  END
$$$$
