
     RDKit          3D

 51 53  0  0  0  0  0  0  0  0999 V2000
    6.5628    2.4230   -3.0045 C   0  0  0  0  0  0  0  0  0  0  0  0
    6.4041    2.1404   -1.6237 O   0  0  0  0  0  0  0  0  0  0  0  0
    5.6903    1.0177   -1.2825 C   0  0  0  0  0  0  0  0  0  0  0  0
    5.2515    0.0532   -2.1968 C   0  0  0  0  0  0  0  0  0  0  0  0
    4.5349   -1.0655   -1.7617 C   0  0  0  0  0  0  0  0  0  0  0  0
    4.2445   -1.2356   -0.4046 C   0  0  0  0  0  0  0  0  0  0  0  0
    3.4738   -2.4420    0.0770 C   0  0  0  0  0  0  0  0  0  0  0  0
    2.1535   -2.0783    0.7410 C   0  0  0  0  0  0  0  0  0  0  0  0
    2.0293   -2.1324    1.9614 O   0  0  0  0  0  0  0  0  0  0  0  0
    1.1785   -1.7164   -0.1731 N   0  0  0  0  0  0  0  0  0  0  0  0
   -0.1578   -1.3569    0.0899 C   0  0  0  0  0  0  0  0  0  0  0  0
   -0.9634   -1.0392   -1.0088 C   0  0  0  0  0  0  0  0  0  0  0  0
   -2.3079   -0.6815   -0.8378 C   0  0  0  0  0  0  0  0  0  0  0  0
   -2.8677   -0.6260    0.4367 C   0  0  0  0  0  0  0  0  0  0  0  0
   -4.2089   -0.2758    0.6987 N   0  0  0  0  0  0  0  0  0  0  0  0
   -5.1711    0.1029   -0.2199 C   0  0  0  0  0  0  0  0  0  0  0  0
   -5.0222    0.2482   -1.4266 O   0  0  0  0  0  0  0  0  0  0  0  0
   -6.5137    0.3895    0.3610 C   0  0  0  0  0  0  0  0  0  0  0  0
   -7.0326   -0.3534    1.4298 C   0  0  0  0  0  0  0  0  0  0  0  0
   -8.2959   -0.0468    1.9438 C   0  0  0  0  0  0  0  0  0  0  0  0
   -9.0366    0.9972    1.3892 C   0  0  0  0  0  0  0  0  0  0  0  0
  -10.7403    1.4130    2.0931 Br  0  0  0  0  0  0  0  0  0  0  0  0
   -8.5347    1.7304    0.3159 C   0  0  0  0  0  0  0  0  0  0  0  0
   -7.2753    1.4211   -0.2023 C   0  0  0  0  0  0  0  0  0  0  0  0
   -2.0609   -0.9410    1.5351 C   0  0  0  0  0  0  0  0  0  0  0  0
   -0.7185   -1.3059    1.3641 C   0  0  0  0  0  0  0  0  0  0  0  0
    4.6931   -0.2727    0.5150 C   0  0  0  0  0  0  0  0  0  0  0  0
    5.4129    0.8505    0.0884 C   0  0  0  0  0  0  0  0  0  0  0  0
    5.8839    1.8331    0.9255 O   0  0  0  0  0  0  0  0  0  0  0  0
    5.6121    1.7007    2.3114 C   0  0  0  0  0  0  0  0  0  0  0  0
    5.5921    2.5180   -3.5046 H   0  0  0  0  0  0  0  0  0  0  0  0
    7.0764    3.3852   -3.0910 H   0  0  0  0  0  0  0  0  0  0  0  0
    7.1870    1.6695   -3.4919 H   0  0  0  0  0  0  0  0  0  0  0  0
    5.4604    0.1395   -3.2578 H   0  0  0  0  0  0  0  0  0  0  0  0
    4.2154   -1.8020   -2.4959 H   0  0  0  0  0  0  0  0  0  0  0  0
    4.0860   -3.0007    0.7961 H   0  0  0  0  0  0  0  0  0  0  0  0
    3.2682   -3.1365   -0.7487 H   0  0  0  0  0  0  0  0  0  0  0  0
    1.4642   -1.6710   -1.1435 H   0  0  0  0  0  0  0  0  0  0  0  0
   -0.5666   -1.0668   -2.0202 H   0  0  0  0  0  0  0  0  0  0  0  0
   -2.8874   -0.4528   -1.7265 H   0  0  0  0  0  0  0  0  0  0  0  0
   -4.4660   -0.2482    1.6761 H   0  0  0  0  0  0  0  0  0  0  0  0
   -6.4820   -1.1881    1.8548 H   0  0  0  0  0  0  0  0  0  0  0  0
   -8.6956   -0.6300    2.7711 H   0  0  0  0  0  0  0  0  0  0  0  0
   -9.1133    2.5388   -0.1243 H   0  0  0  0  0  0  0  0  0  0  0  0
   -6.8860    1.9898   -1.0452 H   0  0  0  0  0  0  0  0  0  0  0  0
   -2.4576   -0.9108    2.5467 H   0  0  0  0  0  0  0  0  0  0  0  0
   -0.1408   -1.5397    2.2528 H   0  0  0  0  0  0  0  0  0  0  0  0
    4.4644   -0.4218    1.5679 H   0  0  0  0  0  0  0  0  0  0  0  0
    4.5330    1.7151    2.5062 H   0  0  0  0  0  0  0  0  0  0  0  0
    6.0535    2.5627    2.8216 H   0  0  0  0  0  0  0  0  0  0  0  0
    6.0773    0.7984    2.7208 H   0  0  0  0  0  0  0  0  0  0  0  0
  1  2  1  0
  2  3  1  0
  3  4  2  0
  4  5  1  0
  5  6  2  0
  6  7  1  0
  7  8  1  0
  8  9  2  0
  8 10  1  0
 10 11  1  0
 11 12  2  0
 12 13  1  0
 13 14  2  0
 14 15  1  0
 15 16  1  0
 16 17  2  0
 16 18  1  0
 18 19  2  0
 19 20  1  0
 20 21  2  0
 21 22  1  0
 21 23  1  0
 23 24  2  0
 14 25  1  0
 25 26  2  0
  6 27  1  0
 27 28  2  0
 28 29  1  0
 29 30  1  0
 28  3  1  0
 26 11  1  0
 24 18  1  0
  1 31  1  0
  1 32  1  0
  1 33  1  0
  4 34  1  0
  5 35  1  0
  7 36  1  0
  7 37  1  0
 10 38  1  0
 12 39  1  0
 13 40  1  0
 15 41  1  0
 19 42  1  0
 20 43  1  0
 23 44  1  0
 24 45  1  0
 25 46  1  0
 26 47  1  0
 27 48  1  0
 30 49  1  0
 30 50  1  0
 30 51  1  0
M  END
$$$$
