
     RDKit          3D

 55 60  0  0  0  0  0  0  0  0999 V2000
   -4.8871    1.4188   -1.4466 O   0  0  0  0  0  0  0  0  0  0  0  0
   -4.2208    1.1420   -0.4508 C   0  0  0  0  0  0  0  0  0  0  0  0
   -4.8214    1.2385    0.8715 C   0  0  0  0  0  0  0  0  0  0  0  0
   -6.1834    0.9926    1.2180 C   0  0  0  0  0  0  0  0  0  0  0  0
   -6.3020    1.2461    2.5634 C   0  0  0  0  0  0  0  0  0  0  0  0
   -5.1138    1.6611    3.0706 O   0  0  0  0  0  0  0  0  0  0  0  0
   -4.2307    1.6789    2.0395 C   0  0  0  0  0  0  0  0  0  0  0  0
   -2.8843    0.7373   -0.5566 N   0  0  0  0  0  0  0  0  0  0  0  0
   -2.2632    0.8326   -1.8746 C   0  0  0  0  0  0  0  0  0  0  0  0
   -0.7439    0.7911   -1.7714 C   0  0  0  0  0  0  0  0  0  0  0  0
   -0.2639   -0.5650   -1.1892 C   0  0  0  0  0  0  0  0  0  0  0  0
   -1.2833   -1.1152   -0.1524 C   0  0  0  0  0  0  0  0  0  0  0  0
   -2.1793   -0.0409    0.4596 C   0  0  0  0  0  0  0  0  0  0  0  0
   -0.3172   -1.4480   -2.3485 O   0  0  0  0  0  0  0  0  0  0  0  0
    0.4224   -2.5916   -2.3199 C   0  0  0  0  0  0  0  0  0  0  0  0
    0.1444   -3.5256   -3.3198 C   0  0  0  0  0  0  0  0  0  0  0  0
    0.8372   -4.7370   -3.3573 C   0  0  0  0  0  0  0  0  0  0  0  0
    1.8057   -5.0045   -2.3952 C   0  0  0  0  0  0  0  0  0  0  0  0
    2.4644   -6.1696   -2.4309 F   0  0  0  0  0  0  0  0  0  0  0  0
    2.1011   -4.0811   -1.4015 C   0  0  0  0  0  0  0  0  0  0  0  0
    1.4091   -2.8674   -1.3793 C   0  0  0  0  0  0  0  0  0  0  0  0
    1.7070   -1.8580   -0.3570 C   0  0  0  0  0  0  0  0  0  0  0  0
    2.3257   -2.1811    0.6538 O   0  0  0  0  0  0  0  0  0  0  0  0
    1.1837   -0.4514   -0.6317 C   0  0  0  0  0  0  0  0  0  0  0  0
    1.3463    0.4359    0.5949 C   0  0  0  0  0  0  0  0  0  0  0  0
    2.6564    1.0615    0.2517 C   0  0  0  0  0  0  0  0  0  0  0  0
    3.4503    1.8241    1.2441 C   0  0  0  0  0  0  0  0  0  0  0  0
    2.9791    2.0524    2.5421 C   0  0  0  0  0  0  0  0  0  0  0  0
    3.7535    2.7808    3.4495 C   0  0  0  0  0  0  0  0  0  0  0  0
    4.9960    3.2834    3.0658 C   0  0  0  0  0  0  0  0  0  0  0  0
    5.4690    3.0603    1.7742 C   0  0  0  0  0  0  0  0  0  0  0  0
    4.6988    2.3332    0.8648 C   0  0  0  0  0  0  0  0  0  0  0  0
    3.0177    0.9162   -0.9837 N   0  0  0  0  0  0  0  0  0  0  0  0
    2.0353    0.1355   -1.6292 O   0  0  0  0  0  0  0  0  0  0  0  0
   -6.9734    0.6687    0.5537 H   0  0  0  0  0  0  0  0  0  0  0  0
   -7.1212    1.1959    3.2674 H   0  0  0  0  0  0  0  0  0  0  0  0
   -3.2419    2.0356    2.2905 H   0  0  0  0  0  0  0  0  0  0  0  0
   -2.5782    1.7681   -2.3513 H   0  0  0  0  0  0  0  0  0  0  0  0
   -2.6439    0.0078   -2.4889 H   0  0  0  0  0  0  0  0  0  0  0  0
   -0.4207    1.6347   -1.1530 H   0  0  0  0  0  0  0  0  0  0  0  0
   -0.3204    0.9470   -2.7717 H   0  0  0  0  0  0  0  0  0  0  0  0
   -0.7737   -1.6512    0.6565 H   0  0  0  0  0  0  0  0  0  0  0  0
   -1.9320   -1.8596   -0.6349 H   0  0  0  0  0  0  0  0  0  0  0  0
   -2.8958   -0.5269    1.1290 H   0  0  0  0  0  0  0  0  0  0  0  0
   -1.5849    0.6601    1.0535 H   0  0  0  0  0  0  0  0  0  0  0  0
   -0.6162   -3.3133   -4.0676 H   0  0  0  0  0  0  0  0  0  0  0  0
    0.6275   -5.4724   -4.1282 H   0  0  0  0  0  0  0  0  0  0  0  0
    2.8681   -4.3070   -0.6664 H   0  0  0  0  0  0  0  0  0  0  0  0
    0.6078    1.2375    0.6628 H   0  0  0  0  0  0  0  0  0  0  0  0
    1.3685   -0.1087    1.5414 H   0  0  0  0  0  0  0  0  0  0  0  0
    2.0164    1.6774    2.8738 H   0  0  0  0  0  0  0  0  0  0  0  0
    3.3882    2.9560    4.4587 H   0  0  0  0  0  0  0  0  0  0  0  0
    5.5973    3.8486    3.7739 H   0  0  0  0  0  0  0  0  0  0  0  0
    6.4382    3.4505    1.4730 H   0  0  0  0  0  0  0  0  0  0  0  0
    5.0816    2.1655   -0.1402 H   0  0  0  0  0  0  0  0  0  0  0  0
  1  2  2  0
  2  3  1  0
  3  4  1  0
  4  5  2  0
  5  6  1  0
  6  7  1  0
  2  8  1  0
  8  9  1  0
  9 10  1  0
 10 11  1  0
 11 12  1  0
 12 13  1  0
 11 14  1  0
 14 15  1  0
 15 16  2  0
 16 17  1  0
 17 18  2  0
 18 19  1  0
 18 20  1  0
 20 21  2  0
 21 22  1  0
 22 23  2  0
 22 24  1  0
 24 25  1  0
 25 26  1  0
 26 27  1  0
 27 28  2  0
 28 29  1  0
 29 30  2  0
 30 31  1  0
 31 32  2  0
 26 33  2  0
 33 34  1  0
  7  3  2  0
 13  8  1  0
 21 15  1  0
 34 24  1  0
 24 11  1  0
 32 27  1  0
  4 35  1  0
  5 36  1  0
  7 37  1  0
  9 38  1  0
  9 39  1  0
 10 40  1  0
 10 41  1  0
 12 42  1  0
 12 43  1  0
 13 44  1  0
 13 45  1  0
 16 46  1  0
 17 47  1  0
 20 48  1  0
 25 49  1  0
 25 50  1  0
 28 51  1  0
 29 52  1  0
 30 53  1  0
 31 54  1  0
 32 55  1  0
M  END
$$$$
