
     RDKit          3D

 53 56  0  0  0  0  0  0  0  0999 V2000
   -8.2645    2.9323   -1.2246 C   0  0  0  0  0  0  0  0  0  0  0  0
   -7.0157    2.1434   -0.9586 C   0  0  0  0  0  0  0  0  0  0  0  0
   -6.8083    1.5321    0.2821 C   0  0  0  0  0  0  0  0  0  0  0  0
   -5.6274    0.8256    0.5465 C   0  0  0  0  0  0  0  0  0  0  0  0
   -4.6347    0.7154   -0.4332 C   0  0  0  0  0  0  0  0  0  0  0  0
   -3.4097    0.0112   -0.2095 N   0  0  0  0  0  0  0  0  0  0  0  0
   -2.3605    0.2514   -1.0424 N   0  0  0  0  0  0  0  0  0  0  0  0
   -1.3144   -0.3418   -0.4625 C   0  0  0  0  0  0  0  0  0  0  0  0
    0.0673   -0.3059   -0.9250 C   0  0  0  0  0  0  0  0  0  0  0  0
    0.4440    0.3156   -1.9174 O   0  0  0  0  0  0  0  0  0  0  0  0
    0.9257   -1.0864   -0.1258 N   0  0  0  0  0  0  0  0  0  0  0  0
    2.3478   -1.0630   -0.4232 C   0  0  0  0  0  0  0  0  0  0  0  0
    3.0317    0.1410    0.2296 C   0  0  0  0  0  0  0  0  0  0  0  0
    2.4536    0.9743    0.9231 O   0  0  0  0  0  0  0  0  0  0  0  0
    4.3907    0.2074   -0.0436 N   0  0  0  0  0  0  0  0  0  0  0  0
    5.2318    1.1929    0.6182 C   0  0  0  0  0  0  0  0  0  0  0  0
    6.5192    1.4963   -0.1544 C   0  0  0  0  0  0  0  0  0  0  0  0
    7.4057    0.2920   -0.3235 C   0  0  0  0  0  0  0  0  0  0  0  0
    7.6022   -0.4654   -1.4626 C   0  0  0  0  0  0  0  0  0  0  0  0
    8.5246   -1.5310   -1.2491 C   0  0  0  0  0  0  0  0  0  0  0  0
    9.0002   -1.5508    0.0441 C   0  0  0  0  0  0  0  0  0  0  0  0
    8.3446   -0.2873    0.9882 S   0  0  0  0  0  0  0  0  0  0  0  0
    0.5397   -1.8218    1.0018 N   0  0  0  0  0  0  0  0  0  0  0  0
   -0.7003   -1.8223    1.4066 C   0  0  0  0  0  0  0  0  0  0  0  0
   -1.0464   -2.6109    2.6374 C   0  0  0  0  0  0  0  0  0  0  0  0
   -1.6908   -1.0799    0.6648 C   0  0  0  0  0  0  0  0  0  0  0  0
   -3.0655   -0.9368    0.7637 C   0  0  0  0  0  0  0  0  0  0  0  0
   -4.0360   -1.6455    1.6365 C   0  0  0  0  0  0  0  0  0  0  0  0
   -4.8275    1.3668   -1.6636 C   0  0  0  0  0  0  0  0  0  0  0  0
   -6.0070    2.0719   -1.9229 C   0  0  0  0  0  0  0  0  0  0  0  0
   -9.0995    2.5590   -0.6197 H   0  0  0  0  0  0  0  0  0  0  0  0
   -8.5622    2.8491   -2.2759 H   0  0  0  0  0  0  0  0  0  0  0  0
   -8.0977    3.9872   -0.9828 H   0  0  0  0  0  0  0  0  0  0  0  0
   -7.5614    1.6162    1.0648 H   0  0  0  0  0  0  0  0  0  0  0  0
   -5.5057    0.4235    1.5453 H   0  0  0  0  0  0  0  0  0  0  0  0
    2.8061   -1.9842   -0.0463 H   0  0  0  0  0  0  0  0  0  0  0  0
    2.5010   -1.0093   -1.5063 H   0  0  0  0  0  0  0  0  0  0  0  0
    4.8450   -0.6428   -0.3563 H   0  0  0  0  0  0  0  0  0  0  0  0
    5.4496    0.8066    1.6210 H   0  0  0  0  0  0  0  0  0  0  0  0
    4.6603    2.1203    0.7424 H   0  0  0  0  0  0  0  0  0  0  0  0
    7.0735    2.2894    0.3627 H   0  0  0  0  0  0  0  0  0  0  0  0
    6.2617    1.8920   -1.1461 H   0  0  0  0  0  0  0  0  0  0  0  0
    7.1116   -0.2611   -2.4074 H   0  0  0  0  0  0  0  0  0  0  0  0
    8.8312   -2.2427   -2.0077 H   0  0  0  0  0  0  0  0  0  0  0  0
    9.7098   -2.2404    0.4788 H   0  0  0  0  0  0  0  0  0  0  0  0
   -0.1368   -2.8869    3.1786 H   0  0  0  0  0  0  0  0  0  0  0  0
   -1.6790   -2.0187    3.3050 H   0  0  0  0  0  0  0  0  0  0  0  0
   -1.5691   -3.5260    2.3471 H   0  0  0  0  0  0  0  0  0  0  0  0
   -4.1758   -1.1101    2.5802 H   0  0  0  0  0  0  0  0  0  0  0  0
   -3.6840   -2.6545    1.8718 H   0  0  0  0  0  0  0  0  0  0  0  0
   -5.0044   -1.7814    1.1463 H   0  0  0  0  0  0  0  0  0  0  0  0
   -4.0654    1.3299   -2.4417 H   0  0  0  0  0  0  0  0  0  0  0  0
   -6.1286    2.5643   -2.8867 H   0  0  0  0  0  0  0  0  0  0  0  0
  1  2  1  0
  2  3  2  0
  3  4  1  0
  4  5  2  0
  5  6  1  0
  6  7  1  0
  7  8  2  0
  8  9  1  0
  9 10  2  0
  9 11  1  0
 11 12  1  0
 12 13  1  0
 13 14  2  0
 13 15  1  0
 15 16  1  0
 16 17  1  0
 17 18  1  0
 18 19  2  0
 19 20  1  0
 20 21  2  0
 21 22  1  0
 11 23  1  0
 23 24  2  0
 24 25  1  0
 24 26  1  0
 26 27  2  0
 27 28  1  0
  5 29  1  0
 29 30  2  0
 30  2  1  0
 27  6  1  0
 26  8  1  0
 22 18  1  0
  1 31  1  0
  1 32  1  0
  1 33  1  0
  3 34  1  0
  4 35  1  0
 12 36  1  0
 12 37  1  0
 15 38  1  0
 16 39  1  0
 16 40  1  0
 17 41  1  0
 17 42  1  0
 19 43  1  0
 20 44  1  0
 21 45  1  0
 25 46  1  0
 25 47  1  0
 25 48  1  0
 28 49  1  0
 28 50  1  0
 28 51  1  0
 29 52  1  0
 30 53  1  0
M  END
$$$$
