
     RDKit          3D

 32 32  0  0  0  0  0  0  0  0999 V2000
   -2.4197   -1.0808   -4.7319 C   0  0  0  0  0  0  0  0  0  0  0  0
   -2.6038   -0.0793   -4.0944 C   0  0  0  0  0  0  0  0  0  0  0  0
   -2.8335    1.1521   -3.3193 C   0  0  0  0  0  0  0  0  0  0  0  0
   -1.6368    1.5555   -2.5580 N   0  0  0  0  0  0  0  0  0  0  0  0
   -1.8018    2.9364   -2.0945 C   0  0  0  0  0  0  0  0  0  0  0  0
   -1.3845    0.6315   -1.4355 C   0  0  0  0  0  0  0  0  0  0  0  0
   -0.0416    0.8780   -0.7397 C   0  0  0  0  0  0  0  0  0  0  0  0
    0.2515   -0.2119    0.2898 C   0  0  0  0  0  0  0  0  0  0  0  0
    1.4855    0.1101    0.9309 O   0  0  0  0  0  0  0  0  0  0  0  0
    1.9478   -0.7365    1.9044 C   0  0  0  0  0  0  0  0  0  0  0  0
    1.3048   -1.9137    2.3023 C   0  0  0  0  0  0  0  0  0  0  0  0
    1.8605   -2.7108    3.3070 C   0  0  0  0  0  0  0  0  0  0  0  0
    1.0576   -4.1561    3.7870 Cl  0  0  0  0  0  0  0  0  0  0  0  0
    3.0552   -2.3512    3.9257 C   0  0  0  0  0  0  0  0  0  0  0  0
    3.7044   -1.1806    3.5367 C   0  0  0  0  0  0  0  0  0  0  0  0
    3.1541   -0.3781    2.5322 C   0  0  0  0  0  0  0  0  0  0  0  0
    4.0047    1.0630    2.0951 Cl  0  0  0  0  0  0  0  0  0  0  0  0
   -2.2474   -1.9655   -5.3000 H   0  0  0  0  0  0  0  0  0  0  0  0
   -3.6994    1.0303   -2.6564 H   0  0  0  0  0  0  0  0  0  0  0  0
   -3.0950    1.9376   -4.0403 H   0  0  0  0  0  0  0  0  0  0  0  0
   -2.6220    3.0341   -1.3743 H   0  0  0  0  0  0  0  0  0  0  0  0
   -0.8845    3.3156   -1.6340 H   0  0  0  0  0  0  0  0  0  0  0  0
   -2.0057    3.6061   -2.9383 H   0  0  0  0  0  0  0  0  0  0  0  0
   -2.1980    0.6870   -0.6999 H   0  0  0  0  0  0  0  0  0  0  0  0
   -1.3673   -0.4002   -1.8072 H   0  0  0  0  0  0  0  0  0  0  0  0
   -0.0302    1.8493   -0.2319 H   0  0  0  0  0  0  0  0  0  0  0  0
    0.7728    0.9069   -1.4749 H   0  0  0  0  0  0  0  0  0  0  0  0
    0.3338   -1.1804   -0.2177 H   0  0  0  0  0  0  0  0  0  0  0  0
   -0.5570   -0.2422    1.0301 H   0  0  0  0  0  0  0  0  0  0  0  0
    0.3738   -2.2349    1.8480 H   0  0  0  0  0  0  0  0  0  0  0  0
    3.4840   -2.9741    4.7064 H   0  0  0  0  0  0  0  0  0  0  0  0
    4.6374   -0.8969    4.0173 H   0  0  0  0  0  0  0  0  0  0  0  0
  1  2  3  0
  2  3  1  0
  3  4  1  0
  4  5  1  0
  4  6  1  0
  6  7  1  0
  7  8  1  0
  8  9  1  0
  9 10  1  0
 10 11  2  0
 11 12  1  0
 12 13  1  0
 12 14  2  0
 14 15  1  0
 15 16  2  0
 16 17  1  0
 16 10  1  0
  1 18  1  0
  3 19  1  0
  3 20  1  0
  5 21  1  0
  5 22  1  0
  5 23  1  0
  6 24  1  0
  6 25  1  0
  7 26  1  0
  7 27  1  0
  8 28  1  0
  8 29  1  0
 11 30  1  0
 14 31  1  0
 15 32  1  0
M  END
$$$$
