
     RDKit          3D

 31 32  0  0  0  0  0  0  0  0999 V2000
    2.5779    1.7266   -0.5811 C   0  0  0  0  0  0  0  0  0  0  0  0
    2.2627    0.9383    0.6817 C   0  0  0  0  0  0  0  0  0  0  0  0
    2.4530   -0.4966    0.4853 N   0  0  0  0  0  0  0  0  0  0  0  0
    1.6384   -1.3810   -0.1594 C   0  0  0  0  0  0  0  0  0  0  0  0
    0.2968   -1.0788   -0.6111 C   0  0  0  0  0  0  0  0  0  0  0  0
   -0.1729   -1.4906   -1.8452 C   0  0  0  0  0  0  0  0  0  0  0  0
   -1.7781   -0.9989   -2.1495 S   0  0  0  0  0  0  0  0  0  0  0  0
   -1.9155   -0.2699   -0.6069 C   0  0  0  0  0  0  0  0  0  0  0  0
   -3.2128    0.3860   -0.1940 C   0  0  0  0  0  0  0  0  0  0  0  0
   -3.0026    1.8715    0.1056 C   0  0  0  0  0  0  0  0  0  0  0  0
   -3.8267   -0.3276    1.0119 C   0  0  0  0  0  0  0  0  0  0  0  0
   -0.7403   -0.3995    0.1105 C   0  0  0  0  0  0  0  0  0  0  0  0
    2.1636   -2.5550   -0.3734 N   0  0  0  0  0  0  0  0  0  0  0  0
    3.4094   -2.4652    0.1725 N   0  0  0  0  0  0  0  0  0  0  0  0
    3.6229   -1.1938    0.6814 C   0  0  0  0  0  0  0  0  0  0  0  0
    5.0573   -0.7113    1.3568 S   0  0  0  0  0  0  0  0  0  0  0  0
    1.9233    1.4308   -1.4071 H   0  0  0  0  0  0  0  0  0  0  0  0
    3.6119    1.5638   -0.9014 H   0  0  0  0  0  0  0  0  0  0  0  0
    2.4394    2.7976   -0.4040 H   0  0  0  0  0  0  0  0  0  0  0  0
    1.2343    1.1361    0.9859 H   0  0  0  0  0  0  0  0  0  0  0  0
    2.9085    1.2825    1.4955 H   0  0  0  0  0  0  0  0  0  0  0  0
    0.3664   -2.0526   -2.5969 H   0  0  0  0  0  0  0  0  0  0  0  0
   -3.9360    0.3182   -1.0177 H   0  0  0  0  0  0  0  0  0  0  0  0
   -3.9547    2.3552    0.3491 H   0  0  0  0  0  0  0  0  0  0  0  0
   -2.3237    2.0231    0.9523 H   0  0  0  0  0  0  0  0  0  0  0  0
   -2.5750    2.3891   -0.7605 H   0  0  0  0  0  0  0  0  0  0  0  0
   -4.7935    0.1164    1.2727 H   0  0  0  0  0  0  0  0  0  0  0  0
   -3.1799   -0.2636    1.8941 H   0  0  0  0  0  0  0  0  0  0  0  0
   -3.9921   -1.3892    0.7967 H   0  0  0  0  0  0  0  0  0  0  0  0
   -0.6389   -0.0356    1.1258 H   0  0  0  0  0  0  0  0  0  0  0  0
    4.0768   -3.2262    0.1304 H   0  0  0  0  0  0  0  0  0  0  0  0
  1  2  1  0
  2  3  1  0
  3  4  1  0
  4  5  1  0
  5  6  2  0
  6  7  1  0
  7  8  1  0
  8  9  1  0
  9 10  1  0
  9 11  1  0
  8 12  2  0
  4 13  2  0
 13 14  1  0
 14 15  1  0
 15 16  2  0
 15  3  1  0
 12  5  1  0
  1 17  1  0
  1 18  1  0
  1 19  1  0
  2 20  1  0
  2 21  1  0
  6 22  1  0
  9 23  1  0
 10 24  1  0
 10 25  1  0
 10 26  1  0
 11 27  1  0
 11 28  1  0
 11 29  1  0
 12 30  1  0
 14 31  1  0
M  END
$$$$
