
     RDKit          3D

 52 55  0  0  0  0  0  0  0  0999 V2000
   -3.1531   -3.4061   -1.9819 C   0  0  0  0  0  0  0  0  0  0  0  0
   -3.4605   -1.9473   -2.2614 C   0  0  0  0  0  0  0  0  0  0  0  0
   -3.6037   -1.2295   -1.0288 O   0  0  0  0  0  0  0  0  0  0  0  0
   -2.4610   -0.7408   -0.4738 C   0  0  0  0  0  0  0  0  0  0  0  0
   -1.3478   -0.8770   -0.9721 O   0  0  0  0  0  0  0  0  0  0  0  0
   -2.6769   -0.0282    0.7895 C   0  0  0  0  0  0  0  0  0  0  0  0
   -3.9253    0.1599    1.4992 C   0  0  0  0  0  0  0  0  0  0  0  0
   -5.2537   -0.3164    1.1478 C   0  0  0  0  0  0  0  0  0  0  0  0
   -5.6575   -1.6036    1.5202 C   0  0  0  0  0  0  0  0  0  0  0  0
   -6.9305   -2.0619    1.1772 C   0  0  0  0  0  0  0  0  0  0  0  0
   -7.8012   -1.2368    0.4652 C   0  0  0  0  0  0  0  0  0  0  0  0
   -7.4021    0.0476    0.0947 C   0  0  0  0  0  0  0  0  0  0  0  0
   -6.1296    0.5095    0.4346 C   0  0  0  0  0  0  0  0  0  0  0  0
   -3.7594    0.8877    2.6597 C   0  0  0  0  0  0  0  0  0  0  0  0
   -2.1393    1.3408    2.9063 S   0  0  0  0  0  0  0  0  0  0  0  0
   -1.6290    0.5759    1.4789 C   0  0  0  0  0  0  0  0  0  0  0  0
   -0.2955    0.5907    1.0982 N   0  0  0  0  0  0  0  0  0  0  0  0
    0.7765    1.1715    1.7518 C   0  0  0  0  0  0  0  0  0  0  0  0
    0.7540    1.7934    2.8079 O   0  0  0  0  0  0  0  0  0  0  0  0
    2.0451    0.9730    1.0382 C   0  0  0  0  0  0  0  0  0  0  0  0
    3.3298    1.4255    1.4317 C   0  0  0  0  0  0  0  0  0  0  0  0
    4.1768    0.9986    0.4370 C   0  0  0  0  0  0  0  0  0  0  0  0
    5.6172    1.0833    0.2159 C   0  0  0  0  0  0  0  0  0  0  0  0
    6.4718    0.9766    1.3290 C   0  0  0  0  0  0  0  0  0  0  0  0
    7.8572    1.0416    1.1808 C   0  0  0  0  0  0  0  0  0  0  0  0
    8.4083    1.2211   -0.0826 C   0  0  0  0  0  0  0  0  0  0  0  0
    7.5776    1.3392   -1.1991 C   0  0  0  0  0  0  0  0  0  0  0  0
    6.1837    1.2717   -1.0638 C   0  0  0  0  0  0  0  0  0  0  0  0
    5.3114    1.4228   -2.1119 O   0  0  0  0  0  0  0  0  0  0  0  0
    5.8462    1.4009   -3.4283 C   0  0  0  0  0  0  0  0  0  0  0  0
    3.4484    0.3144   -0.4900 O   0  0  0  0  0  0  0  0  0  0  0  0
    2.1137    0.2968   -0.1217 N   0  0  0  0  0  0  0  0  0  0  0  0
   -3.9253   -3.8452   -1.3418 H   0  0  0  0  0  0  0  0  0  0  0  0
   -2.2017   -3.5131   -1.4516 H   0  0  0  0  0  0  0  0  0  0  0  0
   -3.0999   -3.9768   -2.9134 H   0  0  0  0  0  0  0  0  0  0  0  0
   -4.4163   -1.8685   -2.7897 H   0  0  0  0  0  0  0  0  0  0  0  0
   -2.6991   -1.4907   -2.9037 H   0  0  0  0  0  0  0  0  0  0  0  0
   -4.9851   -2.2544    2.0741 H   0  0  0  0  0  0  0  0  0  0  0  0
   -7.2429   -3.0624    1.4645 H   0  0  0  0  0  0  0  0  0  0  0  0
   -8.7923   -1.5948    0.1982 H   0  0  0  0  0  0  0  0  0  0  0  0
   -8.0816    0.6883   -0.4614 H   0  0  0  0  0  0  0  0  0  0  0  0
   -5.8262    1.5106    0.1373 H   0  0  0  0  0  0  0  0  0  0  0  0
   -4.5148    1.1741    3.3799 H   0  0  0  0  0  0  0  0  0  0  0  0
   -0.0689    0.1073    0.2247 H   0  0  0  0  0  0  0  0  0  0  0  0
    3.5833    1.9897    2.3168 H   0  0  0  0  0  0  0  0  0  0  0  0
    6.0620    0.8257    2.3258 H   0  0  0  0  0  0  0  0  0  0  0  0
    8.5027    0.9505    2.0506 H   0  0  0  0  0  0  0  0  0  0  0  0
    9.4876    1.2759   -0.2019 H   0  0  0  0  0  0  0  0  0  0  0  0
    8.0502    1.4962   -2.1631 H   0  0  0  0  0  0  0  0  0  0  0  0
    6.4517    2.2929   -3.6195 H   0  0  0  0  0  0  0  0  0  0  0  0
    5.0066    1.4141   -4.1302 H   0  0  0  0  0  0  0  0  0  0  0  0
    6.4188    0.4856   -3.6114 H   0  0  0  0  0  0  0  0  0  0  0  0
  1  2  1  0
  2  3  1  0
  3  4  1  0
  4  5  2  0
  4  6  1  0
  6  7  1  0
  7  8  1  0
  8  9  2  0
  9 10  1  0
 10 11  2  0
 11 12  1  0
 12 13  2  0
  7 14  2  0
 14 15  1  0
 15 16  1  0
 16 17  1  0
 17 18  1  0
 18 19  2  0
 18 20  1  0
 20 21  1  0
 21 22  2  0
 22 23  1  0
 23 24  2  0
 24 25  1  0
 25 26  2  0
 26 27  1  0
 27 28  2  0
 28 29  1  0
 29 30  1  0
 22 31  1  0
 31 32  1  0
 16  6  2  0
 32 20  2  0
 13  8  1  0
 28 23  1  0
  1 33  1  0
  1 34  1  0
  1 35  1  0
  2 36  1  0
  2 37  1  0
  9 38  1  0
 10 39  1  0
 11 40  1  0
 12 41  1  0
 13 42  1  0
 14 43  1  0
 17 44  1  0
 21 45  1  0
 24 46  1  0
 25 47  1  0
 26 48  1  0
 27 49  1  0
 30 50  1  0
 30 51  1  0
 30 52  1  0
M  END
$$$$
