
     RDKit          3D

 49 52  0  0  0  0  0  0  0  0999 V2000
   -3.2923   -0.2663    2.2781 C   0  0  0  0  0  0  0  0  0  0  0  0
   -3.8200   -0.0376    0.8741 C   0  0  0  0  0  0  0  0  0  0  0  0
   -3.3599   -0.6283   -0.1942 N   0  0  0  0  0  0  0  0  0  0  0  0
   -2.2369   -1.4071   -0.0902 N   0  0  0  0  0  0  0  0  0  0  0  0
   -0.9866   -0.8417    0.1699 C   0  0  0  0  0  0  0  0  0  0  0  0
   -0.8026    0.2763    0.6423 O   0  0  0  0  0  0  0  0  0  0  0  0
    0.1155   -1.7360   -0.1788 C   0  0  0  0  0  0  0  0  0  0  0  0
   -0.0999   -2.9952   -0.6707 N   0  0  0  0  0  0  0  0  0  0  0  0
    1.0723   -3.5563   -0.9026 N   0  0  0  0  0  0  0  0  0  0  0  0
    2.0669   -2.6840   -0.5587 N   0  0  0  0  0  0  0  0  0  0  0  0
    3.4339   -3.0412   -0.6894 C   0  0  0  0  0  0  0  0  0  0  0  0
    4.4078   -2.2030   -0.3338 N   0  0  0  0  0  0  0  0  0  0  0  0
    5.5799   -2.8995   -0.6211 O   0  0  0  0  0  0  0  0  0  0  0  0
    5.3037   -4.1619   -1.1343 N   0  0  0  0  0  0  0  0  0  0  0  0
    3.9748   -4.2504   -1.1680 C   0  0  0  0  0  0  0  0  0  0  0  0
    3.2983   -5.3341   -1.5932 N   0  0  0  0  0  0  0  0  0  0  0  0
    1.4807   -1.5049   -0.1045 C   0  0  0  0  0  0  0  0  0  0  0  0
    2.2327   -0.2937    0.3076 C   0  0  0  0  0  0  0  0  0  0  0  0
    2.6928    0.2981   -0.9034 O   0  0  0  0  0  0  0  0  0  0  0  0
    3.4797    1.4111   -0.7958 C   0  0  0  0  0  0  0  0  0  0  0  0
    3.7891    2.0890    0.3864 C   0  0  0  0  0  0  0  0  0  0  0  0
    4.6096    3.2208    0.3486 C   0  0  0  0  0  0  0  0  0  0  0  0
    5.1132    3.6688   -0.8668 C   0  0  0  0  0  0  0  0  0  0  0  0
    5.8983    4.7534   -0.8967 F   0  0  0  0  0  0  0  0  0  0  0  0
    4.8114    3.0079   -2.0496 C   0  0  0  0  0  0  0  0  0  0  0  0
    3.9924    1.8787   -2.0116 C   0  0  0  0  0  0  0  0  0  0  0  0
   -4.9737    0.9062    0.7170 C   0  0  0  0  0  0  0  0  0  0  0  0
   -5.8084    0.7881   -0.4039 C   0  0  0  0  0  0  0  0  0  0  0  0
   -6.8887    1.6583   -0.5761 C   0  0  0  0  0  0  0  0  0  0  0  0
   -7.1327    2.6528    0.3681 C   0  0  0  0  0  0  0  0  0  0  0  0
   -8.4613    3.7247    0.1581 Cl  0  0  0  0  0  0  0  0  0  0  0  0
   -6.3035    2.7873    1.4805 C   0  0  0  0  0  0  0  0  0  0  0  0
   -5.2223    1.9169    1.6548 C   0  0  0  0  0  0  0  0  0  0  0  0
   -2.8290   -1.2519    2.3721 H   0  0  0  0  0  0  0  0  0  0  0  0
   -2.5610    0.5056    2.5308 H   0  0  0  0  0  0  0  0  0  0  0  0
   -4.1098   -0.2336    3.0047 H   0  0  0  0  0  0  0  0  0  0  0  0
   -2.2096   -2.1758   -0.7583 H   0  0  0  0  0  0  0  0  0  0  0  0
    2.2976   -5.2951   -1.7790 H   0  0  0  0  0  0  0  0  0  0  0  0
    3.7952   -6.0582   -2.1016 H   0  0  0  0  0  0  0  0  0  0  0  0
    1.5835    0.4077    0.8394 H   0  0  0  0  0  0  0  0  0  0  0  0
    3.0606   -0.5531    0.9763 H   0  0  0  0  0  0  0  0  0  0  0  0
    3.4073    1.7709    1.3506 H   0  0  0  0  0  0  0  0  0  0  0  0
    4.8565    3.7563    1.2599 H   0  0  0  0  0  0  0  0  0  0  0  0
    5.2118    3.3722   -2.9897 H   0  0  0  0  0  0  0  0  0  0  0  0
    3.7523    1.3570   -2.9349 H   0  0  0  0  0  0  0  0  0  0  0  0
   -5.6248    0.0171   -1.1494 H   0  0  0  0  0  0  0  0  0  0  0  0
   -7.5296    1.5551   -1.4479 H   0  0  0  0  0  0  0  0  0  0  0  0
   -6.4880    3.5707    2.2113 H   0  0  0  0  0  0  0  0  0  0  0  0
   -4.5771    2.0578    2.5176 H   0  0  0  0  0  0  0  0  0  0  0  0
  1  2  1  0
  2  3  2  3
  3  4  1  0
  4  5  1  0
  5  6  2  0
  5  7  1  0
  7  8  1  0
  8  9  2  0
  9 10  1  0
 10 11  1  0
 11 12  2  0
 12 13  1  0
 13 14  1  0
 14 15  2  0
 15 16  1  0
 10 17  1  0
 17 18  1  0
 18 19  1  0
 19 20  1  0
 20 21  2  0
 21 22  1  0
 22 23  2  0
 23 24  1  0
 23 25  1  0
 25 26  2  0
  2 27  1  0
 27 28  2  0
 28 29  1  0
 29 30  2  0
 30 31  1  0
 30 32  1  0
 32 33  2  0
 17  7  2  0
 26 20  1  0
 33 27  1  0
 15 11  1  0
  1 34  1  0
  1 35  1  0
  1 36  1  0
  4 37  1  0
 16 38  1  0
 16 39  1  0
 18 40  1  0
 18 41  1  0
 21 42  1  0
 22 43  1  0
 25 44  1  0
 26 45  1  0
 28 46  1  0
 29 47  1  0
 32 48  1  0
 33 49  1  0
M  END
$$$$
