
     RDKit          3D

 44 46  0  0  0  0  0  0  0  0999 V2000
   -6.8107    1.0178    0.6711 C   0  0  0  0  0  0  0  0  0  0  0  0
   -5.3966    0.6495    0.3304 C   0  0  0  0  0  0  0  0  0  0  0  0
   -5.1085   -0.6289   -0.1687 C   0  0  0  0  0  0  0  0  0  0  0  0
   -3.7960   -0.9973   -0.4971 C   0  0  0  0  0  0  0  0  0  0  0  0
   -3.5339   -2.3782   -1.0265 C   0  0  0  0  0  0  0  0  0  0  0  0
   -2.7768   -0.0423   -0.3633 C   0  0  0  0  0  0  0  0  0  0  0  0
   -1.4880   -0.3568   -0.7152 O   0  0  0  0  0  0  0  0  0  0  0  0
   -1.2904   -0.1363   -2.1190 C   0  0  0  0  0  0  0  0  0  0  0  0
    0.1733   -0.3864   -2.4901 C   0  0  0  0  0  0  0  0  0  0  0  0
    0.4914   -0.5892   -3.6591 O   0  0  0  0  0  0  0  0  0  0  0  0
    1.0097   -0.3064   -1.4012 N   0  0  0  0  0  0  0  0  0  0  0  0
    2.3738   -0.4041   -1.3808 C   0  0  0  0  0  0  0  0  0  0  0  0
    3.0392   -0.2855   -0.2548 N   0  0  0  0  0  0  0  0  0  0  0  0
    4.4045   -0.4037   -0.5032 C   0  0  0  0  0  0  0  0  0  0  0  0
    5.4010   -0.3063    0.5621 C   0  0  0  0  0  0  0  0  0  0  0  0
    5.0186    0.0120    1.8630 C   0  0  0  0  0  0  0  0  0  0  0  0
    5.9968    0.1008    2.8552 C   0  0  0  0  0  0  0  0  0  0  0  0
    7.3225   -0.1355    2.5237 C   0  0  0  0  0  0  0  0  0  0  0  0
    7.6177   -0.4480    1.2051 C   0  0  0  0  0  0  0  0  0  0  0  0
    6.6934   -0.5370    0.2203 N   0  0  0  0  0  0  0  0  0  0  0  0
    4.7323   -0.6122   -1.8331 C   0  0  0  0  0  0  0  0  0  0  0  0
    3.3098   -0.6558   -2.7840 S   0  0  0  0  0  0  0  0  0  0  0  0
   -3.0317    1.2196    0.1979 C   0  0  0  0  0  0  0  0  0  0  0  0
   -1.9381    2.2309    0.3930 C   0  0  0  0  0  0  0  0  0  0  0  0
   -4.3502    1.5597    0.5289 C   0  0  0  0  0  0  0  0  0  0  0  0
   -7.1634    0.4239    1.5244 H   0  0  0  0  0  0  0  0  0  0  0  0
   -7.4637    0.8356   -0.1899 H   0  0  0  0  0  0  0  0  0  0  0  0
   -6.8964    2.0799    0.9317 H   0  0  0  0  0  0  0  0  0  0  0  0
   -5.9172   -1.3448   -0.3006 H   0  0  0  0  0  0  0  0  0  0  0  0
   -4.2577   -3.0963   -0.6248 H   0  0  0  0  0  0  0  0  0  0  0  0
   -2.5394   -2.7297   -0.7333 H   0  0  0  0  0  0  0  0  0  0  0  0
   -3.6093   -2.3817   -2.1187 H   0  0  0  0  0  0  0  0  0  0  0  0
   -1.9031   -0.8244   -2.7080 H   0  0  0  0  0  0  0  0  0  0  0  0
   -1.5225    0.9036   -2.3861 H   0  0  0  0  0  0  0  0  0  0  0  0
    0.5865   -0.1651   -0.4925 H   0  0  0  0  0  0  0  0  0  0  0  0
    3.9777    0.1949    2.1034 H   0  0  0  0  0  0  0  0  0  0  0  0
    5.7246    0.3522    3.8786 H   0  0  0  0  0  0  0  0  0  0  0  0
    8.1082   -0.0755    3.2724 H   0  0  0  0  0  0  0  0  0  0  0  0
    8.6383   -0.6423    0.8965 H   0  0  0  0  0  0  0  0  0  0  0  0
    5.7137   -0.7298   -2.2748 H   0  0  0  0  0  0  0  0  0  0  0  0
   -1.0285    1.7565    0.7772 H   0  0  0  0  0  0  0  0  0  0  0  0
   -2.2306    2.9937    1.1216 H   0  0  0  0  0  0  0  0  0  0  0  0
   -1.7141    2.7258   -0.5621 H   0  0  0  0  0  0  0  0  0  0  0  0
   -4.5662    2.5433    0.9420 H   0  0  0  0  0  0  0  0  0  0  0  0
  1  2  1  0
  2  3  2  0
  3  4  1  0
  4  5  1  0
  4  6  2  0
  6  7  1  0
  7  8  1  0
  8  9  1  0
  9 10  2  0
  9 11  1  0
 11 12  1  0
 12 13  2  0
 13 14  1  0
 14 15  1  0
 15 16  2  0
 16 17  1  0
 17 18  2  0
 18 19  1  0
 19 20  2  0
 14 21  2  0
 21 22  1  0
  6 23  1  0
 23 24  1  0
 23 25  2  0
 25  2  1  0
 22 12  1  0
 20 15  1  0
  1 26  1  0
  1 27  1  0
  1 28  1  0
  3 29  1  0
  5 30  1  0
  5 31  1  0
  5 32  1  0
  8 33  1  0
  8 34  1  0
 11 35  1  0
 16 36  1  0
 17 37  1  0
 18 38  1  0
 19 39  1  0
 21 40  1  0
 24 41  1  0
 24 42  1  0
 24 43  1  0
 25 44  1  0
M  END
$$$$
