
     RDKit          3D

 55 58  0  0  0  0  0  0  0  0999 V2000
    4.0345   -2.4272    1.8160 C   0  0  0  0  0  0  0  0  0  0  0  0
    3.2379   -1.8592    0.7579 N   0  0  0  0  0  0  0  0  0  0  0  0
    3.3477   -0.6107    0.1908 C   0  0  0  0  0  0  0  0  0  0  0  0
    4.3820    0.4150    0.5177 C   0  0  0  0  0  0  0  0  0  0  0  0
    5.6717    0.2194   -0.2529 C   0  0  0  0  0  0  0  0  0  0  0  0
    5.7616    0.6737   -1.5794 C   0  0  0  0  0  0  0  0  0  0  0  0
    6.9356    0.4915   -2.3104 C   0  0  0  0  0  0  0  0  0  0  0  0
    8.0281   -0.1495   -1.7270 C   0  0  0  0  0  0  0  0  0  0  0  0
    7.9490   -0.6099   -0.4149 C   0  0  0  0  0  0  0  0  0  0  0  0
    6.7788   -0.4218    0.3226 C   0  0  0  0  0  0  0  0  0  0  0  0
    2.3777   -0.4642   -0.7019 N   0  0  0  0  0  0  0  0  0  0  0  0
    1.6421   -1.6239   -0.7328 N   0  0  0  0  0  0  0  0  0  0  0  0
    2.1576   -2.4445    0.1540 C   0  0  0  0  0  0  0  0  0  0  0  0
    1.5819   -4.0251    0.5366 S   0  0  0  0  0  0  0  0  0  0  0  0
    0.0360   -4.0816   -0.4032 C   0  0  0  0  0  0  0  0  0  0  0  0
   -1.0521   -3.2561    0.2622 C   0  0  0  0  0  0  0  0  0  0  0  0
   -1.7966   -3.7581    1.1027 O   0  0  0  0  0  0  0  0  0  0  0  0
   -1.1022   -1.9559   -0.2038 N   0  0  0  0  0  0  0  0  0  0  0  0
   -2.0895   -0.9825    0.0463 C   0  0  0  0  0  0  0  0  0  0  0  0
   -3.2342   -1.2005    0.8005 C   0  0  0  0  0  0  0  0  0  0  0  0
   -4.1949   -0.1842    0.9399 C   0  0  0  0  0  0  0  0  0  0  0  0
   -4.0740    1.0697    0.3246 C   0  0  0  0  0  0  0  0  0  0  0  0
   -5.0426    2.0594    0.4535 N   0  0  0  0  0  0  0  0  0  0  0  0
   -4.8697    3.3910   -0.1598 C   0  0  0  0  0  0  0  0  0  0  0  0
   -5.9488    4.3628    0.3526 C   0  0  0  0  0  0  0  0  0  0  0  0
   -7.2903    3.9464    0.0612 O   0  0  0  0  0  0  0  0  0  0  0  0
   -7.4299    2.5229   -0.0532 C   0  0  0  0  0  0  0  0  0  0  0  0
   -6.4390    1.7165    0.8035 C   0  0  0  0  0  0  0  0  0  0  0  0
   -2.8918    1.2711   -0.4055 C   0  0  0  0  0  0  0  0  0  0  0  0
   -1.9215    0.2653   -0.5441 C   0  0  0  0  0  0  0  0  0  0  0  0
    3.3723   -2.7495    2.6235 H   0  0  0  0  0  0  0  0  0  0  0  0
    4.7241   -1.6878    2.2154 H   0  0  0  0  0  0  0  0  0  0  0  0
    4.5953   -3.2752    1.4162 H   0  0  0  0  0  0  0  0  0  0  0  0
    4.5733    0.4553    1.5978 H   0  0  0  0  0  0  0  0  0  0  0  0
    3.9820    1.4039    0.2582 H   0  0  0  0  0  0  0  0  0  0  0  0
    4.9057    1.1645   -2.0474 H   0  0  0  0  0  0  0  0  0  0  0  0
    6.9947    0.8485   -3.3414 H   0  0  0  0  0  0  0  0  0  0  0  0
    8.9347   -0.3049   -2.2982 H   0  0  0  0  0  0  0  0  0  0  0  0
    8.8077   -1.1154    0.0344 H   0  0  0  0  0  0  0  0  0  0  0  0
    6.7462   -0.7810    1.3507 H   0  0  0  0  0  0  0  0  0  0  0  0
    0.1790   -3.7680   -1.4428 H   0  0  0  0  0  0  0  0  0  0  0  0
   -0.3090   -5.1234   -0.4325 H   0  0  0  0  0  0  0  0  0  0  0  0
   -0.2975   -1.6375   -0.7410 H   0  0  0  0  0  0  0  0  0  0  0  0
   -3.4192   -2.1423    1.2926 H   0  0  0  0  0  0  0  0  0  0  0  0
   -5.0581   -0.4183    1.5621 H   0  0  0  0  0  0  0  0  0  0  0  0
   -3.8924    3.8139    0.0883 H   0  0  0  0  0  0  0  0  0  0  0  0
   -4.9540    3.2924   -1.2501 H   0  0  0  0  0  0  0  0  0  0  0  0
   -5.8082    5.3467   -0.1104 H   0  0  0  0  0  0  0  0  0  0  0  0
   -5.8661    4.4917    1.4344 H   0  0  0  0  0  0  0  0  0  0  0  0
   -8.4563    2.2747    0.2346 H   0  0  0  0  0  0  0  0  0  0  0  0
   -7.3149    2.2588   -1.1128 H   0  0  0  0  0  0  0  0  0  0  0  0
   -6.5914    1.9455    1.8569 H   0  0  0  0  0  0  0  0  0  0  0  0
   -6.6633    0.6555    0.6397 H   0  0  0  0  0  0  0  0  0  0  0  0
   -2.6980    2.2152   -0.9079 H   0  0  0  0  0  0  0  0  0  0  0  0
   -1.0319    0.4868   -1.1322 H   0  0  0  0  0  0  0  0  0  0  0  0
  1  2  1  0
  2  3  1  0
  3  4  1  0
  4  5  1  0
  5  6  2  0
  6  7  1  0
  7  8  2  0
  8  9  1  0
  9 10  2  0
  3 11  2  0
 11 12  1  0
 12 13  2  0
 13 14  1  0
 14 15  1  0
 15 16  1  0
 16 17  2  0
 16 18  1  0
 18 19  1  0
 19 20  2  0
 20 21  1  0
 21 22  2  0
 22 23  1  0
 23 24  1  0
 24 25  1  0
 25 26  1  0
 26 27  1  0
 27 28  1  0
 22 29  1  0
 29 30  2  0
 13  2  1  0
 30 19  1  0
 10  5  1  0
 28 23  1  0
  1 31  1  0
  1 32  1  0
  1 33  1  0
  4 34  1  0
  4 35  1  0
  6 36  1  0
  7 37  1  0
  8 38  1  0
  9 39  1  0
 10 40  1  0
 15 41  1  0
 15 42  1  0
 18 43  1  0
 20 44  1  0
 21 45  1  0
 24 46  1  0
 24 47  1  0
 25 48  1  0
 25 49  1  0
 27 50  1  0
 27 51  1  0
 28 52  1  0
 28 53  1  0
 29 54  1  0
 30 55  1  0
M  END
$$$$
