
     RDKit          3D

 34 36  0  0  0  0  0  0  0  0999 V2000
    4.7724    1.9726   -0.2344 C   0  0  0  0  0  0  0  0  0  0  0  0
    4.5480    0.5978    0.1583 N   0  0  0  0  0  0  0  0  0  0  0  0
    5.6156   -0.2198    0.2824 N   0  0  0  0  0  0  0  0  0  0  0  0
    5.0786   -1.3825    0.6489 C   0  0  0  0  0  0  0  0  0  0  0  0
    3.6788   -1.3149    0.7459 C   0  0  0  0  0  0  0  0  0  0  0  0
    2.6950   -2.6088    1.2311 Cl  0  0  0  0  0  0  0  0  0  0  0  0
    3.3371   -0.0180    0.4035 C   0  0  0  0  0  0  0  0  0  0  0  0
    2.0571    0.6625    0.3233 C   0  0  0  0  0  0  0  0  0  0  0  0
    1.9990    1.8854    0.3869 O   0  0  0  0  0  0  0  0  0  0  0  0
    0.9789   -0.1815    0.1370 N   0  0  0  0  0  0  0  0  0  0  0  0
   -0.3656    0.1572    0.0351 C   0  0  0  0  0  0  0  0  0  0  0  0
   -0.8978    1.7670    0.2810 S   0  0  0  0  0  0  0  0  0  0  0  0
   -2.4749    1.3265   -0.0150 C   0  0  0  0  0  0  0  0  0  0  0  0
   -2.6489   -0.0054   -0.2716 C   0  0  0  0  0  0  0  0  0  0  0  0
   -1.4154   -0.7276   -0.2478 C   0  0  0  0  0  0  0  0  0  0  0  0
   -1.1782   -2.1459   -0.5066 C   0  0  0  0  0  0  0  0  0  0  0  0
   -2.2608   -2.9745   -0.4600 N   0  0  0  0  0  0  0  0  0  0  0  0
   -0.0613   -2.6099   -0.7204 O   0  0  0  0  0  0  0  0  0  0  0  0
   -4.0819   -0.2896   -0.5579 C   0  0  0  0  0  0  0  0  0  0  0  0
   -4.7937    1.0224   -0.1013 C   0  0  0  0  0  0  0  0  0  0  0  0
   -3.7113    2.1382   -0.0761 C   0  0  0  0  0  0  0  0  0  0  0  0
    4.1484    2.1969   -1.1027 H   0  0  0  0  0  0  0  0  0  0  0  0
    4.5258    2.6174    0.6123 H   0  0  0  0  0  0  0  0  0  0  0  0
    5.8243    2.1053   -0.5026 H   0  0  0  0  0  0  0  0  0  0  0  0
    5.7291   -2.2270    0.8356 H   0  0  0  0  0  0  0  0  0  0  0  0
    1.1745   -1.1709   -0.0128 H   0  0  0  0  0  0  0  0  0  0  0  0
   -2.0513   -3.9634   -0.4945 H   0  0  0  0  0  0  0  0  0  0  0  0
   -3.1005   -2.6990    0.0232 H   0  0  0  0  0  0  0  0  0  0  0  0
   -4.4775   -1.1412   -0.0001 H   0  0  0  0  0  0  0  0  0  0  0  0
   -4.2317   -0.4538   -1.6301 H   0  0  0  0  0  0  0  0  0  0  0  0
   -5.6421    1.2790   -0.7433 H   0  0  0  0  0  0  0  0  0  0  0  0
   -5.1835    0.8804    0.9155 H   0  0  0  0  0  0  0  0  0  0  0  0
   -3.7454    2.7276   -0.9981 H   0  0  0  0  0  0  0  0  0  0  0  0
   -3.8405    2.7976    0.7864 H   0  0  0  0  0  0  0  0  0  0  0  0
  1  2  1  0
  2  3  1  0
  3  4  2  0
  4  5  1  0
  5  6  1  0
  5  7  2  0
  7  8  1  0
  8  9  2  0
  8 10  1  0
 10 11  1  0
 11 12  1  0
 12 13  1  0
 13 14  2  0
 14 15  1  0
 15 16  1  0
 16 17  1  0
 16 18  2  0
 14 19  1  0
 19 20  1  0
 20 21  1  0
  7  2  1  0
 15 11  2  0
 21 13  1  0
  1 22  1  0
  1 23  1  0
  1 24  1  0
  4 25  1  0
 10 26  1  0
 17 27  1  0
 17 28  1  0
 19 29  1  0
 19 30  1  0
 20 31  1  0
 20 32  1  0
 21 33  1  0
 21 34  1  0
M  END
$$$$
