
     RDKit          3D

 36 37  0  0  0  0  0  0  0  0999 V2000
    2.0659    1.6993   -0.0423 O   0  0  0  0  0  0  0  0  0  0  0  0
    0.9633    1.1689   -0.1772 C   0  0  0  0  0  0  0  0  0  0  0  0
   -0.3390    1.9643   -0.2281 C   0  0  0  0  0  0  0  0  0  0  0  0
   -1.4786    1.1088   -0.0930 O   0  0  0  0  0  0  0  0  0  0  0  0
   -2.6585    1.7703   -0.1931 C   0  0  0  0  0  0  0  0  0  0  0  0
   -2.7864    2.9614   -0.4243 O   0  0  0  0  0  0  0  0  0  0  0  0
   -3.8051    0.8432    0.0089 C   0  0  0  0  0  0  0  0  0  0  0  0
   -3.6360   -0.4897    0.4117 C   0  0  0  0  0  0  0  0  0  0  0  0
   -4.7503   -1.3155    0.5951 C   0  0  0  0  0  0  0  0  0  0  0  0
   -6.0317   -0.8102    0.3791 C   0  0  0  0  0  0  0  0  0  0  0  0
   -7.5349   -1.9280    0.6328 Br  0  0  0  0  0  0  0  0  0  0  0  0
   -6.2122    0.5133   -0.0189 C   0  0  0  0  0  0  0  0  0  0  0  0
   -5.0998    1.3392   -0.2030 C   0  0  0  0  0  0  0  0  0  0  0  0
    0.8227   -0.1962   -0.3076 N   0  0  0  0  0  0  0  0  0  0  0  0
    1.9824   -1.0589   -0.4338 C   0  0  0  0  0  0  0  0  0  0  0  0
    2.8196   -1.1310    0.8529 C   0  0  0  0  0  0  0  0  0  0  0  0
    4.2409   -1.1214    0.5744 N   0  0  0  0  0  0  0  0  0  0  0  0
    5.0442   -0.0067    0.5929 C   0  0  0  0  0  0  0  0  0  0  0  0
    4.5506    1.2335    0.8655 O   0  0  0  0  0  0  0  0  0  0  0  0
    6.3310   -0.2464    0.3243 C   0  0  0  0  0  0  0  0  0  0  0  0
    6.6089   -1.9271   -0.0115 S   0  0  0  0  0  0  0  0  0  0  0  0
    4.8937   -2.2965    0.2284 C   0  0  0  0  0  0  0  0  0  0  0  0
    4.4042   -3.4060    0.0873 O   0  0  0  0  0  0  0  0  0  0  0  0
   -0.3676    2.4856   -1.1920 H   0  0  0  0  0  0  0  0  0  0  0  0
   -0.3228    2.6801    0.6017 H   0  0  0  0  0  0  0  0  0  0  0  0
   -2.6473   -0.9003    0.5963 H   0  0  0  0  0  0  0  0  0  0  0  0
   -4.6094   -2.3466    0.9101 H   0  0  0  0  0  0  0  0  0  0  0  0
   -7.2097    0.9125   -0.1855 H   0  0  0  0  0  0  0  0  0  0  0  0
   -5.2491    2.3730   -0.5119 H   0  0  0  0  0  0  0  0  0  0  0  0
   -0.0959   -0.5507   -0.5531 H   0  0  0  0  0  0  0  0  0  0  0  0
    1.6213   -2.0563   -0.7065 H   0  0  0  0  0  0  0  0  0  0  0  0
    2.5771   -0.6789   -1.2731 H   0  0  0  0  0  0  0  0  0  0  0  0
    2.5760   -2.0665    1.3725 H   0  0  0  0  0  0  0  0  0  0  0  0
    2.5846   -0.3289    1.5609 H   0  0  0  0  0  0  0  0  0  0  0  0
    3.6386    1.3060    0.5092 H   0  0  0  0  0  0  0  0  0  0  0  0
    7.1094    0.5021    0.2966 H   0  0  0  0  0  0  0  0  0  0  0  0
  1  2  2  0
  2  3  1  0
  3  4  1  0
  4  5  1  0
  5  6  2  0
  5  7  1  0
  7  8  2  0
  8  9  1  0
  9 10  2  0
 10 11  1  0
 10 12  1  0
 12 13  2  0
  2 14  1  0
 14 15  1  0
 15 16  1  0
 16 17  1  0
 17 18  1  0
 18 19  1  0
 18 20  2  0
 20 21  1  0
 21 22  1  0
 22 23  2  0
 13  7  1  0
 22 17  1  0
  3 24  1  0
  3 25  1  0
  8 26  1  0
  9 27  1  0
 12 28  1  0
 13 29  1  0
 14 30  1  0
 15 31  1  0
 15 32  1  0
 16 33  1  0
 16 34  1  0
 19 35  1  0
 20 36  1  0
M  END
$$$$
