
     RDKit          3D

 42 44  0  0  0  0  0  0  0  0999 V2000
   -5.8609   -0.7679    1.9489 C   0  0  0  0  0  0  0  0  0  0  0  0
   -4.7322   -1.4843    1.4645 O   0  0  0  0  0  0  0  0  0  0  0  0
   -3.9767   -0.8751    0.5012 C   0  0  0  0  0  0  0  0  0  0  0  0
   -4.1996    0.3956   -0.0347 C   0  0  0  0  0  0  0  0  0  0  0  0
   -3.3447    0.9042   -1.0184 C   0  0  0  0  0  0  0  0  0  0  0  0
   -2.2584    0.1408   -1.4558 C   0  0  0  0  0  0  0  0  0  0  0  0
   -1.1848    0.7818   -2.7208 S   0  0  0  0  0  6  0  0  0  0  0  0
   -0.6054   -0.3392   -3.4279 O   0  0  0  0  0  0  0  0  0  0  0  0
   -1.9153    1.8138   -3.4282 O   0  0  0  0  0  0  0  0  0  0  0  0
    0.0141    1.5871   -1.8472 N   0  0  0  0  0  0  0  0  0  0  0  0
    0.7513    0.9046   -0.8357 C   0  0  0  0  0  0  0  0  0  0  0  0
    1.5518   -0.1906   -1.1838 C   0  0  0  0  0  0  0  0  0  0  0  0
    2.2707   -0.8983   -0.2117 C   0  0  0  0  0  0  0  0  0  0  0  0
    3.1901   -2.3365   -0.7372 S   0  0  0  0  0  0  0  0  0  0  0  0
    4.8272   -1.8836   -0.3619 C   0  0  0  0  0  0  0  0  0  0  0  0
    5.7817   -1.6393   -1.3073 N   0  0  0  0  0  0  0  0  0  0  0  0
    6.8447   -1.3617   -0.5903 C   0  0  0  0  0  0  0  0  0  0  0  0
    6.5359   -1.4450    0.7302 N   0  0  0  0  0  0  0  0  0  0  0  0
    5.2459   -1.7834    0.9072 N   0  0  0  0  0  0  0  0  0  0  0  0
    2.1719   -0.4837    1.1207 C   0  0  0  0  0  0  0  0  0  0  0  0
    2.8288   -1.1020    2.1494 O   0  0  0  0  0  0  0  0  0  0  0  0
    1.3787    0.6073    1.4754 C   0  0  0  0  0  0  0  0  0  0  0  0
    0.6626    1.3195    0.5028 C   0  0  0  0  0  0  0  0  0  0  0  0
   -0.1689    2.4969    0.9266 C   0  0  0  0  0  0  0  0  0  0  0  0
   -2.0416   -1.1396   -0.9442 C   0  0  0  0  0  0  0  0  0  0  0  0
   -2.8976   -1.6366    0.0401 C   0  0  0  0  0  0  0  0  0  0  0  0
   -6.5812   -0.5763    1.1467 H   0  0  0  0  0  0  0  0  0  0  0  0
   -6.3563   -1.3920    2.6990 H   0  0  0  0  0  0  0  0  0  0  0  0
   -5.5566    0.1630    2.4386 H   0  0  0  0  0  0  0  0  0  0  0  0
   -5.0322    1.0129    0.2867 H   0  0  0  0  0  0  0  0  0  0  0  0
   -3.5363    1.8899   -1.4367 H   0  0  0  0  0  0  0  0  0  0  0  0
   -0.2055    2.5711   -1.7103 H   0  0  0  0  0  0  0  0  0  0  0  0
    1.6217   -0.4943   -2.2271 H   0  0  0  0  0  0  0  0  0  0  0  0
    7.8277   -1.1054   -0.9592 H   0  0  0  0  0  0  0  0  0  0  0  0
    7.1304   -1.2929    1.5380 H   0  0  0  0  0  0  0  0  0  0  0  0
    3.5805   -1.6060    1.7687 H   0  0  0  0  0  0  0  0  0  0  0  0
    1.3280    0.8962    2.5232 H   0  0  0  0  0  0  0  0  0  0  0  0
   -1.2153    2.3509    0.6442 H   0  0  0  0  0  0  0  0  0  0  0  0
    0.2094    3.4134    0.4628 H   0  0  0  0  0  0  0  0  0  0  0  0
   -0.1411    2.6406    2.0120 H   0  0  0  0  0  0  0  0  0  0  0  0
   -1.2159   -1.7528   -1.2981 H   0  0  0  0  0  0  0  0  0  0  0  0
   -2.7265   -2.6301    0.4493 H   0  0  0  0  0  0  0  0  0  0  0  0
  1  2  1  0
  2  3  1  0
  3  4  2  0
  4  5  1  0
  5  6  2  0
  6  7  1  0
  7  8  2  0
  7  9  2  0
  7 10  1  0
 10 11  1  0
 11 12  2  0
 12 13  1  0
 13 14  1  0
 14 15  1  0
 15 16  1  0
 16 17  2  0
 17 18  1  0
 18 19  1  0
 13 20  2  0
 20 21  1  0
 20 22  1  0
 22 23  2  0
 23 24  1  0
  6 25  1  0
 25 26  2  0
 26  3  1  0
 23 11  1  0
 19 15  2  0
  1 27  1  0
  1 28  1  0
  1 29  1  0
  4 30  1  0
  5 31  1  0
 10 32  1  0
 12 33  1  0
 17 34  1  0
 18 35  1  0
 21 36  1  0
 22 37  1  0
 24 38  1  0
 24 39  1  0
 24 40  1  0
 25 41  1  0
 26 42  1  0
M  END
$$$$
