
     RDKit          3D

 58 63  0  0  0  0  0  0  0  0999 V2000
    6.2641    3.2005   -1.0024 C   0  0  0  0  0  0  0  0  0  0  0  0
    5.9423    1.8554   -0.4486 C   0  0  0  0  0  0  0  0  0  0  0  0
    6.7352    0.7269   -0.4226 C   0  0  0  0  0  0  0  0  0  0  0  0
    6.0850   -0.3723    0.2088 C   0  0  0  0  0  0  0  0  0  0  0  0
    4.7986   -0.0655    0.6073 C   0  0  0  0  0  0  0  0  0  0  0  0
    3.8699   -0.9279    1.3225 C   0  0  0  0  0  0  0  0  0  0  0  0
    4.2463   -1.6191    2.2703 O   0  0  0  0  0  0  0  0  0  0  0  0
    2.5228   -0.9433    0.9112 N   0  0  0  0  0  0  0  0  0  0  0  0
    1.5922   -1.6877    1.7485 C   0  0  0  0  0  0  0  0  0  0  0  0
    0.1673   -1.1619    1.5916 C   0  0  0  0  0  0  0  0  0  0  0  0
   -0.2902   -1.1348    0.1126 C   0  0  0  0  0  0  0  0  0  0  0  0
    0.7702   -0.3699   -0.7242 C   0  0  0  0  0  0  0  0  0  0  0  0
    2.1770   -0.9219   -0.5094 C   0  0  0  0  0  0  0  0  0  0  0  0
   -0.2423   -2.4864   -0.4167 O   0  0  0  0  0  0  0  0  0  0  0  0
   -1.3098   -3.3009   -0.1866 C   0  0  0  0  0  0  0  0  0  0  0  0
   -1.1209   -4.6526   -0.4750 C   0  0  0  0  0  0  0  0  0  0  0  0
   -2.1517   -5.5685   -0.2507 C   0  0  0  0  0  0  0  0  0  0  0  0
   -3.3727   -5.1281    0.2599 C   0  0  0  0  0  0  0  0  0  0  0  0
   -4.6370   -6.2593    0.5405 Cl  0  0  0  0  0  0  0  0  0  0  0  0
   -3.5746   -3.7797    0.5408 C   0  0  0  0  0  0  0  0  0  0  0  0
   -2.5386   -2.8708    0.3025 C   0  0  0  0  0  0  0  0  0  0  0  0
   -2.7262   -1.4389    0.5709 C   0  0  0  0  0  0  0  0  0  0  0  0
   -3.6610   -1.0696    1.2762 O   0  0  0  0  0  0  0  0  0  0  0  0
   -1.7005   -0.5019   -0.0572 C   0  0  0  0  0  0  0  0  0  0  0  0
   -1.8544    0.9149    0.4793 C   0  0  0  0  0  0  0  0  0  0  0  0
   -2.7077    1.4814   -0.6040 C   0  0  0  0  0  0  0  0  0  0  0  0
   -3.3904    2.7901   -0.4672 C   0  0  0  0  0  0  0  0  0  0  0  0
   -4.2309    3.2271   -1.5006 C   0  0  0  0  0  0  0  0  0  0  0  0
   -4.8827    4.4595   -1.4072 C   0  0  0  0  0  0  0  0  0  0  0  0
   -4.6944    5.2571   -0.2812 C   0  0  0  0  0  0  0  0  0  0  0  0
   -5.4912    6.7760   -0.1652 Cl  0  0  0  0  0  0  0  0  0  0  0  0
   -3.8609    4.8320    0.7522 C   0  0  0  0  0  0  0  0  0  0  0  0
   -3.2073    3.5987    0.6610 C   0  0  0  0  0  0  0  0  0  0  0  0
   -2.7738    0.7605   -1.6775 N   0  0  0  0  0  0  0  0  0  0  0  0
   -2.0176   -0.4100   -1.4566 O   0  0  0  0  0  0  0  0  0  0  0  0
    4.4293    1.5806    0.3030 S   0  0  0  0  0  0  0  0  0  0  0  0
    5.4582    3.5642   -1.6489 H   0  0  0  0  0  0  0  0  0  0  0  0
    6.4169    3.9226   -0.1928 H   0  0  0  0  0  0  0  0  0  0  0  0
    7.1805    3.1656   -1.6011 H   0  0  0  0  0  0  0  0  0  0  0  0
    7.7419    0.6921   -0.8227 H   0  0  0  0  0  0  0  0  0  0  0  0
    6.5332   -1.3474    0.3611 H   0  0  0  0  0  0  0  0  0  0  0  0
    1.8873   -1.6002    2.8007 H   0  0  0  0  0  0  0  0  0  0  0  0
    1.6605   -2.7487    1.4787 H   0  0  0  0  0  0  0  0  0  0  0  0
    0.1227   -0.1505    2.0141 H   0  0  0  0  0  0  0  0  0  0  0  0
   -0.4931   -1.7934    2.1967 H   0  0  0  0  0  0  0  0  0  0  0  0
    0.7796    0.6940   -0.4661 H   0  0  0  0  0  0  0  0  0  0  0  0
    0.5395   -0.4470   -1.7938 H   0  0  0  0  0  0  0  0  0  0  0  0
    2.8909   -0.3407   -1.0963 H   0  0  0  0  0  0  0  0  0  0  0  0
    2.2571   -1.9518   -0.8797 H   0  0  0  0  0  0  0  0  0  0  0  0
   -0.1679   -4.9975   -0.8696 H   0  0  0  0  0  0  0  0  0  0  0  0
   -1.9957   -6.6210   -0.4748 H   0  0  0  0  0  0  0  0  0  0  0  0
   -4.5295   -3.4349    0.9306 H   0  0  0  0  0  0  0  0  0  0  0  0
   -0.9218    1.4834    0.5031 H   0  0  0  0  0  0  0  0  0  0  0  0
   -2.3275    0.9715    1.4623 H   0  0  0  0  0  0  0  0  0  0  0  0
   -4.3854    2.6109   -2.3848 H   0  0  0  0  0  0  0  0  0  0  0  0
   -5.5326    4.7870   -2.2146 H   0  0  0  0  0  0  0  0  0  0  0  0
   -3.7158    5.4556    1.6311 H   0  0  0  0  0  0  0  0  0  0  0  0
   -2.5623    3.2966    1.4807 H   0  0  0  0  0  0  0  0  0  0  0  0
  1  2  1  0
  2  3  2  0
  3  4  1  0
  4  5  2  0
  5  6  1  0
  6  7  2  0
  6  8  1  0
  8  9  1  0
  9 10  1  0
 10 11  1  0
 11 12  1  0
 12 13  1  0
 11 14  1  0
 14 15  1  0
 15 16  2  0
 16 17  1  0
 17 18  2  0
 18 19  1  0
 18 20  1  0
 20 21  2  0
 21 22  1  0
 22 23  2  0
 22 24  1  0
 24 25  1  0
 25 26  1  0
 26 27  1  0
 27 28  2  0
 28 29  1  0
 29 30  2  0
 30 31  1  0
 30 32  1  0
 32 33  2  0
 26 34  2  0
 34 35  1  0
  5 36  1  0
 36  2  1  0
 13  8  1  0
 21 15  1  0
 35 24  1  0
 24 11  1  0
 33 27  1  0
  1 37  1  0
  1 38  1  0
  1 39  1  0
  3 40  1  0
  4 41  1  0
  9 42  1  0
  9 43  1  0
 10 44  1  0
 10 45  1  0
 12 46  1  0
 12 47  1  0
 13 48  1  0
 13 49  1  0
 16 50  1  0
 17 51  1  0
 20 52  1  0
 25 53  1  0
 25 54  1  0
 28 55  1  0
 29 56  1  0
 32 57  1  0
 33 58  1  0
M  END
$$$$
