
     RDKit          3D

 30 31  0  0  0  0  0  0  0  0999 V2000
   -4.8217   -0.4503    0.2409 C   0  0  0  0  0  0  0  0  0  0  0  0
   -3.3234   -0.1488    0.1746 C   0  0  0  0  0  0  0  0  0  0  0  0
   -2.9483    0.2222   -1.2633 C   0  0  0  0  0  0  0  0  0  0  0  0
   -3.1020    0.9584    1.0597 O   0  0  0  0  0  0  0  0  0  0  0  0
   -1.8668    1.1754    1.5386 C   0  0  0  0  0  0  0  0  0  0  0  0
   -1.5689    2.0950    2.2780 O   0  0  0  0  0  0  0  0  0  0  0  0
   -0.8761    0.1315    1.1024 C   0  0  0  0  0  0  0  0  0  0  0  0
    0.3281    0.5017    0.7688 N   0  0  0  0  0  0  0  0  0  0  0  0
    1.1835   -0.4725    0.3431 N   0  0  0  0  0  0  0  0  0  0  0  0
    2.5239   -0.1097    0.0784 C   0  0  0  0  0  0  0  0  0  0  0  0
    3.4691   -1.1177   -0.1620 C   0  0  0  0  0  0  0  0  0  0  0  0
    4.7905   -0.8013   -0.4908 C   0  0  0  0  0  0  0  0  0  0  0  0
    5.1799    0.5307   -0.6052 C   0  0  0  0  0  0  0  0  0  0  0  0
    4.2469    1.5439   -0.4002 C   0  0  0  0  0  0  0  0  0  0  0  0
    2.9263    1.2236   -0.0724 C   0  0  0  0  0  0  0  0  0  0  0  0
   -1.3910   -1.2780    1.0090 C   0  0  0  0  0  0  0  0  0  0  0  0
   -0.7008   -2.2373    1.3121 O   0  0  0  0  0  0  0  0  0  0  0  0
   -2.6580   -1.3544    0.5793 O   0  0  0  0  0  0  0  0  0  0  0  0
   -5.0892   -1.2958   -0.4019 H   0  0  0  0  0  0  0  0  0  0  0  0
   -5.1112   -0.7186    1.2640 H   0  0  0  0  0  0  0  0  0  0  0  0
   -5.4192    0.4221   -0.0448 H   0  0  0  0  0  0  0  0  0  0  0  0
   -3.1596   -0.6037   -1.9510 H   0  0  0  0  0  0  0  0  0  0  0  0
   -1.8816    0.4477   -1.3597 H   0  0  0  0  0  0  0  0  0  0  0  0
   -3.4905    1.1145   -1.5941 H   0  0  0  0  0  0  0  0  0  0  0  0
    1.1093   -1.4117    0.7553 H   0  0  0  0  0  0  0  0  0  0  0  0
    3.1824   -2.1640   -0.0942 H   0  0  0  0  0  0  0  0  0  0  0  0
    5.5118   -1.5956   -0.6628 H   0  0  0  0  0  0  0  0  0  0  0  0
    6.2063    0.7794   -0.8613 H   0  0  0  0  0  0  0  0  0  0  0  0
    4.5409    2.5854   -0.4983 H   0  0  0  0  0  0  0  0  0  0  0  0
    2.2096    2.0280    0.0729 H   0  0  0  0  0  0  0  0  0  0  0  0
  1  2  1  0
  2  3  1  0
  2  4  1  0
  4  5  1  0
  5  6  2  0
  5  7  1  0
  7  8  2  3
  8  9  1  0
  9 10  1  0
 10 11  2  0
 11 12  1  0
 12 13  2  0
 13 14  1  0
 14 15  2  0
  7 16  1  0
 16 17  2  0
 16 18  1  0
 18  2  1  0
 15 10  1  0
  1 19  1  0
  1 20  1  0
  1 21  1  0
  3 22  1  0
  3 23  1  0
  3 24  1  0
  9 25  1  0
 11 26  1  0
 12 27  1  0
 13 28  1  0
 14 29  1  0
 15 30  1  0
M  END
$$$$
