
     RDKit          3D

 23 23  0  0  0  0  0  0  0  0999 V2000
    0.4923    2.2971   -0.5383 O   0  0  0  0  0  0  0  0  0  0  0  0
   -0.6446    1.8854   -0.6707 C   0  0  0  0  0  0  0  0  0  0  0  0
   -1.6165    2.6782   -1.1613 O   0  0  0  0  0  0  0  0  0  0  0  0
   -1.1396    0.5226   -0.3623 C   0  0  0  0  0  0  0  0  0  0  0  0
   -2.2178   -0.0038   -1.0942 C   0  0  0  0  0  0  0  0  0  0  0  0
   -2.6808   -1.2951   -0.8394 C   0  0  0  0  0  0  0  0  0  0  0  0
   -2.0761   -2.0658    0.1494 C   0  0  0  0  0  0  0  0  0  0  0  0
   -1.0057   -1.5469    0.8805 C   0  0  0  0  0  0  0  0  0  0  0  0
   -0.5130   -0.2589    0.6269 C   0  0  0  0  0  0  0  0  0  0  0  0
    0.5316    0.2097    1.4408 N   0  0  0  0  0  0  0  0  0  0  0  0
    1.7659    0.1422    1.0291 C   0  0  0  0  0  0  0  0  0  0  0  0
    2.2754   -0.4679   -0.2425 C   0  0  0  0  0  0  0  0  0  0  0  0
    3.1911    0.5159   -0.8897 N   0  0  0  0  0  4  0  0  0  0  0  0
    4.1789    0.8858   -0.2395 O   0  0  0  0  0  0  0  0  0  0  0  0
    2.9439    0.8302   -2.0612 O   0  0  0  0  0  1  0  0  0  0  0  0
   -1.1642    3.5361   -1.3073 H   0  0  0  0  0  0  0  0  0  0  0  0
   -2.7013    0.5892   -1.8678 H   0  0  0  0  0  0  0  0  0  0  0  0
   -3.5187   -1.6942   -1.4065 H   0  0  0  0  0  0  0  0  0  0  0  0
   -2.4453   -3.0662    0.3626 H   0  0  0  0  0  0  0  0  0  0  0  0
   -0.5580   -2.1454    1.6709 H   0  0  0  0  0  0  0  0  0  0  0  0
    2.5271    0.5296    1.7297 H   0  0  0  0  0  0  0  0  0  0  0  0
    1.4928   -0.7308   -0.9547 H   0  0  0  0  0  0  0  0  0  0  0  0
    2.8827   -1.3471   -0.0107 H   0  0  0  0  0  0  0  0  0  0  0  0
  1  2  2  0
  2  3  1  0
  2  4  1  0
  4  5  2  0
  5  6  1  0
  6  7  2  0
  7  8  1  0
  8  9  2  0
  9 10  1  0
 10 11  2  3
 11 12  1  0
 12 13  1  0
 13 14  2  0
 13 15  1  0
  9  4  1  0
  3 16  1  0
  5 17  1  0
  6 18  1  0
  7 19  1  0
  8 20  1  0
 11 21  1  0
 12 22  1  0
 12 23  1  0
M  CHG  2  13   1  15  -1
M  END
$$$$
