
     RDKit          3D

 47 49  0  0  0  0  0  0  0  0999 V2000
   -2.7031    0.8527   -0.7972 O   0  0  0  0  0  0  0  0  0  0  0  0
   -2.9233   -0.2553   -0.3197 C   0  0  0  0  0  0  0  0  0  0  0  0
   -4.3442   -0.7721   -0.0491 C   0  0  0  0  0  0  0  0  0  0  0  0
   -5.3260    0.1878   -0.4071 O   0  0  0  0  0  0  0  0  0  0  0  0
   -6.6359   -0.1496   -0.2159 C   0  0  0  0  0  0  0  0  0  0  0  0
   -7.1092   -1.3575    0.3001 C   0  0  0  0  0  0  0  0  0  0  0  0
   -8.4855   -1.5688    0.4421 C   0  0  0  0  0  0  0  0  0  0  0  0
   -9.3855   -0.5726    0.0681 C   0  0  0  0  0  0  0  0  0  0  0  0
  -11.2426   -0.8637    0.2622 Br  0  0  0  0  0  0  0  0  0  0  0  0
   -8.9236    0.6347   -0.4474 C   0  0  0  0  0  0  0  0  0  0  0  0
   -7.5496    0.8415   -0.5874 C   0  0  0  0  0  0  0  0  0  0  0  0
   -1.9604   -1.1925    0.0434 N   0  0  0  0  0  0  0  0  0  0  0  0
   -0.5593   -1.0707   -0.0656 C   0  0  0  0  0  0  0  0  0  0  0  0
    0.2109   -2.1526    0.3792 C   0  0  0  0  0  0  0  0  0  0  0  0
    1.6074   -2.1132    0.3064 C   0  0  0  0  0  0  0  0  0  0  0  0
    2.2585   -0.9858   -0.2060 C   0  0  0  0  0  0  0  0  0  0  0  0
    3.7516   -0.9970   -0.2686 C   0  0  0  0  0  0  0  0  0  0  0  0
    4.3165   -2.0812   -0.3585 O   0  0  0  0  0  0  0  0  0  0  0  0
    4.3571    0.2413   -0.1827 N   0  0  0  0  0  0  0  0  0  0  0  0
    5.7408    0.5543   -0.2474 C   0  0  0  0  0  0  0  0  0  0  0  0
    6.7153   -0.4236   -0.4836 C   0  0  0  0  0  0  0  0  0  0  0  0
    8.0725   -0.0909   -0.5439 C   0  0  0  0  0  0  0  0  0  0  0  0
    8.4808    1.2265   -0.3718 C   0  0  0  0  0  0  0  0  0  0  0  0
    7.5301    2.2184   -0.1411 C   0  0  0  0  0  0  0  0  0  0  0  0
    6.1624    1.8955   -0.0788 C   0  0  0  0  0  0  0  0  0  0  0  0
    5.1644    2.9748    0.1598 C   0  0  0  0  0  0  0  0  0  0  0  0
    3.9550    2.8225    0.2065 O   0  0  0  0  0  0  0  0  0  0  0  0
    5.7145    4.1903    0.3292 O   0  0  0  0  0  0  0  0  0  0  0  0
    1.4920    0.0901   -0.6666 C   0  0  0  0  0  0  0  0  0  0  0  0
    0.0925    0.0466   -0.5908 C   0  0  0  0  0  0  0  0  0  0  0  0
   -4.4117   -0.9954    1.0227 H   0  0  0  0  0  0  0  0  0  0  0  0
   -4.4772   -1.6845   -0.6434 H   0  0  0  0  0  0  0  0  0  0  0  0
   -6.4404   -2.1560    0.6016 H   0  0  0  0  0  0  0  0  0  0  0  0
   -8.8438   -2.5128    0.8447 H   0  0  0  0  0  0  0  0  0  0  0  0
   -9.6163    1.4180   -0.7423 H   0  0  0  0  0  0  0  0  0  0  0  0
   -7.1851    1.7843   -0.9903 H   0  0  0  0  0  0  0  0  0  0  0  0
   -2.2941   -2.0642    0.4350 H   0  0  0  0  0  0  0  0  0  0  0  0
   -0.2576   -3.0446    0.7870 H   0  0  0  0  0  0  0  0  0  0  0  0
    2.1875   -2.9668    0.6530 H   0  0  0  0  0  0  0  0  0  0  0  0
    3.7521    1.0404    0.0079 H   0  0  0  0  0  0  0  0  0  0  0  0
    6.4523   -1.4669   -0.6302 H   0  0  0  0  0  0  0  0  0  0  0  0
    8.8085   -0.8706   -0.7275 H   0  0  0  0  0  0  0  0  0  0  0  0
    9.5366    1.4815   -0.4196 H   0  0  0  0  0  0  0  0  0  0  0  0
    7.8674    3.2444   -0.0125 H   0  0  0  0  0  0  0  0  0  0  0  0
    4.9515    4.7885    0.4744 H   0  0  0  0  0  0  0  0  0  0  0  0
    1.9532    0.9679   -1.1123 H   0  0  0  0  0  0  0  0  0  0  0  0
   -0.4568    0.9066   -0.9627 H   0  0  0  0  0  0  0  0  0  0  0  0
  1  2  2  0
  2  3  1  0
  3  4  1  0
  4  5  1  0
  5  6  2  0
  6  7  1  0
  7  8  2  0
  8  9  1  0
  8 10  1  0
 10 11  2  0
  2 12  1  0
 12 13  1  0
 13 14  2  0
 14 15  1  0
 15 16  2  0
 16 17  1  0
 17 18  2  0
 17 19  1  0
 19 20  1  0
 20 21  2  0
 21 22  1  0
 22 23  2  0
 23 24  1  0
 24 25  2  0
 25 26  1  0
 26 27  2  0
 26 28  1  0
 16 29  1  0
 29 30  2  0
 11  5  1  0
 30 13  1  0
 25 20  1  0
  3 31  1  0
  3 32  1  0
  6 33  1  0
  7 34  1  0
 10 35  1  0
 11 36  1  0
 12 37  1  0
 14 38  1  0
 15 39  1  0
 19 40  1  0
 21 41  1  0
 22 42  1  0
 23 43  1  0
 24 44  1  0
 28 45  1  0
 29 46  1  0
 30 47  1  0
M  END
$$$$
