
     RDKit          3D

 60 62  0  0  0  0  0  0  0  0999 V2000
    0.8706    5.2725    0.9957 C   0  0  0  0  0  0  0  0  0  0  0  0
   -0.0404    4.3454    0.2413 C   0  0  0  0  0  0  0  0  0  0  0  0
    0.0311    4.2735   -1.1542 C   0  0  0  0  0  0  0  0  0  0  0  0
   -0.8234    3.4243   -1.8546 C   0  0  0  0  0  0  0  0  0  0  0  0
   -1.7635    2.6332   -1.1694 C   0  0  0  0  0  0  0  0  0  0  0  0
   -2.7474    1.5340   -2.1796 S   0  0  0  0  0  6  0  0  0  0  0  0
   -3.4681    0.5850   -1.3592 O   0  0  0  0  0  0  0  0  0  0  0  0
   -3.4330    2.3608   -3.1521 O   0  0  0  0  0  0  0  0  0  0  0  0
   -1.5618    0.6909   -3.0518 N   0  0  0  0  0  0  0  0  0  0  0  0
   -0.9972   -0.4794   -2.4543 C   0  0  0  0  0  0  0  0  0  0  0  0
    0.0525   -0.2945   -1.5477 C   0  0  0  0  0  0  0  0  0  0  0  0
    0.6544   -1.3886   -0.9203 C   0  0  0  0  0  0  0  0  0  0  0  0
    1.7712   -1.1703    0.0924 C   0  0  0  0  0  0  0  0  0  0  0  0
    1.3197   -1.4497    1.5171 C   0  0  0  0  0  0  0  0  0  0  0  0
    0.3591   -2.1360    1.8508 O   0  0  0  0  0  0  0  0  0  0  0  0
    2.1447   -0.7913    2.3895 O   0  0  0  0  0  0  0  0  0  0  0  0
    1.9000   -1.0258    3.7897 C   0  0  0  0  0  0  0  0  0  0  0  0
    0.7872   -0.1009    4.2786 C   0  0  0  0  0  0  0  0  0  0  0  0
    3.2071   -0.7422    4.5243 C   0  0  0  0  0  0  0  0  0  0  0  0
    3.0495   -1.9170   -0.2487 C   0  0  0  0  0  0  0  0  0  0  0  0
    3.6238   -2.6460    0.5696 O   0  0  0  0  0  0  0  0  0  0  0  0
    3.6004   -1.6553   -1.6380 C   0  0  0  0  0  0  0  0  0  0  0  0
    3.4010   -0.3616   -2.0271 F   0  0  0  0  0  0  0  0  0  0  0  0
    4.9431   -1.8615   -1.7227 F   0  0  0  0  0  0  0  0  0  0  0  0
    3.0337   -2.4332   -2.5984 F   0  0  0  0  0  0  0  0  0  0  0  0
    0.1784   -2.6676   -1.2299 C   0  0  0  0  0  0  0  0  0  0  0  0
    0.7973   -3.7166   -0.6025 O   0  0  0  0  0  0  0  0  0  0  0  0
   -0.8837   -2.8915   -2.1342 C   0  0  0  0  0  0  0  0  0  0  0  0
   -1.3447   -4.1885   -2.4543 C   0  0  0  0  0  0  0  0  0  0  0  0
   -2.4120   -4.3887   -3.3289 C   0  0  0  0  0  0  0  0  0  0  0  0
   -3.0411   -3.2964   -3.9062 C   0  0  0  0  0  0  0  0  0  0  0  0
   -2.5905   -2.0058   -3.6214 C   0  0  0  0  0  0  0  0  0  0  0  0
   -1.5019   -1.7733   -2.7458 C   0  0  0  0  0  0  0  0  0  0  0  0
   -1.8818    2.7214    0.2298 C   0  0  0  0  0  0  0  0  0  0  0  0
   -2.8924    1.9535    1.0377 C   0  0  0  0  0  0  0  0  0  0  0  0
   -1.0009    3.5789    0.9182 C   0  0  0  0  0  0  0  0  0  0  0  0
    0.8271    5.0860    2.0774 H   0  0  0  0  0  0  0  0  0  0  0  0
    1.9085    5.1236    0.6795 H   0  0  0  0  0  0  0  0  0  0  0  0
    0.5830    6.3159    0.8158 H   0  0  0  0  0  0  0  0  0  0  0  0
    0.7512    4.8809   -1.7006 H   0  0  0  0  0  0  0  0  0  0  0  0
   -0.7556    3.3807   -2.9362 H   0  0  0  0  0  0  0  0  0  0  0  0
   -1.7995    0.6449   -4.0426 H   0  0  0  0  0  0  0  0  0  0  0  0
    0.4108    0.7123   -1.3444 H   0  0  0  0  0  0  0  0  0  0  0  0
    2.0324   -0.1015    0.0732 H   0  0  0  0  0  0  0  0  0  0  0  0
    1.6309   -2.0771    3.9570 H   0  0  0  0  0  0  0  0  0  0  0  0
   -0.1612   -0.3316    3.7718 H   0  0  0  0  0  0  0  0  0  0  0  0
    0.6364   -0.2079    5.3561 H   0  0  0  0  0  0  0  0  0  0  0  0
    1.0163    0.9502    4.0528 H   0  0  0  0  0  0  0  0  0  0  0  0
    3.5356    0.2917    4.3632 H   0  0  0  0  0  0  0  0  0  0  0  0
    3.1056   -0.9128    5.6012 H   0  0  0  0  0  0  0  0  0  0  0  0
    4.0052   -1.3908    4.1424 H   0  0  0  0  0  0  0  0  0  0  0  0
    0.0919   -4.2338   -0.1680 H   0  0  0  0  0  0  0  0  0  0  0  0
   -0.8654   -5.0671   -2.0289 H   0  0  0  0  0  0  0  0  0  0  0  0
   -2.7500   -5.3975   -3.5535 H   0  0  0  0  0  0  0  0  0  0  0  0
   -3.8837   -3.4427   -4.5774 H   0  0  0  0  0  0  0  0  0  0  0  0
   -3.1180   -1.1759   -4.0850 H   0  0  0  0  0  0  0  0  0  0  0  0
   -2.9626    2.3424    2.0622 H   0  0  0  0  0  0  0  0  0  0  0  0
   -3.8959    2.0660    0.6076 H   0  0  0  0  0  0  0  0  0  0  0  0
   -2.6111    0.8937    1.1005 H   0  0  0  0  0  0  0  0  0  0  0  0
   -1.0729    3.6592    2.0058 H   0  0  0  0  0  0  0  0  0  0  0  0
  1  2  1  0
  2  3  2  0
  3  4  1  0
  4  5  2  0
  5  6  1  0
  6  7  2  0
  6  8  2  0
  6  9  1  0
  9 10  1  0
 10 11  2  0
 11 12  1  0
 12 13  1  0
 13 14  1  0
 14 15  2  0
 14 16  1  0
 16 17  1  0
 17 18  1  0
 17 19  1  0
 13 20  1  0
 20 21  2  0
 20 22  1  0
 22 23  1  0
 22 24  1  0
 22 25  1  0
 12 26  2  0
 26 27  1  0
 26 28  1  0
 28 29  2  0
 29 30  1  0
 30 31  2  0
 31 32  1  0
 32 33  2  0
  5 34  1  0
 34 35  1  0
 34 36  2  0
 36  2  1  0
 33 10  1  0
 33 28  1  0
  1 37  1  0
  1 38  1  0
  1 39  1  0
  3 40  1  0
  4 41  1  0
  9 42  1  0
 11 43  1  0
 13 44  1  0
 17 45  1  0
 18 46  1  0
 18 47  1  0
 18 48  1  0
 19 49  1  0
 19 50  1  0
 19 51  1  0
 27 52  1  0
 29 53  1  0
 30 54  1  0
 31 55  1  0
 32 56  1  0
 35 57  1  0
 35 58  1  0
 35 59  1  0
 36 60  1  0
M  END
$$$$
