
     RDKit          3D

 57 60  0  0  0  0  0  0  0  0999 V2000
   -5.0715   -2.1486    1.5058 C   0  0  0  0  0  0  0  0  0  0  0  0
   -4.1496   -2.5800    0.3663 C   0  0  0  0  0  0  0  0  0  0  0  0
   -4.6719   -3.8734   -0.2620 C   0  0  0  0  0  0  0  0  0  0  0  0
   -4.0658   -1.4696   -0.6827 C   0  0  0  0  0  0  0  0  0  0  0  0
   -4.8069   -1.4789   -1.6678 O   0  0  0  0  0  0  0  0  0  0  0  0
   -3.1662   -0.4362   -0.4639 N   0  0  0  0  0  0  0  0  0  0  0  0
   -3.0648    0.6371   -1.4645 C   0  0  0  0  0  0  0  0  0  0  0  0
   -1.6139    1.0919   -1.7022 C   0  0  0  0  0  0  0  0  0  0  0  0
   -0.9042    1.4645   -0.4504 N   0  0  0  0  0  0  0  0  0  0  0  0
   -0.5690    2.8450   -0.3539 C   0  0  0  0  0  0  0  0  0  0  0  0
   -1.5150    3.8650   -0.5356 C   0  0  0  0  0  0  0  0  0  0  0  0
   -1.1495    5.2052   -0.3982 C   0  0  0  0  0  0  0  0  0  0  0  0
    0.1641    5.5409   -0.0770 C   0  0  0  0  0  0  0  0  0  0  0  0
    1.1202    4.5406    0.1114 C   0  0  0  0  0  0  0  0  0  0  0  0
    0.7631    3.1987   -0.0225 C   0  0  0  0  0  0  0  0  0  0  0  0
    1.6630    2.1217    0.1275 N   0  0  0  0  0  0  0  0  0  0  0  0
    2.9798    2.1584    0.5299 C   0  0  0  0  0  0  0  0  0  0  0  0
    3.5939    3.1502    0.9094 O   0  0  0  0  0  0  0  0  0  0  0  0
    3.6858    0.8416    0.5398 C   0  0  0  0  0  0  0  0  0  0  0  0
    4.7751    0.6817    1.4113 C   0  0  0  0  0  0  0  0  0  0  0  0
    5.4797   -0.5234    1.4518 C   0  0  0  0  0  0  0  0  0  0  0  0
    5.1057   -1.5702    0.6138 C   0  0  0  0  0  0  0  0  0  0  0  0
    4.0124   -1.4234   -0.2467 C   0  0  0  0  0  0  0  0  0  0  0  0
    3.3144   -0.2166   -0.3015 C   0  0  0  0  0  0  0  0  0  0  0  0
    3.5754   -2.4207   -1.0809 O   0  0  0  0  0  0  0  0  0  0  0  0
    4.1443   -3.6883   -0.7274 C   0  0  0  0  0  0  0  0  0  0  0  0
    5.6330   -3.5528   -0.4563 C   0  0  0  0  0  0  0  0  0  0  0  0
    5.8584   -2.7144    0.6831 O   0  0  0  0  0  0  0  0  0  0  0  0
   -1.5545    1.0023    0.8018 C   0  0  0  0  0  0  0  0  0  0  0  0
   -2.1697   -0.3959    0.6160 C   0  0  0  0  0  0  0  0  0  0  0  0
   -4.7229   -1.2303    1.9886 H   0  0  0  0  0  0  0  0  0  0  0  0
   -6.0864   -1.9531    1.1398 H   0  0  0  0  0  0  0  0  0  0  0  0
   -5.1310   -2.9295    2.2708 H   0  0  0  0  0  0  0  0  0  0  0  0
   -3.1482   -2.7906    0.7544 H   0  0  0  0  0  0  0  0  0  0  0  0
   -4.0483   -4.1737   -1.1109 H   0  0  0  0  0  0  0  0  0  0  0  0
   -5.6985   -3.7596   -0.6293 H   0  0  0  0  0  0  0  0  0  0  0  0
   -4.6630   -4.6895    0.4672 H   0  0  0  0  0  0  0  0  0  0  0  0
   -3.6663    1.4715   -1.0859 H   0  0  0  0  0  0  0  0  0  0  0  0
   -3.5057    0.3250   -2.4165 H   0  0  0  0  0  0  0  0  0  0  0  0
   -1.5892    1.8943   -2.4496 H   0  0  0  0  0  0  0  0  0  0  0  0
   -1.0571    0.2543   -2.1398 H   0  0  0  0  0  0  0  0  0  0  0  0
   -2.5477    3.6289   -0.7717 H   0  0  0  0  0  0  0  0  0  0  0  0
   -1.8900    5.9884   -0.5390 H   0  0  0  0  0  0  0  0  0  0  0  0
    0.4513    6.5844    0.0283 H   0  0  0  0  0  0  0  0  0  0  0  0
    2.1356    4.8362    0.3527 H   0  0  0  0  0  0  0  0  0  0  0  0
    1.2080    1.2314   -0.0465 H   0  0  0  0  0  0  0  0  0  0  0  0
    5.0826    1.5028    2.0567 H   0  0  0  0  0  0  0  0  0  0  0  0
    6.3275   -0.6370    2.1217 H   0  0  0  0  0  0  0  0  0  0  0  0
    2.5048   -0.1176   -1.0181 H   0  0  0  0  0  0  0  0  0  0  0  0
    3.9717   -4.3750   -1.5609 H   0  0  0  0  0  0  0  0  0  0  0  0
    3.6108   -4.0749    0.1499 H   0  0  0  0  0  0  0  0  0  0  0  0
    6.0707   -4.5331   -0.2397 H   0  0  0  0  0  0  0  0  0  0  0  0
    6.1624   -3.1233   -1.3164 H   0  0  0  0  0  0  0  0  0  0  0  0
   -2.3480    1.6960    1.1122 H   0  0  0  0  0  0  0  0  0  0  0  0
   -0.8100    0.9615    1.6062 H   0  0  0  0  0  0  0  0  0  0  0  0
   -1.3875   -1.1181    0.3529 H   0  0  0  0  0  0  0  0  0  0  0  0
   -2.6211   -0.7216    1.5549 H   0  0  0  0  0  0  0  0  0  0  0  0
  1  2  1  0
  2  3  1  0
  2  4  1  0
  4  5  2  0
  4  6  1  0
  6  7  1  0
  7  8  1  0
  8  9  1  0
  9 10  1  0
 10 11  2  0
 11 12  1  0
 12 13  2  0
 13 14  1  0
 14 15  2  0
 15 16  1  0
 16 17  1  0
 17 18  2  0
 17 19  1  0
 19 20  2  0
 20 21  1  0
 21 22  2  0
 22 23  1  0
 23 24  2  0
 23 25  1  0
 25 26  1  0
 26 27  1  0
 27 28  1  0
  9 29  1  0
 29 30  1  0
 30  6  1  0
 15 10  1  0
 24 19  1  0
 28 22  1  0
  1 31  1  0
  1 32  1  0
  1 33  1  0
  2 34  1  0
  3 35  1  0
  3 36  1  0
  3 37  1  0
  7 38  1  0
  7 39  1  0
  8 40  1  0
  8 41  1  0
 11 42  1  0
 12 43  1  0
 13 44  1  0
 14 45  1  0
 16 46  1  0
 20 47  1  0
 21 48  1  0
 24 49  1  0
 26 50  1  0
 26 51  1  0
 27 52  1  0
 27 53  1  0
 29 54  1  0
 29 55  1  0
 30 56  1  0
 30 57  1  0
M  END
$$$$
