
     RDKit          3D

 44 46  0  0  0  0  0  0  0  0999 V2000
   -3.3967    2.2442   -2.6833 C   0  0  0  0  0  0  0  0  0  0  0  0
   -3.8856    2.0182   -1.2505 C   0  0  0  0  0  0  0  0  0  0  0  0
   -5.4120    1.9152   -1.2040 C   0  0  0  0  0  0  0  0  0  0  0  0
   -3.2241    0.8036   -0.6210 C   0  0  0  0  0  0  0  0  0  0  0  0
   -2.4217    0.9643    0.5204 C   0  0  0  0  0  0  0  0  0  0  0  0
   -1.8017   -0.1342    1.1180 C   0  0  0  0  0  0  0  0  0  0  0  0
   -1.9702   -1.4044    0.5639 C   0  0  0  0  0  0  0  0  0  0  0  0
   -1.1802   -2.8090    1.3150 S   0  0  0  0  0  6  0  0  0  0  0  0
   -0.8437   -2.4648    2.6793 O   0  0  0  0  0  0  0  0  0  0  0  0
   -1.9845   -3.9752    1.0130 O   0  0  0  0  0  0  0  0  0  0  0  0
    0.2389   -2.9773    0.4101 N   0  0  0  0  0  0  0  0  0  0  0  0
    1.1099   -1.8615    0.2641 C   0  0  0  0  0  0  0  0  0  0  0  0
    1.2675   -1.2930   -0.9991 C   0  0  0  0  0  0  0  0  0  0  0  0
    2.0834   -0.1743   -1.1566 C   0  0  0  0  0  0  0  0  0  0  0  0
    2.7457    0.3662   -0.0553 C   0  0  0  0  0  0  0  0  0  0  0  0
    3.5280    1.4585   -0.3113 O   0  0  0  0  0  0  0  0  0  0  0  0
    2.5961   -0.1916    1.2225 C   0  0  0  0  0  0  0  0  0  0  0  0
    3.3159    0.4995    2.7045 S   0  0  0  0  0  0  0  0  0  0  0  0
    5.0202    0.3195    2.4120 C   0  0  0  0  0  0  0  0  0  0  0  0
    5.6424    0.8894    1.3294 N   0  0  0  0  0  0  0  0  0  0  0  0
    6.8981    0.5450    1.5009 C   0  0  0  0  0  0  0  0  0  0  0  0
    7.0177   -0.1859    2.6410 N   0  0  0  0  0  0  0  0  0  0  0  0
    5.8303   -0.3347    3.2472 N   0  0  0  0  0  0  0  0  0  0  0  0
    1.7668   -1.3137    1.3684 C   0  0  0  0  0  0  0  0  0  0  0  0
   -2.7798   -1.5897   -0.5587 C   0  0  0  0  0  0  0  0  0  0  0  0
   -3.3993   -0.4864   -1.1490 C   0  0  0  0  0  0  0  0  0  0  0  0
   -3.8174    3.1694   -3.0919 H   0  0  0  0  0  0  0  0  0  0  0  0
   -2.3047    2.3296   -2.7154 H   0  0  0  0  0  0  0  0  0  0  0  0
   -3.6869    1.4247   -3.3497 H   0  0  0  0  0  0  0  0  0  0  0  0
   -3.6051    2.9079   -0.6710 H   0  0  0  0  0  0  0  0  0  0  0  0
   -5.7855    1.0820   -1.8091 H   0  0  0  0  0  0  0  0  0  0  0  0
   -5.8712    2.8340   -1.5846 H   0  0  0  0  0  0  0  0  0  0  0  0
   -5.7631    1.7655   -0.1770 H   0  0  0  0  0  0  0  0  0  0  0  0
   -2.2739    1.9510    0.9560 H   0  0  0  0  0  0  0  0  0  0  0  0
   -1.1877    0.0116    2.0043 H   0  0  0  0  0  0  0  0  0  0  0  0
    0.0973   -3.5804   -0.3983 H   0  0  0  0  0  0  0  0  0  0  0  0
    0.7515   -1.6976   -1.8648 H   0  0  0  0  0  0  0  0  0  0  0  0
    2.2061    0.2803   -2.1363 H   0  0  0  0  0  0  0  0  0  0  0  0
    4.2316    1.4910    0.3715 H   0  0  0  0  0  0  0  0  0  0  0  0
    7.7336    0.7881    0.8595 H   0  0  0  0  0  0  0  0  0  0  0  0
    7.8457   -0.5980    3.0576 H   0  0  0  0  0  0  0  0  0  0  0  0
    1.6317   -1.7635    2.3505 H   0  0  0  0  0  0  0  0  0  0  0  0
   -2.9374   -2.5815   -0.9757 H   0  0  0  0  0  0  0  0  0  0  0  0
   -4.0262   -0.6423   -2.0246 H   0  0  0  0  0  0  0  0  0  0  0  0
  1  2  1  0
  2  3  1  0
  2  4  1  0
  4  5  2  0
  5  6  1  0
  6  7  2  0
  7  8  1  0
  8  9  2  0
  8 10  2  0
  8 11  1  0
 11 12  1  0
 12 13  2  0
 13 14  1  0
 14 15  2  0
 15 16  1  0
 15 17  1  0
 17 18  1  0
 18 19  1  0
 19 20  1  0
 20 21  2  0
 21 22  1  0
 22 23  1  0
 17 24  2  0
  7 25  1  0
 25 26  2  0
 26  4  1  0
 24 12  1  0
 23 19  2  0
  1 27  1  0
  1 28  1  0
  1 29  1  0
  2 30  1  0
  3 31  1  0
  3 32  1  0
  3 33  1  0
  5 34  1  0
  6 35  1  0
 11 36  1  0
 13 37  1  0
 14 38  1  0
 16 39  1  0
 21 40  1  0
 22 41  1  0
 24 42  1  0
 25 43  1  0
 26 44  1  0
M  END
$$$$
