
     RDKit          3D

 23 23  0  0  0  0  0  0  0  0999 V2000
   -2.4815    0.2691   -0.7348 C   0  0  0  0  0  0  0  0  0  0  0  0
   -1.3226    0.5784    0.1723 C   0  0  0  0  0  0  0  0  0  0  0  0
   -0.5095    1.7050   -0.2698 C   0  0  0  0  0  0  0  0  0  0  0  0
    0.7890    1.7342   -0.6126 C   0  0  0  0  0  0  0  0  0  0  0  0
    1.6619    0.6102   -0.6612 C   0  0  0  0  0  0  0  0  0  0  0  0
    3.0476    0.6109   -0.7960 C   0  0  0  0  0  0  0  0  0  0  0  0
    3.4912   -0.7327   -0.8059 C   0  0  0  0  0  0  0  0  0  0  0  0
    2.3606   -1.4972   -0.6859 C   0  0  0  0  0  0  0  0  0  0  0  0
    1.2641   -0.7077   -0.6066 O   0  0  0  0  0  0  0  0  0  0  0  0
   -1.0161   -0.0773    1.3086 C   0  0  0  0  0  0  0  0  0  0  0  0
   -1.7278   -1.1969    1.9385 C   0  0  0  0  0  0  0  0  0  0  0  0
   -1.2345   -1.9444    2.7656 O   0  0  0  0  0  0  0  0  0  0  0  0
   -3.0187   -1.3022    1.5946 O   0  0  0  0  0  0  0  0  0  0  0  0
   -2.7055   -0.8012   -0.7672 H   0  0  0  0  0  0  0  0  0  0  0  0
   -2.2629    0.5586   -1.7696 H   0  0  0  0  0  0  0  0  0  0  0  0
   -3.3747    0.8150   -0.4142 H   0  0  0  0  0  0  0  0  0  0  0  0
   -1.0641    2.6418   -0.3358 H   0  0  0  0  0  0  0  0  0  0  0  0
    1.2153    2.6928   -0.8986 H   0  0  0  0  0  0  0  0  0  0  0  0
    3.6665    1.4944   -0.8732 H   0  0  0  0  0  0  0  0  0  0  0  0
    4.5054   -1.0960   -0.8902 H   0  0  0  0  0  0  0  0  0  0  0  0
    2.1735   -2.5611   -0.6444 H   0  0  0  0  0  0  0  0  0  0  0  0
   -0.1247    0.1990    1.8661 H   0  0  0  0  0  0  0  0  0  0  0  0
   -3.3327   -2.0661    2.1202 H   0  0  0  0  0  0  0  0  0  0  0  0
  1  2  1  0
  2  3  1  0
  3  4  2  3
  4  5  1  0
  5  6  2  0
  6  7  1  0
  7  8  2  0
  8  9  1  0
  2 10  2  3
 10 11  1  0
 11 12  2  0
 11 13  1  0
  9  5  1  0
  1 14  1  0
  1 15  1  0
  1 16  1  0
  3 17  1  0
  4 18  1  0
  6 19  1  0
  7 20  1  0
  8 21  1  0
 10 22  1  0
 13 23  1  0
M  END
$$$$
