
     RDKit          3D

 37 39  0  0  0  0  0  0  0  0999 V2000
   -1.1481    4.6609    0.8490 C   0  0  0  0  0  0  0  0  0  0  0  0
    0.2767    4.1823   -0.1641 S   0  0  0  0  0  0  0  0  0  0  0  0
    0.1875    2.4019   -0.0308 C   0  0  0  0  0  0  0  0  0  0  0  0
    1.2355    1.6515   -0.5183 C   0  0  0  0  0  0  0  0  0  0  0  0
    1.1333    0.2773   -0.4212 C   0  0  0  0  0  0  0  0  0  0  0  0
    2.1822   -0.5377   -0.8935 N   0  0  0  0  0  0  0  0  0  0  0  0
    2.0225   -1.9648   -0.5285 C   0  0  0  0  0  0  0  0  0  0  0  0
    3.2479   -2.7616   -1.0012 C   0  0  0  0  0  0  0  0  0  0  0  0
    3.4486   -2.6209   -2.4176 O   0  0  0  0  0  0  0  0  0  0  0  0
    3.6524   -1.2392   -2.7508 C   0  0  0  0  0  0  0  0  0  0  0  0
    2.4496   -0.3725   -2.3407 C   0  0  0  0  0  0  0  0  0  0  0  0
    0.0610   -0.2875    0.1575 N   0  0  0  0  0  0  0  0  0  0  0  0
   -0.9097    0.5217    0.6212 C   0  0  0  0  0  0  0  0  0  0  0  0
   -2.0957   -0.1239    1.1957 C   0  0  0  0  0  0  0  0  0  0  0  0
   -2.6877   -1.2068    0.5081 C   0  0  0  0  0  0  0  0  0  0  0  0
   -3.8280   -1.8519    0.9945 C   0  0  0  0  0  0  0  0  0  0  0  0
   -4.4039   -1.4326    2.1876 C   0  0  0  0  0  0  0  0  0  0  0  0
   -3.8340   -0.3758    2.8949 C   0  0  0  0  0  0  0  0  0  0  0  0
   -2.6887    0.2725    2.4086 C   0  0  0  0  0  0  0  0  0  0  0  0
   -2.0327    1.5275    3.4075 Cl  0  0  0  0  0  0  0  0  0  0  0  0
   -0.9030    1.8567    0.5233 N   0  0  0  0  0  0  0  0  0  0  0  0
   -2.0783    4.2770    0.4211 H   0  0  0  0  0  0  0  0  0  0  0  0
   -1.0331    4.2977    1.8737 H   0  0  0  0  0  0  0  0  0  0  0  0
   -1.2106    5.7522    0.8780 H   0  0  0  0  0  0  0  0  0  0  0  0
    2.1134    2.1237   -0.9380 H   0  0  0  0  0  0  0  0  0  0  0  0
    1.9293   -2.0798    0.5582 H   0  0  0  0  0  0  0  0  0  0  0  0
    1.1262   -2.3773   -1.0108 H   0  0  0  0  0  0  0  0  0  0  0  0
    4.1559   -2.4374   -0.4787 H   0  0  0  0  0  0  0  0  0  0  0  0
    3.1029   -3.8260   -0.7915 H   0  0  0  0  0  0  0  0  0  0  0  0
    3.8009   -1.1781   -3.8336 H   0  0  0  0  0  0  0  0  0  0  0  0
    4.5721   -0.8886   -2.2671 H   0  0  0  0  0  0  0  0  0  0  0  0
    2.6761    0.6682   -2.5960 H   0  0  0  0  0  0  0  0  0  0  0  0
    1.5661   -0.6857   -2.9122 H   0  0  0  0  0  0  0  0  0  0  0  0
   -2.2524   -1.5498   -0.4305 H   0  0  0  0  0  0  0  0  0  0  0  0
   -4.2622   -2.6796    0.4389 H   0  0  0  0  0  0  0  0  0  0  0  0
   -5.2904   -1.9309    2.5719 H   0  0  0  0  0  0  0  0  0  0  0  0
   -4.2820   -0.0625    3.8352 H   0  0  0  0  0  0  0  0  0  0  0  0
  1  2  1  0
  2  3  1  0
  3  4  2  0
  4  5  1  0
  5  6  1  0
  6  7  1  0
  7  8  1  0
  8  9  1  0
  9 10  1  0
 10 11  1  0
  5 12  2  0
 12 13  1  0
 13 14  1  0
 14 15  2  0
 15 16  1  0
 16 17  2  0
 17 18  1  0
 18 19  2  0
 19 20  1  0
 13 21  2  0
 21  3  1  0
 11  6  1  0
 19 14  1  0
  1 22  1  0
  1 23  1  0
  1 24  1  0
  4 25  1  0
  7 26  1  0
  7 27  1  0
  8 28  1  0
  8 29  1  0
 10 30  1  0
 10 31  1  0
 11 32  1  0
 11 33  1  0
 15 34  1  0
 16 35  1  0
 17 36  1  0
 18 37  1  0
M  END
$$$$
