
     RDKit          3D

126129  0  0  0  0  0  0  0  0999 V2000
   -2.8951    4.0791    5.7189 C   0  0  0  0  0  0  0  0  0  0  0  0
   -3.0180    4.4626    4.4403 C   0  0  0  0  0  0  0  0  0  0  0  0
   -1.9438    5.1820    3.6697 C   0  0  0  0  0  0  0  0  0  0  0  0
   -1.4427    4.3883    2.4822 C   0  0  0  0  0  0  0  0  0  0  0  0
   -2.1272    4.3704    1.3215 C   0  0  0  0  0  0  0  0  0  0  0  0
   -1.8555    3.5894    0.0598 C   0  0  0  0  0  0  0  0  0  0  0  0
   -2.0065    4.4829   -1.1753 C   0  0  0  0  0  0  0  0  0  0  0  0
   -2.7180    2.3072   -0.0206 C   0  0  0  0  0  0  0  0  0  0  0  0
   -4.2411    2.5367   -0.1226 C   0  0  0  0  0  0  0  0  0  0  0  0
   -5.0001    1.8006    0.9856 C   0  0  0  0  0  0  0  0  0  0  0  0
   -4.7964    2.2551   -1.5342 C   0  0  0  0  0  0  0  0  0  0  0  0
   -5.2513    0.8247   -1.9059 C   0  0  0  0  0  0  0  0  0  0  0  0
   -6.0010    0.9563   -3.1419 O   0  0  0  0  0  0  0  0  0  0  0  0
   -7.3963    1.1339   -2.9234 C   0  0  0  0  0  0  0  0  0  0  0  0
   -4.0887   -0.1739   -2.1626 C   0  0  0  0  0  0  0  0  0  0  0  0
   -3.4720   -0.5504   -0.9195 O   0  0  0  0  0  0  0  0  0  0  0  0
   -2.3302   -1.4206   -1.0496 C   0  0  0  0  0  0  0  0  0  0  0  0
   -1.3112   -0.6942   -1.7401 O   0  0  0  0  0  0  0  0  0  0  0  0
   -1.9054   -1.6452    0.4411 C   0  0  0  0  0  0  0  0  0  0  0  0
   -1.4812   -0.7558    1.1848 O   0  0  0  0  0  0  0  0  0  0  0  0
   -1.9368   -3.0649    0.9817 C   0  0  0  0  0  0  0  0  0  0  0  0
   -3.0321   -3.6154    1.0499 O   0  0  0  0  0  0  0  0  0  0  0  0
   -0.7154   -3.6931    1.2955 N   0  0  0  0  0  0  0  0  0  0  0  0
   -0.8038   -5.1196    1.6462 C   0  0  0  0  0  0  0  0  0  0  0  0
   -0.1899   -5.3999    3.0089 C   0  0  0  0  0  0  0  0  0  0  0  0
    1.3030   -5.0950    2.9887 C   0  0  0  0  0  0  0  0  0  0  0  0
    1.6456   -3.9268    2.0696 C   0  0  0  0  0  0  0  0  0  0  0  0
    0.4705   -2.9609    1.8235 C   0  0  0  0  0  0  0  0  0  0  0  0
    1.0328   -1.8491    0.9258 C   0  0  0  0  0  0  0  0  0  0  0  0
    0.8323   -1.7598   -0.2801 O   0  0  0  0  0  0  0  0  0  0  0  0
    1.7602   -0.9841    1.6908 O   0  0  0  0  0  0  0  0  0  0  0  0
    2.2244    0.2252    1.0429 C   0  0  0  0  0  0  0  0  0  0  0  0
    3.6764   -0.0046    0.6353 C   0  0  0  0  0  0  0  0  0  0  0  0
    4.6442   -0.4816    1.6872 C   0  0  0  0  0  0  0  0  0  0  0  0
    4.0448    0.1301   -0.6602 C   0  0  0  0  0  0  0  0  0  0  0  0
    5.4364   -0.0478   -1.2222 C   0  0  0  0  0  0  0  0  0  0  0  0
    5.7164    1.0260   -2.2855 C   0  0  0  0  0  0  0  0  0  0  0  0
    7.0808    0.8355   -2.9484 C   0  0  0  0  0  0  0  0  0  0  0  0
    7.2426   -0.5813   -3.5049 C   0  0  0  0  0  0  0  0  0  0  0  0
    8.5706   -0.7214   -4.0193 O   0  0  0  0  0  0  0  0  0  0  0  0
    6.9941   -1.6527   -2.4277 C   0  0  0  0  0  0  0  0  0  0  0  0
    8.0495   -1.5213   -1.4519 O   0  0  0  0  0  0  0  0  0  0  0  0
    8.1155   -2.6066   -0.5332 C   0  0  0  0  0  0  0  0  0  0  0  0
    5.6044   -1.4580   -1.8104 C   0  0  0  0  0  0  0  0  0  0  0  0
    1.8593    1.4286    1.9740 C   0  0  0  0  0  0  0  0  0  0  0  0
    2.8140    1.6195    3.1587 C   0  0  0  0  0  0  0  0  0  0  0  0
    1.6781    2.7300    1.1582 C   0  0  0  0  0  0  0  0  0  0  0  0
    2.9436    3.1458    0.6376 O   0  0  0  0  0  0  0  0  0  0  0  0
    1.0574    3.9284    1.8905 C   0  0  0  0  0  0  0  0  0  0  0  0
   -0.1670    3.6437    2.7450 C   0  0  0  0  0  0  0  0  0  0  0  0
   -0.0820    2.9577    3.7687 O   0  0  0  0  0  0  0  0  0  0  0  0
   -2.6576   -2.6980   -1.8663 C   0  0  0  0  0  0  0  0  0  0  0  0
   -1.4179   -3.5176   -2.2470 C   0  0  0  0  0  0  0  0  0  0  0  0
   -3.4059   -2.3516   -3.1643 C   0  0  0  0  0  0  0  0  0  0  0  0
   -4.5964   -1.4349   -2.8928 C   0  0  0  0  0  0  0  0  0  0  0  0
   -5.5556   -2.0994   -2.0555 O   0  0  0  0  0  0  0  0  0  0  0  0
   -6.4445   -2.9452   -2.7614 C   0  0  0  0  0  0  0  0  0  0  0  0
   -1.9805    4.2433    6.2807 H   0  0  0  0  0  0  0  0  0  0  0  0
   -3.7068    3.5611    6.2220 H   0  0  0  0  0  0  0  0  0  0  0  0
   -3.9525    4.2568    3.9187 H   0  0  0  0  0  0  0  0  0  0  0  0
   -2.3659    6.1347    3.3154 H   0  0  0  0  0  0  0  0  0  0  0  0
   -1.1062    5.4649    4.3237 H   0  0  0  0  0  0  0  0  0  0  0  0
   -3.0498    4.9551    1.2924 H   0  0  0  0  0  0  0  0  0  0  0  0
   -0.8192    3.2505    0.0636 H   0  0  0  0  0  0  0  0  0  0  0  0
   -3.0219    4.8651   -1.2913 H   0  0  0  0  0  0  0  0  0  0  0  0
   -1.7537    3.9261   -2.0841 H   0  0  0  0  0  0  0  0  0  0  0  0
   -1.3305    5.3429   -1.1141 H   0  0  0  0  0  0  0  0  0  0  0  0
   -2.3604    1.7402   -0.8892 H   0  0  0  0  0  0  0  0  0  0  0  0
   -2.4893    1.6950    0.8616 H   0  0  0  0  0  0  0  0  0  0  0  0
   -4.4411    3.6016    0.0525 H   0  0  0  0  0  0  0  0  0  0  0  0
   -4.6482    2.1241    1.9701 H   0  0  0  0  0  0  0  0  0  0  0  0
   -4.8607    0.7130    0.9312 H   0  0  0  0  0  0  0  0  0  0  0  0
   -6.0694    2.0169    0.9228 H   0  0  0  0  0  0  0  0  0  0  0  0
   -5.6611    2.9225   -1.6538 H   0  0  0  0  0  0  0  0  0  0  0  0
   -4.0901    2.6127   -2.2958 H   0  0  0  0  0  0  0  0  0  0  0  0
   -5.9051    0.4208   -1.1206 H   0  0  0  0  0  0  0  0  0  0  0  0
   -7.8296    0.2453   -2.4550 H   0  0  0  0  0  0  0  0  0  0  0  0
   -7.5937    2.0168   -2.3133 H   0  0  0  0  0  0  0  0  0  0  0  0
   -7.8741    1.2709   -3.8989 H   0  0  0  0  0  0  0  0  0  0  0  0
   -3.3492    0.3282   -2.8005 H   0  0  0  0  0  0  0  0  0  0  0  0
   -0.5097   -0.7269   -1.1802 H   0  0  0  0  0  0  0  0  0  0  0  0
   -1.8424   -5.4710    1.6475 H   0  0  0  0  0  0  0  0  0  0  0  0
   -0.2850   -5.6801    0.8562 H   0  0  0  0  0  0  0  0  0  0  0  0
   -0.3490   -6.4466    3.2922 H   0  0  0  0  0  0  0  0  0  0  0  0
   -0.6764   -4.7783    3.7743 H   0  0  0  0  0  0  0  0  0  0  0  0
    1.6638   -4.9070    4.0119 H   0  0  0  0  0  0  0  0  0  0  0  0
    1.8428   -5.9839    2.6304 H   0  0  0  0  0  0  0  0  0  0  0  0
    1.9596   -4.3366    1.0984 H   0  0  0  0  0  0  0  0  0  0  0  0
    2.5308   -3.4049    2.4619 H   0  0  0  0  0  0  0  0  0  0  0  0
    0.1401   -2.4929    2.7610 H   0  0  0  0  0  0  0  0  0  0  0  0
    1.6250    0.3670    0.1368 H   0  0  0  0  0  0  0  0  0  0  0  0
    5.2838    0.3383    2.0245 H   0  0  0  0  0  0  0  0  0  0  0  0
    4.1349   -0.8986    2.5549 H   0  0  0  0  0  0  0  0  0  0  0  0
    5.2893   -1.2782    1.3028 H   0  0  0  0  0  0  0  0  0  0  0  0
    3.2812    0.4130   -1.3855 H   0  0  0  0  0  0  0  0  0  0  0  0
    6.1725    0.0888   -0.4211 H   0  0  0  0  0  0  0  0  0  0  0  0
    5.6683    2.0274   -1.8365 H   0  0  0  0  0  0  0  0  0  0  0  0
    4.9429    0.9946   -3.0645 H   0  0  0  0  0  0  0  0  0  0  0  0
    7.2083    1.5655   -3.7561 H   0  0  0  0  0  0  0  0  0  0  0  0
    7.8781    1.0527   -2.2253 H   0  0  0  0  0  0  0  0  0  0  0  0
    6.5491   -0.7279   -4.3403 H   0  0  0  0  0  0  0  0  0  0  0  0
    9.1367   -0.8228   -3.2257 H   0  0  0  0  0  0  0  0  0  0  0  0
    7.0797   -2.6450   -2.8906 H   0  0  0  0  0  0  0  0  0  0  0  0
    7.3116   -2.5351    0.2010 H   0  0  0  0  0  0  0  0  0  0  0  0
    9.0676   -2.5435   -0.0034 H   0  0  0  0  0  0  0  0  0  0  0  0
    8.0756   -3.5703   -1.0531 H   0  0  0  0  0  0  0  0  0  0  0  0
    4.8444   -1.6369   -2.5837 H   0  0  0  0  0  0  0  0  0  0  0  0
    5.4309   -2.2057   -1.0250 H   0  0  0  0  0  0  0  0  0  0  0  0
    0.8815    1.1703    2.4014 H   0  0  0  0  0  0  0  0  0  0  0  0
    2.8782    0.7102    3.7609 H   0  0  0  0  0  0  0  0  0  0  0  0
    3.8164    1.8930    2.8300 H   0  0  0  0  0  0  0  0  0  0  0  0
    2.4751    2.4219    3.8162 H   0  0  0  0  0  0  0  0  0  0  0  0
    1.0564    2.4934    0.2886 H   0  0  0  0  0  0  0  0  0  0  0  0
    2.8009    3.9123    0.0549 H   0  0  0  0  0  0  0  0  0  0  0  0
    1.7998    4.3927    2.5510 H   0  0  0  0  0  0  0  0  0  0  0  0
    0.8226    4.7124    1.1595 H   0  0  0  0  0  0  0  0  0  0  0  0
   -3.3325   -3.3450   -1.2951 H   0  0  0  0  0  0  0  0  0  0  0  0
   -0.7609   -2.9720   -2.9330 H   0  0  0  0  0  0  0  0  0  0  0  0
   -0.8250   -3.8013   -1.3776 H   0  0  0  0  0  0  0  0  0  0  0  0
   -1.7154   -4.4440   -2.7506 H   0  0  0  0  0  0  0  0  0  0  0  0
   -3.7406   -3.2791   -3.6447 H   0  0  0  0  0  0  0  0  0  0  0  0
   -2.7280   -1.8578   -3.8706 H   0  0  0  0  0  0  0  0  0  0  0  0
   -5.0613   -1.1636   -3.8468 H   0  0  0  0  0  0  0  0  0  0  0  0
   -7.0224   -2.3704   -3.4915 H   0  0  0  0  0  0  0  0  0  0  0  0
   -5.9106   -3.7556   -3.2658 H   0  0  0  0  0  0  0  0  0  0  0  0
   -7.1398   -3.3906   -2.0435 H   0  0  0  0  0  0  0  0  0  0  0  0
  1  2  2  0
  2  3  1  0
  3  4  1  0
  4  5  2  3
  5  6  1  0
  6  7  1  0
  6  8  1  0
  8  9  1  0
  9 10  1  0
  9 11  1  0
 11 12  1  0
 12 13  1  0
 13 14  1  0
 12 15  1  0
 15 16  1  0
 16 17  1  0
 17 18  1  0
 17 19  1  0
 19 20  2  0
 19 21  1  0
 21 22  2  0
 21 23  1  0
 23 24  1  0
 24 25  1  0
 25 26  1  0
 26 27  1  0
 27 28  1  0
 28 29  1  0
 29 30  2  0
 29 31  1  0
 31 32  1  0
 32 33  1  0
 33 34  1  0
 33 35  2  3
 35 36  1  0
 36 37  1  0
 37 38  1  0
 38 39  1  0
 39 40  1  0
 39 41  1  0
 41 42  1  0
 42 43  1  0
 41 44  1  0
 32 45  1  0
 45 46  1  0
 45 47  1  0
 47 48  1  0
 47 49  1  0
 49 50  1  0
 50 51  2  0
 17 52  1  0
 52 53  1  0
 52 54  1  0
 54 55  1  0
 55 56  1  0
 56 57  1  0
 50  4  1  0
 55 15  1  0
 28 23  1  0
 44 36  1  0
  1 58  1  0
  1 59  1  0
  2 60  1  0
  3 61  1  0
  3 62  1  0
  5 63  1  0
  6 64  1  0
  7 65  1  0
  7 66  1  0
  7 67  1  0
  8 68  1  0
  8 69  1  0
  9 70  1  0
 10 71  1  0
 10 72  1  0
 10 73  1  0
 11 74  1  0
 11 75  1  0
 12 76  1  0
 14 77  1  0
 14 78  1  0
 14 79  1  0
 15 80  1  0
 18 81  1  0
 24 82  1  0
 24 83  1  0
 25 84  1  0
 25 85  1  0
 26 86  1  0
 26 87  1  0
 27 88  1  0
 27 89  1  0
 28 90  1  0
 32 91  1  0
 34 92  1  0
 34 93  1  0
 34 94  1  0
 35 95  1  0
 36 96  1  0
 37 97  1  0
 37 98  1  0
 38 99  1  0
 38100  1  0
 39101  1  0
 40102  1  0
 41103  1  0
 43104  1  0
 43105  1  0
 43106  1  0
 44107  1  0
 44108  1  0
 45109  1  0
 46110  1  0
 46111  1  0
 46112  1  0
 47113  1  0
 48114  1  0
 49115  1  0
 49116  1  0
 52117  1  0
 53118  1  0
 53119  1  0
 53120  1  0
 54121  1  0
 54122  1  0
 55123  1  0
 57124  1  0
 57125  1  0
 57126  1  0
M  END
$$$$
