
     RDKit          3D

 47 50  0  0  0  0  0  0  0  0999 V2000
   -6.5708    1.1223   -0.0362 C   0  0  0  0  0  0  0  0  0  0  0  0
   -6.5162   -0.0393   -1.0180 C   0  0  0  0  0  0  0  0  0  0  0  0
   -5.1427   -0.1866   -1.6692 C   0  0  0  0  0  0  0  0  0  0  0  0
   -4.1899   -0.5032   -0.6586 O   0  0  0  0  0  0  0  0  0  0  0  0
   -2.9161   -0.8021   -1.0598 C   0  0  0  0  0  0  0  0  0  0  0  0
   -2.4184   -0.6309   -2.3525 C   0  0  0  0  0  0  0  0  0  0  0  0
   -1.0915   -0.9696   -2.6496 C   0  0  0  0  0  0  0  0  0  0  0  0
   -0.2445   -1.4831   -1.6597 C   0  0  0  0  0  0  0  0  0  0  0  0
    1.1281   -1.8535   -2.0131 C   0  0  0  0  0  0  0  0  0  0  0  0
    2.2503   -1.3038   -1.5240 C   0  0  0  0  0  0  0  0  0  0  0  0
    3.8425   -1.8463   -2.0622 S   0  0  0  0  0  0  0  0  0  0  0  0
    4.5789   -0.6868   -1.0398 C   0  0  0  0  0  0  0  0  0  0  0  0
    5.8033   -0.3382   -0.7701 N   0  0  0  0  0  0  0  0  0  0  0  0
    5.6006    0.6819    0.1491 C   0  0  0  0  0  0  0  0  0  0  0  0
    6.7903    1.4620    0.7981 C   0  0  0  0  0  0  0  0  0  0  0  0
    8.1299    1.2305    0.5483 C   0  0  0  0  0  0  0  0  0  0  0  0
    8.8576    2.1537    1.3380 C   0  0  0  0  0  0  0  0  0  0  0  0
    7.9198    2.8934    2.0191 C   0  0  0  0  0  0  0  0  0  0  0  0
    6.6662    2.4815    1.7015 O   0  0  0  0  0  0  0  0  0  0  0  0
    4.3105    0.9475    0.4352 N   0  0  0  0  0  0  0  0  0  0  0  0
    3.6903    0.0506   -0.3476 N   0  0  0  0  0  0  0  0  0  0  0  0
    2.3432   -0.1881   -0.5229 C   0  0  0  0  0  0  0  0  0  0  0  0
    1.4741    0.4310    0.0600 O   0  0  0  0  0  0  0  0  0  0  0  0
   -0.7411   -1.6698   -0.3683 C   0  0  0  0  0  0  0  0  0  0  0  0
   -2.0556   -1.3028   -0.0714 C   0  0  0  0  0  0  0  0  0  0  0  0
   -2.5055   -1.5029    1.2113 O   0  0  0  0  0  0  0  0  0  0  0  0
   -2.2876   -0.3173    1.9867 C   0  0  0  0  0  0  0  0  0  0  0  0
   -3.0283   -0.4777    3.3033 C   0  0  0  0  0  0  0  0  0  0  0  0
   -7.5754    1.2105    0.3878 H   0  0  0  0  0  0  0  0  0  0  0  0
   -5.8677    0.9798    0.7906 H   0  0  0  0  0  0  0  0  0  0  0  0
   -6.3265    2.0667   -0.5341 H   0  0  0  0  0  0  0  0  0  0  0  0
   -6.7681   -0.9605   -0.4798 H   0  0  0  0  0  0  0  0  0  0  0  0
   -7.2726    0.1098   -1.7957 H   0  0  0  0  0  0  0  0  0  0  0  0
   -4.8704    0.7511   -2.1664 H   0  0  0  0  0  0  0  0  0  0  0  0
   -5.1916   -0.9956   -2.4073 H   0  0  0  0  0  0  0  0  0  0  0  0
   -3.0325   -0.2289   -3.1517 H   0  0  0  0  0  0  0  0  0  0  0  0
   -0.7284   -0.8232   -3.6649 H   0  0  0  0  0  0  0  0  0  0  0  0
    1.1894   -2.6415   -2.7619 H   0  0  0  0  0  0  0  0  0  0  0  0
    8.5246    0.4821   -0.1255 H   0  0  0  0  0  0  0  0  0  0  0  0
    9.9307    2.2680    1.4020 H   0  0  0  0  0  0  0  0  0  0  0  0
    7.9766    3.7056    2.7300 H   0  0  0  0  0  0  0  0  0  0  0  0
   -0.1189   -2.0841    0.4205 H   0  0  0  0  0  0  0  0  0  0  0  0
   -1.2130   -0.1973    2.1787 H   0  0  0  0  0  0  0  0  0  0  0  0
   -2.6642    0.5776    1.4709 H   0  0  0  0  0  0  0  0  0  0  0  0
   -2.7337   -1.4078    3.8073 H   0  0  0  0  0  0  0  0  0  0  0  0
   -2.8265    0.3690    3.9678 H   0  0  0  0  0  0  0  0  0  0  0  0
   -4.1092   -0.5339    3.1288 H   0  0  0  0  0  0  0  0  0  0  0  0
  1  2  1  0
  2  3  1  0
  3  4  1  0
  4  5  1  0
  5  6  2  0
  6  7  1  0
  7  8  2  0
  8  9  1  0
  9 10  2  3
 10 11  1  0
 11 12  1  0
 12 13  2  0
 13 14  1  0
 14 15  1  0
 15 16  2  0
 16 17  1  0
 17 18  2  0
 18 19  1  0
 14 20  2  0
 20 21  1  0
 21 22  1  0
 22 23  2  0
  8 24  1  0
 24 25  2  0
 25 26  1  0
 26 27  1  0
 27 28  1  0
 25  5  1  0
 22 10  1  0
 21 12  1  0
 19 15  1  0
  1 29  1  0
  1 30  1  0
  1 31  1  0
  2 32  1  0
  2 33  1  0
  3 34  1  0
  3 35  1  0
  6 36  1  0
  7 37  1  0
  9 38  1  0
 16 39  1  0
 17 40  1  0
 18 41  1  0
 24 42  1  0
 27 43  1  0
 27 44  1  0
 28 45  1  0
 28 46  1  0
 28 47  1  0
M  END
$$$$
