
     RDKit          3D

 57 60  0  0  0  0  0  0  0  0999 V2000
    0.2660    2.4502   -2.1860 C   0  0  0  0  0  0  0  0  0  0  0  0
    0.2731    1.0787   -1.5162 C   0  0  0  0  0  0  0  0  0  0  0  0
    0.2060    1.1810    0.0158 C   0  0  0  0  0  0  0  0  0  0  0  0
   -0.1470   -0.4835    0.7314 S   0  0  0  0  0  0  0  0  0  0  0  0
   -1.8478   -0.6628    0.3157 C   0  0  0  0  0  0  0  0  0  0  0  0
   -2.5533    0.4270    0.3768 N   0  0  0  0  0  0  0  0  0  0  0  0
   -3.9024    0.2711    0.0711 C   0  0  0  0  0  0  0  0  0  0  0  0
   -4.8295    1.3350    0.0149 C   0  0  0  0  0  0  0  0  0  0  0  0
   -6.0925    0.8692   -0.3049 C   0  0  0  0  0  0  0  0  0  0  0  0
   -6.1171   -0.8393   -0.5171 S   0  0  0  0  0  0  0  0  0  0  0  0
   -4.4546   -0.9442   -0.1942 C   0  0  0  0  0  0  0  0  0  0  0  0
   -3.6899   -2.1562   -0.2032 C   0  0  0  0  0  0  0  0  0  0  0  0
   -4.1832   -3.2708   -0.3568 O   0  0  0  0  0  0  0  0  0  0  0  0
   -2.3169   -1.9414    0.0033 N   0  0  0  0  0  0  0  0  0  0  0  0
   -1.4675   -3.1327   -0.1226 C   0  0  0  0  0  0  0  0  0  0  0  0
   -1.0880   -3.4164   -1.5664 C   0  0  0  0  0  0  0  0  0  0  0  0
   -1.8992   -4.2420   -2.3618 C   0  0  0  0  0  0  0  0  0  0  0  0
   -1.5708   -4.4976   -3.6971 C   0  0  0  0  0  0  0  0  0  0  0  0
   -0.4283   -3.9233   -4.2633 C   0  0  0  0  0  0  0  0  0  0  0  0
   -0.1168   -4.2282   -5.6804 C   0  0  0  0  0  0  0  0  0  0  0  0
   -0.7168   -5.0195   -6.3867 O   0  0  0  0  0  0  0  0  0  0  0  0
    0.9354   -3.5251   -6.1467 O   0  0  0  0  0  0  0  0  0  0  0  0
    0.3861   -3.0949   -3.4806 C   0  0  0  0  0  0  0  0  0  0  0  0
    0.0574   -2.8466   -2.1428 C   0  0  0  0  0  0  0  0  0  0  0  0
    1.5247    1.6765    0.6415 C   0  0  0  0  0  0  0  0  0  0  0  0
    2.5366    1.8648   -0.0263 O   0  0  0  0  0  0  0  0  0  0  0  0
    1.4014    1.8988    2.0096 N   0  0  0  0  0  0  0  0  0  0  0  0
    2.3800    2.3806    2.9014 C   0  0  0  0  0  0  0  0  0  0  0  0
    3.6420    2.8265    2.5115 C   0  0  0  0  0  0  0  0  0  0  0  0
    4.5612    3.2873    3.4636 C   0  0  0  0  0  0  0  0  0  0  0  0
    4.2386    3.3074    4.8287 C   0  0  0  0  0  0  0  0  0  0  0  0
    5.2547    3.7858    5.8263 C   0  0  0  0  0  0  0  0  0  0  0  0
    2.9665    2.8664    5.2136 C   0  0  0  0  0  0  0  0  0  0  0  0
    2.4794    2.8579    6.8741 Cl  0  0  0  0  0  0  0  0  0  0  0  0
    2.0451    2.4135    4.2597 C   0  0  0  0  0  0  0  0  0  0  0  0
    1.1740    3.0206   -1.9582 H   0  0  0  0  0  0  0  0  0  0  0  0
    0.2053    2.3327   -3.2776 H   0  0  0  0  0  0  0  0  0  0  0  0
   -0.6024    3.0346   -1.8634 H   0  0  0  0  0  0  0  0  0  0  0  0
   -0.5935    0.5279   -1.8990 H   0  0  0  0  0  0  0  0  0  0  0  0
    1.1682    0.5275   -1.8345 H   0  0  0  0  0  0  0  0  0  0  0  0
   -0.5725    1.8907    0.3143 H   0  0  0  0  0  0  0  0  0  0  0  0
   -4.5979    2.3776    0.1933 H   0  0  0  0  0  0  0  0  0  0  0  0
   -7.0038    1.4420   -0.4239 H   0  0  0  0  0  0  0  0  0  0  0  0
   -0.5618   -3.0553    0.4860 H   0  0  0  0  0  0  0  0  0  0  0  0
   -1.9980   -4.0041    0.2832 H   0  0  0  0  0  0  0  0  0  0  0  0
   -2.7938   -4.7029   -1.9471 H   0  0  0  0  0  0  0  0  0  0  0  0
   -2.2137   -5.1425   -4.2926 H   0  0  0  0  0  0  0  0  0  0  0  0
    1.0172   -3.8257   -7.0772 H   0  0  0  0  0  0  0  0  0  0  0  0
    1.2824   -2.6418   -3.9001 H   0  0  0  0  0  0  0  0  0  0  0  0
    0.7204   -2.2115   -1.5608 H   0  0  0  0  0  0  0  0  0  0  0  0
    0.5242    1.6035    2.4249 H   0  0  0  0  0  0  0  0  0  0  0  0
    3.9490    2.8361    1.4686 H   0  0  0  0  0  0  0  0  0  0  0  0
    5.5377    3.6258    3.1223 H   0  0  0  0  0  0  0  0  0  0  0  0
    6.1778    4.1101    5.3348 H   0  0  0  0  0  0  0  0  0  0  0  0
    4.8667    4.6420    6.3903 H   0  0  0  0  0  0  0  0  0  0  0  0
    5.5156    2.9767    6.5181 H   0  0  0  0  0  0  0  0  0  0  0  0
    1.0663    2.0827    4.5931 H   0  0  0  0  0  0  0  0  0  0  0  0
  1  2  1  0
  2  3  1  0
  3  4  1  0
  4  5  1  0
  5  6  2  0
  6  7  1  0
  7  8  1  0
  8  9  2  0
  9 10  1  0
 10 11  1  0
 11 12  1  0
 12 13  2  0
 12 14  1  0
 14 15  1  0
 15 16  1  0
 16 17  2  0
 17 18  1  0
 18 19  2  0
 19 20  1  0
 20 21  2  0
 20 22  1  0
 19 23  1  0
 23 24  2  0
  3 25  1  0
 25 26  2  0
 25 27  1  0
 27 28  1  0
 28 29  2  0
 29 30  1  0
 30 31  2  0
 31 32  1  0
 31 33  1  0
 33 34  1  0
 33 35  2  0
 14  5  1  0
 24 16  1  0
 35 28  1  0
 11  7  2  0
  1 36  1  0
  1 37  1  0
  1 38  1  0
  2 39  1  0
  2 40  1  0
  3 41  1  0
  8 42  1  0
  9 43  1  0
 15 44  1  0
 15 45  1  0
 17 46  1  0
 18 47  1  0
 22 48  1  0
 23 49  1  0
 24 50  1  0
 27 51  1  0
 29 52  1  0
 30 53  1  0
 32 54  1  0
 32 55  1  0
 32 56  1  0
 35 57  1  0
M  END
$$$$
