
     RDKit          3D

 52 56  0  0  0  0  0  0  0  0999 V2000
    2.7898    0.1448   -1.8072 C   0  0  0  0  0  0  0  0  0  0  0  0
    2.7404   -0.2760   -0.3522 C   0  0  0  0  0  0  0  0  0  0  0  0
    1.7884    0.0613    0.4688 N   0  0  0  0  0  0  0  0  0  0  0  0
    0.7431    0.7998    0.0060 N   0  0  0  0  0  0  0  0  0  0  0  0
   -0.2836    1.1799    0.8576 C   0  0  0  0  0  0  0  0  0  0  0  0
   -0.3171    0.9691    2.0666 O   0  0  0  0  0  0  0  0  0  0  0  0
   -1.3499    1.8914    0.1559 C   0  0  0  0  0  0  0  0  0  0  0  0
   -1.1968    2.3425   -1.1281 N   0  0  0  0  0  0  0  0  0  0  0  0
   -2.3108    2.9521   -1.4880 N   0  0  0  0  0  0  0  0  0  0  0  0
   -3.1920    2.9359   -0.4423 N   0  0  0  0  0  0  0  0  0  0  0  0
   -4.4323    3.6191   -0.5222 C   0  0  0  0  0  0  0  0  0  0  0  0
   -5.2299    3.7345    0.5395 N   0  0  0  0  0  0  0  0  0  0  0  0
   -6.3117    4.4797    0.0741 O   0  0  0  0  0  0  0  0  0  0  0  0
   -6.1464    4.8291   -1.2618 N   0  0  0  0  0  0  0  0  0  0  0  0
   -4.9850    4.2902   -1.6300 C   0  0  0  0  0  0  0  0  0  0  0  0
   -4.4603    4.3914   -2.8667 N   0  0  0  0  0  0  0  0  0  0  0  0
   -2.6284    2.2014    0.5997 C   0  0  0  0  0  0  0  0  0  0  0  0
   -3.3188    1.8287    1.8644 C   0  0  0  0  0  0  0  0  0  0  0  0
   -4.5859    0.5308    1.5982 S   0  0  0  0  0  0  0  0  0  0  0  0
   -3.5977   -0.7861    0.9128 C   0  0  0  0  0  0  0  0  0  0  0  0
   -3.9021   -1.2684   -0.3645 C   0  0  0  0  0  0  0  0  0  0  0  0
   -3.1310   -2.2809   -0.9396 C   0  0  0  0  0  0  0  0  0  0  0  0
   -2.0551   -2.8212   -0.2380 C   0  0  0  0  0  0  0  0  0  0  0  0
   -1.7576   -2.3579    1.0420 C   0  0  0  0  0  0  0  0  0  0  0  0
   -2.5334   -1.3506    1.6201 C   0  0  0  0  0  0  0  0  0  0  0  0
    3.8496   -1.1299    0.1761 C   0  0  0  0  0  0  0  0  0  0  0  0
    4.1660   -1.0557    1.5525 C   0  0  0  0  0  0  0  0  0  0  0  0
    5.1879   -1.8401    2.0975 C   0  0  0  0  0  0  0  0  0  0  0  0
    5.8629   -2.6880    1.2483 C   0  0  0  0  0  0  0  0  0  0  0  0
    5.5500   -2.7727   -0.0883 C   0  0  0  0  0  0  0  0  0  0  0  0
    4.5483   -2.0129   -0.6574 C   0  0  0  0  0  0  0  0  0  0  0  0
    6.3264   -3.6762   -0.7455 O   0  0  0  0  0  0  0  0  0  0  0  0
    7.1634   -4.1504    0.3311 C   0  0  0  0  0  0  0  0  0  0  0  0
    6.8762   -3.5236    1.5980 O   0  0  0  0  0  0  0  0  0  0  0  0
    2.5798    1.2153   -1.8923 H   0  0  0  0  0  0  0  0  0  0  0  0
    3.7742   -0.0163   -2.2520 H   0  0  0  0  0  0  0  0  0  0  0  0
    2.0422   -0.4189   -2.3724 H   0  0  0  0  0  0  0  0  0  0  0  0
    0.6476    1.0066   -0.9824 H   0  0  0  0  0  0  0  0  0  0  0  0
   -3.4836    4.1597   -3.0403 H   0  0  0  0  0  0  0  0  0  0  0  0
   -4.8472    5.0790   -3.5050 H   0  0  0  0  0  0  0  0  0  0  0  0
   -3.7975    2.6987    2.3228 H   0  0  0  0  0  0  0  0  0  0  0  0
   -2.6165    1.4651    2.6181 H   0  0  0  0  0  0  0  0  0  0  0  0
   -4.7388   -0.8568   -0.9241 H   0  0  0  0  0  0  0  0  0  0  0  0
   -3.3718   -2.6478   -1.9339 H   0  0  0  0  0  0  0  0  0  0  0  0
   -1.4515   -3.6073   -0.6842 H   0  0  0  0  0  0  0  0  0  0  0  0
   -0.9178   -2.7744    1.5932 H   0  0  0  0  0  0  0  0  0  0  0  0
   -2.2825   -1.0057    2.6208 H   0  0  0  0  0  0  0  0  0  0  0  0
    3.6110   -0.3820    2.2045 H   0  0  0  0  0  0  0  0  0  0  0  0
    5.4355   -1.7862    3.1517 H   0  0  0  0  0  0  0  0  0  0  0  0
    4.3184   -2.1323   -1.7089 H   0  0  0  0  0  0  0  0  0  0  0  0
    7.0217   -5.2324    0.4345 H   0  0  0  0  0  0  0  0  0  0  0  0
    8.2105   -3.9555    0.0724 H   0  0  0  0  0  0  0  0  0  0  0  0
  1  2  1  0
  2  3  2  3
  3  4  1  0
  4  5  1  0
  5  6  2  0
  5  7  1  0
  7  8  1  0
  8  9  2  0
  9 10  1  0
 10 11  1  0
 11 12  2  0
 12 13  1  0
 13 14  1  0
 14 15  2  0
 15 16  1  0
 10 17  1  0
 17 18  1  0
 18 19  1  0
 19 20  1  0
 20 21  2  0
 21 22  1  0
 22 23  2  0
 23 24  1  0
 24 25  2  0
  2 26  1  0
 26 27  2  0
 27 28  1  0
 28 29  2  0
 29 30  1  0
 30 31  2  0
 30 32  1  0
 32 33  1  0
 33 34  1  0
 17  7  2  0
 25 20  1  0
 31 26  1  0
 15 11  1  0
 34 29  1  0
  1 35  1  0
  1 36  1  0
  1 37  1  0
  4 38  1  0
 16 39  1  0
 16 40  1  0
 18 41  1  0
 18 42  1  0
 21 43  1  0
 22 44  1  0
 23 45  1  0
 24 46  1  0
 25 47  1  0
 27 48  1  0
 28 49  1  0
 31 50  1  0
 33 51  1  0
 33 52  1  0
M  END
$$$$
