
     RDKit          3D

 33 34  0  0  0  0  0  0  0  0999 V2000
   -2.0566    3.7418    1.6343 C   0  0  0  0  0  0  0  0  0  0  0  0
   -1.2858    2.5677    1.3782 O   0  0  0  0  0  0  0  0  0  0  0  0
   -0.3013    2.7585    0.4680 C   0  0  0  0  0  0  0  0  0  0  0  0
    0.0560    3.8055   -0.0414 O   0  0  0  0  0  0  0  0  0  0  0  0
    0.4062    1.4854    0.2890 C   0  0  0  0  0  0  0  0  0  0  0  0
    1.7451    1.4643    0.6746 C   0  0  0  0  0  0  0  0  0  0  0  0
    2.4132    0.2661    0.5808 C   0  0  0  0  0  0  0  0  0  0  0  0
    3.7323    0.2644    0.9791 O   0  0  0  0  0  0  0  0  0  0  0  0
    4.3649   -1.0036    0.8346 C   0  0  0  0  0  0  0  0  0  0  0  0
    1.8365   -0.8716    0.1446 N   0  0  0  0  0  0  0  0  0  0  0  0
    0.5361   -0.8303   -0.2451 C   0  0  0  0  0  0  0  0  0  0  0  0
   -0.2086    0.3333   -0.2084 C   0  0  0  0  0  0  0  0  0  0  0  0
   -1.5762    0.3022   -0.7397 C   0  0  0  0  0  0  0  0  0  0  0  0
   -2.1617    1.3512   -0.9884 O   0  0  0  0  0  0  0  0  0  0  0  0
   -2.1192   -0.9495   -0.9867 N   0  0  0  0  0  0  0  0  0  0  0  0
   -3.4988   -1.0047   -1.4371 C   0  0  0  0  0  0  0  0  0  0  0  0
   -1.3760   -2.1191   -1.0709 C   0  0  0  0  0  0  0  0  0  0  0  0
   -1.8733   -3.1735   -1.4707 O   0  0  0  0  0  0  0  0  0  0  0  0
   -0.0483   -2.0296   -0.7004 N   0  0  0  0  0  0  0  0  0  0  0  0
    0.7981   -3.2136   -0.7456 C   0  0  0  0  0  0  0  0  0  0  0  0
   -2.8652    3.4734    2.3197 H   0  0  0  0  0  0  0  0  0  0  0  0
   -1.4366    4.5073    2.1111 H   0  0  0  0  0  0  0  0  0  0  0  0
   -2.5001    4.1230    0.7088 H   0  0  0  0  0  0  0  0  0  0  0  0
    2.2449    2.3527    1.0469 H   0  0  0  0  0  0  0  0  0  0  0  0
    4.3780   -1.3232   -0.2133 H   0  0  0  0  0  0  0  0  0  0  0  0
    5.4030   -0.8977    1.1638 H   0  0  0  0  0  0  0  0  0  0  0  0
    3.8887   -1.7584    1.4700 H   0  0  0  0  0  0  0  0  0  0  0  0
   -4.0792   -0.1707   -1.0316 H   0  0  0  0  0  0  0  0  0  0  0  0
   -3.5085   -0.9488   -2.5303 H   0  0  0  0  0  0  0  0  0  0  0  0
   -3.9683   -1.9429   -1.1258 H   0  0  0  0  0  0  0  0  0  0  0  0
    0.2615   -4.0840   -1.1332 H   0  0  0  0  0  0  0  0  0  0  0  0
    1.1440   -3.4510    0.2658 H   0  0  0  0  0  0  0  0  0  0  0  0
    1.6549   -3.0248   -1.4008 H   0  0  0  0  0  0  0  0  0  0  0  0
  1  2  1  0
  2  3  1  0
  3  4  2  0
  3  5  1  0
  5  6  2  0
  6  7  1  0
  7  8  1  0
  8  9  1  0
  7 10  2  0
 10 11  1  0
 11 12  2  0
 12 13  1  0
 13 14  2  0
 13 15  1  0
 15 16  1  0
 15 17  1  0
 17 18  2  0
 17 19  1  0
 19 20  1  0
 12  5  1  0
 19 11  1  0
  1 21  1  0
  1 22  1  0
  1 23  1  0
  6 24  1  0
  9 25  1  0
  9 26  1  0
  9 27  1  0
 16 28  1  0
 16 29  1  0
 16 30  1  0
 20 31  1  0
 20 32  1  0
 20 33  1  0
M  END
$$$$
