
     RDKit          3D

 59 62  0  0  0  0  0  0  0  0999 V2000
   -9.9088    1.7862    0.2698 C   0  0  0  0  0  0  0  0  0  0  0  0
   -8.8959    1.8448   -0.7291 O   0  0  0  0  0  0  0  0  0  0  0  0
   -7.6092    1.6278   -0.3208 C   0  0  0  0  0  0  0  0  0  0  0  0
   -7.2005    1.3247    0.9779 C   0  0  0  0  0  0  0  0  0  0  0  0
   -5.8414    1.1354    1.2611 C   0  0  0  0  0  0  0  0  0  0  0  0
   -4.8822    1.2395    0.2475 C   0  0  0  0  0  0  0  0  0  0  0  0
   -3.4717    1.0657    0.5619 C   0  0  0  0  0  0  0  0  0  0  0  0
   -2.6091    1.9250    1.2147 C   0  0  0  0  0  0  0  0  0  0  0  0
   -1.3677    1.3704    1.3677 N   0  0  0  0  0  0  0  0  0  0  0  0
   -1.4541    0.1837    0.8139 C   0  0  0  0  0  0  0  0  0  0  0  0
   -0.1523   -0.9586    0.7749 S   0  0  0  0  0  0  0  0  0  0  0  0
    0.9309   -0.2357    2.0403 C   0  0  0  0  0  0  0  0  0  0  0  0
    2.2015   -1.0639    2.1431 C   0  0  0  0  0  0  0  0  0  0  0  0
    2.2201   -2.1051    2.7951 O   0  0  0  0  0  0  0  0  0  0  0  0
    3.2507   -0.5073    1.4437 N   0  0  0  0  0  0  0  0  0  0  0  0
    4.5298   -0.9887    1.3413 C   0  0  0  0  0  0  0  0  0  0  0  0
    5.4413   -0.3248    0.6696 N   0  0  0  0  0  0  0  0  0  0  0  0
    6.6622   -0.9949    0.7093 C   0  0  0  0  0  0  0  0  0  0  0  0
    7.8456   -0.3661   -0.0135 C   0  0  0  0  0  0  0  0  0  0  0  0
    7.5433   -0.2866   -1.5237 C   0  0  0  0  0  0  0  0  0  0  0  0
    9.1453   -1.1722    0.1753 C   0  0  0  0  0  0  0  0  0  0  0  0
    8.0887    1.0587    0.5251 C   0  0  0  0  0  0  0  0  0  0  0  0
    6.6187   -2.1846    1.4163 C   0  0  0  0  0  0  0  0  0  0  0  0
    5.0473   -2.4435    2.0492 S   0  0  0  0  0  0  0  0  0  0  0  0
   -2.6999   -0.0512    0.2814 N   0  0  0  0  0  0  0  0  0  0  0  0
   -3.1673   -1.2792   -0.3508 C   0  0  0  0  0  0  0  0  0  0  0  0
   -2.8665   -1.2947   -1.8056 C   0  0  0  0  0  0  0  0  0  0  0  0
   -1.7604   -1.6575   -2.5488 C   0  0  0  0  0  0  0  0  0  0  0  0
   -2.1086   -1.4671   -3.9080 C   0  0  0  0  0  0  0  0  0  0  0  0
   -3.4056   -1.0111   -3.9111 C   0  0  0  0  0  0  0  0  0  0  0  0
   -3.8752   -0.9099   -2.6421 O   0  0  0  0  0  0  0  0  0  0  0  0
   -5.2930    1.5432   -1.0504 C   0  0  0  0  0  0  0  0  0  0  0  0
   -6.6496    1.7324   -1.3313 C   0  0  0  0  0  0  0  0  0  0  0  0
   -9.7428    2.5373    1.0486 H   0  0  0  0  0  0  0  0  0  0  0  0
  -10.8665    2.0116   -0.2109 H   0  0  0  0  0  0  0  0  0  0  0  0
   -9.9809    0.7809    0.6995 H   0  0  0  0  0  0  0  0  0  0  0  0
   -7.9081    1.2349    1.7958 H   0  0  0  0  0  0  0  0  0  0  0  0
   -5.5371    0.9112    2.2818 H   0  0  0  0  0  0  0  0  0  0  0  0
   -2.8325    2.9152    1.5925 H   0  0  0  0  0  0  0  0  0  0  0  0
    1.1771    0.8002    1.7871 H   0  0  0  0  0  0  0  0  0  0  0  0
    0.4373   -0.2369    3.0176 H   0  0  0  0  0  0  0  0  0  0  0  0
    3.1206    0.3572    0.9375 H   0  0  0  0  0  0  0  0  0  0  0  0
    6.6452    0.3105   -1.7245 H   0  0  0  0  0  0  0  0  0  0  0  0
    7.3710   -1.2853   -1.9438 H   0  0  0  0  0  0  0  0  0  0  0  0
    8.3745    0.1707   -2.0729 H   0  0  0  0  0  0  0  0  0  0  0  0
    9.9897   -0.6895   -0.3332 H   0  0  0  0  0  0  0  0  0  0  0  0
    9.0520   -2.1854   -0.2343 H   0  0  0  0  0  0  0  0  0  0  0  0
    9.4092   -1.2647    1.2370 H   0  0  0  0  0  0  0  0  0  0  0  0
    8.3277    1.0432    1.5955 H   0  0  0  0  0  0  0  0  0  0  0  0
    8.9201    1.5431    0.0012 H   0  0  0  0  0  0  0  0  0  0  0  0
    7.2052    1.6938    0.3973 H   0  0  0  0  0  0  0  0  0  0  0  0
    7.4093   -2.8983    1.5978 H   0  0  0  0  0  0  0  0  0  0  0  0
   -4.2430   -1.3713   -0.1719 H   0  0  0  0  0  0  0  0  0  0  0  0
   -2.6999   -2.1299    0.1561 H   0  0  0  0  0  0  0  0  0  0  0  0
   -0.8172   -2.0180   -2.1612 H   0  0  0  0  0  0  0  0  0  0  0  0
   -1.4917   -1.6439   -4.7779 H   0  0  0  0  0  0  0  0  0  0  0  0
   -4.1007   -0.7305   -4.6907 H   0  0  0  0  0  0  0  0  0  0  0  0
   -4.5654    1.6409   -1.8529 H   0  0  0  0  0  0  0  0  0  0  0  0
   -6.9596    1.9682   -2.3449 H   0  0  0  0  0  0  0  0  0  0  0  0
  1  2  1  0
  2  3  1  0
  3  4  2  0
  4  5  1  0
  5  6  2  0
  6  7  1  0
  7  8  2  0
  8  9  1  0
  9 10  2  0
 10 11  1  0
 11 12  1  0
 12 13  1  0
 13 14  2  0
 13 15  1  0
 15 16  1  0
 16 17  2  0
 17 18  1  0
 18 19  1  0
 19 20  1  0
 19 21  1  0
 19 22  1  0
 18 23  2  0
 23 24  1  0
 10 25  1  0
 25 26  1  0
 26 27  1  0
 27 28  2  0
 28 29  1  0
 29 30  2  0
 30 31  1  0
  6 32  1  0
 32 33  2  0
 33  3  1  0
 25  7  1  0
 31 27  1  0
 24 16  1  0
  1 34  1  0
  1 35  1  0
  1 36  1  0
  4 37  1  0
  5 38  1  0
  8 39  1  0
 12 40  1  0
 12 41  1  0
 15 42  1  0
 20 43  1  0
 20 44  1  0
 20 45  1  0
 21 46  1  0
 21 47  1  0
 21 48  1  0
 22 49  1  0
 22 50  1  0
 22 51  1  0
 23 52  1  0
 26 53  1  0
 26 54  1  0
 28 55  1  0
 29 56  1  0
 30 57  1  0
 32 58  1  0
 33 59  1  0
M  END
$$$$
