
     RDKit          3D

 56 61  0  0  0  0  0  0  0  0999 V2000
   -5.8353   -2.6363    0.1909 C   0  0  0  0  0  0  0  0  0  0  0  0
   -4.5165   -2.2306    0.7778 C   0  0  0  0  0  0  0  0  0  0  0  0
   -4.3747   -1.9597    2.1520 C   0  0  0  0  0  0  0  0  0  0  0  0
   -5.7218   -2.0749    3.2323 Cl  0  0  0  0  0  0  0  0  0  0  0  0
   -3.1349   -1.5870    2.7067 C   0  0  0  0  0  0  0  0  0  0  0  0
   -1.9964   -1.4769    1.9073 C   0  0  0  0  0  0  0  0  0  0  0  0
   -2.1201   -1.7429    0.5537 C   0  0  0  0  0  0  0  0  0  0  0  0
   -3.3620   -2.1153    0.0123 C   0  0  0  0  0  0  0  0  0  0  0  0
   -3.2247   -2.3439   -1.3560 N   0  0  0  0  0  0  0  0  0  0  0  0
   -1.9071   -2.1773   -1.7774 C   0  0  0  0  0  0  0  0  0  0  0  0
   -1.4949   -2.4000   -2.9056 O   0  0  0  0  0  0  0  0  0  0  0  0
   -1.0922   -1.7113   -0.5436 C   0  0  0  0  0  0  0  0  0  0  0  0
    0.1123   -2.5791   -0.3256 N   0  0  0  0  0  0  0  0  0  0  0  0
    1.3425   -1.7073   -0.2038 C   0  0  2  0  0  0  0  0  0  0  0  0
    1.9538   -1.9073    1.1942 C   0  0  0  0  0  0  0  0  0  0  0  0
    3.3179   -1.2764    1.3581 C   0  0  0  0  0  0  0  0  0  0  0  0
    3.4875   -0.1585    2.1866 C   0  0  0  0  0  0  0  0  0  0  0  0
    4.7401    0.4429    2.3143 C   0  0  0  0  0  0  0  0  0  0  0  0
    5.8353   -0.0710    1.6233 C   0  0  0  0  0  0  0  0  0  0  0  0
    5.6808   -1.1895    0.8070 C   0  0  0  0  0  0  0  0  0  0  0  0
    4.4290   -1.7919    0.6760 C   0  0  0  0  0  0  0  0  0  0  0  0
    0.8233   -0.3461   -0.4786 C   0  0  0  0  0  0  0  0  0  0  0  0
   -0.5566   -0.3481   -0.6530 C   0  0  0  0  0  0  0  0  0  0  0  0
   -0.9773    0.9332   -0.9029 C   0  0  0  0  0  0  0  0  0  0  0  0
   -2.2010    1.3872   -1.1656 O   0  0  0  0  0  0  0  0  0  0  0  0
    0.1671    1.7619   -0.9063 N   0  0  0  0  0  0  0  0  0  0  0  0
    0.1872    3.1855   -1.1205 C   0  0  0  0  0  0  0  0  0  0  0  0
   -0.9468    3.9682   -0.8553 C   0  0  0  0  0  0  0  0  0  0  0  0
   -0.9268    5.3523   -1.0600 C   0  0  0  0  0  0  0  0  0  0  0  0
    0.2242    5.9739   -1.5335 C   0  0  0  0  0  0  0  0  0  0  0  0
    1.3566    5.2117   -1.8018 C   0  0  0  0  0  0  0  0  0  0  0  0
    1.3399    3.8276   -1.5964 C   0  0  0  0  0  0  0  0  0  0  0  0
    1.2857    0.9326   -0.6606 C   0  0  0  0  0  0  0  0  0  0  0  0
    2.5275    1.4052   -0.5892 O   0  0  0  0  0  0  0  0  0  0  0  0
   -6.1483   -3.6038    0.5965 H   0  0  0  0  0  0  0  0  0  0  0  0
   -6.6000   -1.8841    0.4116 H   0  0  0  0  0  0  0  0  0  0  0  0
   -5.7967   -2.7348   -0.8974 H   0  0  0  0  0  0  0  0  0  0  0  0
   -3.0558   -1.3824    3.7727 H   0  0  0  0  0  0  0  0  0  0  0  0
   -1.0445   -1.1876    2.3402 H   0  0  0  0  0  0  0  0  0  0  0  0
   -3.9444   -2.6779   -1.9800 H   0  0  0  0  0  0  0  0  0  0  0  0
    0.2306   -3.0959   -1.2017 H   0  0  0  0  0  0  0  0  0  0  0  0
    2.0501   -2.0017   -0.9883 H   0  0  0  0  0  0  0  0  0  0  0  0
    2.0658   -2.9809    1.4000 H   0  0  0  0  0  0  0  0  0  0  0  0
    1.2782   -1.5247    1.9696 H   0  0  0  0  0  0  0  0  0  0  0  0
    2.6418    0.2637    2.7262 H   0  0  0  0  0  0  0  0  0  0  0  0
    4.8601    1.3152    2.9522 H   0  0  0  0  0  0  0  0  0  0  0  0
    6.8107    0.3980    1.7256 H   0  0  0  0  0  0  0  0  0  0  0  0
    6.5380   -1.5953    0.2755 H   0  0  0  0  0  0  0  0  0  0  0  0
    4.3293   -2.6697    0.0406 H   0  0  0  0  0  0  0  0  0  0  0  0
   -2.8250    0.6429   -1.1217 H   0  0  0  0  0  0  0  0  0  0  0  0
   -1.8572    3.5365   -0.4519 H   0  0  0  0  0  0  0  0  0  0  0  0
   -1.8132    5.9423   -0.8425 H   0  0  0  0  0  0  0  0  0  0  0  0
    0.2386    7.0483   -1.6934 H   0  0  0  0  0  0  0  0  0  0  0  0
    2.2572    5.6892   -2.1790 H   0  0  0  0  0  0  0  0  0  0  0  0
    2.2371    3.2743   -1.8550 H   0  0  0  0  0  0  0  0  0  0  0  0
    3.1258    0.6776   -0.3399 H   0  0  0  0  0  0  0  0  0  0  0  0
  1  2  1  0
  2  3  2  0
  3  4  1  0
  3  5  1  0
  5  6  2  0
  6  7  1  0
  7  8  2  0
  8  9  1  0
  9 10  1  0
 10 11  2  0
 10 12  1  0
 12 13  1  0
 13 14  1  0
 14 15  1  0
 15 16  1  0
 16 17  2  0
 17 18  1  0
 18 19  2  0
 19 20  1  0
 20 21  2  0
 14 22  1  0
 22 23  1  0
 23 24  2  0
 24 25  1  0
 24 26  1  0
 26 27  1  0
 27 28  2  0
 28 29  1  0
 29 30  2  0
 30 31  1  0
 31 32  2  0
 26 33  1  0
 33 34  1  0
  8  2  1  0
 23 12  1  0
 32 27  1  0
 12  7  1  0
 21 16  1  0
 33 22  2  0
  1 35  1  0
  1 36  1  0
  1 37  1  0
  5 38  1  0
  6 39  1  0
  9 40  1  0
 13 41  1  0
 14 42  1  6
 15 43  1  0
 15 44  1  0
 17 45  1  0
 18 46  1  0
 19 47  1  0
 20 48  1  0
 21 49  1  0
 25 50  1  0
 28 51  1  0
 29 52  1  0
 30 53  1  0
 31 54  1  0
 32 55  1  0
 34 56  1  0
M  END
$$$$
