
     RDKit          3D

 37 39  0  0  0  0  0  0  0  0999 V2000
   -5.3495    0.8297   -1.2963 C   0  0  0  0  0  0  0  0  0  0  0  0
   -5.2862    0.8054    0.2068 C   0  0  0  0  0  0  0  0  0  0  0  0
   -6.4596    0.9784    0.9562 C   0  0  0  0  0  0  0  0  0  0  0  0
   -6.4190    0.9586    2.3489 C   0  0  0  0  0  0  0  0  0  0  0  0
   -5.2065    0.7659    3.0040 C   0  0  0  0  0  0  0  0  0  0  0  0
   -4.0306    0.5923    2.2691 C   0  0  0  0  0  0  0  0  0  0  0  0
   -4.0611    0.6106    0.8709 C   0  0  0  0  0  0  0  0  0  0  0  0
   -2.9703    0.4509    0.0584 O   0  0  0  0  0  0  0  0  0  0  0  0
   -1.7091    0.2522    0.6726 C   0  0  0  0  0  0  0  0  0  0  0  0
   -0.5920    0.0910   -0.3674 C   0  0  0  0  0  0  0  0  0  0  0  0
   -0.7980    0.1321   -1.5748 O   0  0  0  0  0  0  0  0  0  0  0  0
    0.6379   -0.1008    0.2376 N   0  0  0  0  0  0  0  0  0  0  0  0
    1.7842   -0.2690   -0.4904 C   0  0  0  0  0  0  0  0  0  0  0  0
    1.9783   -0.2883   -1.7829 N   0  0  0  0  0  0  0  0  0  0  0  0
    3.3093   -0.4879   -2.0954 N   0  0  0  0  0  0  0  0  0  0  0  0
    4.0766   -0.6129   -1.0269 C   0  0  0  0  0  0  0  0  0  0  0  0
    5.5326   -0.8337   -1.0734 C   0  0  0  0  0  0  0  0  0  0  0  0
    6.3344   -0.9628    0.0666 C   0  0  0  0  0  0  0  0  0  0  0  0
    7.6970   -1.1687   -0.0915 C   0  0  0  0  0  0  0  0  0  0  0  0
    8.3102   -1.2540   -1.2881 N   0  0  0  0  0  0  0  0  0  0  0  0
    7.5294   -1.1283   -2.3793 C   0  0  0  0  0  0  0  0  0  0  0  0
    6.1614   -0.9209   -2.3229 C   0  0  0  0  0  0  0  0  0  0  0  0
    3.1892   -0.4898    0.4499 S   0  0  0  0  0  0  0  0  0  0  0  0
   -5.0019   -0.1243   -1.7059 H   0  0  0  0  0  0  0  0  0  0  0  0
   -4.7300    1.6426   -1.6888 H   0  0  0  0  0  0  0  0  0  0  0  0
   -6.3724    0.9905   -1.6527 H   0  0  0  0  0  0  0  0  0  0  0  0
   -7.4133    1.1298    0.4555 H   0  0  0  0  0  0  0  0  0  0  0  0
   -7.3334    1.0936    2.9207 H   0  0  0  0  0  0  0  0  0  0  0  0
   -5.1758    0.7506    4.0904 H   0  0  0  0  0  0  0  0  0  0  0  0
   -3.1104    0.4454    2.8227 H   0  0  0  0  0  0  0  0  0  0  0  0
   -1.7254   -0.6635    1.2764 H   0  0  0  0  0  0  0  0  0  0  0  0
   -1.4527    1.1197    1.2931 H   0  0  0  0  0  0  0  0  0  0  0  0
    0.7293   -0.1226    1.2414 H   0  0  0  0  0  0  0  0  0  0  0  0
    5.9344   -0.9086    1.0724 H   0  0  0  0  0  0  0  0  0  0  0  0
    8.3509   -1.2736    0.7702 H   0  0  0  0  0  0  0  0  0  0  0  0
    8.0456   -1.2004   -3.3326 H   0  0  0  0  0  0  0  0  0  0  0  0
    5.5964   -0.8291   -3.2469 H   0  0  0  0  0  0  0  0  0  0  0  0
  1  2  1  0
  2  3  2  0
  3  4  1  0
  4  5  2  0
  5  6  1  0
  6  7  2  0
  7  8  1  0
  8  9  1  0
  9 10  1  0
 10 11  2  0
 10 12  1  0
 12 13  1  0
 13 14  2  0
 14 15  1  0
 15 16  2  0
 16 17  1  0
 17 18  2  0
 18 19  1  0
 19 20  2  0
 20 21  1  0
 21 22  2  0
 16 23  1  0
  7  2  1  0
 23 13  1  0
 22 17  1  0
  1 24  1  0
  1 25  1  0
  1 26  1  0
  3 27  1  0
  4 28  1  0
  5 29  1  0
  6 30  1  0
  9 31  1  0
  9 32  1  0
 12 33  1  0
 18 34  1  0
 19 35  1  0
 21 36  1  0
 22 37  1  0
M  END
$$$$
