
     RDKit          3D

 51 54  0  0  0  0  0  0  0  0999 V2000
    5.5743   -0.7956   -2.4334 C   0  0  0  0  0  0  0  0  0  0  0  0
    5.5502    0.5146   -1.6613 C   0  0  0  0  0  0  0  0  0  0  0  0
    4.1759    0.8254   -1.1281 C   0  0  0  0  0  0  0  0  0  0  0  0
    3.7731    0.3540    0.1232 C   0  0  0  0  0  0  0  0  0  0  0  0
    2.4897    0.6319    0.6111 C   0  0  0  0  0  0  0  0  0  0  0  0
    1.5672    1.3829   -0.1356 C   0  0  0  0  0  0  0  0  0  0  0  0
    0.2339    1.6663    0.3633 N   0  0  0  0  0  0  0  0  0  0  0  0
   -0.3458    2.9001    0.0432 C   0  0  0  0  0  0  0  0  0  0  0  0
    0.2200    3.8378   -0.5202 O   0  0  0  0  0  0  0  0  0  0  0  0
   -1.7405    3.1224    0.4560 C   0  0  0  0  0  0  0  0  0  0  0  0
   -2.4059    4.2881    0.0365 C   0  0  0  0  0  0  0  0  0  0  0  0
   -3.7226    4.5218    0.4196 C   0  0  0  0  0  0  0  0  0  0  0  0
   -4.3740    3.5914    1.2188 C   0  0  0  0  0  0  0  0  0  0  0  0
   -3.7068    2.4351    1.6392 C   0  0  0  0  0  0  0  0  0  0  0  0
   -2.3747    2.1891    1.2676 C   0  0  0  0  0  0  0  0  0  0  0  0
   -1.6631    1.0340    1.6741 N   0  0  0  0  0  0  0  0  0  0  0  0
   -2.2789    0.0529    2.5747 C   0  0  0  0  0  0  0  0  0  0  0  0
   -3.0546   -0.9971    1.7793 C   0  0  0  0  0  0  0  0  0  0  0  0
   -4.2579   -0.8977    1.5543 O   0  0  0  0  0  0  0  0  0  0  0  0
   -2.2718   -2.0191    1.2922 N   0  0  0  0  0  0  0  0  0  0  0  0
   -2.8151   -2.9894    0.3729 C   0  0  0  0  0  0  0  0  0  0  0  0
   -1.7816   -4.0109    0.0841 C   0  0  0  0  0  0  0  0  0  0  0  0
   -0.6051   -3.9901   -0.6386 C   0  0  0  0  0  0  0  0  0  0  0  0
   -0.0507   -5.2887   -0.5370 C   0  0  0  0  0  0  0  0  0  0  0  0
   -0.9215   -6.0175    0.2379 C   0  0  0  0  0  0  0  0  0  0  0  0
   -1.9750   -5.2510    0.6196 O   0  0  0  0  0  0  0  0  0  0  0  0
   -0.4105    0.7059    1.1536 C   0  0  0  0  0  0  0  0  0  0  0  0
    0.0395   -0.4268    1.3699 O   0  0  0  0  0  0  0  0  0  0  0  0
    1.9873    1.8465   -1.3933 C   0  0  0  0  0  0  0  0  0  0  0  0
    3.2694    1.5705   -1.8849 C   0  0  0  0  0  0  0  0  0  0  0  0
    4.8915   -0.7649   -3.2893 H   0  0  0  0  0  0  0  0  0  0  0  0
    5.2782   -1.6369   -1.7978 H   0  0  0  0  0  0  0  0  0  0  0  0
    6.5825   -0.9940   -2.8106 H   0  0  0  0  0  0  0  0  0  0  0  0
    5.8889    1.3323   -2.3090 H   0  0  0  0  0  0  0  0  0  0  0  0
    6.2659    0.4693   -0.8314 H   0  0  0  0  0  0  0  0  0  0  0  0
    4.4561   -0.2305    0.7359 H   0  0  0  0  0  0  0  0  0  0  0  0
    2.2474    0.2683    1.6066 H   0  0  0  0  0  0  0  0  0  0  0  0
   -1.8969    5.0173   -0.5918 H   0  0  0  0  0  0  0  0  0  0  0  0
   -4.2374    5.4214    0.0915 H   0  0  0  0  0  0  0  0  0  0  0  0
   -5.4083    3.7563    1.5136 H   0  0  0  0  0  0  0  0  0  0  0  0
   -4.2805    1.7344    2.2396 H   0  0  0  0  0  0  0  0  0  0  0  0
   -2.9298    0.5288    3.3139 H   0  0  0  0  0  0  0  0  0  0  0  0
   -1.5027   -0.4527    3.1632 H   0  0  0  0  0  0  0  0  0  0  0  0
   -1.2626   -1.8668    1.2897 H   0  0  0  0  0  0  0  0  0  0  0  0
   -3.7145   -3.4326    0.8133 H   0  0  0  0  0  0  0  0  0  0  0  0
   -3.1084   -2.4674   -0.5444 H   0  0  0  0  0  0  0  0  0  0  0  0
   -0.1970   -3.1389   -1.1666 H   0  0  0  0  0  0  0  0  0  0  0  0
    0.8707   -5.6491   -0.9720 H   0  0  0  0  0  0  0  0  0  0  0  0
   -0.9349   -7.0387    0.5924 H   0  0  0  0  0  0  0  0  0  0  0  0
    1.3178    2.4133   -2.0362 H   0  0  0  0  0  0  0  0  0  0  0  0
    3.5494    1.9444   -2.8675 H   0  0  0  0  0  0  0  0  0  0  0  0
  1  2  1  0
  2  3  1  0
  3  4  2  0
  4  5  1  0
  5  6  2  0
  6  7  1  0
  7  8  1  0
  8  9  2  0
  8 10  1  0
 10 11  2  0
 11 12  1  0
 12 13  2  0
 13 14  1  0
 14 15  2  0
 15 16  1  0
 16 17  1  0
 17 18  1  0
 18 19  2  0
 18 20  1  0
 20 21  1  0
 21 22  1  0
 22 23  2  0
 23 24  1  0
 24 25  2  0
 25 26  1  0
 16 27  1  0
 27 28  2  0
  6 29  1  0
 29 30  2  0
 30  3  1  0
 27  7  1  0
 15 10  1  0
 26 22  1  0
  1 31  1  0
  1 32  1  0
  1 33  1  0
  2 34  1  0
  2 35  1  0
  4 36  1  0
  5 37  1  0
 11 38  1  0
 12 39  1  0
 13 40  1  0
 14 41  1  0
 17 42  1  0
 17 43  1  0
 20 44  1  0
 21 45  1  0
 21 46  1  0
 23 47  1  0
 24 48  1  0
 25 49  1  0
 29 50  1  0
 30 51  1  0
M  END
$$$$
