
     RDKit          3D

 58 61  0  0  0  0  0  0  0  0999 V2000
   -4.0391    5.8484   -0.5559 C   0  0  0  0  0  0  0  0  0  0  0  0
   -3.1458    4.7423   -0.5727 O   0  0  0  0  0  0  0  0  0  0  0  0
   -3.5647    3.5972    0.0484 C   0  0  0  0  0  0  0  0  0  0  0  0
   -4.7945    3.4047    0.6629 C   0  0  0  0  0  0  0  0  0  0  0  0
   -5.1062    2.1812    1.2671 C   0  0  0  0  0  0  0  0  0  0  0  0
   -4.1583    1.1400    1.2445 C   0  0  0  0  0  0  0  0  0  0  0  0
   -4.3352   -0.4295    1.9202 S   0  0  0  0  0  0  0  0  0  0  0  0
   -2.7749   -0.9150    1.4186 C   0  0  0  0  0  0  0  0  0  0  0  0
   -2.3410   -2.2852    1.7221 C   0  0  0  0  0  0  0  0  0  0  0  0
   -2.4978   -3.2732    0.7360 C   0  0  0  0  0  0  0  0  0  0  0  0
   -2.0912   -4.5843    0.9756 C   0  0  0  0  0  0  0  0  0  0  0  0
   -1.5225   -4.9180    2.2010 C   0  0  0  0  0  0  0  0  0  0  0  0
   -1.3560   -3.9436    3.1897 C   0  0  0  0  0  0  0  0  0  0  0  0
   -1.7596   -2.6225    2.9620 C   0  0  0  0  0  0  0  0  0  0  0  0
   -1.6203   -1.6019    3.8693 O   0  0  0  0  0  0  0  0  0  0  0  0
   -1.0545   -1.9172    5.1334 C   0  0  0  0  0  0  0  0  0  0  0  0
   -2.1171    0.0960    0.7373 C   0  0  0  0  0  0  0  0  0  0  0  0
   -0.7763   -0.0924    0.1951 C   0  0  0  0  0  0  0  0  0  0  0  0
    0.3282   -0.1763    1.0464 C   0  0  0  0  0  0  0  0  0  0  0  0
    1.6075   -0.3516    0.5140 C   0  0  0  0  0  0  0  0  0  0  0  0
    1.8003   -0.4378   -0.8673 C   0  0  0  0  0  0  0  0  0  0  0  0
    3.1010   -0.6112   -1.2502 O   0  0  0  0  0  0  0  0  0  0  0  0
    3.3745   -0.6171   -2.6520 C   0  0  0  0  0  0  0  0  0  0  0  0
    4.8894   -0.7881   -2.8838 C   0  0  0  0  0  0  0  0  0  0  0  0
    5.7448    0.3031   -2.3708 N   0  0  0  0  0  0  0  0  0  0  0  0
    7.1570   -0.0583   -2.5062 C   0  0  0  0  0  0  0  0  0  0  0  0
    5.4862    1.5769   -3.0400 C   0  0  0  0  0  0  0  0  0  0  0  0
    0.6974   -0.3501   -1.7177 C   0  0  0  0  0  0  0  0  0  0  0  0
   -0.5867   -0.1762   -1.1883 C   0  0  0  0  0  0  0  0  0  0  0  0
   -2.9144    1.2981    0.6323 C   0  0  0  0  0  0  0  0  0  0  0  0
   -2.6313    2.5538    0.0331 C   0  0  0  0  0  0  0  0  0  0  0  0
   -4.2488    6.1719    0.4690 H   0  0  0  0  0  0  0  0  0  0  0  0
   -4.9635    5.6168   -1.0952 H   0  0  0  0  0  0  0  0  0  0  0  0
   -3.5514    6.6798   -1.0740 H   0  0  0  0  0  0  0  0  0  0  0  0
   -5.5455    4.1871    0.6962 H   0  0  0  0  0  0  0  0  0  0  0  0
   -6.0695    2.0380    1.7489 H   0  0  0  0  0  0  0  0  0  0  0  0
   -2.9381   -3.0182   -0.2253 H   0  0  0  0  0  0  0  0  0  0  0  0
   -2.2161   -5.3417    0.2064 H   0  0  0  0  0  0  0  0  0  0  0  0
   -1.2026   -5.9399    2.3892 H   0  0  0  0  0  0  0  0  0  0  0  0
   -0.9026   -4.2495    4.1264 H   0  0  0  0  0  0  0  0  0  0  0  0
   -1.6698   -2.6454    5.6719 H   0  0  0  0  0  0  0  0  0  0  0  0
   -0.0232   -2.2694    5.0271 H   0  0  0  0  0  0  0  0  0  0  0  0
   -1.0315   -0.9984    5.7273 H   0  0  0  0  0  0  0  0  0  0  0  0
    0.2012   -0.1070    2.1241 H   0  0  0  0  0  0  0  0  0  0  0  0
    2.4633   -0.4182    1.1812 H   0  0  0  0  0  0  0  0  0  0  0  0
    2.8678   -1.4738   -3.1138 H   0  0  0  0  0  0  0  0  0  0  0  0
    3.0138    0.3033   -3.1240 H   0  0  0  0  0  0  0  0  0  0  0  0
    5.0667   -0.9314   -3.9576 H   0  0  0  0  0  0  0  0  0  0  0  0
    5.1846   -1.7163   -2.3771 H   0  0  0  0  0  0  0  0  0  0  0  0
    7.3750   -0.9801   -1.9553 H   0  0  0  0  0  0  0  0  0  0  0  0
    7.4472   -0.2042   -3.5531 H   0  0  0  0  0  0  0  0  0  0  0  0
    7.7977    0.7193   -2.0754 H   0  0  0  0  0  0  0  0  0  0  0  0
    4.4740    1.9365   -2.8312 H   0  0  0  0  0  0  0  0  0  0  0  0
    5.6161    1.5065   -4.1259 H   0  0  0  0  0  0  0  0  0  0  0  0
    6.1626    2.3538   -2.6649 H   0  0  0  0  0  0  0  0  0  0  0  0
    0.7982   -0.4152   -2.7953 H   0  0  0  0  0  0  0  0  0  0  0  0
   -1.4375   -0.1100   -1.8626 H   0  0  0  0  0  0  0  0  0  0  0  0
   -1.6668    2.7136   -0.4441 H   0  0  0  0  0  0  0  0  0  0  0  0
  1  2  1  0
  2  3  1  0
  3  4  2  0
  4  5  1  0
  5  6  2  0
  6  7  1  0
  7  8  1  0
  8  9  1  0
  9 10  2  0
 10 11  1  0
 11 12  2  0
 12 13  1  0
 13 14  2  0
 14 15  1  0
 15 16  1  0
  8 17  2  0
 17 18  1  0
 18 19  2  0
 19 20  1  0
 20 21  2  0
 21 22  1  0
 22 23  1  0
 23 24  1  0
 24 25  1  0
 25 26  1  0
 25 27  1  0
 21 28  1  0
 28 29  2  0
 17 30  1  0
 30 31  2  0
 31  3  1  0
 30  6  1  0
 14  9  1  0
 29 18  1  0
  1 32  1  0
  1 33  1  0
  1 34  1  0
  4 35  1  0
  5 36  1  0
 10 37  1  0
 11 38  1  0
 12 39  1  0
 13 40  1  0
 16 41  1  0
 16 42  1  0
 16 43  1  0
 19 44  1  0
 20 45  1  0
 23 46  1  0
 23 47  1  0
 24 48  1  0
 24 49  1  0
 26 50  1  0
 26 51  1  0
 26 52  1  0
 27 53  1  0
 27 54  1  0
 27 55  1  0
 28 56  1  0
 29 57  1  0
 31 58  1  0
M  END
$$$$
