
     RDKit          3D

 46 49  0  0  0  0  0  0  0  0999 V2000
    1.0823   -1.0573    0.7973 O   0  0  0  0  0  0  0  0  0  0  0  0
    1.2503   -0.6100   -0.3339 C   0  0  0  0  0  0  0  0  0  0  0  0
    0.7332   -1.3235   -1.5722 C   0  0  0  0  0  0  0  0  0  0  0  0
   -0.5765   -1.9244   -1.3645 N   0  0  0  0  0  0  0  0  0  0  0  0
   -1.8094   -1.3445   -1.5959 C   0  0  0  0  0  0  0  0  0  0  0  0
   -2.0599    0.0542   -2.0762 C   0  0  0  0  0  0  0  0  0  0  0  0
   -1.0809    0.9684   -1.5699 O   0  0  0  0  0  0  0  0  0  0  0  0
   -1.3843    1.6143   -0.3991 C   0  0  0  0  0  0  0  0  0  0  0  0
   -0.7973    2.8763   -0.2451 C   0  0  0  0  0  0  0  0  0  0  0  0
   -0.9819    3.6059    0.9334 C   0  0  0  0  0  0  0  0  0  0  0  0
   -1.7501    3.0707    1.9682 C   0  0  0  0  0  0  0  0  0  0  0  0
   -2.3315    1.8100    1.8214 C   0  0  0  0  0  0  0  0  0  0  0  0
   -2.1489    1.0797    0.6402 C   0  0  0  0  0  0  0  0  0  0  0  0
   -2.7775   -2.2160   -1.3628 N   0  0  0  0  0  0  0  0  0  0  0  0
   -2.1641   -3.3738   -0.9575 C   0  0  0  0  0  0  0  0  0  0  0  0
   -2.7322   -4.6016   -0.5864 C   0  0  0  0  0  0  0  0  0  0  0  0
   -1.8841   -5.6481   -0.2054 C   0  0  0  0  0  0  0  0  0  0  0  0
   -0.5009   -5.4735   -0.1916 C   0  0  0  0  0  0  0  0  0  0  0  0
    0.0813   -4.2553   -0.5597 C   0  0  0  0  0  0  0  0  0  0  0  0
   -0.7837   -3.2242   -0.9448 C   0  0  0  0  0  0  0  0  0  0  0  0
    1.9671    0.5413   -0.6380 N   0  0  0  0  0  0  0  0  0  0  0  0
    2.4803    1.5033    0.2693 C   0  0  0  0  0  0  0  0  0  0  0  0
    2.1470    1.5314    1.6275 C   0  0  0  0  0  0  0  0  0  0  0  0
    2.6678    2.5272    2.4704 C   0  0  0  0  0  0  0  0  0  0  0  0
    2.1880    2.5056    4.1328 Cl  0  0  0  0  0  0  0  0  0  0  0  0
    3.5528    3.4885    1.9636 C   0  0  0  0  0  0  0  0  0  0  0  0
    4.2518    4.7235    2.9511 Cl  0  0  0  0  0  0  0  0  0  0  0  0
    3.8994    3.4662    0.6117 C   0  0  0  0  0  0  0  0  0  0  0  0
    3.3486    2.4975   -0.2311 C   0  0  0  0  0  0  0  0  0  0  0  0
    3.7677    2.5524   -1.9136 Cl  0  0  0  0  0  0  0  0  0  0  0  0
    0.6667   -0.6534   -2.4354 H   0  0  0  0  0  0  0  0  0  0  0  0
    1.4448   -2.1148   -1.8345 H   0  0  0  0  0  0  0  0  0  0  0  0
   -3.0810    0.3813   -1.8448 H   0  0  0  0  0  0  0  0  0  0  0  0
   -1.9687    0.0629   -3.1683 H   0  0  0  0  0  0  0  0  0  0  0  0
   -0.1905    3.2944   -1.0475 H   0  0  0  0  0  0  0  0  0  0  0  0
   -0.5266    4.5883    1.0466 H   0  0  0  0  0  0  0  0  0  0  0  0
   -1.8916    3.6279    2.8926 H   0  0  0  0  0  0  0  0  0  0  0  0
   -2.9217    1.3870    2.6351 H   0  0  0  0  0  0  0  0  0  0  0  0
   -2.5925    0.0880    0.5803 H   0  0  0  0  0  0  0  0  0  0  0  0
   -3.8078   -4.7268   -0.5960 H   0  0  0  0  0  0  0  0  0  0  0  0
   -2.3130   -6.6036    0.0900 H   0  0  0  0  0  0  0  0  0  0  0  0
    0.1384   -6.2969    0.1197 H   0  0  0  0  0  0  0  0  0  0  0  0
    1.1531   -4.1219   -0.5310 H   0  0  0  0  0  0  0  0  0  0  0  0
    2.1804    0.7215   -1.6122 H   0  0  0  0  0  0  0  0  0  0  0  0
    1.4524    0.8053    2.0527 H   0  0  0  0  0  0  0  0  0  0  0  0
    4.6034    4.1965    0.2134 H   0  0  0  0  0  0  0  0  0  0  0  0
  1  2  2  0
  2  3  1  0
  3  4  1  0
  4  5  1  0
  5  6  1  0
  6  7  1  0
  7  8  1  0
  8  9  2  0
  9 10  1  0
 10 11  2  0
 11 12  1  0
 12 13  2  0
  5 14  2  0
 14 15  1  0
 15 16  2  0
 16 17  1  0
 17 18  2  0
 18 19  1  0
 19 20  2  0
  2 21  1  0
 21 22  1  0
 22 23  2  0
 23 24  1  0
 24 25  1  0
 24 26  2  0
 26 27  1  0
 26 28  1  0
 28 29  2  0
 29 30  1  0
 20  4  1  0
 29 22  1  0
 13  8  1  0
 20 15  1  0
  3 31  1  0
  3 32  1  0
  6 33  1  0
  6 34  1  0
  9 35  1  0
 10 36  1  0
 11 37  1  0
 12 38  1  0
 13 39  1  0
 16 40  1  0
 17 41  1  0
 18 42  1  0
 19 43  1  0
 21 44  1  0
 23 45  1  0
 28 46  1  0
M  END
$$$$
