
     RDKit          3D

 47 50  0  0  0  0  0  0  0  0999 V2000
    0.6072    0.0313   -2.8886 C   0  0  0  0  0  0  0  0  0  0  0  0
    0.2533   -0.7477   -1.6540 C   0  0  0  0  0  0  0  0  0  0  0  0
    0.9836   -1.7844   -1.3453 N   0  0  0  0  0  0  0  0  0  0  0  0
    0.6965   -2.5626   -0.2137 N   0  0  0  0  0  0  0  0  0  0  0  0
    1.6067   -3.6778    0.0569 C   0  0  0  0  0  0  0  0  0  0  0  0
    2.8336   -3.2208    0.8485 C   0  0  0  0  0  0  0  0  0  0  0  0
    3.4992   -3.9887    1.5393 O   0  0  0  0  0  0  0  0  0  0  0  0
    3.2145   -1.9217    0.6075 N   0  0  0  0  0  0  0  0  0  0  0  0
    4.2759   -1.2846    1.3414 C   0  0  0  0  0  0  0  0  0  0  0  0
    4.5540    0.0347    0.6975 C   0  0  0  0  0  0  0  0  0  0  0  0
    5.4974    0.3342   -0.2665 C   0  0  0  0  0  0  0  0  0  0  0  0
    5.4627    1.7048   -0.6535 C   0  0  0  0  0  0  0  0  0  0  0  0
    4.4937    2.4078    0.0274 C   0  0  0  0  0  0  0  0  0  0  0  0
    3.6284    1.4169    1.1190 S   0  0  0  0  0  0  0  0  0  0  0  0
   -0.3367   -2.2997    0.7092 C   0  0  0  0  0  0  0  0  0  0  0  0
   -0.5343   -2.9745    1.7161 O   0  0  0  0  0  0  0  0  0  0  0  0
   -1.1332   -1.1359    0.3427 C   0  0  0  0  0  0  0  0  0  0  0  0
   -2.1611   -0.6344    1.0284 N   0  0  0  0  0  0  0  0  0  0  0  0
   -2.6277    0.3949    0.2704 N   0  0  0  0  0  0  0  0  0  0  0  0
   -3.8686    1.0042    0.6359 C   0  0  0  0  0  0  0  0  0  0  0  0
   -4.6156    1.7826   -0.2567 C   0  0  0  0  0  0  0  0  0  0  0  0
   -5.8290    2.3519    0.1468 C   0  0  0  0  0  0  0  0  0  0  0  0
   -6.3134    2.1393    1.4355 C   0  0  0  0  0  0  0  0  0  0  0  0
   -5.5923    1.3466    2.3231 C   0  0  0  0  0  0  0  0  0  0  0  0
   -4.3818    0.7742    1.9246 C   0  0  0  0  0  0  0  0  0  0  0  0
   -1.7507    0.6709   -0.7867 C   0  0  0  0  0  0  0  0  0  0  0  0
   -1.8012    1.8942   -1.6285 C   0  0  0  0  0  0  0  0  0  0  0  0
   -0.8472   -0.3792   -0.7984 C   0  0  0  0  0  0  0  0  0  0  0  0
    1.3175   -0.5315   -3.5018 H   0  0  0  0  0  0  0  0  0  0  0  0
    1.0732    0.9774   -2.6003 H   0  0  0  0  0  0  0  0  0  0  0  0
   -0.2880    0.2257   -3.4847 H   0  0  0  0  0  0  0  0  0  0  0  0
    1.9388   -4.1046   -0.8952 H   0  0  0  0  0  0  0  0  0  0  0  0
    1.0885   -4.4499    0.6341 H   0  0  0  0  0  0  0  0  0  0  0  0
    2.5756   -1.3534    0.0598 H   0  0  0  0  0  0  0  0  0  0  0  0
    3.9607   -1.1751    2.3850 H   0  0  0  0  0  0  0  0  0  0  0  0
    5.1614   -1.9295    1.3247 H   0  0  0  0  0  0  0  0  0  0  0  0
    6.1813   -0.3999   -0.6772 H   0  0  0  0  0  0  0  0  0  0  0  0
    6.1176    2.1514   -1.3917 H   0  0  0  0  0  0  0  0  0  0  0  0
    4.2515    3.4578   -0.0626 H   0  0  0  0  0  0  0  0  0  0  0  0
   -4.3187    1.9318   -1.2876 H   0  0  0  0  0  0  0  0  0  0  0  0
   -6.4067    2.9509   -0.5534 H   0  0  0  0  0  0  0  0  0  0  0  0
   -7.2576    2.5810    1.7439 H   0  0  0  0  0  0  0  0  0  0  0  0
   -5.9707    1.1669    3.3264 H   0  0  0  0  0  0  0  0  0  0  0  0
   -3.8411    0.1567    2.6405 H   0  0  0  0  0  0  0  0  0  0  0  0
   -2.1894    2.7552   -1.0769 H   0  0  0  0  0  0  0  0  0  0  0  0
   -0.7991    2.1865   -1.9545 H   0  0  0  0  0  0  0  0  0  0  0  0
   -2.4086    1.7260   -2.5226 H   0  0  0  0  0  0  0  0  0  0  0  0
  1  2  1  0
  2  3  2  0
  3  4  1  0
  4  5  1  0
  5  6  1  0
  6  7  2  0
  6  8  1  0
  8  9  1  0
  9 10  1  0
 10 11  2  0
 11 12  1  0
 12 13  2  0
 13 14  1  0
  4 15  1  0
 15 16  2  0
 15 17  1  0
 17 18  2  0
 18 19  1  0
 19 20  1  0
 20 21  2  0
 21 22  1  0
 22 23  2  0
 23 24  1  0
 24 25  2  0
 19 26  1  0
 26 27  1  0
 26 28  2  0
 28  2  1  0
 14 10  1  0
 28 17  1  0
 25 20  1  0
  1 29  1  0
  1 30  1  0
  1 31  1  0
  5 32  1  0
  5 33  1  0
  8 34  1  0
  9 35  1  0
  9 36  1  0
 11 37  1  0
 12 38  1  0
 13 39  1  0
 21 40  1  0
 22 41  1  0
 23 42  1  0
 24 43  1  0
 25 44  1  0
 27 45  1  0
 27 46  1  0
 27 47  1  0
M  END
$$$$
