
     RDKit          3D

 60 63  0  0  0  0  0  0  0  0999 V2000
    9.6291   -0.6063   -0.7355 C   0  0  0  0  0  0  0  0  0  0  0  0
    9.3215   -1.2418    0.5102 O   0  0  0  0  0  0  0  0  0  0  0  0
    8.0414   -1.0650    0.9692 C   0  0  0  0  0  0  0  0  0  0  0  0
    7.6619   -1.9396    1.9890 C   0  0  0  0  0  0  0  0  0  0  0  0
    6.3854   -1.8675    2.5582 C   0  0  0  0  0  0  0  0  0  0  0  0
    5.4701   -0.9024    2.1193 C   0  0  0  0  0  0  0  0  0  0  0  0
    4.0852   -0.8144    2.7141 C   0  0  0  0  0  0  0  0  0  0  0  0
    3.0979   -1.2385    1.7402 N   0  0  0  0  0  0  0  0  0  0  0  0
    2.1933   -0.3506    1.1789 C   0  0  0  0  0  0  0  0  0  0  0  0
    2.1123    0.8214    1.5508 O   0  0  0  0  0  0  0  0  0  0  0  0
    1.4040   -0.9429   -0.0123 C   0  0  0  0  0  0  0  0  0  0  0  0
    2.2709   -0.8971   -1.2726 C   0  0  0  0  0  0  0  0  0  0  0  0
    0.1038   -0.2897   -0.2178 N   0  0  0  0  0  0  0  0  0  0  0  0
    0.1334    1.0662   -0.5835 N   0  0  0  0  0  0  0  0  0  0  0  0
   -0.9607    1.7627   -0.6995 C   0  0  0  0  0  0  0  0  0  0  0  0
   -0.8466    3.2237   -1.0383 C   0  0  0  0  0  0  0  0  0  0  0  0
   -2.2364    1.1123   -0.5148 C   0  0  0  0  0  0  0  0  0  0  0  0
   -3.5518    1.5421   -0.5404 C   0  0  0  0  0  0  0  0  0  0  0  0
   -4.1079    2.9199   -0.6244 C   0  0  0  0  0  0  0  0  0  0  0  0
   -4.3222    0.3769   -0.4155 N   0  0  0  0  0  0  0  0  0  0  0  0
   -5.7187    0.1650   -0.6355 C   0  0  0  0  0  0  0  0  0  0  0  0
   -6.3322   -0.9813   -0.0965 C   0  0  0  0  0  0  0  0  0  0  0  0
   -7.6951   -1.2233   -0.3056 C   0  0  0  0  0  0  0  0  0  0  0  0
   -8.4658   -0.3317   -1.0617 C   0  0  0  0  0  0  0  0  0  0  0  0
   -9.9221   -0.6160   -1.2978 C   0  0  0  0  0  0  0  0  0  0  0  0
   -7.8497    0.7934   -1.6211 C   0  0  0  0  0  0  0  0  0  0  0  0
   -6.4869    1.0368   -1.4169 C   0  0  0  0  0  0  0  0  0  0  0  0
   -3.5474   -0.6815   -0.0485 N   0  0  0  0  0  0  0  0  0  0  0  0
   -2.2901   -0.2461   -0.1821 C   0  0  0  0  0  0  0  0  0  0  0  0
   -1.0763   -1.0327    0.0123 C   0  0  0  0  0  0  0  0  0  0  0  0
   -1.0851   -2.2226    0.3300 O   0  0  0  0  0  0  0  0  0  0  0  0
    5.8581   -0.0187    1.1020 C   0  0  0  0  0  0  0  0  0  0  0  0
    7.1344   -0.0988    0.5279 C   0  0  0  0  0  0  0  0  0  0  0  0
    9.6899    0.4855   -0.6265 H   0  0  0  0  0  0  0  0  0  0  0  0
   10.6159   -0.9587   -1.0628 H   0  0  0  0  0  0  0  0  0  0  0  0
    8.9166   -0.8969   -1.5153 H   0  0  0  0  0  0  0  0  0  0  0  0
    8.3686   -2.6871    2.3440 H   0  0  0  0  0  0  0  0  0  0  0  0
    6.1197   -2.5645    3.3497 H   0  0  0  0  0  0  0  0  0  0  0  0
    3.8989    0.2082    3.0628 H   0  0  0  0  0  0  0  0  0  0  0  0
    3.9865   -1.4767    3.5825 H   0  0  0  0  0  0  0  0  0  0  0  0
    3.1945   -2.1682    1.3534 H   0  0  0  0  0  0  0  0  0  0  0  0
    1.2285   -1.9998    0.2313 H   0  0  0  0  0  0  0  0  0  0  0  0
    2.5299    0.1343   -1.5441 H   0  0  0  0  0  0  0  0  0  0  0  0
    1.7497   -1.3472   -2.1261 H   0  0  0  0  0  0  0  0  0  0  0  0
    3.2110   -1.4403   -1.1236 H   0  0  0  0  0  0  0  0  0  0  0  0
   -1.4023    3.4416   -1.9543 H   0  0  0  0  0  0  0  0  0  0  0  0
   -1.2485    3.8201   -0.2117 H   0  0  0  0  0  0  0  0  0  0  0  0
    0.2035    3.5039   -1.1826 H   0  0  0  0  0  0  0  0  0  0  0  0
   -5.0906    2.9913   -0.1480 H   0  0  0  0  0  0  0  0  0  0  0  0
   -3.4719    3.6320   -0.0840 H   0  0  0  0  0  0  0  0  0  0  0  0
   -4.1817    3.2487   -1.6670 H   0  0  0  0  0  0  0  0  0  0  0  0
   -5.7662   -1.6938    0.5078 H   0  0  0  0  0  0  0  0  0  0  0  0
   -8.1534   -2.1127    0.1301 H   0  0  0  0  0  0  0  0  0  0  0  0
  -10.4374    0.2586   -1.7102 H   0  0  0  0  0  0  0  0  0  0  0  0
  -10.0342   -1.4463   -2.0024 H   0  0  0  0  0  0  0  0  0  0  0  0
  -10.4188   -0.8744   -0.3562 H   0  0  0  0  0  0  0  0  0  0  0  0
   -8.4207    1.4806   -2.2433 H   0  0  0  0  0  0  0  0  0  0  0  0
   -6.0468    1.8883   -1.9317 H   0  0  0  0  0  0  0  0  0  0  0  0
    5.1612    0.7463    0.7576 H   0  0  0  0  0  0  0  0  0  0  0  0
    7.3902    0.6158   -0.2484 H   0  0  0  0  0  0  0  0  0  0  0  0
  1  2  1  0
  2  3  1  0
  3  4  2  0
  4  5  1  0
  5  6  2  0
  6  7  1  0
  7  8  1  0
  8  9  1  0
  9 10  2  0
  9 11  1  0
 11 12  1  0
 11 13  1  0
 13 14  1  0
 14 15  2  0
 15 16  1  0
 15 17  1  0
 17 18  2  0
 18 19  1  0
 18 20  1  0
 20 21  1  0
 21 22  2  0
 22 23  1  0
 23 24  2  0
 24 25  1  0
 24 26  1  0
 26 27  2  0
 20 28  1  0
 28 29  2  0
 29 30  1  0
 30 31  2  0
  6 32  1  0
 32 33  2  0
 33  3  1  0
 30 13  1  0
 29 17  1  0
 27 21  1  0
  1 34  1  0
  1 35  1  0
  1 36  1  0
  4 37  1  0
  5 38  1  0
  7 39  1  0
  7 40  1  0
  8 41  1  0
 11 42  1  0
 12 43  1  0
 12 44  1  0
 12 45  1  0
 16 46  1  0
 16 47  1  0
 16 48  1  0
 19 49  1  0
 19 50  1  0
 19 51  1  0
 22 52  1  0
 23 53  1  0
 25 54  1  0
 25 55  1  0
 25 56  1  0
 26 57  1  0
 27 58  1  0
 32 59  1  0
 33 60  1  0
M  END
$$$$
