
     RDKit          3D

 97 99  0  0  0  0  0  0  0  0999 V2000
   -3.7547    2.1358   -3.7147 C   0  0  0  0  0  0  0  0  0  0  0  0
   -2.8844    1.3648   -2.7701 C   0  0  0  0  0  0  0  0  0  0  0  0
   -1.9936    0.6044   -3.1235 O   0  0  0  0  0  0  0  0  0  0  0  0
   -3.2068    1.6663   -1.4846 O   0  0  0  0  0  0  0  0  0  0  0  0
   -2.4376    1.0122   -0.4359 C   0  0  1  0  0  0  0  0  0  0  0  0
   -1.2751    1.9399    0.0266 C   0  0  2  0  0  0  0  0  0  0  0  0
   -0.4549    2.3163   -1.1048 O   0  0  0  0  0  0  0  0  0  0  0  0
   -0.6741    3.5365   -1.6527 C   0  0  0  0  0  0  0  0  0  0  0  0
    0.3191    3.7947   -2.7442 C   0  0  0  0  0  0  0  0  0  0  0  0
   -1.5323    4.3381   -1.3058 O   0  0  0  0  0  0  0  0  0  0  0  0
   -0.3137    1.3000    1.0325 C   0  0  0  0  0  0  0  0  0  0  0  0
   -0.3308    1.9334    2.4056 C   0  0  0  0  0  0  0  0  0  0  0  0
    0.5788    0.3138    0.7853 C   0  0  0  0  0  0  0  0  0  0  0  0
    0.8904   -0.3966   -0.5196 C   0  0  1  0  0  0  0  0  0  0  0  0
    2.0958    0.2757   -1.2430 C   0  0  1  0  0  0  0  0  0  0  0  0
    3.0470    0.7662   -0.2805 O   0  0  0  0  0  0  0  0  0  0  0  0
    3.5760    1.9889   -0.5406 C   0  0  0  0  0  0  0  0  0  0  0  0
    3.4564    2.6208   -1.5779 O   0  0  0  0  0  0  0  0  0  0  0  0
    4.3226    2.4944    0.6426 C   0  0  0  0  0  0  0  0  0  0  0  0
    4.3948    1.7813    1.8468 C   0  0  0  0  0  0  0  0  0  0  0  0
    5.0837    2.3159    2.9382 C   0  0  0  0  0  0  0  0  0  0  0  0
    5.7020    3.5615    2.8313 C   0  0  0  0  0  0  0  0  0  0  0  0
    5.6377    4.2749    1.6348 C   0  0  0  0  0  0  0  0  0  0  0  0
    4.9452    3.7457    0.5447 C   0  0  0  0  0  0  0  0  0  0  0  0
    2.7059   -0.8017   -2.1560 C   0  0  1  0  0  0  0  0  0  0  0  0
    4.2160   -0.9844   -2.0420 C   0  0  0  0  0  0  0  0  0  0  0  0
    1.9320   -2.0881   -1.8420 C   0  0  0  0  0  0  0  0  0  0  0  0
    1.2985   -1.9104   -0.4352 C   0  0  1  0  0  0  0  0  0  0  0  0
    2.2904   -2.0226    0.6266 O   0  0  0  0  0  0  0  0  0  0  0  0
    3.1527   -3.0635    0.7414 C   0  0  0  0  0  0  0  0  0  0  0  0
    4.0055   -2.8782    1.9617 C   0  0  0  0  0  0  0  0  0  0  0  0
    3.2444   -4.0296    0.0023 O   0  0  0  0  0  0  0  0  0  0  0  0
    0.0944   -2.9032   -0.2685 C   0  0  1  0  0  0  0  0  0  0  0  0
    0.5956   -4.2498   -0.5038 O   0  0  0  0  0  0  0  0  0  0  0  0
   -0.0865   -5.0343   -1.3786 C   0  0  0  0  0  0  0  0  0  0  0  0
    0.5859   -6.3669   -1.5036 C   0  0  0  0  0  0  0  0  0  0  0  0
   -1.1170   -4.7246   -1.9588 O   0  0  0  0  0  0  0  0  0  0  0  0
   -0.7261   -2.9913    1.0504 C   0  0  1  0  0  0  0  0  0  0  0  0
    0.1095   -3.1221    2.3249 C   0  0  0  0  0  0  0  0  0  0  0  0
   -1.7657   -1.9036    1.1875 C   0  0  0  0  0  0  0  0  0  0  0  0
   -2.9547   -1.9256    0.5559 C   0  0  0  0  0  0  0  0  0  0  0  0
   -4.0169   -0.8221    0.5680 C   0  0  0  0  0  0  0  0  0  0  0  0
   -4.8415   -0.9357   -0.7317 C   0  0  0  0  0  0  0  0  0  0  0  0
   -4.9680   -1.1102    1.7480 C   0  0  0  0  0  0  0  0  0  0  0  0
   -3.4141    0.6253    0.7196 C   0  0  2  0  0  0  0  0  0  0  0  0
   -4.5164    1.5745    0.7668 O   0  0  0  0  0  0  0  0  0  0  0  0
   -4.3845    2.6477    1.5815 C   0  0  0  0  0  0  0  0  0  0  0  0
   -5.5546    3.5650    1.4171 C   0  0  0  0  0  0  0  0  0  0  0  0
   -3.4426    2.8579    2.3311 O   0  0  0  0  0  0  0  0  0  0  0  0
   -3.7900    1.6191   -4.6777 H   0  0  0  0  0  0  0  0  0  0  0  0
   -4.7772    2.1923   -3.3272 H   0  0  0  0  0  0  0  0  0  0  0  0
   -3.3420    3.1379   -3.8551 H   0  0  0  0  0  0  0  0  0  0  0  0
   -1.9969    0.1024   -0.8472 H   0  0  0  0  0  0  0  0  0  0  0  0
   -1.6990    2.8481    0.4678 H   0  0  0  0  0  0  0  0  0  0  0  0
   -0.0633    4.5790   -3.4029 H   0  0  0  0  0  0  0  0  0  0  0  0
    1.2654    4.1197   -2.3059 H   0  0  0  0  0  0  0  0  0  0  0  0
    0.4666    2.8943   -3.3462 H   0  0  0  0  0  0  0  0  0  0  0  0
   -0.2843    3.0235    2.3247 H   0  0  0  0  0  0  0  0  0  0  0  0
   -1.2361    1.6545    2.9502 H   0  0  0  0  0  0  0  0  0  0  0  0
    0.5297    1.6255    3.0153 H   0  0  0  0  0  0  0  0  0  0  0  0
    1.2297    0.0175    1.6085 H   0  0  0  0  0  0  0  0  0  0  0  0
    0.0370   -0.3324   -1.2017 H   0  0  0  0  0  0  0  0  0  0  0  0
    1.7116    1.0972   -1.8591 H   0  0  0  0  0  0  0  0  0  0  0  0
    3.9112    0.8135    1.9525 H   0  0  0  0  0  0  0  0  0  0  0  0
    5.1362    1.7606    3.8707 H   0  0  0  0  0  0  0  0  0  0  0  0
    6.2366    3.9776    3.6819 H   0  0  0  0  0  0  0  0  0  0  0  0
    6.1221    5.2452    1.5504 H   0  0  0  0  0  0  0  0  0  0  0  0
    4.8918    4.3141   -0.3822 H   0  0  0  0  0  0  0  0  0  0  0  0
    2.4910   -0.5371   -3.2011 H   0  0  0  0  0  0  0  0  0  0  0  0
    4.5218   -1.2565   -1.0269 H   0  0  0  0  0  0  0  0  0  0  0  0
    4.7390   -0.0652   -2.3235 H   0  0  0  0  0  0  0  0  0  0  0  0
    4.5579   -1.7786   -2.7169 H   0  0  0  0  0  0  0  0  0  0  0  0
    2.5617   -2.9727   -1.9468 H   0  0  0  0  0  0  0  0  0  0  0  0
    1.1322   -2.1913   -2.5892 H   0  0  0  0  0  0  0  0  0  0  0  0
    5.0292   -3.1961    1.7354 H   0  0  0  0  0  0  0  0  0  0  0  0
    4.0397   -1.8229    2.2549 H   0  0  0  0  0  0  0  0  0  0  0  0
    3.5949   -3.4707    2.7845 H   0  0  0  0  0  0  0  0  0  0  0  0
   -0.6123   -2.6459   -1.0721 H   0  0  0  0  0  0  0  0  0  0  0  0
    1.6686   -6.2360   -1.5914 H   0  0  0  0  0  0  0  0  0  0  0  0
    0.2325   -6.8609   -2.4129 H   0  0  0  0  0  0  0  0  0  0  0  0
    0.3443   -6.9853   -0.6357 H   0  0  0  0  0  0  0  0  0  0  0  0
   -1.2883   -3.9375    1.0018 H   0  0  0  0  0  0  0  0  0  0  0  0
    0.8256   -3.9449    2.2398 H   0  0  0  0  0  0  0  0  0  0  0  0
   -0.5338   -3.3393    3.1862 H   0  0  0  0  0  0  0  0  0  0  0  0
    0.6558   -2.2038    2.5589 H   0  0  0  0  0  0  0  0  0  0  0  0
   -1.5148   -1.0792    1.8460 H   0  0  0  0  0  0  0  0  0  0  0  0
   -3.1908   -2.7977   -0.0573 H   0  0  0  0  0  0  0  0  0  0  0  0
   -5.4135   -1.8722   -0.7598 H   0  0  0  0  0  0  0  0  0  0  0  0
   -4.2006   -0.9328   -1.6211 H   0  0  0  0  0  0  0  0  0  0  0  0
   -5.5632   -0.1172   -0.8314 H   0  0  0  0  0  0  0  0  0  0  0  0
   -4.4525   -0.9923    2.7095 H   0  0  0  0  0  0  0  0  0  0  0  0
   -5.3599   -2.1349    1.7083 H   0  0  0  0  0  0  0  0  0  0  0  0
   -5.8303   -0.4346    1.7476 H   0  0  0  0  0  0  0  0  0  0  0  0
   -2.8917    0.6439    1.6803 H   0  0  0  0  0  0  0  0  0  0  0  0
   -5.5471    4.3111    2.2176 H   0  0  0  0  0  0  0  0  0  0  0  0
   -5.4918    4.0757    0.4535 H   0  0  0  0  0  0  0  0  0  0  0  0
   -6.4860    2.9978    1.4918 H   0  0  0  0  0  0  0  0  0  0  0  0
  1  2  1  0
  2  3  2  0
  2  4  1  0
  4  5  1  0
  5  6  1  0
  6  7  1  0
  7  8  1  0
  8  9  1  0
  8 10  2  0
  6 11  1  0
 11 12  1  0
 11 13  2  0
 13 14  1  0
 14 15  1  0
 15 16  1  0
 16 17  1  0
 17 18  2  0
 17 19  1  0
 19 20  2  0
 20 21  1  0
 21 22  2  0
 22 23  1  0
 23 24  2  0
 15 25  1  0
 25 26  1  0
 25 27  1  0
 27 28  1  0
 28 29  1  1
 29 30  1  0
 30 31  1  0
 30 32  2  0
 28 33  1  0
 33 34  1  0
 34 35  1  0
 35 36  1  0
 35 37  2  0
 33 38  1  0
 38 39  1  0
 38 40  1  0
 40 41  2  0
 41 42  1  0
 42 43  1  0
 42 44  1  0
 42 45  1  0
 45 46  1  0
 46 47  1  0
 47 48  1  0
 47 49  2  0
 45  5  1  0
 28 14  1  0
 24 19  1  0
  1 50  1  0
  1 51  1  0
  1 52  1  0
  5 53  1  6
  6 54  1  1
  9 55  1  0
  9 56  1  0
  9 57  1  0
 12 58  1  0
 12 59  1  0
 12 60  1  0
 13 61  1  0
 14 62  1  6
 15 63  1  6
 20 64  1  0
 21 65  1  0
 22 66  1  0
 23 67  1  0
 24 68  1  0
 25 69  1  6
 26 70  1  0
 26 71  1  0
 26 72  1  0
 27 73  1  0
 27 74  1  0
 31 75  1  0
 31 76  1  0
 31 77  1  0
 33 78  1  6
 36 79  1  0
 36 80  1  0
 36 81  1  0
 38 82  1  6
 39 83  1  0
 39 84  1  0
 39 85  1  0
 40 86  1  0
 41 87  1  0
 43 88  1  0
 43 89  1  0
 43 90  1  0
 44 91  1  0
 44 92  1  0
 44 93  1  0
 45 94  1  1
 48 95  1  0
 48 96  1  0
 48 97  1  0
M  END
$$$$
