
     RDKit          3D

 49 52  0  0  0  0  0  0  0  0999 V2000
    3.7838   -1.7851    2.7834 C   0  0  0  0  0  0  0  0  0  0  0  0
    3.4501   -0.4930    2.0899 C   0  0  0  0  0  0  0  0  0  0  0  0
    3.8536    0.6950    2.7395 C   0  0  0  0  0  0  0  0  0  0  0  0
    3.6764    1.9394    2.1385 C   0  0  0  0  0  0  0  0  0  0  0  0
    4.2091    3.3648    2.9424 Cl  0  0  0  0  0  0  0  0  0  0  0  0
    3.0912    2.0293    0.8859 C   0  0  0  0  0  0  0  0  0  0  0  0
    2.6695    0.8649    0.2392 C   0  0  0  0  0  0  0  0  0  0  0  0
    2.8092   -0.3985    0.8424 C   0  0  0  0  0  0  0  0  0  0  0  0
    2.3356   -1.4831    0.0748 N   0  0  0  0  0  0  0  0  0  0  0  0
    1.7299   -2.6394    0.5401 C   0  0  0  0  0  0  0  0  0  0  0  0
    1.4368   -2.8856    1.7063 O   0  0  0  0  0  0  0  0  0  0  0  0
    1.4074   -3.6274   -0.5728 C   0  0  0  0  0  0  0  0  0  0  0  0
   -0.3085   -3.4424   -1.1383 S   0  0  0  0  0  0  0  0  0  0  0  0
   -0.2311   -1.8902   -1.8912 C   0  0  0  0  0  0  0  0  0  0  0  0
    0.8647   -1.3166   -2.3258 N   0  0  0  0  0  0  0  0  0  0  0  0
    0.5315   -0.0743   -2.7915 N   0  0  0  0  0  0  0  0  0  0  0  0
   -0.7711    0.0847   -2.6530 C   0  0  0  0  0  0  0  0  0  0  0  0
   -1.5384    1.2967   -3.0680 C   0  0  0  0  0  0  0  0  0  0  0  0
   -1.9897    2.1511   -1.9188 C   0  0  0  0  0  0  0  0  0  0  0  0
   -1.3488    2.4229   -0.7271 C   0  0  0  0  0  0  0  0  0  0  0  0
   -2.1084    3.2810    0.1195 C   0  0  0  0  0  0  0  0  0  0  0  0
   -3.2973    3.6537   -0.4635 C   0  0  0  0  0  0  0  0  0  0  0  0
   -3.4894    2.9783   -2.0232 S   0  0  0  0  0  0  0  0  0  0  0  0
   -1.2991   -1.0564   -2.0823 N   0  0  0  0  0  0  0  0  0  0  0  0
   -2.6927   -1.3229   -1.7795 C   0  0  0  0  0  0  0  0  0  0  0  0
   -3.0721   -0.8592   -0.4215 C   0  0  0  0  0  0  0  0  0  0  0  0
   -4.1665   -0.1775    0.0689 C   0  0  0  0  0  0  0  0  0  0  0  0
   -3.9592   -0.0331    1.4626 C   0  0  0  0  0  0  0  0  0  0  0  0
   -2.7597   -0.6434    1.7368 C   0  0  0  0  0  0  0  0  0  0  0  0
   -2.2211   -1.1569    0.6019 O   0  0  0  0  0  0  0  0  0  0  0  0
    3.9948   -2.5845    2.0675 H   0  0  0  0  0  0  0  0  0  0  0  0
    4.6931   -1.6762    3.3855 H   0  0  0  0  0  0  0  0  0  0  0  0
    2.9732   -2.0770    3.4566 H   0  0  0  0  0  0  0  0  0  0  0  0
    4.3385    0.6405    3.7135 H   0  0  0  0  0  0  0  0  0  0  0  0
    2.9586    2.9915    0.4025 H   0  0  0  0  0  0  0  0  0  0  0  0
    2.2030    0.9591   -0.7407 H   0  0  0  0  0  0  0  0  0  0  0  0
    2.0937   -1.2522   -0.8908 H   0  0  0  0  0  0  0  0  0  0  0  0
    2.1083   -3.5194   -1.4069 H   0  0  0  0  0  0  0  0  0  0  0  0
    1.5412   -4.6392   -0.1761 H   0  0  0  0  0  0  0  0  0  0  0  0
   -2.3875    0.9851   -3.6864 H   0  0  0  0  0  0  0  0  0  0  0  0
   -0.8982    1.9103   -3.7160 H   0  0  0  0  0  0  0  0  0  0  0  0
   -0.3834    2.0132   -0.4588 H   0  0  0  0  0  0  0  0  0  0  0  0
   -1.7970    3.6016    1.1052 H   0  0  0  0  0  0  0  0  0  0  0  0
   -4.0613    4.2965   -0.0500 H   0  0  0  0  0  0  0  0  0  0  0  0
   -2.8755   -2.3977   -1.8827 H   0  0  0  0  0  0  0  0  0  0  0  0
   -3.3022   -0.8264   -2.5445 H   0  0  0  0  0  0  0  0  0  0  0  0
   -5.0098    0.1839   -0.5056 H   0  0  0  0  0  0  0  0  0  0  0  0
   -4.6040    0.4556    2.1758 H   0  0  0  0  0  0  0  0  0  0  0  0
   -2.1818   -0.7942    2.6364 H   0  0  0  0  0  0  0  0  0  0  0  0
  1  2  1  0
  2  3  2  0
  3  4  1  0
  4  5  1  0
  4  6  2  0
  6  7  1  0
  7  8  2  0
  8  9  1  0
  9 10  1  0
 10 11  2  0
 10 12  1  0
 12 13  1  0
 13 14  1  0
 14 15  2  0
 15 16  1  0
 16 17  2  0
 17 18  1  0
 18 19  1  0
 19 20  2  0
 20 21  1  0
 21 22  2  0
 22 23  1  0
 17 24  1  0
 24 25  1  0
 25 26  1  0
 26 27  2  0
 27 28  1  0
 28 29  2  0
 29 30  1  0
  8  2  1  0
 24 14  1  0
 30 26  1  0
 23 19  1  0
  1 31  1  0
  1 32  1  0
  1 33  1  0
  3 34  1  0
  6 35  1  0
  7 36  1  0
  9 37  1  0
 12 38  1  0
 12 39  1  0
 18 40  1  0
 18 41  1  0
 20 42  1  0
 21 43  1  0
 22 44  1  0
 25 45  1  0
 25 46  1  0
 27 47  1  0
 28 48  1  0
 29 49  1  0
M  END
$$$$
