
     RDKit          3D

 37 39  0  0  0  0  0  0  0  0999 V2000
    4.1101   -0.6421    1.1038 N   0  0  0  0  0  0  0  0  0  0  0  0
    3.5275    0.4150    0.2856 C   0  0  0  0  0  0  0  0  0  0  0  0
    2.1683    0.0238   -0.2936 C   0  0  0  0  0  0  0  0  0  0  0  0
    1.0939   -0.1777    0.7838 C   0  0  0  0  0  0  0  0  0  0  0  0
   -0.2378   -0.4480    0.1894 N   0  0  0  0  0  0  0  0  0  0  0  0
   -0.5917   -1.8172   -0.0014 C   0  0  0  0  0  0  0  0  0  0  0  0
    0.3701   -2.8541    0.0111 C   0  0  0  0  0  0  0  0  0  0  0  0
    0.0344   -4.1990   -0.1885 C   0  0  0  0  0  0  0  0  0  0  0  0
   -1.2835   -4.5575   -0.4123 C   0  0  0  0  0  0  0  0  0  0  0  0
   -2.2577   -3.5669   -0.4376 C   0  0  0  0  0  0  0  0  0  0  0  0
   -1.9241   -2.2117   -0.2397 C   0  0  0  0  0  0  0  0  0  0  0  0
   -3.2928   -1.0793   -0.2736 S   0  0  0  0  0  0  0  0  0  0  0  0
   -2.4786    0.4990   -0.2663 C   0  0  0  0  0  0  0  0  0  0  0  0
   -3.3159    1.6092   -0.4914 C   0  0  0  0  0  0  0  0  0  0  0  0
   -2.8102    2.9048   -0.4920 C   0  0  0  0  0  0  0  0  0  0  0  0
   -1.4531    3.1129   -0.2616 C   0  0  0  0  0  0  0  0  0  0  0  0
   -0.8687    4.5034   -0.2879 C   0  0  0  0  0  0  0  0  0  0  0  0
   -0.4008    4.8452   -1.5194 F   0  0  0  0  0  0  0  0  0  0  0  0
    0.1841    4.6518    0.5651 F   0  0  0  0  0  0  0  0  0  0  0  0
   -1.7637    5.4704    0.0565 F   0  0  0  0  0  0  0  0  0  0  0  0
   -0.6212    1.9958   -0.0439 C   0  0  0  0  0  0  0  0  0  0  0  0
   -1.1002    0.6648   -0.0271 C   0  0  0  0  0  0  0  0  0  0  0  0
    3.6390   -0.6960    2.0062 H   0  0  0  0  0  0  0  0  0  0  0  0
    5.0793   -0.4034    1.3189 H   0  0  0  0  0  0  0  0  0  0  0  0
    4.2113    0.6248   -0.5446 H   0  0  0  0  0  0  0  0  0  0  0  0
    3.4441    1.3349    0.8747 H   0  0  0  0  0  0  0  0  0  0  0  0
    2.2792   -0.8788   -0.9053 H   0  0  0  0  0  0  0  0  0  0  0  0
    1.8576    0.8085   -0.9931 H   0  0  0  0  0  0  0  0  0  0  0  0
    1.0553    0.6961    1.4473 H   0  0  0  0  0  0  0  0  0  0  0  0
    1.3788   -0.9794    1.4764 H   0  0  0  0  0  0  0  0  0  0  0  0
    1.4261   -2.6509    0.1608 H   0  0  0  0  0  0  0  0  0  0  0  0
    0.8121   -4.9585   -0.1725 H   0  0  0  0  0  0  0  0  0  0  0  0
   -1.5540   -5.5978   -0.5685 H   0  0  0  0  0  0  0  0  0  0  0  0
   -3.2919   -3.8567   -0.6131 H   0  0  0  0  0  0  0  0  0  0  0  0
   -4.3804    1.4639   -0.6700 H   0  0  0  0  0  0  0  0  0  0  0  0
   -3.4801    3.7434   -0.6738 H   0  0  0  0  0  0  0  0  0  0  0  0
    0.4353    2.2074    0.0976 H   0  0  0  0  0  0  0  0  0  0  0  0
  1  2  1  0
  2  3  1  0
  3  4  1  0
  4  5  1  0
  5  6  1  0
  6  7  2  0
  7  8  1  0
  8  9  2  0
  9 10  1  0
 10 11  2  0
 11 12  1  0
 12 13  1  0
 13 14  2  0
 14 15  1  0
 15 16  2  0
 16 17  1  0
 17 18  1  0
 17 19  1  0
 17 20  1  0
 16 21  1  0
 21 22  2  0
 22  5  1  0
 11  6  1  0
 22 13  1  0
  1 23  1  0
  1 24  1  0
  2 25  1  0
  2 26  1  0
  3 27  1  0
  3 28  1  0
  4 29  1  0
  4 30  1  0
  7 31  1  0
  8 32  1  0
  9 33  1  0
 10 34  1  0
 14 35  1  0
 15 36  1  0
 21 37  1  0
M  END
$$$$
