
     RDKit          3D

 59 62  0  0  0  0  0  0  0  0999 V2000
    9.1817   -1.9019    0.2833 C   0  0  0  0  0  0  0  0  0  0  0  0
    7.8289   -1.3170    0.5616 C   0  0  0  0  0  0  0  0  0  0  0  0
    7.0185   -0.8738   -0.4863 C   0  0  0  0  0  0  0  0  0  0  0  0
    5.7695   -0.3035   -0.2231 C   0  0  0  0  0  0  0  0  0  0  0  0
    5.3169   -0.1420    1.0973 C   0  0  0  0  0  0  0  0  0  0  0  0
    4.0273    0.4337    1.3188 N   0  0  0  0  0  0  0  0  0  0  0  0
    3.1522    0.4862    0.2791 N   0  0  0  0  0  0  0  0  0  0  0  0
    1.9844    0.8318    0.8263 C   0  0  0  0  0  0  0  0  0  0  0  0
    0.7049    0.9400    0.1385 C   0  0  0  0  0  0  0  0  0  0  0  0
    0.5496    0.6780   -1.0517 O   0  0  0  0  0  0  0  0  0  0  0  0
   -0.3350    1.3650    0.9929 N   0  0  0  0  0  0  0  0  0  0  0  0
   -1.6898    1.4848    0.4605 C   0  0  0  0  0  0  0  0  0  0  0  0
   -2.3661    0.1164    0.3480 C   0  0  0  0  0  0  0  0  0  0  0  0
   -3.8902    0.1900    0.2960 C   0  0  0  0  0  0  0  0  0  0  0  0
   -4.4363    0.8434   -0.9580 C   0  0  0  0  0  0  0  0  0  0  0  0
   -3.7592    1.5198   -1.7227 O   0  0  0  0  0  0  0  0  0  0  0  0
   -5.7886    0.6391   -1.1229 N   0  0  0  0  0  0  0  0  0  0  0  0
   -6.4589    1.0610   -2.3326 C   0  0  0  0  0  0  0  0  0  0  0  0
   -6.4380   -0.0635   -3.2983 C   0  0  0  0  0  0  0  0  0  0  0  0
   -5.5767   -0.4175   -4.3167 C   0  0  0  0  0  0  0  0  0  0  0  0
   -6.1033   -1.5972   -4.8875 C   0  0  0  0  0  0  0  0  0  0  0  0
   -7.2437   -1.9012   -4.1744 C   0  0  0  0  0  0  0  0  0  0  0  0
   -8.2360   -2.9889   -4.2590 C   0  0  0  0  0  0  0  0  0  0  0  0
   -7.4471   -0.9767   -3.1977 O   0  0  0  0  0  0  0  0  0  0  0  0
   -0.2005    1.6225    2.3627 N   0  0  0  0  0  0  0  0  0  0  0  0
    0.9559    1.5177    2.9549 C   0  0  0  0  0  0  0  0  0  0  0  0
    1.0336    1.8132    4.4256 C   0  0  0  0  0  0  0  0  0  0  0  0
    2.1106    1.1195    2.1893 C   0  0  0  0  0  0  0  0  0  0  0  0
    3.4567    0.9724    2.4788 C   0  0  0  0  0  0  0  0  0  0  0  0
    4.2140    1.3448    3.7004 C   0  0  0  0  0  0  0  0  0  0  0  0
    6.1246   -0.5987    2.1452 C   0  0  0  0  0  0  0  0  0  0  0  0
    7.3752   -1.1696    1.8775 C   0  0  0  0  0  0  0  0  0  0  0  0
    9.2060   -2.3778   -0.7040 H   0  0  0  0  0  0  0  0  0  0  0  0
    9.9436   -1.1140    0.3160 H   0  0  0  0  0  0  0  0  0  0  0  0
    9.4339   -2.6734    1.0233 H   0  0  0  0  0  0  0  0  0  0  0  0
    7.3475   -0.9721   -1.5191 H   0  0  0  0  0  0  0  0  0  0  0  0
    5.1613    0.0238   -1.0665 H   0  0  0  0  0  0  0  0  0  0  0  0
   -1.6261    1.9671   -0.5202 H   0  0  0  0  0  0  0  0  0  0  0  0
   -2.2575    2.1499    1.1216 H   0  0  0  0  0  0  0  0  0  0  0  0
   -1.9868   -0.4056   -0.5376 H   0  0  0  0  0  0  0  0  0  0  0  0
   -2.0887   -0.4981    1.2127 H   0  0  0  0  0  0  0  0  0  0  0  0
   -4.2870   -0.8315    0.3506 H   0  0  0  0  0  0  0  0  0  0  0  0
   -4.2729    0.7429    1.1616 H   0  0  0  0  0  0  0  0  0  0  0  0
   -6.2345   -0.1044   -0.6031 H   0  0  0  0  0  0  0  0  0  0  0  0
   -5.9741    1.9475   -2.7548 H   0  0  0  0  0  0  0  0  0  0  0  0
   -7.4887    1.3227   -2.0664 H   0  0  0  0  0  0  0  0  0  0  0  0
   -4.6826    0.1202   -4.6055 H   0  0  0  0  0  0  0  0  0  0  0  0
   -5.7032   -2.1563   -5.7191 H   0  0  0  0  0  0  0  0  0  0  0  0
   -9.2519   -2.5838   -4.2839 H   0  0  0  0  0  0  0  0  0  0  0  0
   -8.1479   -3.6500   -3.3930 H   0  0  0  0  0  0  0  0  0  0  0  0
   -8.0874   -3.5866   -5.1623 H   0  0  0  0  0  0  0  0  0  0  0  0
    1.5749    1.0168    4.9435 H   0  0  0  0  0  0  0  0  0  0  0  0
    1.5437    2.7678    4.5809 H   0  0  0  0  0  0  0  0  0  0  0  0
    0.0289    1.8852    4.8545 H   0  0  0  0  0  0  0  0  0  0  0  0
    3.7630    2.2150    4.1844 H   0  0  0  0  0  0  0  0  0  0  0  0
    5.2431    1.6376    3.4721 H   0  0  0  0  0  0  0  0  0  0  0  0
    4.2178    0.5241    4.4220 H   0  0  0  0  0  0  0  0  0  0  0  0
    5.8022   -0.5768    3.1799 H   0  0  0  0  0  0  0  0  0  0  0  0
    7.9882   -1.5181    2.7078 H   0  0  0  0  0  0  0  0  0  0  0  0
  1  2  1  0
  2  3  2  0
  3  4  1  0
  4  5  2  0
  5  6  1  0
  6  7  1  0
  7  8  2  0
  8  9  1  0
  9 10  2  0
  9 11  1  0
 11 12  1  0
 12 13  1  0
 13 14  1  0
 14 15  1  0
 15 16  2  0
 15 17  1  0
 17 18  1  0
 18 19  1  0
 19 20  2  0
 20 21  1  0
 21 22  2  0
 22 23  1  0
 22 24  1  0
 11 25  1  0
 25 26  2  0
 26 27  1  0
 26 28  1  0
 28 29  2  0
 29 30  1  0
  5 31  1  0
 31 32  2  0
 32  2  1  0
 29  6  1  0
 28  8  1  0
 24 19  1  0
  1 33  1  0
  1 34  1  0
  1 35  1  0
  3 36  1  0
  4 37  1  0
 12 38  1  0
 12 39  1  0
 13 40  1  0
 13 41  1  0
 14 42  1  0
 14 43  1  0
 17 44  1  0
 18 45  1  0
 18 46  1  0
 20 47  1  0
 21 48  1  0
 23 49  1  0
 23 50  1  0
 23 51  1  0
 27 52  1  0
 27 53  1  0
 27 54  1  0
 30 55  1  0
 30 56  1  0
 30 57  1  0
 31 58  1  0
 32 59  1  0
M  END
$$$$
