
     RDKit          3D

 41 44  0  0  0  0  0  0  0  0999 V2000
    0.4672   -0.5439   -0.6239 O   0  0  0  0  0  0  0  0  0  0  0  0
    0.4124    0.0492    0.4502 C   0  0  0  0  0  0  0  0  0  0  0  0
   -0.9102    0.5982    1.0116 C   0  0  0  0  0  0  0  0  0  0  0  0
   -1.8806    0.9070   -0.0364 N   0  0  0  0  0  0  0  0  0  0  0  0
   -1.6756    2.0908   -0.7396 C   0  0  0  0  0  0  0  0  0  0  0  0
   -0.8329    2.9252   -0.4001 O   0  0  0  0  0  0  0  0  0  0  0  0
   -2.4936    2.3010   -1.9912 C   0  0  0  0  0  0  0  0  0  0  0  0
   -3.8262    2.9496   -1.6919 C   0  0  0  0  0  0  0  0  0  0  0  0
   -4.7860    2.1945   -0.3428 S   0  0  0  0  0  0  0  0  0  0  0  0
   -4.2940    0.4779   -0.4897 C   0  0  0  0  0  0  0  0  0  0  0  0
   -5.3326   -0.4461   -0.6899 C   0  0  0  0  0  0  0  0  0  0  0  0
   -5.0813   -1.8169   -0.6744 C   0  0  0  0  0  0  0  0  0  0  0  0
   -3.7921   -2.2786   -0.4395 C   0  0  0  0  0  0  0  0  0  0  0  0
   -2.7525   -1.3711   -0.2234 C   0  0  0  0  0  0  0  0  0  0  0  0
   -2.9776    0.0159   -0.2592 C   0  0  0  0  0  0  0  0  0  0  0  0
    1.4706    0.2374    1.3306 N   0  0  0  0  0  0  0  0  0  0  0  0
    2.8069   -0.1922    1.1758 C   0  0  0  0  0  0  0  0  0  0  0  0
    3.7042    0.1394    2.2175 C   0  0  0  0  0  0  0  0  0  0  0  0
    5.0494   -0.2428    2.1672 C   0  0  0  0  0  0  0  0  0  0  0  0
    5.4688   -0.9516    1.0660 C   0  0  0  0  0  0  0  0  0  0  0  0
    4.6060   -1.2747    0.0465 C   0  0  0  0  0  0  0  0  0  0  0  0
    3.2729   -0.9123    0.0710 C   0  0  0  0  0  0  0  0  0  0  0  0
    5.2213   -1.9696   -0.9491 O   0  0  0  0  0  0  0  0  0  0  0  0
    6.5701   -2.0346   -0.4434 C   0  0  0  0  0  0  0  0  0  0  0  0
    6.7312   -1.4020    0.8438 O   0  0  0  0  0  0  0  0  0  0  0  0
   -0.7089    1.5138    1.5801 H   0  0  0  0  0  0  0  0  0  0  0  0
   -1.3203   -0.1328    1.7173 H   0  0  0  0  0  0  0  0  0  0  0  0
   -2.6139    1.3552   -2.5319 H   0  0  0  0  0  0  0  0  0  0  0  0
   -1.9161    2.9411   -2.6694 H   0  0  0  0  0  0  0  0  0  0  0  0
   -4.4450    2.9405   -2.5953 H   0  0  0  0  0  0  0  0  0  0  0  0
   -3.6738    4.0003   -1.4207 H   0  0  0  0  0  0  0  0  0  0  0  0
   -6.3544   -0.1022   -0.8405 H   0  0  0  0  0  0  0  0  0  0  0  0
   -5.8942   -2.5215   -0.8324 H   0  0  0  0  0  0  0  0  0  0  0  0
   -3.5889   -3.3471   -0.4279 H   0  0  0  0  0  0  0  0  0  0  0  0
   -1.7528   -1.7730   -0.0765 H   0  0  0  0  0  0  0  0  0  0  0  0
    1.2790    0.7794    2.1645 H   0  0  0  0  0  0  0  0  0  0  0  0
    3.3631    0.7036    3.0822 H   0  0  0  0  0  0  0  0  0  0  0  0
    5.7392    0.0127    2.9638 H   0  0  0  0  0  0  0  0  0  0  0  0
    2.6412   -1.1880   -0.7644 H   0  0  0  0  0  0  0  0  0  0  0  0
    6.8613   -3.0871   -0.3528 H   0  0  0  0  0  0  0  0  0  0  0  0
    7.2388   -1.5450   -1.1610 H   0  0  0  0  0  0  0  0  0  0  0  0
  1  2  2  0
  2  3  1  0
  3  4  1  0
  4  5  1  0
  5  6  2  0
  5  7  1  0
  7  8  1  0
  8  9  1  0
  9 10  1  0
 10 11  2  0
 11 12  1  0
 12 13  2  0
 13 14  1  0
 14 15  2  0
  2 16  1  0
 16 17  1  0
 17 18  2  0
 18 19  1  0
 19 20  2  0
 20 21  1  0
 21 22  2  0
 21 23  1  0
 23 24  1  0
 24 25  1  0
 15  4  1  0
 22 17  1  0
 15 10  1  0
 25 20  1  0
  3 26  1  0
  3 27  1  0
  7 28  1  0
  7 29  1  0
  8 30  1  0
  8 31  1  0
 11 32  1  0
 12 33  1  0
 13 34  1  0
 14 35  1  0
 16 36  1  0
 18 37  1  0
 19 38  1  0
 22 39  1  0
 24 40  1  0
 24 41  1  0
M  END
$$$$
