
     RDKit          3D

 40 42  0  0  0  0  0  0  0  0999 V2000
   -6.0087   -0.3802   -0.7608 C   0  0  0  0  0  0  0  0  0  0  0  0
   -5.4322   -0.1554    0.6492 C   0  0  0  0  0  0  0  0  0  0  0  0
   -6.0597   -1.2043    1.5928 C   0  0  0  0  0  0  0  0  0  0  0  0
   -5.8339    1.2412    1.1580 C   0  0  0  0  0  0  0  0  0  0  0  0
   -3.9184   -0.3092    0.6409 C   0  0  0  0  0  0  0  0  0  0  0  0
   -3.2500   -1.2091    1.3378 N   0  0  0  0  0  0  0  0  0  0  0  0
   -1.8876   -1.1238    1.1418 N   0  0  0  0  0  0  0  0  0  0  0  0
   -1.5655   -0.1646    0.3046 C   0  0  0  0  0  0  0  0  0  0  0  0
   -0.2662    0.1000   -0.0365 N   0  0  0  0  0  0  0  0  0  0  0  0
    0.1973    1.0691   -0.8947 C   0  0  0  0  0  0  0  0  0  0  0  0
   -0.4737    1.8847   -1.5206 O   0  0  0  0  0  0  0  0  0  0  0  0
    1.7237    1.0625   -1.0279 C   0  0  0  0  0  0  0  0  0  0  0  0
    2.3072    0.0421   -0.2201 O   0  0  0  0  0  0  0  0  0  0  0  0
    3.6717   -0.0665   -0.2517 C   0  0  0  0  0  0  0  0  0  0  0  0
    4.1918   -1.0908    0.5661 C   0  0  0  0  0  0  0  0  0  0  0  0
    5.5680   -1.3275    0.6416 C   0  0  0  0  0  0  0  0  0  0  0  0
    6.3932   -0.5241   -0.1113 C   0  0  0  0  0  0  0  0  0  0  0  0
    5.8913    0.4757   -0.9102 C   0  0  0  0  0  0  0  0  0  0  0  0
    4.5374    0.7320   -1.0042 C   0  0  0  0  0  0  0  0  0  0  0  0
    6.8711    1.1518   -1.5696 O   0  0  0  0  0  0  0  0  0  0  0  0
    8.0460    0.4620   -1.0930 C   0  0  0  0  0  0  0  0  0  0  0  0
    7.7487   -0.6034   -0.1668 O   0  0  0  0  0  0  0  0  0  0  0  0
   -2.8924    0.7050   -0.3070 S   0  0  0  0  0  0  0  0  0  0  0  0
   -5.7137   -1.3581   -1.1592 H   0  0  0  0  0  0  0  0  0  0  0  0
   -5.6647    0.3812   -1.4697 H   0  0  0  0  0  0  0  0  0  0  0  0
   -7.1041   -0.3405   -0.7502 H   0  0  0  0  0  0  0  0  0  0  0  0
   -5.8192   -2.2251    1.2727 H   0  0  0  0  0  0  0  0  0  0  0  0
   -7.1519   -1.1144    1.6166 H   0  0  0  0  0  0  0  0  0  0  0  0
   -5.6961   -1.0861    2.6206 H   0  0  0  0  0  0  0  0  0  0  0  0
   -5.4868    2.0362    0.4884 H   0  0  0  0  0  0  0  0  0  0  0  0
   -6.9234    1.3354    1.2337 H   0  0  0  0  0  0  0  0  0  0  0  0
   -5.4117    1.4391    2.1503 H   0  0  0  0  0  0  0  0  0  0  0  0
    0.4185   -0.5016    0.4081 H   0  0  0  0  0  0  0  0  0  0  0  0
    2.0778    2.0484   -0.7052 H   0  0  0  0  0  0  0  0  0  0  0  0
    1.9524    0.8843   -2.0850 H   0  0  0  0  0  0  0  0  0  0  0  0
    3.5139   -1.7099    1.1501 H   0  0  0  0  0  0  0  0  0  0  0  0
    5.9709   -2.1141    1.2693 H   0  0  0  0  0  0  0  0  0  0  0  0
    4.2005    1.5326   -1.6499 H   0  0  0  0  0  0  0  0  0  0  0  0
    8.7003    1.1870   -0.5954 H   0  0  0  0  0  0  0  0  0  0  0  0
    8.5780    0.0404   -1.9536 H   0  0  0  0  0  0  0  0  0  0  0  0
  1  2  1  0
  2  3  1  0
  2  4  1  0
  2  5  1  0
  5  6  2  0
  6  7  1  0
  7  8  2  0
  8  9  1  0
  9 10  1  0
 10 11  2  0
 10 12  1  0
 12 13  1  0
 13 14  1  0
 14 15  2  0
 15 16  1  0
 16 17  2  0
 17 18  1  0
 18 19  2  0
 18 20  1  0
 20 21  1  0
 21 22  1  0
  8 23  1  0
 23  5  1  0
 19 14  1  0
 22 17  1  0
  1 24  1  0
  1 25  1  0
  1 26  1  0
  3 27  1  0
  3 28  1  0
  3 29  1  0
  4 30  1  0
  4 31  1  0
  4 32  1  0
  9 33  1  0
 12 34  1  0
 12 35  1  0
 15 36  1  0
 16 37  1  0
 19 38  1  0
 21 39  1  0
 21 40  1  0
M  END
$$$$
