
     RDKit          3D

 43 45  0  0  0  0  0  0  0  0999 V2000
   -4.8933   -2.4297    1.3284 C   0  0  0  0  0  0  0  0  0  0  0  0
   -5.2456   -1.0557    0.9699 N   0  0  0  0  0  0  0  0  0  0  0  0
   -6.0228   -0.3262    1.9690 C   0  0  0  0  0  0  0  0  0  0  0  0
   -4.3748   -0.3499    0.1294 C   0  0  0  0  0  0  0  0  0  0  0  0
   -3.5108   -1.0093   -0.7638 C   0  0  0  0  0  0  0  0  0  0  0  0
   -2.6449   -0.3150   -1.6218 C   0  0  0  0  0  0  0  0  0  0  0  0
   -2.6122    1.0770   -1.6146 C   0  0  0  0  0  0  0  0  0  0  0  0
   -1.7235    1.8248   -2.5069 C   0  0  0  0  0  0  0  0  0  0  0  0
   -0.3809    1.8550   -2.4600 C   0  0  0  0  0  0  0  0  0  0  0  0
    0.4611    1.1695   -1.4957 C   0  0  0  0  0  0  0  0  0  0  0  0
    1.8019    1.1781   -1.4568 C   0  0  0  0  0  0  0  0  0  0  0  0
    2.8779    1.9783   -2.5192 S   0  0  0  0  0  0  0  0  0  0  0  0
    4.3035    1.4896   -1.6001 C   0  0  0  0  0  0  0  0  0  0  0  0
    5.7926    2.1538   -1.9853 S   0  0  0  0  0  0  0  0  0  0  0  0
    3.9339    0.6274   -0.5726 N   0  0  0  0  0  0  0  0  0  0  0  0
    4.8537   -0.0341    0.3098 C   0  0  0  0  0  0  0  0  0  0  0  0
    4.5577   -0.1807    1.6752 C   0  0  0  0  0  0  0  0  0  0  0  0
    5.4423   -0.8289    2.5436 C   0  0  0  0  0  0  0  0  0  0  0  0
    6.6357   -1.3536    2.0598 C   0  0  0  0  0  0  0  0  0  0  0  0
    6.9406   -1.2370    0.7078 C   0  0  0  0  0  0  0  0  0  0  0  0
    6.0549   -0.5876   -0.1593 C   0  0  0  0  0  0  0  0  0  0  0  0
    2.5607    0.4276   -0.4169 C   0  0  0  0  0  0  0  0  0  0  0  0
    1.9918   -0.2796    0.4072 O   0  0  0  0  0  0  0  0  0  0  0  0
   -3.4750    1.7606   -0.7624 C   0  0  0  0  0  0  0  0  0  0  0  0
   -4.3413    1.0555    0.0875 C   0  0  0  0  0  0  0  0  0  0  0  0
   -5.5977   -2.8442    2.0586 H   0  0  0  0  0  0  0  0  0  0  0  0
   -4.9396   -3.0914    0.4572 H   0  0  0  0  0  0  0  0  0  0  0  0
   -3.8937   -2.4774    1.7743 H   0  0  0  0  0  0  0  0  0  0  0  0
   -6.6596    0.4322    1.5007 H   0  0  0  0  0  0  0  0  0  0  0  0
   -6.7030   -0.9981    2.5050 H   0  0  0  0  0  0  0  0  0  0  0  0
   -5.3687    0.1464    2.7097 H   0  0  0  0  0  0  0  0  0  0  0  0
   -3.4978   -2.0928   -0.8286 H   0  0  0  0  0  0  0  0  0  0  0  0
   -2.0060   -0.8784   -2.2972 H   0  0  0  0  0  0  0  0  0  0  0  0
   -2.2376    2.4119   -3.2661 H   0  0  0  0  0  0  0  0  0  0  0  0
    0.1197    2.4668   -3.2092 H   0  0  0  0  0  0  0  0  0  0  0  0
   -0.0620    0.6001   -0.7265 H   0  0  0  0  0  0  0  0  0  0  0  0
    3.6424    0.2270    2.0991 H   0  0  0  0  0  0  0  0  0  0  0  0
    5.1944   -0.9221    3.5982 H   0  0  0  0  0  0  0  0  0  0  0  0
    7.3229   -1.8587    2.7337 H   0  0  0  0  0  0  0  0  0  0  0  0
    7.8649   -1.6594    0.3216 H   0  0  0  0  0  0  0  0  0  0  0  0
    6.3136   -0.5700   -1.2146 H   0  0  0  0  0  0  0  0  0  0  0  0
   -3.4869    2.8477   -0.7445 H   0  0  0  0  0  0  0  0  0  0  0  0
   -4.9882    1.6503    0.7250 H   0  0  0  0  0  0  0  0  0  0  0  0
  1  2  1  0
  2  3  1  0
  2  4  1  0
  4  5  2  0
  5  6  1  0
  6  7  2  0
  7  8  1  0
  8  9  2  3
  9 10  1  0
 10 11  2  3
 11 12  1  0
 12 13  1  0
 13 14  2  0
 13 15  1  0
 15 16  1  0
 16 17  2  0
 17 18  1  0
 18 19  2  0
 19 20  1  0
 20 21  2  0
 15 22  1  0
 22 23  2  0
  7 24  1  0
 24 25  2  0
 25  4  1  0
 22 11  1  0
 21 16  1  0
  1 26  1  0
  1 27  1  0
  1 28  1  0
  3 29  1  0
  3 30  1  0
  3 31  1  0
  5 32  1  0
  6 33  1  0
  8 34  1  0
  9 35  1  0
 10 36  1  0
 17 37  1  0
 18 38  1  0
 19 39  1  0
 20 40  1  0
 21 41  1  0
 24 42  1  0
 25 43  1  0
M  END
$$$$
