
     RDKit          3D

 59 62  0  0  0  0  0  0  0  0999 V2000
   -8.4492    1.0386   -2.5286 C   0  0  0  0  0  0  0  0  0  0  0  0
   -7.4225    1.1054   -1.4358 C   0  0  0  0  0  0  0  0  0  0  0  0
   -7.7415    0.6787   -0.1391 C   0  0  0  0  0  0  0  0  0  0  0  0
   -6.8007    0.7735    0.8880 C   0  0  0  0  0  0  0  0  0  0  0  0
   -5.5317    1.2912    0.6194 C   0  0  0  0  0  0  0  0  0  0  0  0
   -4.5556    1.4092    1.7255 C   0  0  0  0  0  0  0  0  0  0  0  0
   -4.9155    1.9905    2.7464 O   0  0  0  0  0  0  0  0  0  0  0  0
   -3.2739    0.8834    1.5497 N   0  0  0  0  0  0  0  0  0  0  0  0
   -3.0165   -0.2974    0.7102 C   0  0  0  0  0  0  0  0  0  0  0  0
   -1.5402   -0.4149    0.2858 C   0  0  0  0  0  0  0  0  0  0  0  0
   -0.6431   -0.3199    1.4645 N   0  0  0  0  0  0  0  0  0  0  0  0
    0.6842   -0.6869    1.1921 C   0  0  0  0  0  0  0  0  0  0  0  0
    0.9664   -1.9887    0.7487 C   0  0  0  0  0  0  0  0  0  0  0  0
    2.2725   -2.4144    0.4658 C   0  0  0  0  0  0  0  0  0  0  0  0
    3.3444   -1.5447    0.6288 C   0  0  0  0  0  0  0  0  0  0  0  0
    4.6868   -1.8810    0.3650 N   0  0  0  0  0  0  0  0  0  0  0  0
    5.1688   -3.0458   -0.2150 C   0  0  0  0  0  0  0  0  0  0  0  0
    4.4960   -4.0038   -0.5853 O   0  0  0  0  0  0  0  0  0  0  0  0
    6.6829   -3.0414   -0.3806 C   0  0  0  0  0  0  0  0  0  0  0  0
    7.1558   -2.4732   -2.0490 S   0  0  0  0  0  0  0  0  0  0  0  0
    6.6824   -0.7607   -1.9356 C   0  0  0  0  0  0  0  0  0  0  0  0
    7.4776    0.1532   -1.2365 C   0  0  0  0  0  0  0  0  0  0  0  0
    7.0754    1.4863   -1.1175 C   0  0  0  0  0  0  0  0  0  0  0  0
    5.8807    1.9047   -1.7018 C   0  0  0  0  0  0  0  0  0  0  0  0
    5.3765    3.5403   -1.5368 Cl  0  0  0  0  0  0  0  0  0  0  0  0
    5.0904    1.0043   -2.4127 C   0  0  0  0  0  0  0  0  0  0  0  0
    5.4952   -0.3273   -2.5349 C   0  0  0  0  0  0  0  0  0  0  0  0
    3.0879   -0.2508    1.0888 C   0  0  0  0  0  0  0  0  0  0  0  0
    1.7787    0.1678    1.3682 C   0  0  0  0  0  0  0  0  0  0  0  0
   -0.8757    0.9114    2.2525 C   0  0  0  0  0  0  0  0  0  0  0  0
   -2.3495    1.0176    2.6799 C   0  0  0  0  0  0  0  0  0  0  0  0
   -5.2156    1.7570   -0.6609 C   0  0  0  0  0  0  0  0  0  0  0  0
   -6.1596    1.6605   -1.6852 C   0  0  0  0  0  0  0  0  0  0  0  0
   -9.0308    1.9653   -2.5523 H   0  0  0  0  0  0  0  0  0  0  0  0
   -7.9717    0.8946   -3.5037 H   0  0  0  0  0  0  0  0  0  0  0  0
   -9.1312    0.1957   -2.3734 H   0  0  0  0  0  0  0  0  0  0  0  0
   -8.7288    0.2777    0.0808 H   0  0  0  0  0  0  0  0  0  0  0  0
   -7.0576    0.4529    1.8949 H   0  0  0  0  0  0  0  0  0  0  0  0
   -3.6483   -0.3016   -0.1801 H   0  0  0  0  0  0  0  0  0  0  0  0
   -3.3034   -1.1734    1.3062 H   0  0  0  0  0  0  0  0  0  0  0  0
   -1.4221   -1.3649   -0.2469 H   0  0  0  0  0  0  0  0  0  0  0  0
   -1.2982    0.3930   -0.4175 H   0  0  0  0  0  0  0  0  0  0  0  0
    0.1610   -2.7120    0.6431 H   0  0  0  0  0  0  0  0  0  0  0  0
    2.4090   -3.4386    0.1341 H   0  0  0  0  0  0  0  0  0  0  0  0
    5.3592   -1.1424    0.5308 H   0  0  0  0  0  0  0  0  0  0  0  0
    7.0429   -4.0660   -0.2412 H   0  0  0  0  0  0  0  0  0  0  0  0
    7.1620   -2.4260    0.3878 H   0  0  0  0  0  0  0  0  0  0  0  0
    8.4169   -0.1608   -0.7861 H   0  0  0  0  0  0  0  0  0  0  0  0
    7.6991    2.1922   -0.5747 H   0  0  0  0  0  0  0  0  0  0  0  0
    4.1592    1.3272   -2.8715 H   0  0  0  0  0  0  0  0  0  0  0  0
    4.8669   -1.0257   -3.0857 H   0  0  0  0  0  0  0  0  0  0  0  0
    3.8963    0.4615    1.2323 H   0  0  0  0  0  0  0  0  0  0  0  0
    1.6435    1.1891    1.7105 H   0  0  0  0  0  0  0  0  0  0  0  0
   -0.6154    1.7927    1.6519 H   0  0  0  0  0  0  0  0  0  0  0  0
   -0.2583    0.9109    3.1589 H   0  0  0  0  0  0  0  0  0  0  0  0
   -2.5117    1.9779    3.1822 H   0  0  0  0  0  0  0  0  0  0  0  0
   -2.5956    0.2236    3.3962 H   0  0  0  0  0  0  0  0  0  0  0  0
   -4.2452    2.2048   -0.8582 H   0  0  0  0  0  0  0  0  0  0  0  0
   -5.9091    2.0296   -2.6776 H   0  0  0  0  0  0  0  0  0  0  0  0
  1  2  1  0
  2  3  2  0
  3  4  1  0
  4  5  2  0
  5  6  1  0
  6  7  2  0
  6  8  1  0
  8  9  1  0
  9 10  1  0
 10 11  1  0
 11 12  1  0
 12 13  2  0
 13 14  1  0
 14 15  2  0
 15 16  1  0
 16 17  1  0
 17 18  2  0
 17 19  1  0
 19 20  1  0
 20 21  1  0
 21 22  2  0
 22 23  1  0
 23 24  2  0
 24 25  1  0
 24 26  1  0
 26 27  2  0
 15 28  1  0
 28 29  2  0
 11 30  1  0
 30 31  1  0
  5 32  1  0
 32 33  2  0
 33  2  1  0
 31  8  1  0
 29 12  1  0
 27 21  1  0
  1 34  1  0
  1 35  1  0
  1 36  1  0
  3 37  1  0
  4 38  1  0
  9 39  1  0
  9 40  1  0
 10 41  1  0
 10 42  1  0
 13 43  1  0
 14 44  1  0
 16 45  1  0
 19 46  1  0
 19 47  1  0
 22 48  1  0
 23 49  1  0
 26 50  1  0
 27 51  1  0
 28 52  1  0
 29 53  1  0
 30 54  1  0
 30 55  1  0
 31 56  1  0
 31 57  1  0
 32 58  1  0
 33 59  1  0
M  END
$$$$
