
     RDKit          3D

 30 31  0  0  0  0  0  0  0  0999 V2000
   -4.4695    1.4554   -1.5313 C   0  0  0  0  0  0  0  0  0  0  0  0
   -4.2164    0.3347   -0.5982 C   0  0  0  0  0  0  0  0  0  0  0  0
   -5.2874   -0.4568   -0.3126 O   0  0  0  0  0  0  0  0  0  0  0  0
   -4.8607   -1.4104    0.5488 C   0  0  0  0  0  0  0  0  0  0  0  0
   -3.5242   -1.2448    0.8230 C   0  0  0  0  0  0  0  0  0  0  0  0
   -3.0871   -0.1071    0.0760 C   0  0  0  0  0  0  0  0  0  0  0  0
   -1.7746    0.5181   -0.0093 C   0  0  0  0  0  0  0  0  0  0  0  0
   -1.5603    1.5458   -0.6507 O   0  0  0  0  0  0  0  0  0  0  0  0
   -0.7709   -0.1365    0.6803 N   0  0  0  0  0  0  0  0  0  0  0  0
    0.5561    0.2655    0.4573 N   0  0  0  0  0  0  0  0  0  0  0  0
    1.5291   -0.7133    0.4764 C   0  0  0  0  0  0  0  0  0  0  0  0
    1.2808   -1.8645    0.8339 O   0  0  0  0  0  0  0  0  0  0  0  0
    2.8998   -0.3337    0.0422 C   0  0  0  0  0  0  0  0  0  0  0  0
    3.9090   -1.3077    0.0899 C   0  0  0  0  0  0  0  0  0  0  0  0
    5.2128   -0.9977   -0.3078 C   0  0  0  0  0  0  0  0  0  0  0  0
    5.5199    0.2862   -0.7568 C   0  0  0  0  0  0  0  0  0  0  0  0
    4.5236    1.2597   -0.8086 C   0  0  0  0  0  0  0  0  0  0  0  0
    3.2244    0.9464   -0.4108 C   0  0  0  0  0  0  0  0  0  0  0  0
    2.2959    1.9122   -0.4812 F   0  0  0  0  0  0  0  0  0  0  0  0
   -3.8240    1.3749   -2.4112 H   0  0  0  0  0  0  0  0  0  0  0  0
   -5.5087    1.4593   -1.8753 H   0  0  0  0  0  0  0  0  0  0  0  0
   -4.2732    2.4136   -1.0408 H   0  0  0  0  0  0  0  0  0  0  0  0
   -5.6110   -2.1190    0.8714 H   0  0  0  0  0  0  0  0  0  0  0  0
   -2.9462   -1.8713    1.4874 H   0  0  0  0  0  0  0  0  0  0  0  0
   -0.8810   -1.0968    0.9974 H   0  0  0  0  0  0  0  0  0  0  0  0
    0.6883    1.1727    0.0049 H   0  0  0  0  0  0  0  0  0  0  0  0
    3.6838   -2.3146    0.4383 H   0  0  0  0  0  0  0  0  0  0  0  0
    5.9876   -1.7604   -0.2666 H   0  0  0  0  0  0  0  0  0  0  0  0
    6.5343    0.5270   -1.0666 H   0  0  0  0  0  0  0  0  0  0  0  0
    4.7499    2.2630   -1.1580 H   0  0  0  0  0  0  0  0  0  0  0  0
  1  2  1  0
  2  3  1  0
  3  4  1  0
  4  5  2  0
  5  6  1  0
  6  7  1  0
  7  8  2  0
  7  9  1  0
  9 10  1  0
 10 11  1  0
 11 12  2  0
 11 13  1  0
 13 14  2  0
 14 15  1  0
 15 16  2  0
 16 17  1  0
 17 18  2  0
 18 19  1  0
  6  2  2  0
 18 13  1  0
  1 20  1  0
  1 21  1  0
  1 22  1  0
  4 23  1  0
  5 24  1  0
  9 25  1  0
 10 26  1  0
 14 27  1  0
 15 28  1  0
 16 29  1  0
 17 30  1  0
M  END
$$$$
