
     RDKit          3D

 37 39  0  0  0  0  0  0  0  0999 V2000
   -0.1938    4.0275    2.7101 C   0  0  0  0  0  0  0  0  0  0  0  0
    1.1111    3.7727    1.4779 S   0  0  0  0  0  0  0  0  0  0  0  0
    0.6106    2.1988    0.7931 C   0  0  0  0  0  0  0  0  0  0  0  0
    1.4418    1.5825   -0.1182 C   0  0  0  0  0  0  0  0  0  0  0  0
    1.0352    0.3690   -0.6369 C   0  0  0  0  0  0  0  0  0  0  0  0
    1.8073   -0.3064   -1.5766 N   0  0  0  0  0  0  0  0  0  0  0  0
    1.2143   -1.5225   -2.1596 C   0  0  0  0  0  0  0  0  0  0  0  0
    2.1629   -2.0893   -3.2272 C   0  0  0  0  0  0  0  0  0  0  0  0
    3.4586   -2.4526   -2.7239 O   0  0  0  0  0  0  0  0  0  0  0  0
    3.8026   -1.7816   -1.5045 C   0  0  0  0  0  0  0  0  0  0  0  0
    3.2738   -0.3391   -1.4215 C   0  0  0  0  0  0  0  0  0  0  0  0
   -0.1475   -0.1569   -0.2770 N   0  0  0  0  0  0  0  0  0  0  0  0
   -0.8891    0.5020    0.6328 C   0  0  0  0  0  0  0  0  0  0  0  0
   -2.1882   -0.0832    0.9824 C   0  0  0  0  0  0  0  0  0  0  0  0
   -3.0395   -0.5308   -0.0521 C   0  0  0  0  0  0  0  0  0  0  0  0
   -4.2956   -1.0811    0.2161 C   0  0  0  0  0  0  0  0  0  0  0  0
   -4.7311   -1.2031    1.5302 C   0  0  0  0  0  0  0  0  0  0  0  0
   -3.9072   -0.7822    2.5723 C   0  0  0  0  0  0  0  0  0  0  0  0
   -2.6455   -0.2301    2.3049 C   0  0  0  0  0  0  0  0  0  0  0  0
   -1.6836    0.1963    3.6821 Cl  0  0  0  0  0  0  0  0  0  0  0  0
   -0.5608    1.6784    1.1789 N   0  0  0  0  0  0  0  0  0  0  0  0
   -0.1917    3.2214    3.4487 H   0  0  0  0  0  0  0  0  0  0  0  0
   -1.1751    4.0899    2.2317 H   0  0  0  0  0  0  0  0  0  0  0  0
   -0.0078    4.9701    3.2322 H   0  0  0  0  0  0  0  0  0  0  0  0
    2.3651    2.0515   -0.4302 H   0  0  0  0  0  0  0  0  0  0  0  0
    1.0538   -2.2762   -1.3781 H   0  0  0  0  0  0  0  0  0  0  0  0
    0.2516   -1.2913   -2.6310 H   0  0  0  0  0  0  0  0  0  0  0  0
    2.3178   -1.3538   -4.0253 H   0  0  0  0  0  0  0  0  0  0  0  0
    1.7265   -2.9826   -3.6852 H   0  0  0  0  0  0  0  0  0  0  0  0
    4.8946   -1.7844   -1.4259 H   0  0  0  0  0  0  0  0  0  0  0  0
    3.4163   -2.3796   -0.6705 H   0  0  0  0  0  0  0  0  0  0  0  0
    3.6063    0.0885   -0.4690 H   0  0  0  0  0  0  0  0  0  0  0  0
    3.7091    0.2560   -2.2326 H   0  0  0  0  0  0  0  0  0  0  0  0
   -2.7168   -0.4411   -1.0894 H   0  0  0  0  0  0  0  0  0  0  0  0
   -4.9296   -1.4119   -0.6031 H   0  0  0  0  0  0  0  0  0  0  0  0
   -5.7070   -1.6312    1.7454 H   0  0  0  0  0  0  0  0  0  0  0  0
   -4.2492   -0.8936    3.5987 H   0  0  0  0  0  0  0  0  0  0  0  0
  1  2  1  0
  2  3  1  0
  3  4  2  0
  4  5  1  0
  5  6  1  0
  6  7  1  0
  7  8  1  0
  8  9  1  0
  9 10  1  0
 10 11  1  0
  5 12  2  0
 12 13  1  0
 13 14  1  0
 14 15  2  0
 15 16  1  0
 16 17  2  0
 17 18  1  0
 18 19  2  0
 19 20  1  0
 13 21  2  0
 21  3  1  0
 11  6  1  0
 19 14  1  0
  1 22  1  0
  1 23  1  0
  1 24  1  0
  4 25  1  0
  7 26  1  0
  7 27  1  0
  8 28  1  0
  8 29  1  0
 10 30  1  0
 10 31  1  0
 11 32  1  0
 11 33  1  0
 15 34  1  0
 16 35  1  0
 17 36  1  0
 18 37  1  0
M  END
$$$$
