
     RDKit          3D

 61 63  0  0  0  0  0  0  0  0999 V2000
   -9.1106    2.0784   -1.0075 C   0  0  0  0  0  0  0  0  0  0  0  0
   -8.2870    1.0395   -1.5219 O   0  0  0  0  0  0  0  0  0  0  0  0
   -7.6384    0.2554   -0.6080 C   0  0  0  0  0  0  0  0  0  0  0  0
   -7.6804    0.4040    0.7784 C   0  0  0  0  0  0  0  0  0  0  0  0
   -6.9658   -0.4729    1.6036 C   0  0  0  0  0  0  0  0  0  0  0  0
   -6.2065   -1.5140    1.0535 C   0  0  0  0  0  0  0  0  0  0  0  0
   -5.4228   -2.4487    1.9368 C   0  0  0  0  0  0  0  0  0  0  0  0
   -4.0708   -1.9867    2.1061 N   0  0  0  0  0  0  0  0  0  0  0  0
   -3.0345   -2.4389    1.3258 C   0  0  0  0  0  0  0  0  0  0  0  0
   -3.0806   -3.3466    0.5067 O   0  0  0  0  0  0  0  0  0  0  0  0
   -1.7127   -1.6709    1.5526 C   0  0  0  0  0  0  0  0  0  0  0  0
   -1.6798   -0.7294    2.3319 O   0  0  0  0  0  0  0  0  0  0  0  0
   -0.6600   -2.1663    0.8170 N   0  0  0  0  0  0  0  0  0  0  0  0
    0.6128   -1.4724    0.7257 C   0  0  0  0  0  0  0  0  0  0  0  0
    0.6962   -0.5085   -0.4762 C   0  0  0  0  0  0  0  0  0  0  0  0
   -0.2607    0.5558   -0.3360 O   0  0  0  0  0  0  0  0  0  0  0  0
    0.3092    1.6662   -1.0284 C   0  0  0  0  0  0  0  0  0  0  0  0
    1.7745    1.5911   -0.6651 C   0  0  0  0  0  0  0  0  0  0  0  0
    2.0278    0.1410   -0.5337 N   0  0  0  0  0  0  0  0  0  0  0  0
    3.0730   -0.5716   -1.6490 S   0  0  0  0  0  6  0  0  0  0  0  0
    2.6650   -0.1271   -2.9648 O   0  0  0  0  0  0  0  0  0  0  0  0
    3.1743   -1.9778   -1.3268 O   0  0  0  0  0  0  0  0  0  0  0  0
    4.6276    0.1805   -1.2494 C   0  0  0  0  0  0  0  0  0  0  0  0
    5.2781    0.9858   -2.1832 C   0  0  0  0  0  0  0  0  0  0  0  0
    6.4936    1.5833   -1.8441 C   0  0  0  0  0  0  0  0  0  0  0  0
    7.0594    1.3714   -0.5802 C   0  0  0  0  0  0  0  0  0  0  0  0
    8.2442    1.9238   -0.1609 O   0  0  0  0  0  0  0  0  0  0  0  0
    9.0080    2.6492   -1.1140 C   0  0  0  0  0  0  0  0  0  0  0  0
    6.3989    0.5433    0.3538 C   0  0  0  0  0  0  0  0  0  0  0  0
    7.0147    0.3935    1.5716 O   0  0  0  0  0  0  0  0  0  0  0  0
    6.5337   -0.6378    2.4257 C   0  0  0  0  0  0  0  0  0  0  0  0
    5.1804   -0.0500    0.0142 C   0  0  0  0  0  0  0  0  0  0  0  0
   -6.1580   -1.6492   -0.3393 C   0  0  0  0  0  0  0  0  0  0  0  0
   -6.8713   -0.7725   -1.1597 C   0  0  0  0  0  0  0  0  0  0  0  0
   -8.5176    2.8130   -0.4531 H   0  0  0  0  0  0  0  0  0  0  0  0
   -9.9187    1.6733   -0.3892 H   0  0  0  0  0  0  0  0  0  0  0  0
   -9.5688    2.5939   -1.8571 H   0  0  0  0  0  0  0  0  0  0  0  0
   -8.2558    1.1928    1.2511 H   0  0  0  0  0  0  0  0  0  0  0  0
   -7.0087   -0.3348    2.6818 H   0  0  0  0  0  0  0  0  0  0  0  0
   -5.8783   -2.5047    2.9317 H   0  0  0  0  0  0  0  0  0  0  0  0
   -5.4299   -3.4619    1.5187 H   0  0  0  0  0  0  0  0  0  0  0  0
   -3.8904   -1.1403    2.6387 H   0  0  0  0  0  0  0  0  0  0  0  0
   -0.8837   -2.9123    0.1619 H   0  0  0  0  0  0  0  0  0  0  0  0
    0.7737   -0.9181    1.6576 H   0  0  0  0  0  0  0  0  0  0  0  0
    1.3855   -2.2439    0.6548 H   0  0  0  0  0  0  0  0  0  0  0  0
    0.4550   -1.0357   -1.4077 H   0  0  0  0  0  0  0  0  0  0  0  0
    0.1485    1.5327   -2.1046 H   0  0  0  0  0  0  0  0  0  0  0  0
   -0.1625    2.5986   -0.7067 H   0  0  0  0  0  0  0  0  0  0  0  0
    2.4037    2.0995   -1.3990 H   0  0  0  0  0  0  0  0  0  0  0  0
    1.9566    2.0472    0.3147 H   0  0  0  0  0  0  0  0  0  0  0  0
    4.8518    1.1562   -3.1693 H   0  0  0  0  0  0  0  0  0  0  0  0
    6.9748    2.2115   -2.5868 H   0  0  0  0  0  0  0  0  0  0  0  0
    9.2713    2.0216   -1.9723 H   0  0  0  0  0  0  0  0  0  0  0  0
    8.4823    3.5559   -1.4318 H   0  0  0  0  0  0  0  0  0  0  0  0
    9.9403    2.9581   -0.6313 H   0  0  0  0  0  0  0  0  0  0  0  0
    6.5396   -1.6101    1.9197 H   0  0  0  0  0  0  0  0  0  0  0  0
    5.5354   -0.3967    2.8103 H   0  0  0  0  0  0  0  0  0  0  0  0
    7.2117   -0.7051    3.2824 H   0  0  0  0  0  0  0  0  0  0  0  0
    4.6403   -0.6827    0.7118 H   0  0  0  0  0  0  0  0  0  0  0  0
   -5.5609   -2.4378   -0.7943 H   0  0  0  0  0  0  0  0  0  0  0  0
   -6.8265   -0.8912   -2.2396 H   0  0  0  0  0  0  0  0  0  0  0  0
  1  2  1  0
  2  3  1  0
  3  4  2  0
  4  5  1  0
  5  6  2  0
  6  7  1  0
  7  8  1  0
  8  9  1  0
  9 10  2  0
  9 11  1  0
 11 12  2  0
 11 13  1  0
 13 14  1  0
 14 15  1  0
 15 16  1  0
 16 17  1  0
 17 18  1  0
 18 19  1  0
 19 20  1  0
 20 21  2  0
 20 22  2  0
 20 23  1  0
 23 24  2  0
 24 25  1  0
 25 26  2  0
 26 27  1  0
 27 28  1  0
 26 29  1  0
 29 30  1  0
 30 31  1  0
 29 32  2  0
  6 33  1  0
 33 34  2  0
 34  3  1  0
 19 15  1  0
 32 23  1  0
  1 35  1  0
  1 36  1  0
  1 37  1  0
  4 38  1  0
  5 39  1  0
  7 40  1  0
  7 41  1  0
  8 42  1  0
 13 43  1  0
 14 44  1  0
 14 45  1  0
 15 46  1  0
 17 47  1  0
 17 48  1  0
 18 49  1  0
 18 50  1  0
 24 51  1  0
 25 52  1  0
 28 53  1  0
 28 54  1  0
 28 55  1  0
 31 56  1  0
 31 57  1  0
 31 58  1  0
 32 59  1  0
 33 60  1  0
 34 61  1  0
M  END
$$$$
