
     RDKit          3D

 53 55  0  0  0  0  0  0  0  0999 V2000
    9.0220    0.7173    1.4210 C   0  0  0  0  0  0  0  0  0  0  0  0
    7.9016    1.4838    1.8439 O   0  0  0  0  0  0  0  0  0  0  0  0
    6.7429    1.3341    1.1340 C   0  0  0  0  0  0  0  0  0  0  0  0
    5.6924    2.1551    1.5564 C   0  0  0  0  0  0  0  0  0  0  0  0
    4.4495    2.1086    0.9220 C   0  0  0  0  0  0  0  0  0  0  0  0
    4.2500    1.2124   -0.1298 C   0  0  0  0  0  0  0  0  0  0  0  0
    2.6775    1.1600   -0.9670 S   0  0  0  0  0  6  0  0  0  0  0  0
    2.0109    2.4200   -0.7191 O   0  0  0  0  0  0  0  0  0  0  0  0
    2.9236    0.6922   -2.3140 O   0  0  0  0  0  0  0  0  0  0  0  0
    1.8234   -0.0329   -0.1609 N   0  0  0  0  0  0  0  0  0  0  0  0
    2.2701   -1.4279   -0.2069 C   0  0  0  0  0  0  0  0  0  0  0  0
    2.4356   -1.7800    1.2544 C   0  0  0  0  0  0  0  0  0  0  0  0
    1.4289   -1.0088    1.9148 O   0  0  0  0  0  0  0  0  0  0  0  0
    1.3649    0.2469    1.2118 C   0  0  0  0  0  0  0  0  0  0  0  0
   -0.0821    0.7748    1.2199 C   0  0  0  0  0  0  0  0  0  0  0  0
   -0.9766   -0.0213    0.3948 N   0  0  0  0  0  0  0  0  0  0  0  0
   -2.3413    0.0384    0.5217 C   0  0  0  0  0  0  0  0  0  0  0  0
   -2.9602    0.6340    1.3925 O   0  0  0  0  0  0  0  0  0  0  0  0
   -3.1017   -0.7388   -0.5779 C   0  0  0  0  0  0  0  0  0  0  0  0
   -2.4876   -1.3616   -1.4329 O   0  0  0  0  0  0  0  0  0  0  0  0
   -4.4687   -0.6506   -0.4665 N   0  0  0  0  0  0  0  0  0  0  0  0
   -5.3382   -1.4666   -1.2717 C   0  0  0  0  0  0  0  0  0  0  0  0
   -6.7664   -1.0018   -1.1771 C   0  0  0  0  0  0  0  0  0  0  0  0
   -7.2433   -0.0783   -2.1252 C   0  0  0  0  0  0  0  0  0  0  0  0
   -8.5548    0.3968   -2.0674 C   0  0  0  0  0  0  0  0  0  0  0  0
   -9.4087   -0.0367   -1.0572 C   0  0  0  0  0  0  0  0  0  0  0  0
   -8.9490   -0.9414   -0.1012 C   0  0  0  0  0  0  0  0  0  0  0  0
   -7.6353   -1.4183   -0.1561 C   0  0  0  0  0  0  0  0  0  0  0  0
   -7.1300   -2.5137    1.0814 Cl  0  0  0  0  0  0  0  0  0  0  0  0
    5.3017    0.4090   -0.5802 C   0  0  0  0  0  0  0  0  0  0  0  0
    6.5446    0.4644    0.0597 C   0  0  0  0  0  0  0  0  0  0  0  0
    9.3053    0.9646    0.3930 H   0  0  0  0  0  0  0  0  0  0  0  0
    8.8290   -0.3545    1.5311 H   0  0  0  0  0  0  0  0  0  0  0  0
    9.8654    0.9723    2.0699 H   0  0  0  0  0  0  0  0  0  0  0  0
    5.8514    2.8473    2.3811 H   0  0  0  0  0  0  0  0  0  0  0  0
    3.6572    2.7772    1.2504 H   0  0  0  0  0  0  0  0  0  0  0  0
    1.4686   -2.0217   -0.6601 H   0  0  0  0  0  0  0  0  0  0  0  0
    3.1836   -1.6000   -0.7780 H   0  0  0  0  0  0  0  0  0  0  0  0
    3.4150   -1.4731    1.6378 H   0  0  0  0  0  0  0  0  0  0  0  0
    2.2902   -2.8444    1.4554 H   0  0  0  0  0  0  0  0  0  0  0  0
    2.0202    0.9408    1.7443 H   0  0  0  0  0  0  0  0  0  0  0  0
   -0.4762    0.7851    2.2421 H   0  0  0  0  0  0  0  0  0  0  0  0
   -0.1220    1.7963    0.8283 H   0  0  0  0  0  0  0  0  0  0  0  0
   -0.6116   -0.4262   -0.4645 H   0  0  0  0  0  0  0  0  0  0  0  0
   -4.8190   -0.2201    0.3858 H   0  0  0  0  0  0  0  0  0  0  0  0
   -4.9914   -1.4314   -2.3122 H   0  0  0  0  0  0  0  0  0  0  0  0
   -5.2282   -2.5109   -0.9597 H   0  0  0  0  0  0  0  0  0  0  0  0
   -6.5870    0.2806   -2.9169 H   0  0  0  0  0  0  0  0  0  0  0  0
   -8.9068    1.1098   -2.8093 H   0  0  0  0  0  0  0  0  0  0  0  0
  -10.4293    0.3344   -1.0093 H   0  0  0  0  0  0  0  0  0  0  0  0
   -9.6188   -1.2675    0.6912 H   0  0  0  0  0  0  0  0  0  0  0  0
    5.1697   -0.2527   -1.4342 H   0  0  0  0  0  0  0  0  0  0  0  0
    7.3390   -0.1751   -0.3115 H   0  0  0  0  0  0  0  0  0  0  0  0
  1  2  1  0
  2  3  1  0
  3  4  2  0
  4  5  1  0
  5  6  2  0
  6  7  1  0
  7  8  2  0
  7  9  2  0
  7 10  1  0
 10 11  1  0
 11 12  1  0
 12 13  1  0
 13 14  1  0
 14 15  1  0
 15 16  1  0
 16 17  1  0
 17 18  2  0
 17 19  1  0
 19 20  2  0
 19 21  1  0
 21 22  1  0
 22 23  1  0
 23 24  2  0
 24 25  1  0
 25 26  2  0
 26 27  1  0
 27 28  2  0
 28 29  1  0
  6 30  1  0
 30 31  2  0
 31  3  1  0
 14 10  1  0
 28 23  1  0
  1 32  1  0
  1 33  1  0
  1 34  1  0
  4 35  1  0
  5 36  1  0
 11 37  1  0
 11 38  1  0
 12 39  1  0
 12 40  1  0
 14 41  1  0
 15 42  1  0
 15 43  1  0
 16 44  1  0
 21 45  1  0
 22 46  1  0
 22 47  1  0
 24 48  1  0
 25 49  1  0
 26 50  1  0
 27 51  1  0
 30 52  1  0
 31 53  1  0
M  END
$$$$
