
     RDKit          3D

 59 62  0  0  0  0  0  0  0  0999 V2000
    9.1808   -2.0877    3.1517 C   0  0  0  0  0  0  0  0  0  0  0  0
    7.9896   -1.4226    2.5288 C   0  0  0  0  0  0  0  0  0  0  0  0
    7.2675   -2.0638    1.5189 C   0  0  0  0  0  0  0  0  0  0  0  0
    6.1383   -1.4571    0.9606 C   0  0  0  0  0  0  0  0  0  0  0  0
    5.7121   -0.1922    1.3990 C   0  0  0  0  0  0  0  0  0  0  0  0
    4.5511    0.3902    0.8014 N   0  0  0  0  0  0  0  0  0  0  0  0
    3.7120   -0.4124    0.0913 N   0  0  0  0  0  0  0  0  0  0  0  0
    2.6336    0.3372   -0.1478 C   0  0  0  0  0  0  0  0  0  0  0  0
    1.4129   -0.0909   -0.8188 C   0  0  0  0  0  0  0  0  0  0  0  0
    1.2139   -1.2394   -1.2092 O   0  0  0  0  0  0  0  0  0  0  0  0
    0.4856    0.9608   -0.9806 N   0  0  0  0  0  0  0  0  0  0  0  0
   -0.8046    0.6794   -1.5971 C   0  0  0  0  0  0  0  0  0  0  0  0
   -1.8494    0.2809   -0.5573 C   0  0  0  0  0  0  0  0  0  0  0  0
   -3.1881   -0.0332   -1.2176 C   0  0  0  0  0  0  0  0  0  0  0  0
   -4.2593   -0.3897   -0.2060 C   0  0  0  0  0  0  0  0  0  0  0  0
   -4.0915   -0.3629    1.0076 O   0  0  0  0  0  0  0  0  0  0  0  0
   -5.4502   -0.7450   -0.7948 N   0  0  0  0  0  0  0  0  0  0  0  0
   -6.6231   -0.9898    0.0112 C   0  0  0  0  0  0  0  0  0  0  0  0
   -7.6799   -1.5594   -0.8576 C   0  0  0  0  0  0  0  0  0  0  0  0
   -8.3270   -2.7767   -0.8914 C   0  0  0  0  0  0  0  0  0  0  0  0
   -9.2379   -2.7163   -1.9736 C   0  0  0  0  0  0  0  0  0  0  0  0
   -9.0929   -1.4658   -2.5346 C   0  0  0  0  0  0  0  0  0  0  0  0
   -9.7366   -0.7798   -3.6724 C   0  0  0  0  0  0  0  0  0  0  0  0
   -8.1420   -0.7581   -1.8634 O   0  0  0  0  0  0  0  0  0  0  0  0
    0.6571    2.2672   -0.5091 N   0  0  0  0  0  0  0  0  0  0  0  0
    1.7509    2.6211    0.1060 C   0  0  0  0  0  0  0  0  0  0  0  0
    1.8688    4.0373    0.5934 C   0  0  0  0  0  0  0  0  0  0  0  0
    2.8034    1.6533    0.2945 C   0  0  0  0  0  0  0  0  0  0  0  0
    4.0868    1.7117    0.8120 C   0  0  0  0  0  0  0  0  0  0  0  0
    4.8884    2.8874    1.2388 C   0  0  0  0  0  0  0  0  0  0  0  0
    6.4121    0.4283    2.4389 C   0  0  0  0  0  0  0  0  0  0  0  0
    7.5422   -0.1831    2.9963 C   0  0  0  0  0  0  0  0  0  0  0  0
    9.6951   -2.7273    2.4263 H   0  0  0  0  0  0  0  0  0  0  0  0
    9.9054   -1.3435    3.4987 H   0  0  0  0  0  0  0  0  0  0  0  0
    8.8660   -2.7004    4.0026 H   0  0  0  0  0  0  0  0  0  0  0  0
    7.5747   -3.0429    1.1569 H   0  0  0  0  0  0  0  0  0  0  0  0
    5.6036   -1.9855    0.1718 H   0  0  0  0  0  0  0  0  0  0  0  0
   -0.6830   -0.1229   -2.3339 H   0  0  0  0  0  0  0  0  0  0  0  0
   -1.1255    1.5750   -2.1424 H   0  0  0  0  0  0  0  0  0  0  0  0
   -1.9721    1.0913    0.1725 H   0  0  0  0  0  0  0  0  0  0  0  0
   -1.5010   -0.5918    0.0098 H   0  0  0  0  0  0  0  0  0  0  0  0
   -3.0735   -0.8753   -1.9104 H   0  0  0  0  0  0  0  0  0  0  0  0
   -3.5363    0.8360   -1.7884 H   0  0  0  0  0  0  0  0  0  0  0  0
   -5.6064   -0.5159   -1.7682 H   0  0  0  0  0  0  0  0  0  0  0  0
   -6.3655   -1.6714    0.8289 H   0  0  0  0  0  0  0  0  0  0  0  0
   -6.9476   -0.0381    0.4452 H   0  0  0  0  0  0  0  0  0  0  0  0
   -8.1585   -3.6060   -0.2182 H   0  0  0  0  0  0  0  0  0  0  0  0
   -9.9179   -3.4890   -2.3045 H   0  0  0  0  0  0  0  0  0  0  0  0
  -10.5846   -1.3587   -4.0516 H   0  0  0  0  0  0  0  0  0  0  0  0
  -10.1053    0.2054   -3.3690 H   0  0  0  0  0  0  0  0  0  0  0  0
   -9.0210   -0.6449   -4.4896 H   0  0  0  0  0  0  0  0  0  0  0  0
    2.2506    4.0571    1.6170 H   0  0  0  0  0  0  0  0  0  0  0  0
    2.5433    4.5929   -0.0632 H   0  0  0  0  0  0  0  0  0  0  0  0
    0.8901    4.5258    0.5791 H   0  0  0  0  0  0  0  0  0  0  0  0
    4.7295    3.1025    2.2994 H   0  0  0  0  0  0  0  0  0  0  0  0
    5.9562    2.7458    1.0486 H   0  0  0  0  0  0  0  0  0  0  0  0
    4.6073    3.7786    0.6700 H   0  0  0  0  0  0  0  0  0  0  0  0
    6.0862    1.3613    2.8824 H   0  0  0  0  0  0  0  0  0  0  0  0
    8.0653    0.3126    3.8119 H   0  0  0  0  0  0  0  0  0  0  0  0
  1  2  1  0
  2  3  2  0
  3  4  1  0
  4  5  2  0
  5  6  1  0
  6  7  1  0
  7  8  2  0
  8  9  1  0
  9 10  2  0
  9 11  1  0
 11 12  1  0
 12 13  1  0
 13 14  1  0
 14 15  1  0
 15 16  2  0
 15 17  1  0
 17 18  1  0
 18 19  1  0
 19 20  2  0
 20 21  1  0
 21 22  2  0
 22 23  1  0
 22 24  1  0
 11 25  1  0
 25 26  2  0
 26 27  1  0
 26 28  1  0
 28 29  2  0
 29 30  1  0
  5 31  1  0
 31 32  2  0
 32  2  1  0
 29  6  1  0
 28  8  1  0
 24 19  1  0
  1 33  1  0
  1 34  1  0
  1 35  1  0
  3 36  1  0
  4 37  1  0
 12 38  1  0
 12 39  1  0
 13 40  1  0
 13 41  1  0
 14 42  1  0
 14 43  1  0
 17 44  1  0
 18 45  1  0
 18 46  1  0
 20 47  1  0
 21 48  1  0
 23 49  1  0
 23 50  1  0
 23 51  1  0
 27 52  1  0
 27 53  1  0
 27 54  1  0
 30 55  1  0
 30 56  1  0
 30 57  1  0
 31 58  1  0
 32 59  1  0
M  END
$$$$
