
     RDKit          3D

 37 38  0  0  0  0  0  0  0  0999 V2000
    0.3536    0.8694   -0.6402 O   0  0  0  0  0  0  0  0  0  0  0  0
    0.3695   -0.1584    0.0305 C   0  0  0  0  0  0  0  0  0  0  0  0
   -0.8931   -0.9007    0.4670 C   0  0  0  0  0  0  0  0  0  0  0  0
   -2.0593   -0.2347   -0.0127 O   0  0  0  0  0  0  0  0  0  0  0  0
   -3.2200   -0.8299    0.3336 C   0  0  0  0  0  0  0  0  0  0  0  0
   -3.3332   -1.8521    0.9962 O   0  0  0  0  0  0  0  0  0  0  0  0
   -4.3919   -0.0857   -0.1939 C   0  0  0  0  0  0  0  0  0  0  0  0
   -4.2362    1.0843   -0.9547 C   0  0  0  0  0  0  0  0  0  0  0  0
   -5.3584    1.7648   -1.4386 C   0  0  0  0  0  0  0  0  0  0  0  0
   -6.6369    1.2806   -1.1650 C   0  0  0  0  0  0  0  0  0  0  0  0
   -8.0129    2.1224   -1.7627 Cl  0  0  0  0  0  0  0  0  0  0  0  0
   -6.8066    0.1216   -0.4119 C   0  0  0  0  0  0  0  0  0  0  0  0
   -5.6877   -0.5576    0.0708 C   0  0  0  0  0  0  0  0  0  0  0  0
   -5.9454   -1.6879    0.8022 O   0  0  0  0  0  0  0  0  0  0  0  0
    1.5378   -0.7531    0.4773 N   0  0  0  0  0  0  0  0  0  0  0  0
    2.8337   -0.2625    0.0336 C   0  0  0  0  0  0  0  0  0  0  0  0
    3.9498   -0.5915    1.0281 C   0  0  0  0  0  0  0  0  0  0  0  0
    5.2597   -0.2312    0.5215 N   0  0  0  0  0  0  0  0  0  0  0  0
    5.8125    1.0171    0.6599 C   0  0  0  0  0  0  0  0  0  0  0  0
    5.1287    1.9651    1.3579 O   0  0  0  0  0  0  0  0  0  0  0  0
    7.0009    1.1679    0.0640 C   0  0  0  0  0  0  0  0  0  0  0  0
    7.4926   -0.2949   -0.7371 S   0  0  0  0  0  0  0  0  0  0  0  0
    5.9992   -1.1159   -0.2464 C   0  0  0  0  0  0  0  0  0  0  0  0
    5.7106   -2.2574   -0.5655 O   0  0  0  0  0  0  0  0  0  0  0  0
   -0.8514   -1.9156    0.0547 H   0  0  0  0  0  0  0  0  0  0  0  0
   -0.9082   -0.9320    1.5626 H   0  0  0  0  0  0  0  0  0  0  0  0
   -3.2476    1.4806   -1.1806 H   0  0  0  0  0  0  0  0  0  0  0  0
   -5.2267    2.6699   -2.0269 H   0  0  0  0  0  0  0  0  0  0  0  0
   -7.8017   -0.2585   -0.1970 H   0  0  0  0  0  0  0  0  0  0  0  0
   -5.0940   -2.0851    1.0894 H   0  0  0  0  0  0  0  0  0  0  0  0
    1.4845   -1.7211    0.7719 H   0  0  0  0  0  0  0  0  0  0  0  0
    2.7807    0.8197   -0.1308 H   0  0  0  0  0  0  0  0  0  0  0  0
    3.0329   -0.7273   -0.9390 H   0  0  0  0  0  0  0  0  0  0  0  0
    3.7734   -0.0953    1.9900 H   0  0  0  0  0  0  0  0  0  0  0  0
    3.9446   -1.6699    1.2312 H   0  0  0  0  0  0  0  0  0  0  0  0
    5.6443    2.7897    1.3451 H   0  0  0  0  0  0  0  0  0  0  0  0
    7.6020    2.0650    0.0503 H   0  0  0  0  0  0  0  0  0  0  0  0
  1  2  2  0
  2  3  1  0
  3  4  1  0
  4  5  1  0
  5  6  2  0
  5  7  1  0
  7  8  2  0
  8  9  1  0
  9 10  2  0
 10 11  1  0
 10 12  1  0
 12 13  2  0
 13 14  1  0
  2 15  1  0
 15 16  1  0
 16 17  1  0
 17 18  1  0
 18 19  1  0
 19 20  1  0
 19 21  2  0
 21 22  1  0
 22 23  1  0
 23 24  2  0
 13  7  1  0
 23 18  1  0
  3 25  1  0
  3 26  1  0
  8 27  1  0
  9 28  1  0
 12 29  1  0
 14 30  1  0
 15 31  1  0
 16 32  1  0
 16 33  1  0
 17 34  1  0
 17 35  1  0
 20 36  1  0
 21 37  1  0
M  END
$$$$
