
     RDKit          3D

 46 49  0  0  0  0  0  0  0  0999 V2000
    1.4149    1.1841   -2.5298 O   0  0  0  0  0  0  0  0  0  0  0  0
    1.0491    0.6768   -1.4717 C   0  0  0  0  0  0  0  0  0  0  0  0
   -0.3641    0.1290   -1.3419 C   0  0  0  0  0  0  0  0  0  0  0  0
   -0.4335   -1.1333   -0.6255 N   0  0  0  0  0  0  0  0  0  0  0  0
   -1.1096   -1.3850    0.5519 C   0  0  0  0  0  0  0  0  0  0  0  0
   -1.9794   -0.3987    1.2677 C   0  0  0  0  0  0  0  0  0  0  0  0
   -2.9737    0.0346    0.3419 O   0  0  0  0  0  0  0  0  0  0  0  0
   -3.8325    1.0092    0.7697 C   0  0  0  0  0  0  0  0  0  0  0  0
   -4.7158    1.4760   -0.2076 C   0  0  0  0  0  0  0  0  0  0  0  0
   -5.6428    2.4758    0.0906 C   0  0  0  0  0  0  0  0  0  0  0  0
   -5.6935    3.0139    1.3738 C   0  0  0  0  0  0  0  0  0  0  0  0
   -4.8202    2.5488    2.3555 C   0  0  0  0  0  0  0  0  0  0  0  0
   -3.8912    1.5470    2.0564 C   0  0  0  0  0  0  0  0  0  0  0  0
   -0.8525   -2.6083    0.9763 N   0  0  0  0  0  0  0  0  0  0  0  0
   -0.0602   -3.1868    0.0200 C   0  0  0  0  0  0  0  0  0  0  0  0
    0.4723   -4.4827   -0.0332 C   0  0  0  0  0  0  0  0  0  0  0  0
    1.2652   -4.8408   -1.1297 C   0  0  0  0  0  0  0  0  0  0  0  0
    1.5223   -3.9262   -2.1521 C   0  0  0  0  0  0  0  0  0  0  0  0
    1.0009   -2.6277   -2.1142 C   0  0  0  0  0  0  0  0  0  0  0  0
    0.2115   -2.2904   -1.0071 C   0  0  0  0  0  0  0  0  0  0  0  0
    1.8047    0.6115   -0.3137 N   0  0  0  0  0  0  0  0  0  0  0  0
    3.1355    1.0526   -0.1100 C   0  0  0  0  0  0  0  0  0  0  0  0
    3.8923    1.7053   -1.0874 C   0  0  0  0  0  0  0  0  0  0  0  0
    5.2073    2.1115   -0.8185 C   0  0  0  0  0  0  0  0  0  0  0  0
    6.0751    2.9119   -2.0817 Cl  0  0  0  0  0  0  0  0  0  0  0  0
    5.7766    1.8681    0.4361 C   0  0  0  0  0  0  0  0  0  0  0  0
    7.3895    2.3431    0.8320 Cl  0  0  0  0  0  0  0  0  0  0  0  0
    5.0319    1.2210    1.4219 C   0  0  0  0  0  0  0  0  0  0  0  0
    3.7234    0.8192    1.1487 C   0  0  0  0  0  0  0  0  0  0  0  0
    2.8354    0.0280    2.4081 Cl  0  0  0  0  0  0  0  0  0  0  0  0
   -0.7837   -0.0492   -2.3378 H   0  0  0  0  0  0  0  0  0  0  0  0
   -0.9671    0.8856   -0.8367 H   0  0  0  0  0  0  0  0  0  0  0  0
   -2.4509   -0.8906    2.1264 H   0  0  0  0  0  0  0  0  0  0  0  0
   -1.3618    0.4417    1.6069 H   0  0  0  0  0  0  0  0  0  0  0  0
   -4.6850    1.0557   -1.2100 H   0  0  0  0  0  0  0  0  0  0  0  0
   -6.3254    2.8302   -0.6772 H   0  0  0  0  0  0  0  0  0  0  0  0
   -6.4161    3.7906    1.6105 H   0  0  0  0  0  0  0  0  0  0  0  0
   -4.8656    2.9638    3.3595 H   0  0  0  0  0  0  0  0  0  0  0  0
   -3.2395    1.2081    2.8548 H   0  0  0  0  0  0  0  0  0  0  0  0
    0.2652   -5.1882    0.7637 H   0  0  0  0  0  0  0  0  0  0  0  0
    1.6814   -5.8440   -1.1842 H   0  0  0  0  0  0  0  0  0  0  0  0
    2.1394   -4.2280   -2.9964 H   0  0  0  0  0  0  0  0  0  0  0  0
    1.2070   -1.9255   -2.9162 H   0  0  0  0  0  0  0  0  0  0  0  0
    1.4083    0.1184    0.4838 H   0  0  0  0  0  0  0  0  0  0  0  0
    3.4862    1.9135   -2.0727 H   0  0  0  0  0  0  0  0  0  0  0  0
    5.4688    1.0304    2.3992 H   0  0  0  0  0  0  0  0  0  0  0  0
  1  2  2  0
  2  3  1  0
  3  4  1  0
  4  5  1  0
  5  6  1  0
  6  7  1  0
  7  8  1  0
  8  9  2  0
  9 10  1  0
 10 11  2  0
 11 12  1  0
 12 13  2  0
  5 14  2  0
 14 15  1  0
 15 16  2  0
 16 17  1  0
 17 18  2  0
 18 19  1  0
 19 20  2  0
  2 21  1  0
 21 22  1  0
 22 23  2  0
 23 24  1  0
 24 25  1  0
 24 26  2  0
 26 27  1  0
 26 28  1  0
 28 29  2  0
 29 30  1  0
 20  4  1  0
 29 22  1  0
 13  8  1  0
 20 15  1  0
  3 31  1  0
  3 32  1  0
  6 33  1  0
  6 34  1  0
  9 35  1  0
 10 36  1  0
 11 37  1  0
 12 38  1  0
 13 39  1  0
 16 40  1  0
 17 41  1  0
 18 42  1  0
 19 43  1  0
 21 44  1  0
 23 45  1  0
 28 46  1  0
M  END
$$$$
