
     RDKit          3D

 69 71  0  0  0  0  0  0  0  0999 V2000
   -3.7608    1.8383   -4.2680 C   0  0  0  0  0  0  0  0  0  0  0  0
   -4.0619    1.3077   -2.9808 O   0  0  0  0  0  0  0  0  0  0  0  0
   -3.3464    0.1817   -2.6577 C   0  0  0  0  0  0  0  0  0  0  0  0
   -3.2011   -0.8769   -3.5572 C   0  0  0  0  0  0  0  0  0  0  0  0
   -2.5363   -2.0343   -3.1664 C   0  0  0  0  0  0  0  0  0  0  0  0
   -2.0375   -2.1465   -1.8698 C   0  0  0  0  0  0  0  0  0  0  0  0
   -2.1877   -1.1059   -0.9264 C   0  0  0  0  0  0  0  0  0  0  0  0
   -1.5883   -1.3422    0.4648 C   0  0  0  0  0  0  0  0  0  0  0  0
   -2.0408   -0.4887    1.6841 C   0  0  0  0  0  0  0  0  0  0  0  0
   -1.2453   -0.0572    2.5208 O   0  0  0  0  0  0  0  0  0  0  0  0
   -3.4177   -0.3962    1.8491 N   0  0  0  0  0  0  0  0  0  0  0  0
   -4.0782    0.3212    2.9513 C   0  0  0  0  0  0  0  0  0  0  0  0
   -3.7179    1.8152    2.9443 C   0  0  0  0  0  0  0  0  0  0  0  0
   -5.6000    0.1848    2.7517 C   0  0  0  0  0  0  0  0  0  0  0  0
   -3.7207   -0.3034    4.3107 C   0  0  0  0  0  0  0  0  0  0  0  0
   -0.1107   -1.4823    0.4281 N   0  0  0  0  0  0  0  0  0  0  0  0
    0.6468   -0.3816    0.0098 C   0  0  0  0  0  0  0  0  0  0  0  0
    0.1542    0.6476   -0.4520 O   0  0  0  0  0  0  0  0  0  0  0  0
    2.1555   -0.5281    0.1256 C   0  0  0  0  0  0  0  0  0  0  0  0
    2.8787    0.7328   -0.3404 C   0  0  0  0  0  0  0  0  0  0  0  0
    4.3820    0.5465   -0.3530 C   0  0  0  0  0  0  0  0  0  0  0  0
    4.9201   -0.5006   -0.0104 O   0  0  0  0  0  0  0  0  0  0  0  0
    5.0304    1.6788   -0.7905 N   0  0  0  0  0  0  0  0  0  0  0  0
    6.3946    1.8176   -0.9141 C   0  0  0  0  0  0  0  0  0  0  0  0
    7.4205    0.8843   -0.6513 C   0  0  0  0  0  0  0  0  0  0  0  0
    8.5818    1.5569   -0.9381 C   0  0  0  0  0  0  0  0  0  0  0  0
   10.0111    1.2091   -0.8899 C   0  0  0  0  0  0  0  0  0  0  0  0
    8.2768    2.8135   -1.3538 O   0  0  0  0  0  0  0  0  0  0  0  0
    6.9039    2.9791   -1.3397 N   0  0  0  0  0  0  0  0  0  0  0  0
    0.4731   -2.5496    1.2156 C   0  0  0  0  0  0  0  0  0  0  0  0
    1.2982   -3.6256    0.5529 C   0  0  0  0  0  0  0  0  0  0  0  0
   -0.0078   -3.9785    1.1870 C   0  0  0  0  0  0  0  0  0  0  0  0
   -2.8320    0.0710   -1.3493 C   0  0  0  0  0  0  0  0  0  0  0  0
   -3.0089    1.0694   -0.4284 O   0  0  0  0  0  0  0  0  0  0  0  0
   -2.4539    2.3213   -0.8353 C   0  0  0  0  0  0  0  0  0  0  0  0
   -4.3046    1.2956   -5.0472 H   0  0  0  0  0  0  0  0  0  0  0  0
   -4.1005    2.8782   -4.2851 H   0  0  0  0  0  0  0  0  0  0  0  0
   -2.6829    1.8356   -4.4682 H   0  0  0  0  0  0  0  0  0  0  0  0
   -3.6216   -0.8286   -4.5557 H   0  0  0  0  0  0  0  0  0  0  0  0
   -2.4159   -2.8561   -3.8677 H   0  0  0  0  0  0  0  0  0  0  0  0
   -1.5180   -3.0621   -1.5919 H   0  0  0  0  0  0  0  0  0  0  0  0
   -1.9816   -2.3323    0.7416 H   0  0  0  0  0  0  0  0  0  0  0  0
   -3.9215   -0.3776    0.9675 H   0  0  0  0  0  0  0  0  0  0  0  0
   -4.2677    2.3558    3.7223 H   0  0  0  0  0  0  0  0  0  0  0  0
   -3.9628    2.2767    1.9817 H   0  0  0  0  0  0  0  0  0  0  0  0
   -2.6508    1.9797    3.1234 H   0  0  0  0  0  0  0  0  0  0  0  0
   -6.1570    0.6809    3.5537 H   0  0  0  0  0  0  0  0  0  0  0  0
   -5.9161    0.6300    1.8005 H   0  0  0  0  0  0  0  0  0  0  0  0
   -5.9030   -0.8689    2.7324 H   0  0  0  0  0  0  0  0  0  0  0  0
   -2.6598   -0.1840    4.5526 H   0  0  0  0  0  0  0  0  0  0  0  0
   -4.2925    0.1620    5.1220 H   0  0  0  0  0  0  0  0  0  0  0  0
   -3.9408   -1.3780    4.3201 H   0  0  0  0  0  0  0  0  0  0  0  0
    2.4670   -1.3751   -0.4975 H   0  0  0  0  0  0  0  0  0  0  0  0
    2.4247   -0.7349    1.1678 H   0  0  0  0  0  0  0  0  0  0  0  0
    2.5606    1.0023   -1.3550 H   0  0  0  0  0  0  0  0  0  0  0  0
    2.6362    1.5706    0.3257 H   0  0  0  0  0  0  0  0  0  0  0  0
    4.5066    2.5083   -1.0379 H   0  0  0  0  0  0  0  0  0  0  0  0
    7.3322   -0.1346   -0.3030 H   0  0  0  0  0  0  0  0  0  0  0  0
   10.1510    0.1566   -0.6261 H   0  0  0  0  0  0  0  0  0  0  0  0
   10.4823    1.3806   -1.8618 H   0  0  0  0  0  0  0  0  0  0  0  0
   10.5287    1.8188   -0.1436 H   0  0  0  0  0  0  0  0  0  0  0  0
    0.8071   -2.1948    2.1903 H   0  0  0  0  0  0  0  0  0  0  0  0
    2.2158   -3.9275    1.0430 H   0  0  0  0  0  0  0  0  0  0  0  0
    1.3502   -3.6484   -0.5292 H   0  0  0  0  0  0  0  0  0  0  0  0
   -0.8155   -4.2688    0.5277 H   0  0  0  0  0  0  0  0  0  0  0  0
    0.0156   -4.5313    2.1191 H   0  0  0  0  0  0  0  0  0  0  0  0
   -1.9877    2.7817    0.0417 H   0  0  0  0  0  0  0  0  0  0  0  0
   -1.6910    2.2294   -1.6166 H   0  0  0  0  0  0  0  0  0  0  0  0
   -3.2606    2.9811   -1.1700 H   0  0  0  0  0  0  0  0  0  0  0  0
  1  2  1  0
  2  3  1  0
  3  4  2  0
  4  5  1  0
  5  6  2  0
  6  7  1  0
  7  8  1  0
  8  9  1  0
  9 10  2  0
  9 11  1  0
 11 12  1  0
 12 13  1  0
 12 14  1  0
 12 15  1  0
  8 16  1  0
 16 17  1  0
 17 18  2  0
 17 19  1  0
 19 20  1  0
 20 21  1  0
 21 22  2  0
 21 23  1  0
 23 24  1  0
 24 25  1  0
 25 26  2  0
 26 27  1  0
 26 28  1  0
 28 29  1  0
 16 30  1  0
 30 31  1  0
 31 32  1  0
  7 33  2  0
 33 34  1  0
 34 35  1  0
 33  3  1  0
 29 24  2  0
 32 30  1  0
  1 36  1  0
  1 37  1  0
  1 38  1  0
  4 39  1  0
  5 40  1  0
  6 41  1  0
  8 42  1  0
 11 43  1  0
 13 44  1  0
 13 45  1  0
 13 46  1  0
 14 47  1  0
 14 48  1  0
 14 49  1  0
 15 50  1  0
 15 51  1  0
 15 52  1  0
 19 53  1  0
 19 54  1  0
 20 55  1  0
 20 56  1  0
 23 57  1  0
 25 58  1  0
 27 59  1  0
 27 60  1  0
 27 61  1  0
 30 62  1  0
 31 63  1  0
 31 64  1  0
 32 65  1  0
 32 66  1  0
 35 67  1  0
 35 68  1  0
 35 69  1  0
M  END
$$$$
