
     RDKit          3D

 51 53  0  0  0  0  0  0  0  0999 V2000
    7.4267    0.4010   -3.2371 C   0  0  0  0  0  0  0  0  0  0  0  0
    7.1262   -0.4594   -2.1497 O   0  0  0  0  0  0  0  0  0  0  0  0
    6.1760   -0.0389   -1.2508 C   0  0  0  0  0  0  0  0  0  0  0  0
    5.3921    1.1094   -1.4094 C   0  0  0  0  0  0  0  0  0  0  0  0
    4.4500    1.4672   -0.4405 C   0  0  0  0  0  0  0  0  0  0  0  0
    4.2810    0.6848    0.7048 C   0  0  0  0  0  0  0  0  0  0  0  0
    3.2719    1.0667    1.7601 C   0  0  0  0  0  0  0  0  0  0  0  0
    1.9461    0.3323    1.6023 C   0  0  0  0  0  0  0  0  0  0  0  0
    1.8804   -0.8865    1.7316 O   0  0  0  0  0  0  0  0  0  0  0  0
    0.8848    1.1839    1.3362 N   0  0  0  0  0  0  0  0  0  0  0  0
   -0.4577    0.8284    1.0934 C   0  0  0  0  0  0  0  0  0  0  0  0
   -1.3846    1.8707    0.9743 C   0  0  0  0  0  0  0  0  0  0  0  0
   -2.7383    1.6062    0.7290 C   0  0  0  0  0  0  0  0  0  0  0  0
   -3.1878    0.2940    0.5907 C   0  0  0  0  0  0  0  0  0  0  0  0
   -4.5283   -0.0587    0.3323 N   0  0  0  0  0  0  0  0  0  0  0  0
   -5.6199    0.7900    0.2680 C   0  0  0  0  0  0  0  0  0  0  0  0
   -5.6333    1.9946    0.4929 O   0  0  0  0  0  0  0  0  0  0  0  0
   -6.9091    0.1252   -0.0738 C   0  0  0  0  0  0  0  0  0  0  0  0
   -6.9752   -0.9191   -1.0069 C   0  0  0  0  0  0  0  0  0  0  0  0
   -8.2057   -1.5128   -1.3029 C   0  0  0  0  0  0  0  0  0  0  0  0
   -9.3651   -1.0576   -0.6741 C   0  0  0  0  0  0  0  0  0  0  0  0
  -11.0266   -1.8634   -1.0777 Br  0  0  0  0  0  0  0  0  0  0  0  0
   -9.3100   -0.0084    0.2424 C   0  0  0  0  0  0  0  0  0  0  0  0
   -8.0818    0.5874    0.5381 C   0  0  0  0  0  0  0  0  0  0  0  0
   -2.2595   -0.7473    0.6984 C   0  0  0  0  0  0  0  0  0  0  0  0
   -0.9064   -0.4834    0.9505 C   0  0  0  0  0  0  0  0  0  0  0  0
    5.0513   -0.4795    0.8536 C   0  0  0  0  0  0  0  0  0  0  0  0
    5.9945   -0.8488   -0.1140 C   0  0  0  0  0  0  0  0  0  0  0  0
    6.7930   -1.9636   -0.0307 O   0  0  0  0  0  0  0  0  0  0  0  0
    6.4962   -2.9040    0.9931 C   0  0  0  0  0  0  0  0  0  0  0  0
    7.7513    1.3851   -2.8861 H   0  0  0  0  0  0  0  0  0  0  0  0
    8.2583   -0.0439   -3.7939 H   0  0  0  0  0  0  0  0  0  0  0  0
    6.5741    0.4838   -3.9195 H   0  0  0  0  0  0  0  0  0  0  0  0
    5.4869    1.7457   -2.2818 H   0  0  0  0  0  0  0  0  0  0  0  0
    3.8545    2.3648   -0.5928 H   0  0  0  0  0  0  0  0  0  0  0  0
    3.1249    2.1525    1.7495 H   0  0  0  0  0  0  0  0  0  0  0  0
    3.6660    0.8368    2.7576 H   0  0  0  0  0  0  0  0  0  0  0  0
    1.0757    2.1768    1.3490 H   0  0  0  0  0  0  0  0  0  0  0  0
   -1.0776    2.9091    1.0779 H   0  0  0  0  0  0  0  0  0  0  0  0
   -3.4136    2.4524    0.6482 H   0  0  0  0  0  0  0  0  0  0  0  0
   -4.7096   -1.0520    0.2557 H   0  0  0  0  0  0  0  0  0  0  0  0
   -6.0870   -1.2590   -1.5334 H   0  0  0  0  0  0  0  0  0  0  0  0
   -8.2526   -2.3189   -2.0313 H   0  0  0  0  0  0  0  0  0  0  0  0
  -10.2127    0.3559    0.7263 H   0  0  0  0  0  0  0  0  0  0  0  0
   -8.0387    1.4126    1.2470 H   0  0  0  0  0  0  0  0  0  0  0  0
   -2.5667   -1.7847    0.5882 H   0  0  0  0  0  0  0  0  0  0  0  0
   -0.2285   -1.3296    1.0148 H   0  0  0  0  0  0  0  0  0  0  0  0
    4.8930   -1.0862    1.7401 H   0  0  0  0  0  0  0  0  0  0  0  0
    6.6968   -2.4814    1.9837 H   0  0  0  0  0  0  0  0  0  0  0  0
    7.1594   -3.7643    0.8600 H   0  0  0  0  0  0  0  0  0  0  0  0
    5.4653   -3.2658    0.9160 H   0  0  0  0  0  0  0  0  0  0  0  0
  1  2  1  0
  2  3  1  0
  3  4  2  0
  4  5  1  0
  5  6  2  0
  6  7  1  0
  7  8  1  0
  8  9  2  0
  8 10  1  0
 10 11  1  0
 11 12  2  0
 12 13  1  0
 13 14  2  0
 14 15  1  0
 15 16  1  0
 16 17  2  0
 16 18  1  0
 18 19  2  0
 19 20  1  0
 20 21  2  0
 21 22  1  0
 21 23  1  0
 23 24  2  0
 14 25  1  0
 25 26  2  0
  6 27  1  0
 27 28  2  0
 28 29  1  0
 29 30  1  0
 28  3  1  0
 26 11  1  0
 24 18  1  0
  1 31  1  0
  1 32  1  0
  1 33  1  0
  4 34  1  0
  5 35  1  0
  7 36  1  0
  7 37  1  0
 10 38  1  0
 12 39  1  0
 13 40  1  0
 15 41  1  0
 19 42  1  0
 20 43  1  0
 23 44  1  0
 24 45  1  0
 25 46  1  0
 26 47  1  0
 27 48  1  0
 30 49  1  0
 30 50  1  0
 30 51  1  0
M  END
$$$$
