
     RDKit          3D

 33 35  0  0  0  0  0  0  0  0999 V2000
    5.9943   -0.3310    0.5059 C   0  0  0  0  0  0  0  0  0  0  0  0
    4.8991    0.3887   -0.0472 O   0  0  0  0  0  0  0  0  0  0  0  0
    3.6460   -0.0859    0.2258 C   0  0  0  0  0  0  0  0  0  0  0  0
    3.3437   -1.2081    0.9961 C   0  0  0  0  0  0  0  0  0  0  0  0
    2.0108   -1.5786    1.2023 C   0  0  0  0  0  0  0  0  0  0  0  0
    0.9714   -0.8339    0.6326 C   0  0  0  0  0  0  0  0  0  0  0  0
    1.2652    0.2894   -0.1542 C   0  0  0  0  0  0  0  0  0  0  0  0
    2.6057    0.6591   -0.3402 C   0  0  0  0  0  0  0  0  0  0  0  0
    0.1623    1.1207   -0.7518 C   0  0  0  0  0  0  0  0  0  0  0  0
   -1.0642    0.2635   -1.0480 C   0  0  0  0  0  0  0  0  0  0  0  0
   -1.5127   -0.4738    0.1816 C   0  0  0  0  0  0  0  0  0  0  0  0
   -2.7501   -0.5717    0.7008 C   0  0  0  0  0  0  0  0  0  0  0  0
   -3.9016    0.0824    0.1869 C   0  0  0  0  0  0  0  0  0  0  0  0
   -4.1100    1.4062   -0.1878 C   0  0  0  0  0  0  0  0  0  0  0  0
   -5.4572    1.5394   -0.6000 C   0  0  0  0  0  0  0  0  0  0  0  0
   -6.0193    0.3001   -0.4395 C   0  0  0  0  0  0  0  0  0  0  0  0
   -5.1046   -0.5738    0.0431 O   0  0  0  0  0  0  0  0  0  0  0  0
   -0.4372   -1.2383    0.8979 C   0  0  0  0  0  0  0  0  0  0  0  0
   -0.6867   -2.1527    1.6755 O   0  0  0  0  0  0  0  0  0  0  0  0
    6.9153    0.1725    0.1966 H   0  0  0  0  0  0  0  0  0  0  0  0
    5.9607   -0.3210    1.6003 H   0  0  0  0  0  0  0  0  0  0  0  0
    6.0289   -1.3551    0.1198 H   0  0  0  0  0  0  0  0  0  0  0  0
    4.1169   -1.8144    1.4566 H   0  0  0  0  0  0  0  0  0  0  0  0
    1.7865   -2.4502    1.8150 H   0  0  0  0  0  0  0  0  0  0  0  0
    2.8529    1.5374   -0.9339 H   0  0  0  0  0  0  0  0  0  0  0  0
   -0.0914    1.9285   -0.0542 H   0  0  0  0  0  0  0  0  0  0  0  0
    0.5031    1.5815   -1.6867 H   0  0  0  0  0  0  0  0  0  0  0  0
   -0.8181   -0.4770   -1.8214 H   0  0  0  0  0  0  0  0  0  0  0  0
   -1.8442    0.8965   -1.4767 H   0  0  0  0  0  0  0  0  0  0  0  0
   -2.9312   -1.2188    1.5576 H   0  0  0  0  0  0  0  0  0  0  0  0
   -3.3688    2.1925   -0.1516 H   0  0  0  0  0  0  0  0  0  0  0  0
   -5.9573    2.4292   -0.9549 H   0  0  0  0  0  0  0  0  0  0  0  0
   -7.0083   -0.1035   -0.6054 H   0  0  0  0  0  0  0  0  0  0  0  0
  1  2  1  0
  2  3  1  0
  3  4  2  0
  4  5  1  0
  5  6  2  0
  6  7  1  0
  7  8  2  0
  7  9  1  0
  9 10  1  0
 10 11  1  0
 11 12  2  3
 12 13  1  0
 13 14  2  0
 14 15  1  0
 15 16  2  0
 16 17  1  0
 11 18  1  0
 18 19  2  0
  8  3  1  0
 17 13  1  0
 18  6  1  0
  1 20  1  0
  1 21  1  0
  1 22  1  0
  4 23  1  0
  5 24  1  0
  8 25  1  0
  9 26  1  0
  9 27  1  0
 10 28  1  0
 10 29  1  0
 12 30  1  0
 14 31  1  0
 15 32  1  0
 16 33  1  0
M  END
$$$$
