
     RDKit          3D

 28 29  0  0  0  0  0  0  0  0999 V2000
    3.6962   -1.4165    2.3188 C   0  0  0  0  0  0  0  0  0  0  0  0
    3.9568   -0.6337    1.0466 C   0  0  0  0  0  0  0  0  0  0  0  0
    2.6921   -0.2871    0.4696 O   0  0  0  0  0  0  0  0  0  0  0  0
    2.7917    0.4258   -0.6903 C   0  0  0  0  0  0  0  0  0  0  0  0
    3.8424    0.7580   -1.2208 O   0  0  0  0  0  0  0  0  0  0  0  0
    1.4686    0.7206   -1.1835 C   0  0  0  0  0  0  0  0  0  0  0  0
    1.1048    1.4178   -2.3225 C   0  0  0  0  0  0  0  0  0  0  0  0
   -0.3096    1.4471   -2.3844 C   0  0  0  0  0  0  0  0  0  0  0  0
   -0.7926    0.7682   -1.2837 C   0  0  0  0  0  0  0  0  0  0  0  0
   -2.1487    0.5240   -0.8995 C   0  0  0  0  0  0  0  0  0  0  0  0
   -2.6538   -0.1503    0.1935 C   0  0  0  0  0  0  0  0  0  0  0  0
   -4.0581   -0.0766    0.0595 C   0  0  0  0  0  0  0  0  0  0  0  0
   -5.1012   -0.6301    0.9504 C   0  0  0  0  0  0  0  0  0  0  0  0
   -4.4026    0.5971   -1.0410 N   0  0  0  0  0  0  0  0  0  0  0  0
   -3.2134    0.9707   -1.6375 O   0  0  0  0  0  0  0  0  0  0  0  0
    0.2959    0.3357   -0.5685 N   0  0  0  0  0  0  0  0  0  0  0  0
    3.1163   -2.3201    2.1034 H   0  0  0  0  0  0  0  0  0  0  0  0
    3.1071   -0.8209    3.0240 H   0  0  0  0  0  0  0  0  0  0  0  0
    4.6354   -1.7054    2.7986 H   0  0  0  0  0  0  0  0  0  0  0  0
    4.5188    0.2771    1.2820 H   0  0  0  0  0  0  0  0  0  0  0  0
    4.5281   -1.2505    0.3439 H   0  0  0  0  0  0  0  0  0  0  0  0
    1.7948    1.8582   -3.0329 H   0  0  0  0  0  0  0  0  0  0  0  0
   -0.9131    1.9153   -3.1528 H   0  0  0  0  0  0  0  0  0  0  0  0
   -2.0960   -0.6310    0.9818 H   0  0  0  0  0  0  0  0  0  0  0  0
   -5.7398    0.1696    1.3392 H   0  0  0  0  0  0  0  0  0  0  0  0
   -4.6554   -1.1513    1.8037 H   0  0  0  0  0  0  0  0  0  0  0  0
   -5.7305   -1.3442    0.4096 H   0  0  0  0  0  0  0  0  0  0  0  0
    0.2659   -0.1933    0.2927 H   0  0  0  0  0  0  0  0  0  0  0  0
  1  2  1  0
  2  3  1  0
  3  4  1  0
  4  5  2  0
  4  6  1  0
  6  7  2  0
  7  8  1  0
  8  9  2  0
  9 10  1  0
 10 11  2  0
 11 12  1  0
 12 13  1  0
 12 14  2  0
 14 15  1  0
  9 16  1  0
 16  6  1  0
 15 10  1  0
  1 17  1  0
  1 18  1  0
  1 19  1  0
  2 20  1  0
  2 21  1  0
  7 22  1  0
  8 23  1  0
 11 24  1  0
 13 25  1  0
 13 26  1  0
 13 27  1  0
 16 28  1  0
M  END
$$$$
