
     RDKit          3D

 46 49  0  0  0  0  0  0  0  0999 V2000
    3.6787    2.9267   -1.9695 O   0  0  0  0  0  0  0  0  0  0  0  0
    2.9819    2.0589   -1.4472 C   0  0  0  0  0  0  0  0  0  0  0  0
    2.2484    2.3568   -0.1488 C   0  0  0  0  0  0  0  0  0  0  0  0
    0.4402    2.2790   -0.3508 S   0  0  0  0  0  0  0  0  0  0  0  0
    0.1348    0.6351    0.0809 C   0  0  0  0  0  0  0  0  0  0  0  0
    1.0577   -0.2818    0.2364 N   0  0  0  0  0  0  0  0  0  0  0  0
    0.4255   -1.4617    0.5246 N   0  0  0  0  0  0  0  0  0  0  0  0
   -0.8780   -1.2479    0.5343 C   0  0  0  0  0  0  0  0  0  0  0  0
   -1.9268   -2.2877    0.7783 C   0  0  0  0  0  0  0  0  0  0  0  0
   -2.5573   -2.1854    2.1392 C   0  0  0  0  0  0  0  0  0  0  0  0
   -1.9419   -1.9707    3.3614 C   0  0  0  0  0  0  0  0  0  0  0  0
   -2.8765   -1.9308    4.4333 C   0  0  0  0  0  0  0  0  0  0  0  0
   -4.1694   -2.1360    4.0067 C   0  0  0  0  0  0  0  0  0  0  0  0
   -4.2541   -2.3791    2.3167 S   0  0  0  0  0  0  0  0  0  0  0  0
   -1.1058    0.0893    0.2770 N   0  0  0  0  0  0  0  0  0  0  0  0
   -2.3923    0.7580    0.1872 C   0  0  0  0  0  0  0  0  0  0  0  0
   -2.8139    1.3230    1.4953 C   0  0  0  0  0  0  0  0  0  0  0  0
   -2.1766    2.0155    2.5102 C   0  0  0  0  0  0  0  0  0  0  0  0
   -3.1563    2.2761    3.4976 C   0  0  0  0  0  0  0  0  0  0  0  0
   -4.3346    1.7508    3.0147 C   0  0  0  0  0  0  0  0  0  0  0  0
   -4.1372    1.1740    1.8015 O   0  0  0  0  0  0  0  0  0  0  0  0
    2.8119    0.7720   -1.9279 N   0  0  0  0  0  0  0  0  0  0  0  0
    3.4299    0.1815   -3.0567 C   0  0  0  0  0  0  0  0  0  0  0  0
    4.5345    0.7597   -3.7031 C   0  0  0  0  0  0  0  0  0  0  0  0
    5.1350    0.1165   -4.7923 C   0  0  0  0  0  0  0  0  0  0  0  0
    4.6368   -1.1051   -5.2470 C   0  0  0  0  0  0  0  0  0  0  0  0
    5.3836   -1.8931   -6.5796 Cl  0  0  0  0  0  0  0  0  0  0  0  0
    3.5492   -1.7006   -4.6179 C   0  0  0  0  0  0  0  0  0  0  0  0
    2.9508   -1.0579   -3.5291 C   0  0  0  0  0  0  0  0  0  0  0  0
    1.5730   -1.8244   -2.8121 Cl  0  0  0  0  0  0  0  0  0  0  0  0
    2.6180    1.7066    0.6507 H   0  0  0  0  0  0  0  0  0  0  0  0
    2.4922    3.3868    0.1407 H   0  0  0  0  0  0  0  0  0  0  0  0
   -1.4617   -3.2796    0.6937 H   0  0  0  0  0  0  0  0  0  0  0  0
   -2.6776   -2.2361   -0.0189 H   0  0  0  0  0  0  0  0  0  0  0  0
   -0.8708   -1.8398    3.4731 H   0  0  0  0  0  0  0  0  0  0  0  0
   -2.6184   -1.7577    5.4730 H   0  0  0  0  0  0  0  0  0  0  0  0
   -5.0689   -2.1595    4.6032 H   0  0  0  0  0  0  0  0  0  0  0  0
   -2.3342    1.5439   -0.5742 H   0  0  0  0  0  0  0  0  0  0  0  0
   -3.1245    0.0292   -0.1797 H   0  0  0  0  0  0  0  0  0  0  0  0
   -1.1303    2.3060    2.5388 H   0  0  0  0  0  0  0  0  0  0  0  0
   -3.0186    2.7913    4.4405 H   0  0  0  0  0  0  0  0  0  0  0  0
   -5.3501    1.7139    3.3871 H   0  0  0  0  0  0  0  0  0  0  0  0
    2.1441    0.1730   -1.4389 H   0  0  0  0  0  0  0  0  0  0  0  0
    4.9710    1.6963   -3.3660 H   0  0  0  0  0  0  0  0  0  0  0  0
    6.0076    0.5705   -5.2632 H   0  0  0  0  0  0  0  0  0  0  0  0
    3.1708   -2.6555   -4.9636 H   0  0  0  0  0  0  0  0  0  0  0  0
  1  2  2  0
  2  3  1  0
  3  4  1  0
  4  5  1  0
  5  6  2  0
  6  7  1  0
  7  8  2  0
  8  9  1  0
  9 10  1  0
 10 11  2  0
 11 12  1  0
 12 13  2  0
 13 14  1  0
  8 15  1  0
 15 16  1  0
 16 17  1  0
 17 18  2  0
 18 19  1  0
 19 20  2  0
 20 21  1  0
  2 22  1  0
 22 23  1  0
 23 24  2  0
 24 25  1  0
 25 26  2  0
 26 27  1  0
 26 28  1  0
 28 29  2  0
 29 30  1  0
 15  5  1  0
 21 17  1  0
 29 23  1  0
 14 10  1  0
  3 31  1  0
  3 32  1  0
  9 33  1  0
  9 34  1  0
 11 35  1  0
 12 36  1  0
 13 37  1  0
 16 38  1  0
 16 39  1  0
 18 40  1  0
 19 41  1  0
 20 42  1  0
 22 43  1  0
 24 44  1  0
 25 45  1  0
 28 46  1  0
M  END
$$$$
