
     RDKit          3D

 53 55  0  0  0  0  0  0  0  0999 V2000
    9.1834   -0.0292    2.3483 C   0  0  0  0  0  0  0  0  0  0  0  0
    8.3462   -0.7363    1.4417 O   0  0  0  0  0  0  0  0  0  0  0  0
    7.0012   -0.5055    1.5311 C   0  0  0  0  0  0  0  0  0  0  0  0
    6.2189   -1.2848    0.6714 C   0  0  0  0  0  0  0  0  0  0  0  0
    4.8296   -1.1539    0.6562 C   0  0  0  0  0  0  0  0  0  0  0  0
    4.2226   -0.2266    1.5048 C   0  0  0  0  0  0  0  0  0  0  0  0
    2.4558   -0.0637    1.4798 S   0  0  0  0  0  6  0  0  0  0  0  0
    1.8977   -1.3967    1.4933 O   0  0  0  0  0  0  0  0  0  0  0  0
    2.0745    0.9213    2.4696 O   0  0  0  0  0  0  0  0  0  0  0  0
    2.1744    0.6059   -0.0295 N   0  0  0  0  0  0  0  0  0  0  0  0
    2.7166    1.9320   -0.3293 C   0  0  0  0  0  0  0  0  0  0  0  0
    2.0331    2.2361   -1.6414 C   0  0  0  0  0  0  0  0  0  0  0  0
    0.7157    1.7003   -1.4981 O   0  0  0  0  0  0  0  0  0  0  0  0
    0.7878    0.6014   -0.5502 C   0  0  0  0  0  0  0  0  0  0  0  0
   -0.3288    0.8299    0.4981 C   0  0  0  0  0  0  0  0  0  0  0  0
   -1.6507    0.9702   -0.0918 N   0  0  0  0  0  0  0  0  0  0  0  0
   -2.3095   -0.0949   -0.6566 C   0  0  0  0  0  0  0  0  0  0  0  0
   -1.9466   -1.2627   -0.6243 O   0  0  0  0  0  0  0  0  0  0  0  0
   -3.6059    0.2945   -1.4033 C   0  0  0  0  0  0  0  0  0  0  0  0
   -3.9301    1.4692   -1.4961 O   0  0  0  0  0  0  0  0  0  0  0  0
   -4.2847   -0.7891   -1.9069 N   0  0  0  0  0  0  0  0  0  0  0  0
   -5.5837   -0.6780   -2.5236 C   0  0  0  0  0  0  0  0  0  0  0  0
   -6.6921   -0.9267   -1.5300 C   0  0  0  0  0  0  0  0  0  0  0  0
   -6.7877   -2.1988   -0.9299 C   0  0  0  0  0  0  0  0  0  0  0  0
   -7.7889   -2.4859    0.0000 C   0  0  0  0  0  0  0  0  0  0  0  0
   -8.7163   -1.5091    0.3461 C   0  0  0  0  0  0  0  0  0  0  0  0
   -8.6434   -0.2472   -0.2410 C   0  0  0  0  0  0  0  0  0  0  0  0
   -7.6409    0.0454   -1.1738 C   0  0  0  0  0  0  0  0  0  0  0  0
   -7.6466    1.6322   -1.8568 Cl  0  0  0  0  0  0  0  0  0  0  0  0
    4.9896    0.5538    2.3729 C   0  0  0  0  0  0  0  0  0  0  0  0
    6.3815    0.4139    2.3817 C   0  0  0  0  0  0  0  0  0  0  0  0
    9.1344    1.0499    2.1686 H   0  0  0  0  0  0  0  0  0  0  0  0
   10.2146   -0.3501    2.1711 H   0  0  0  0  0  0  0  0  0  0  0  0
    8.9340   -0.2695    3.3873 H   0  0  0  0  0  0  0  0  0  0  0  0
    6.6992   -2.0062    0.0135 H   0  0  0  0  0  0  0  0  0  0  0  0
    4.2321   -1.7734   -0.0095 H   0  0  0  0  0  0  0  0  0  0  0  0
    2.4120    2.6544    0.4351 H   0  0  0  0  0  0  0  0  0  0  0  0
    3.8033    1.9332   -0.4365 H   0  0  0  0  0  0  0  0  0  0  0  0
    1.9832    3.3058   -1.8596 H   0  0  0  0  0  0  0  0  0  0  0  0
    2.5199    1.7232   -2.4784 H   0  0  0  0  0  0  0  0  0  0  0  0
    0.6180   -0.3225   -1.1132 H   0  0  0  0  0  0  0  0  0  0  0  0
   -0.1490    1.7588    1.0496 H   0  0  0  0  0  0  0  0  0  0  0  0
   -0.3741    0.0019    1.2116 H   0  0  0  0  0  0  0  0  0  0  0  0
   -1.9867    1.8931   -0.3576 H   0  0  0  0  0  0  0  0  0  0  0  0
   -3.9020   -1.7022   -1.6799 H   0  0  0  0  0  0  0  0  0  0  0  0
   -5.6355   -1.4389   -3.3107 H   0  0  0  0  0  0  0  0  0  0  0  0
   -5.6613    0.2931   -3.0189 H   0  0  0  0  0  0  0  0  0  0  0  0
   -6.0733   -2.9794   -1.1848 H   0  0  0  0  0  0  0  0  0  0  0  0
   -7.8415   -3.4717    0.4554 H   0  0  0  0  0  0  0  0  0  0  0  0
   -9.4964   -1.7285    1.0712 H   0  0  0  0  0  0  0  0  0  0  0  0
   -9.3737    0.5107    0.0337 H   0  0  0  0  0  0  0  0  0  0  0  0
    4.5183    1.2676    3.0454 H   0  0  0  0  0  0  0  0  0  0  0  0
    6.9518    1.0333    3.0664 H   0  0  0  0  0  0  0  0  0  0  0  0
  1  2  1  0
  2  3  1  0
  3  4  2  0
  4  5  1  0
  5  6  2  0
  6  7  1  0
  7  8  2  0
  7  9  2  0
  7 10  1  0
 10 11  1  0
 11 12  1  0
 12 13  1  0
 13 14  1  0
 14 15  1  0
 15 16  1  0
 16 17  1  0
 17 18  2  0
 17 19  1  0
 19 20  2  0
 19 21  1  0
 21 22  1  0
 22 23  1  0
 23 24  2  0
 24 25  1  0
 25 26  2  0
 26 27  1  0
 27 28  2  0
 28 29  1  0
  6 30  1  0
 30 31  2  0
 31  3  1  0
 14 10  1  0
 28 23  1  0
  1 32  1  0
  1 33  1  0
  1 34  1  0
  4 35  1  0
  5 36  1  0
 11 37  1  0
 11 38  1  0
 12 39  1  0
 12 40  1  0
 14 41  1  0
 15 42  1  0
 15 43  1  0
 16 44  1  0
 21 45  1  0
 22 46  1  0
 22 47  1  0
 24 48  1  0
 25 49  1  0
 26 50  1  0
 27 51  1  0
 30 52  1  0
 31 53  1  0
M  END
$$$$
