
     RDKit          3D

 46 48  0  0  0  0  0  0  0  0999 V2000
    1.7553    1.2536    1.2182 C   0  0  0  0  0  0  0  0  0  0  0  0
    1.8034    0.6328   -0.1608 C   0  0  0  0  0  0  0  0  0  0  0  0
    2.9917    0.9891   -0.9897 C   0  0  0  0  0  0  0  0  0  0  0  0
    2.8304    1.2443   -2.2965 C   0  0  0  0  0  0  0  0  0  0  0  0
    3.9108    1.6181   -3.2224 C   0  0  0  0  0  0  0  0  0  0  0  0
    3.7455    1.3469   -4.5876 C   0  0  0  0  0  0  0  0  0  0  0  0
    4.7293    1.7043   -5.5132 C   0  0  0  0  0  0  0  0  0  0  0  0
    5.8887    2.3458   -5.0854 C   0  0  0  0  0  0  0  0  0  0  0  0
    6.0607    2.6365   -3.7340 C   0  0  0  0  0  0  0  0  0  0  0  0
    5.0756    2.2788   -2.8089 C   0  0  0  0  0  0  0  0  0  0  0  0
    0.9229   -0.2076   -0.6323 N   0  0  0  0  0  0  0  0  0  0  0  0
   -0.2030   -0.4504    0.1082 N   0  0  0  0  0  0  0  0  0  0  0  0
   -1.1904    0.5200    0.2235 C   0  0  0  0  0  0  0  0  0  0  0  0
   -1.0799    1.7114   -0.0324 O   0  0  0  0  0  0  0  0  0  0  0  0
   -2.4958   -0.0293    0.6769 C   0  0  0  0  0  0  0  0  0  0  0  0
   -3.3631    0.7568    1.6260 C   0  0  0  0  0  0  0  0  0  0  0  0
   -2.7013   -0.5168    2.1140 C   0  0  0  0  0  0  0  0  0  0  0  0
   -1.5897   -0.3613    3.1274 C   0  0  0  0  0  0  0  0  0  0  0  0
   -3.5659   -1.7549    2.3187 C   0  0  0  0  0  0  0  0  0  0  0  0
   -3.2313   -2.9874    1.7318 C   0  0  0  0  0  0  0  0  0  0  0  0
   -4.0213   -4.1240    1.9223 C   0  0  0  0  0  0  0  0  0  0  0  0
   -5.1643   -4.0534    2.7126 C   0  0  0  0  0  0  0  0  0  0  0  0
   -5.5126   -2.8496    3.3158 C   0  0  0  0  0  0  0  0  0  0  0  0
   -4.7193   -1.7162    3.1213 C   0  0  0  0  0  0  0  0  0  0  0  0
    1.0564    2.0921    1.2302 H   0  0  0  0  0  0  0  0  0  0  0  0
    2.7396    1.6332    1.5063 H   0  0  0  0  0  0  0  0  0  0  0  0
    1.4534    0.5098    1.9601 H   0  0  0  0  0  0  0  0  0  0  0  0
    3.9435    1.0508   -0.4794 H   0  0  0  0  0  0  0  0  0  0  0  0
    1.8382    1.1616   -2.7378 H   0  0  0  0  0  0  0  0  0  0  0  0
    2.8471    0.8470   -4.9445 H   0  0  0  0  0  0  0  0  0  0  0  0
    4.5871    1.4827   -6.5678 H   0  0  0  0  0  0  0  0  0  0  0  0
    6.6537    2.6252   -5.8050 H   0  0  0  0  0  0  0  0  0  0  0  0
    6.9600    3.1455   -3.3991 H   0  0  0  0  0  0  0  0  0  0  0  0
    5.2313    2.5365   -1.7656 H   0  0  0  0  0  0  0  0  0  0  0  0
   -0.5555   -1.3958   -0.0028 H   0  0  0  0  0  0  0  0  0  0  0  0
   -3.0354   -0.5370   -0.1189 H   0  0  0  0  0  0  0  0  0  0  0  0
   -2.9918    1.7130    1.9812 H   0  0  0  0  0  0  0  0  0  0  0  0
   -4.4303    0.7614    1.4321 H   0  0  0  0  0  0  0  0  0  0  0  0
   -1.9946   -0.3790    4.1449 H   0  0  0  0  0  0  0  0  0  0  0  0
   -1.0495    0.5844    3.0091 H   0  0  0  0  0  0  0  0  0  0  0  0
   -0.8656   -1.1770    3.0324 H   0  0  0  0  0  0  0  0  0  0  0  0
   -2.3381   -3.0682    1.1173 H   0  0  0  0  0  0  0  0  0  0  0  0
   -3.7409   -5.0643    1.4559 H   0  0  0  0  0  0  0  0  0  0  0  0
   -5.7803   -4.9357    2.8620 H   0  0  0  0  0  0  0  0  0  0  0  0
   -6.4009   -2.7893    3.9393 H   0  0  0  0  0  0  0  0  0  0  0  0
   -5.0039   -0.7843    3.6060 H   0  0  0  0  0  0  0  0  0  0  0  0
  1  2  1  0
  2  3  1  0
  3  4  2  3
  4  5  1  0
  5  6  2  0
  6  7  1  0
  7  8  2  0
  8  9  1  0
  9 10  2  0
  2 11  2  3
 11 12  1  0
 12 13  1  0
 13 14  2  0
 13 15  1  0
 15 16  1  0
 16 17  1  0
 17 18  1  0
 17 19  1  0
 19 20  2  0
 20 21  1  0
 21 22  2  0
 22 23  1  0
 23 24  2  0
 10  5  1  0
 17 15  1  0
 24 19  1  0
  1 25  1  0
  1 26  1  0
  1 27  1  0
  3 28  1  0
  4 29  1  0
  6 30  1  0
  7 31  1  0
  8 32  1  0
  9 33  1  0
 10 34  1  0
 12 35  1  0
 15 36  1  0
 16 37  1  0
 16 38  1  0
 18 39  1  0
 18 40  1  0
 18 41  1  0
 20 42  1  0
 21 43  1  0
 22 44  1  0
 23 45  1  0
 24 46  1  0
M  END
$$$$
