
     RDKit          3D

 37 39  0  0  0  0  0  0  0  0999 V2000
   -4.1076   -2.3091   -0.4778 C   0  0  0  0  0  0  0  0  0  0  0  0
   -4.4655   -1.4975    0.7548 C   0  0  0  0  0  0  0  0  0  0  0  0
   -4.1830   -0.0803    0.5914 N   0  0  0  0  0  0  0  0  0  0  0  0
   -5.2192    0.7434    0.3070 N   0  0  0  0  0  0  0  0  0  0  0  0
   -4.6583    1.9494    0.2356 C   0  0  0  0  0  0  0  0  0  0  0  0
   -3.2763    1.8907    0.4435 C   0  0  0  0  0  0  0  0  0  0  0  0
   -2.1854    3.4127    0.4674 Br  0  0  0  0  0  0  0  0  0  0  0  0
   -2.9597    0.5613    0.6464 C   0  0  0  0  0  0  0  0  0  0  0  0
   -1.6963   -0.1074    0.8977 C   0  0  0  0  0  0  0  0  0  0  0  0
   -1.6549   -1.1514    1.5376 O   0  0  0  0  0  0  0  0  0  0  0  0
   -0.6118    0.5175    0.3131 N   0  0  0  0  0  0  0  0  0  0  0  0
    0.7244    0.1406    0.3649 C   0  0  0  0  0  0  0  0  0  0  0  0
    1.2451   -1.1611    1.3508 S   0  0  0  0  0  0  0  0  0  0  0  0
    2.8194   -0.9510    0.8542 C   0  0  0  0  0  0  0  0  0  0  0  0
    2.9968    0.0794   -0.0266 C   0  0  0  0  0  0  0  0  0  0  0  0
    1.7765    0.7578   -0.3246 C   0  0  0  0  0  0  0  0  0  0  0  0
    1.5589    1.8966   -1.2132 C   0  0  0  0  0  0  0  0  0  0  0  0
    2.6651    2.5930   -1.6042 N   0  0  0  0  0  0  0  0  0  0  0  0
    0.4433    2.2590   -1.5775 O   0  0  0  0  0  0  0  0  0  0  0  0
    4.4258    0.1703   -0.4315 C   0  0  0  0  0  0  0  0  0  0  0  0
    5.0105   -1.1860    0.0710 C   0  0  0  0  0  0  0  0  0  0  0  0
    4.0544   -1.6965    1.1882 C   0  0  0  0  0  0  0  0  0  0  0  0
   -3.0386   -2.2477   -0.7046 H   0  0  0  0  0  0  0  0  0  0  0  0
   -4.6545   -1.9501   -1.3562 H   0  0  0  0  0  0  0  0  0  0  0  0
   -4.3618   -3.3625   -0.3246 H   0  0  0  0  0  0  0  0  0  0  0  0
   -5.5376   -1.5975    0.9634 H   0  0  0  0  0  0  0  0  0  0  0  0
   -3.9405   -1.8550    1.6444 H   0  0  0  0  0  0  0  0  0  0  0  0
   -5.2853    2.8099    0.0410 H   0  0  0  0  0  0  0  0  0  0  0  0
   -0.7998    1.3161   -0.2917 H   0  0  0  0  0  0  0  0  0  0  0  0
    2.4909    3.4551   -2.1033 H   0  0  0  0  0  0  0  0  0  0  0  0
    3.5410    2.5056   -1.1136 H   0  0  0  0  0  0  0  0  0  0  0  0
    4.5561    0.2751   -1.5121 H   0  0  0  0  0  0  0  0  0  0  0  0
    4.9157    1.0059    0.0795 H   0  0  0  0  0  0  0  0  0  0  0  0
    6.0442   -1.0910    0.4175 H   0  0  0  0  0  0  0  0  0  0  0  0
    5.0059   -1.9049   -0.7592 H   0  0  0  0  0  0  0  0  0  0  0  0
    3.9341   -2.7822    1.1421 H   0  0  0  0  0  0  0  0  0  0  0  0
    4.4279   -1.4082    2.1761 H   0  0  0  0  0  0  0  0  0  0  0  0
  1  2  1  0
  2  3  1  0
  3  4  1  0
  4  5  2  0
  5  6  1  0
  6  7  1  0
  6  8  2  0
  8  9  1  0
  9 10  2  0
  9 11  1  0
 11 12  1  0
 12 13  1  0
 13 14  1  0
 14 15  2  0
 15 16  1  0
 16 17  1  0
 17 18  1  0
 17 19  2  0
 15 20  1  0
 20 21  1  0
 21 22  1  0
  8  3  1  0
 16 12  2  0
 22 14  1  0
  1 23  1  0
  1 24  1  0
  1 25  1  0
  2 26  1  0
  2 27  1  0
  5 28  1  0
 11 29  1  0
 18 30  1  0
 18 31  1  0
 20 32  1  0
 20 33  1  0
 21 34  1  0
 21 35  1  0
 22 36  1  0
 22 37  1  0
M  END
$$$$
