
     RDKit          3D

 37 38  0  0  0  0  0  0  0  0999 V2000
   -5.3999   -0.7158   -2.5810 C   0  0  0  0  0  0  0  0  0  0  0  0
   -5.0269   -0.4729   -1.1879 N   0  0  0  0  0  0  0  0  0  0  0  0
   -6.0775    0.0973   -0.3453 C   0  0  0  0  0  0  0  0  0  0  0  0
   -3.6871   -0.2302   -0.8708 C   0  0  0  0  0  0  0  0  0  0  0  0
   -3.2937    0.2856    0.3757 C   0  0  0  0  0  0  0  0  0  0  0  0
   -1.9478    0.5097    0.7073 C   0  0  0  0  0  0  0  0  0  0  0  0
   -0.9314    0.2027   -0.1954 C   0  0  0  0  0  0  0  0  0  0  0  0
    0.4647    0.4694    0.1769 C   0  0  0  0  0  0  0  0  0  0  0  0
    1.4773   -0.3622   -0.1180 C   0  0  0  0  0  0  0  0  0  0  0  0
    2.8754   -0.1152    0.2527 C   0  0  0  0  0  0  0  0  0  0  0  0
    3.8877   -0.5018   -0.6240 C   0  0  0  0  0  0  0  0  0  0  0  0
    5.2186   -0.2995   -0.2759 C   0  0  0  0  0  0  0  0  0  0  0  0
    5.5420    0.2628    0.9097 N   0  0  0  0  0  4  0  0  0  0  0  0
    6.9587    0.4571    1.2620 C   0  0  0  0  0  0  0  0  0  0  0  0
    4.5794    0.6228    1.7873 C   0  0  0  0  0  0  0  0  0  0  0  0
    3.2358    0.4407    1.4794 C   0  0  0  0  0  0  0  0  0  0  0  0
   -1.2923   -0.3068   -1.4417 C   0  0  0  0  0  0  0  0  0  0  0  0
   -2.6418   -0.5252   -1.7629 C   0  0  0  0  0  0  0  0  0  0  0  0
   -5.1366    0.1395   -3.2132 H   0  0  0  0  0  0  0  0  0  0  0  0
   -4.9199   -1.6213   -2.9673 H   0  0  0  0  0  0  0  0  0  0  0  0
   -6.4783   -0.8817   -2.6825 H   0  0  0  0  0  0  0  0  0  0  0  0
   -6.0156   -0.2859    0.6789 H   0  0  0  0  0  0  0  0  0  0  0  0
   -7.0738   -0.1789   -0.7086 H   0  0  0  0  0  0  0  0  0  0  0  0
   -6.0215    1.1914   -0.3338 H   0  0  0  0  0  0  0  0  0  0  0  0
   -4.0305    0.5291    1.1354 H   0  0  0  0  0  0  0  0  0  0  0  0
   -1.7165    0.9146    1.6896 H   0  0  0  0  0  0  0  0  0  0  0  0
    0.6235    1.3945    0.7249 H   0  0  0  0  0  0  0  0  0  0  0  0
    1.2852   -1.2829   -0.6673 H   0  0  0  0  0  0  0  0  0  0  0  0
    3.6483   -0.9550   -1.5846 H   0  0  0  0  0  0  0  0  0  0  0  0
    6.0308   -0.5870   -0.9378 H   0  0  0  0  0  0  0  0  0  0  0  0
    7.0492    1.3296    1.9141 H   0  0  0  0  0  0  0  0  0  0  0  0
    7.2959   -0.4482    1.7727 H   0  0  0  0  0  0  0  0  0  0  0  0
    7.5349    0.6273    0.3489 H   0  0  0  0  0  0  0  0  0  0  0  0
    4.8936    1.0495    2.7358 H   0  0  0  0  0  0  0  0  0  0  0  0
    2.4796    0.7233    2.2092 H   0  0  0  0  0  0  0  0  0  0  0  0
   -0.5401   -0.5383   -2.1910 H   0  0  0  0  0  0  0  0  0  0  0  0
   -2.8492   -0.9384   -2.7455 H   0  0  0  0  0  0  0  0  0  0  0  0
  1  2  1  0
  2  3  1  0
  2  4  1  0
  4  5  2  0
  5  6  1  0
  6  7  2  0
  7  8  1  0
  8  9  2  3
  9 10  1  0
 10 11  2  0
 11 12  1  0
 12 13  2  0
 13 14  1  0
 13 15  1  0
 15 16  2  0
  7 17  1  0
 17 18  2  0
 18  4  1  0
 16 10  1  0
  1 19  1  0
  1 20  1  0
  1 21  1  0
  3 22  1  0
  3 23  1  0
  3 24  1  0
  5 25  1  0
  6 26  1  0
  8 27  1  0
  9 28  1  0
 11 29  1  0
 12 30  1  0
 14 31  1  0
 14 32  1  0
 14 33  1  0
 15 34  1  0
 16 35  1  0
 17 36  1  0
 18 37  1  0
M  CHG  1  13   1
M  END
$$$$
