
     RDKit          3D

 51 55  0  0  0  0  0  0  0  0999 V2000
    1.4269    0.2987   -2.9118 O   0  0  0  0  0  0  0  0  0  0  0  0
    1.0341    0.9975   -1.9887 C   0  0  0  0  0  0  0  0  0  0  0  0
    0.0464    2.1489   -2.2320 C   0  0  0  0  0  0  0  0  0  0  0  0
   -1.2965    1.8063   -1.7374 N   0  0  0  0  0  0  0  0  0  0  0  0
   -1.5365    1.9525   -0.3715 C   0  0  0  0  0  0  0  0  0  0  0  0
   -0.6641    2.3865    0.3889 O   0  0  0  0  0  0  0  0  0  0  0  0
   -2.9213    1.6370    0.1380 C   0  0  0  0  0  0  0  0  0  0  0  0
   -3.1928    0.1478    0.3681 C   0  0  0  0  0  0  0  0  0  0  0  0
   -2.7966   -0.3394    1.7329 C   0  0  0  0  0  0  0  0  0  0  0  0
   -3.3454   -1.2954    2.5750 C   0  0  0  0  0  0  0  0  0  0  0  0
   -2.5260   -1.3311    3.7327 C   0  0  0  0  0  0  0  0  0  0  0  0
   -1.5155   -0.4088    3.5229 C   0  0  0  0  0  0  0  0  0  0  0  0
   -1.6741    0.1977    2.3106 O   0  0  0  0  0  0  0  0  0  0  0  0
   -2.4880   -0.9861   -0.8825 S   0  0  0  0  0  0  0  0  0  0  0  0
   -2.8382   -0.0457   -2.3585 C   0  0  0  0  0  0  0  0  0  0  0  0
   -3.6999   -0.6256   -3.3002 C   0  0  0  0  0  0  0  0  0  0  0  0
   -3.9389    0.0008   -4.5203 C   0  0  0  0  0  0  0  0  0  0  0  0
   -3.3075    1.2052   -4.8189 C   0  0  0  0  0  0  0  0  0  0  0  0
   -2.4377    1.7830   -3.8942 C   0  0  0  0  0  0  0  0  0  0  0  0
   -2.1938    1.1733   -2.6518 C   0  0  0  0  0  0  0  0  0  0  0  0
    1.4073    0.8864   -0.6568 N   0  0  0  0  0  0  0  0  0  0  0  0
    2.3291   -0.0118   -0.0842 C   0  0  0  0  0  0  0  0  0  0  0  0
    2.8982   -1.0850   -0.7632 C   0  0  0  0  0  0  0  0  0  0  0  0
    3.8354   -1.9122   -0.1272 C   0  0  0  0  0  0  0  0  0  0  0  0
    4.2191   -1.6580    1.1863 C   0  0  0  0  0  0  0  0  0  0  0  0
    3.6310   -0.6034    1.8845 C   0  0  0  0  0  0  0  0  0  0  0  0
    2.6927    0.2166    1.2520 C   0  0  0  0  0  0  0  0  0  0  0  0
    3.9403   -0.3040    3.1948 O   0  0  0  0  0  0  0  0  0  0  0  0
    4.6170   -1.3965    3.8216 C   0  0  0  0  0  0  0  0  0  0  0  0
    5.7251   -1.9207    2.9258 C   0  0  0  0  0  0  0  0  0  0  0  0
    5.1740   -2.4823    1.7289 O   0  0  0  0  0  0  0  0  0  0  0  0
    0.0410    2.3705   -3.3060 H   0  0  0  0  0  0  0  0  0  0  0  0
    0.4188    3.0477   -1.7242 H   0  0  0  0  0  0  0  0  0  0  0  0
   -3.6464    2.0512   -0.5730 H   0  0  0  0  0  0  0  0  0  0  0  0
   -3.0803    2.2109    1.0577 H   0  0  0  0  0  0  0  0  0  0  0  0
   -4.2841    0.0139    0.3010 H   0  0  0  0  0  0  0  0  0  0  0  0
   -4.2220   -1.9050    2.3680 H   0  0  0  0  0  0  0  0  0  0  0  0
   -2.6410   -1.9655    4.6127 H   0  0  0  0  0  0  0  0  0  0  0  0
   -0.6574   -0.0835    4.1022 H   0  0  0  0  0  0  0  0  0  0  0  0
   -4.1742   -1.5831   -3.0979 H   0  0  0  0  0  0  0  0  0  0  0  0
   -4.6004   -0.4605   -5.2450 H   0  0  0  0  0  0  0  0  0  0  0  0
   -3.4847    1.6948   -5.7754 H   0  0  0  0  0  0  0  0  0  0  0  0
   -1.9785    2.7324   -4.1460 H   0  0  0  0  0  0  0  0  0  0  0  0
    0.9379    1.5161   -0.0108 H   0  0  0  0  0  0  0  0  0  0  0  0
    2.6140   -1.3180   -1.7829 H   0  0  0  0  0  0  0  0  0  0  0  0
    4.2762   -2.7436   -0.6746 H   0  0  0  0  0  0  0  0  0  0  0  0
    2.2568    1.0405    1.8163 H   0  0  0  0  0  0  0  0  0  0  0  0
    3.8807   -2.1809    4.0477 H   0  0  0  0  0  0  0  0  0  0  0  0
    5.0273   -1.0297    4.7700 H   0  0  0  0  0  0  0  0  0  0  0  0
    6.4258   -1.1300    2.6374 H   0  0  0  0  0  0  0  0  0  0  0  0
    6.2865   -2.7103    3.4347 H   0  0  0  0  0  0  0  0  0  0  0  0
  1  2  2  0
  2  3  1  0
  3  4  1  0
  4  5  1  0
  5  6  2  0
  5  7  1  0
  7  8  1  0
  8  9  1  0
  9 10  2  0
 10 11  1  0
 11 12  2  0
 12 13  1  0
  8 14  1  0
 14 15  1  0
 15 16  2  0
 16 17  1  0
 17 18  2  0
 18 19  1  0
 19 20  2  0
  2 21  1  0
 21 22  1  0
 22 23  2  0
 23 24  1  0
 24 25  2  0
 25 26  1  0
 26 27  2  0
 26 28  1  0
 28 29  1  0
 29 30  1  0
 30 31  1  0
 20  4  1  0
 27 22  1  0
 13  9  1  0
 20 15  1  0
 31 25  1  0
  3 32  1  0
  3 33  1  0
  7 34  1  0
  7 35  1  0
  8 36  1  0
 10 37  1  0
 11 38  1  0
 12 39  1  0
 16 40  1  0
 17 41  1  0
 18 42  1  0
 19 43  1  0
 21 44  1  0
 23 45  1  0
 24 46  1  0
 27 47  1  0
 29 48  1  0
 29 49  1  0
 30 50  1  0
 30 51  1  0
M  END
$$$$
