
     RDKit          3D

 42 44  0  0  0  0  0  0  0  0999 V2000
   -0.5489   -2.9811   -0.5249 C   0  0  0  0  0  0  0  0  0  0  0  0
   -0.8531   -1.5579   -0.1859 C   0  0  0  0  0  0  0  0  0  0  0  0
   -0.0328   -0.6209    0.3184 C   0  0  0  0  0  0  0  0  0  0  0  0
    1.2992   -0.5538    0.6322 N   0  0  0  0  0  0  0  0  0  0  0  0
    2.3202   -1.4021    0.2588 C   0  0  0  0  0  0  0  0  0  0  0  0
    2.2139   -2.3607   -0.5015 O   0  0  0  0  0  0  0  0  0  0  0  0
    3.6610   -1.0389    0.8546 C   0  0  0  0  0  0  0  0  0  0  0  0
    4.4537   -0.2957   -0.1034 N   0  0  0  0  0  0  0  0  0  0  0  0
    5.2994   -0.8107   -1.0470 C   0  0  0  0  0  0  0  0  0  0  0  0
    5.8346    0.2677   -1.7147 C   0  0  0  0  0  0  0  0  0  0  0  0
    5.2581    1.3961   -1.0884 C   0  0  0  0  0  0  0  0  0  0  0  0
    5.4752    2.8005   -1.3913 N   0  0  0  0  0  4  0  0  0  0  0  0
    4.8778    3.6539   -0.7190 O   0  0  0  0  0  0  0  0  0  0  0  0
    6.2624    3.0414   -2.3206 O   0  0  0  0  0  1  0  0  0  0  0  0
    4.4161    1.0532   -0.0939 N   0  0  0  0  0  0  0  0  0  0  0  0
   -0.9020    0.5697    0.5929 C   0  0  0  0  0  0  0  0  0  0  0  0
   -0.4619    1.5754    1.1315 O   0  0  0  0  0  0  0  0  0  0  0  0
   -2.1938    0.2258    0.1933 N   0  0  0  0  0  0  0  0  0  0  0  0
   -3.3929    0.8170    0.6685 C   0  0  0  0  0  0  0  0  0  0  0  0
   -3.4138    2.1495    1.1038 C   0  0  0  0  0  0  0  0  0  0  0  0
   -4.5948    2.7383    1.5691 C   0  0  0  0  0  0  0  0  0  0  0  0
   -5.7735    2.0001    1.6146 C   0  0  0  0  0  0  0  0  0  0  0  0
   -5.7700    0.6716    1.2016 C   0  0  0  0  0  0  0  0  0  0  0  0
   -4.5890    0.0856    0.7333 C   0  0  0  0  0  0  0  0  0  0  0  0
   -2.1739   -1.0912   -0.3526 N   0  0  0  0  0  0  0  0  0  0  0  0
   -2.7393   -1.1571   -1.7153 C   0  0  0  0  0  0  0  0  0  0  0  0
   -0.1645   -3.0636   -1.5461 H   0  0  0  0  0  0  0  0  0  0  0  0
   -1.4548   -3.5953   -0.4562 H   0  0  0  0  0  0  0  0  0  0  0  0
    0.1629   -3.4214    0.1791 H   0  0  0  0  0  0  0  0  0  0  0  0
    1.5619    0.3384    1.0562 H   0  0  0  0  0  0  0  0  0  0  0  0
    4.2021   -1.9523    1.1241 H   0  0  0  0  0  0  0  0  0  0  0  0
    3.5517   -0.4351    1.7620 H   0  0  0  0  0  0  0  0  0  0  0  0
    5.4330   -1.8779   -1.1721 H   0  0  0  0  0  0  0  0  0  0  0  0
    6.5386    0.2507   -2.5356 H   0  0  0  0  0  0  0  0  0  0  0  0
   -2.5173    2.7644    1.0736 H   0  0  0  0  0  0  0  0  0  0  0  0
   -4.5883    3.7765    1.8899 H   0  0  0  0  0  0  0  0  0  0  0  0
   -6.6905    2.4578    1.9777 H   0  0  0  0  0  0  0  0  0  0  0  0
   -6.6844    0.0856    1.2485 H   0  0  0  0  0  0  0  0  0  0  0  0
   -4.6142   -0.9630    0.4481 H   0  0  0  0  0  0  0  0  0  0  0  0
   -2.1407   -0.5605   -2.4132 H   0  0  0  0  0  0  0  0  0  0  0  0
   -3.7673   -0.7877   -1.7462 H   0  0  0  0  0  0  0  0  0  0  0  0
   -2.7602   -2.1924   -2.0715 H   0  0  0  0  0  0  0  0  0  0  0  0
  1  2  1  0
  2  3  2  0
  3  4  1  0
  4  5  1  0
  5  6  2  0
  5  7  1  0
  7  8  1  0
  8  9  1  0
  9 10  2  0
 10 11  1  0
 11 12  1  0
 12 13  2  0
 12 14  1  0
 11 15  2  0
  3 16  1  0
 16 17  2  0
 16 18  1  0
 18 19  1  0
 19 20  2  0
 20 21  1  0
 21 22  2  0
 22 23  1  0
 23 24  2  0
 18 25  1  0
 25 26  1  0
 25  2  1  0
 15  8  1  0
 24 19  1  0
  1 27  1  0
  1 28  1  0
  1 29  1  0
  4 30  1  0
  7 31  1  0
  7 32  1  0
  9 33  1  0
 10 34  1  0
 20 35  1  0
 21 36  1  0
 22 37  1  0
 23 38  1  0
 24 39  1  0
 26 40  1  0
 26 41  1  0
 26 42  1  0
M  CHG  2  12   1  14  -1
M  END
$$$$
