
     RDKit          3D

 33 34  0  0  0  0  0  0  0  0999 V2000
   -1.1749    2.3534    1.1906 C   0  0  0  0  0  0  0  0  0  0  0  0
   -1.8355    1.8390   -0.0817 C   0  0  0  0  0  0  0  0  0  0  0  0
   -1.6044    0.4045   -0.3426 N   0  0  0  0  0  0  0  0  0  0  0  0
   -2.2780   -0.5632    0.5386 C   0  0  0  0  0  0  0  0  0  0  0  0
   -3.7669   -0.6290    0.2187 C   0  0  0  0  0  0  0  0  0  0  0  0
   -0.2576    0.1068   -0.6952 C   0  0  0  0  0  0  0  0  0  0  0  0
    0.1008    0.4257   -2.0225 C   0  0  0  0  0  0  0  0  0  0  0  0
    1.3746    0.1747   -2.5023 C   0  0  0  0  0  0  0  0  0  0  0  0
    2.3036   -0.4029   -1.6389 C   0  0  0  0  0  0  0  0  0  0  0  0
    3.6222   -0.6589   -2.1885 N   0  0  0  0  0  4  0  0  0  0  0  0
    4.2674    0.3227   -2.5800 O   0  0  0  0  0  0  0  0  0  0  0  0
    3.9975   -1.8374   -2.2435 O   0  0  0  0  0  1  0  0  0  0  0  0
    2.0094   -0.7255   -0.2898 C   0  0  0  0  0  0  0  0  0  0  0  0
    2.9462   -1.2762    0.6223 C   0  0  0  0  0  0  0  0  0  0  0  0
    2.5919   -1.5492    1.9349 C   0  0  0  0  0  0  0  0  0  0  0  0
    1.3051   -1.2607    2.3153 C   0  0  0  0  0  0  0  0  0  0  0  0
    0.3846   -0.7342    1.4826 N   0  0  0  0  0  0  0  0  0  0  0  0
    0.7022   -0.4658    0.1912 C   0  0  0  0  0  0  0  0  0  0  0  0
   -1.5167    1.8088    2.0753 H   0  0  0  0  0  0  0  0  0  0  0  0
   -1.4214    3.4104    1.3355 H   0  0  0  0  0  0  0  0  0  0  0  0
   -0.0848    2.2740    1.1417 H   0  0  0  0  0  0  0  0  0  0  0  0
   -2.9131    2.0258   -0.0180 H   0  0  0  0  0  0  0  0  0  0  0  0
   -1.4903    2.4391   -0.9330 H   0  0  0  0  0  0  0  0  0  0  0  0
   -1.8802   -1.5733    0.3765 H   0  0  0  0  0  0  0  0  0  0  0  0
   -2.1462   -0.3128    1.5962 H   0  0  0  0  0  0  0  0  0  0  0  0
   -4.2423   -1.4248    0.8011 H   0  0  0  0  0  0  0  0  0  0  0  0
   -4.2750    0.3086    0.4627 H   0  0  0  0  0  0  0  0  0  0  0  0
   -3.9317   -0.8369   -0.8438 H   0  0  0  0  0  0  0  0  0  0  0  0
   -0.6466    0.8554   -2.6872 H   0  0  0  0  0  0  0  0  0  0  0  0
    1.6279    0.4196   -3.5309 H   0  0  0  0  0  0  0  0  0  0  0  0
    3.9683   -1.4992    0.3211 H   0  0  0  0  0  0  0  0  0  0  0  0
    3.3026   -1.9719    2.6357 H   0  0  0  0  0  0  0  0  0  0  0  0
    0.9612   -1.4464    3.3286 H   0  0  0  0  0  0  0  0  0  0  0  0
  1  2  1  0
  2  3  1  0
  3  4  1  0
  4  5  1  0
  3  6  1  0
  6  7  2  0
  7  8  1  0
  8  9  2  0
  9 10  1  0
 10 11  2  0
 10 12  1  0
  9 13  1  0
 13 14  2  0
 14 15  1  0
 15 16  2  0
 16 17  1  0
 17 18  2  0
 18  6  1  0
 18 13  1  0
  1 19  1  0
  1 20  1  0
  1 21  1  0
  2 22  1  0
  2 23  1  0
  4 24  1  0
  4 25  1  0
  5 26  1  0
  5 27  1  0
  5 28  1  0
  7 29  1  0
  8 30  1  0
 14 31  1  0
 15 32  1  0
 16 33  1  0
M  CHG  2  10   1  12  -1
M  END
$$$$
