
     RDKit          3D

 36 38  0  0  0  0  0  0  0  0999 V2000
   -5.7429    0.4769    0.1099 C   0  0  0  0  0  0  0  0  0  0  0  0
   -4.2693    0.7049   -0.0760 C   0  0  0  0  0  0  0  0  0  0  0  0
   -3.7951    1.9815   -0.4266 C   0  0  0  0  0  0  0  0  0  0  0  0
   -2.4289    2.2182   -0.5758 C   0  0  0  0  0  0  0  0  0  0  0  0
   -1.5501    1.1681   -0.3577 C   0  0  0  0  0  0  0  0  0  0  0  0
   -1.9924   -0.1202    0.0106 C   0  0  0  0  0  0  0  0  0  0  0  0
   -3.3591   -0.3428    0.1539 C   0  0  0  0  0  0  0  0  0  0  0  0
   -0.9467   -1.0521    0.2003 N   0  0  0  0  0  0  0  0  0  0  0  0
   -1.2850   -2.4536    0.3822 C   0  0  0  0  0  0  0  0  0  0  0  0
    0.3006   -0.4945   -0.0886 C   0  0  0  0  0  0  0  0  0  0  0  0
    1.4885   -1.1278   -0.0560 C   0  0  0  0  0  0  0  0  0  0  0  0
    2.7854   -0.5174   -0.3634 C   0  0  0  0  0  0  0  0  0  0  0  0
    3.2864   -0.5920   -1.6686 C   0  0  0  0  0  0  0  0  0  0  0  0
    4.5047   -0.0036   -1.9801 C   0  0  0  0  0  0  0  0  0  0  0  0
    5.2085    0.6568   -0.9860 C   0  0  0  0  0  0  0  0  0  0  0  0
    4.6846    0.7120    0.2995 C   0  0  0  0  0  0  0  0  0  0  0  0
    3.5014    0.1250    0.6007 N   0  0  0  0  0  4  0  0  0  0  0  0
    2.9964    0.2223    1.9856 C   0  0  0  0  0  0  0  0  0  0  0  0
    0.2283    1.2439   -0.5114 S   0  0  0  0  0  0  0  0  0  0  0  0
   -6.0226    0.6729    1.1495 H   0  0  0  0  0  0  0  0  0  0  0  0
   -6.0129   -0.5539   -0.1423 H   0  0  0  0  0  0  0  0  0  0  0  0
   -6.3256    1.1340   -0.5442 H   0  0  0  0  0  0  0  0  0  0  0  0
   -4.4965    2.7984   -0.5893 H   0  0  0  0  0  0  0  0  0  0  0  0
   -2.0706    3.2029   -0.8581 H   0  0  0  0  0  0  0  0  0  0  0  0
   -3.7420   -1.3165    0.4426 H   0  0  0  0  0  0  0  0  0  0  0  0
   -1.9795   -2.5874    1.2190 H   0  0  0  0  0  0  0  0  0  0  0  0
   -0.4068   -3.0621    0.6175 H   0  0  0  0  0  0  0  0  0  0  0  0
   -1.7379   -2.8637   -0.5271 H   0  0  0  0  0  0  0  0  0  0  0  0
    1.5457   -2.1815    0.1955 H   0  0  0  0  0  0  0  0  0  0  0  0
    2.7205   -1.0978   -2.4497 H   0  0  0  0  0  0  0  0  0  0  0  0
    4.8961   -0.0523   -2.9953 H   0  0  0  0  0  0  0  0  0  0  0  0
    6.1606    1.1327   -1.2123 H   0  0  0  0  0  0  0  0  0  0  0  0
    5.2107    1.2301    1.0969 H   0  0  0  0  0  0  0  0  0  0  0  0
    3.7946    0.5722    2.6457 H   0  0  0  0  0  0  0  0  0  0  0  0
    2.1702    0.9362    1.9986 H   0  0  0  0  0  0  0  0  0  0  0  0
    2.6806   -0.7698    2.3177 H   0  0  0  0  0  0  0  0  0  0  0  0
  1  2  1  0
  2  3  2  0
  3  4  1  0
  4  5  2  0
  5  6  1  0
  6  7  2  0
  6  8  1  0
  8  9  1  0
  8 10  1  0
 10 11  2  3
 11 12  1  0
 12 13  2  0
 13 14  1  0
 14 15  2  0
 15 16  1  0
 16 17  2  0
 17 18  1  0
 10 19  1  0
  7  2  1  0
 17 12  1  0
 19  5  1  0
  1 20  1  0
  1 21  1  0
  1 22  1  0
  3 23  1  0
  4 24  1  0
  7 25  1  0
  9 26  1  0
  9 27  1  0
  9 28  1  0
 11 29  1  0
 13 30  1  0
 14 31  1  0
 15 32  1  0
 16 33  1  0
 18 34  1  0
 18 35  1  0
 18 36  1  0
M  CHG  1  17   1
M  END
$$$$
