
     RDKit          3D

 48 49  0  0  0  0  0  0  0  0999 V2000
   -7.5044   -1.2788    1.9455 C   0  0  0  0  0  0  0  0  0  0  0  0
   -6.8180   -0.4773    0.8786 C   0  0  0  0  0  0  0  0  0  0  0  0
   -7.5574    0.3126   -0.0007 C   0  0  0  0  0  0  0  0  0  0  0  0
   -6.9081    1.0769   -0.9684 C   0  0  0  0  0  0  0  0  0  0  0  0
   -5.5061    1.0746   -1.0713 C   0  0  0  0  0  0  0  0  0  0  0  0
   -4.8724    1.9233   -2.1413 C   0  0  0  0  0  0  0  0  0  0  0  0
   -4.7469    0.2902   -0.1751 C   0  0  0  0  0  0  0  0  0  0  0  0
   -3.3357    0.3044   -0.2864 N   0  0  0  0  0  0  0  0  0  0  0  0
   -2.4086   -0.3842    0.4785 C   0  0  0  0  0  0  0  0  0  0  0  0
   -2.6359   -1.1449    1.4119 O   0  0  0  0  0  0  0  0  0  0  0  0
   -0.9916   -0.0895    0.0230 C   0  0  0  0  0  0  0  0  0  0  0  0
    0.0359   -0.8487    0.8536 C   0  0  0  0  0  0  0  0  0  0  0  0
    1.4487   -0.5632    0.3898 C   0  0  0  0  0  0  0  0  0  0  0  0
    1.6986    0.1868   -0.5493 O   0  0  0  0  0  0  0  0  0  0  0  0
    2.3889   -1.2507    1.1588 N   0  0  0  0  0  0  0  0  0  0  0  0
    3.7302   -1.3096    0.8750 N   0  0  0  0  0  0  0  0  0  0  0  0
    4.3004   -0.2240    0.4491 C   0  0  0  0  0  0  0  0  0  0  0  0
    5.7284   -0.2125    0.0633 C   0  0  0  0  0  0  0  0  0  0  0  0
    6.2779    0.9966   -0.3768 C   0  0  0  0  0  0  0  0  0  0  0  0
    7.6295    1.0391   -0.7511 C   0  0  0  0  0  0  0  0  0  0  0  0
    8.2144    2.3054   -1.2110 N   0  0  0  0  0  4  0  0  0  0  0  0
    7.4938    3.3130   -1.1841 O   0  0  0  0  0  0  0  0  0  0  0  0
    9.3916    2.2912   -1.5959 O   0  0  0  0  0  1  0  0  0  0  0  0
    8.4289   -0.1112   -0.6899 C   0  0  0  0  0  0  0  0  0  0  0  0
    7.8706   -1.3127   -0.2507 C   0  0  0  0  0  0  0  0  0  0  0  0
    6.5283   -1.3622    0.1224 C   0  0  0  0  0  0  0  0  0  0  0  0
    6.0593   -2.5776    0.5376 O   0  0  0  0  0  0  0  0  0  0  0  0
   -5.4171   -0.4711    0.7918 C   0  0  0  0  0  0  0  0  0  0  0  0
   -6.9577   -2.2056    2.1487 H   0  0  0  0  0  0  0  0  0  0  0  0
   -8.5155   -1.5611    1.6340 H   0  0  0  0  0  0  0  0  0  0  0  0
   -7.5699   -0.6948    2.8685 H   0  0  0  0  0  0  0  0  0  0  0  0
   -8.6429    0.3380    0.0605 H   0  0  0  0  0  0  0  0  0  0  0  0
   -7.5094    1.6801   -1.6457 H   0  0  0  0  0  0  0  0  0  0  0  0
   -4.2240    2.6810   -1.6899 H   0  0  0  0  0  0  0  0  0  0  0  0
   -4.2892    1.2989   -2.8260 H   0  0  0  0  0  0  0  0  0  0  0  0
   -5.6241    2.4495   -2.7397 H   0  0  0  0  0  0  0  0  0  0  0  0
   -2.9553    0.8890   -1.0181 H   0  0  0  0  0  0  0  0  0  0  0  0
   -0.9021   -0.3690   -1.0339 H   0  0  0  0  0  0  0  0  0  0  0  0
   -0.8178    0.9904    0.1042 H   0  0  0  0  0  0  0  0  0  0  0  0
   -0.0467   -0.5645    1.9096 H   0  0  0  0  0  0  0  0  0  0  0  0
   -0.1421   -1.9282    0.7777 H   0  0  0  0  0  0  0  0  0  0  0  0
    2.0508   -2.0441    1.6986 H   0  0  0  0  0  0  0  0  0  0  0  0
    3.7689    0.7410    0.3787 H   0  0  0  0  0  0  0  0  0  0  0  0
    5.6584    1.8898   -0.4295 H   0  0  0  0  0  0  0  0  0  0  0  0
    9.4784   -0.0901   -0.9778 H   0  0  0  0  0  0  0  0  0  0  0  0
    8.4792   -2.2129   -0.1993 H   0  0  0  0  0  0  0  0  0  0  0  0
    5.1058   -2.4699    0.7492 H   0  0  0  0  0  0  0  0  0  0  0  0
   -4.8681   -1.0803    1.5032 H   0  0  0  0  0  0  0  0  0  0  0  0
  1  2  1  0
  2  3  2  0
  3  4  1  0
  4  5  2  0
  5  6  1  0
  5  7  1  0
  7  8  1  0
  8  9  1  0
  9 10  2  0
  9 11  1  0
 11 12  1  0
 12 13  1  0
 13 14  2  0
 13 15  1  0
 15 16  1  0
 16 17  2  3
 17 18  1  0
 18 19  2  0
 19 20  1  0
 20 21  1  0
 21 22  2  0
 21 23  1  0
 20 24  2  0
 24 25  1  0
 25 26  2  0
 26 27  1  0
  7 28  2  0
 28  2  1  0
 26 18  1  0
  1 29  1  0
  1 30  1  0
  1 31  1  0
  3 32  1  0
  4 33  1  0
  6 34  1  0
  6 35  1  0
  6 36  1  0
  8 37  1  0
 11 38  1  0
 11 39  1  0
 12 40  1  0
 12 41  1  0
 15 42  1  0
 17 43  1  0
 19 44  1  0
 24 45  1  0
 25 46  1  0
 27 47  1  0
 28 48  1  0
M  CHG  2  21   1  23  -1
M  END
$$$$
