
     RDKit          3D

 57 60  0  0  0  0  0  0  0  0999 V2000
   -0.1870    2.3594    4.1530 C   0  0  0  0  0  0  0  0  0  0  0  0
   -0.8393    1.2331    3.5646 O   0  0  0  0  0  0  0  0  0  0  0  0
   -0.0394    0.5351    2.7042 C   0  0  0  0  0  0  0  0  0  0  0  0
    1.2064    0.0494    3.1135 C   0  0  0  0  0  0  0  0  0  0  0  0
    1.9961   -0.6969    2.2345 C   0  0  0  0  0  0  0  0  0  0  0  0
    1.5461   -0.9668    0.9374 C   0  0  0  0  0  0  0  0  0  0  0  0
    2.4262   -1.7517    0.0308 C   0  0  0  0  0  0  0  0  0  0  0  0
    3.1919   -2.5865    0.4978 O   0  0  0  0  0  0  0  0  0  0  0  0
    2.3388   -1.4483   -1.3095 N   0  0  0  0  0  0  0  0  0  0  0  0
    3.2453   -2.0294   -2.2730 C   0  0  0  0  0  0  0  0  0  0  0  0
    4.4174   -1.1151   -2.5292 C   0  0  0  0  0  0  0  0  0  0  0  0
    5.5355   -1.1440   -1.6599 C   0  0  0  0  0  0  0  0  0  0  0  0
    6.6333   -0.3015   -1.8667 C   0  0  0  0  0  0  0  0  0  0  0  0
    6.5866    0.5589   -2.9398 C   0  0  0  0  0  0  0  0  0  0  0  0
    5.5029    0.6006   -3.7870 C   0  0  0  0  0  0  0  0  0  0  0  0
    4.4026   -0.2149   -3.6075 C   0  0  0  0  0  0  0  0  0  0  0  0
    5.6578    1.5148   -4.7829 O   0  0  0  0  0  0  0  0  0  0  0  0
    6.9675    2.0349   -4.4718 C   0  0  0  0  0  0  0  0  0  0  0  0
    7.5566    1.4441   -3.2949 O   0  0  0  0  0  0  0  0  0  0  0  0
    0.2840   -0.5221    0.5355 C   0  0  0  0  0  0  0  0  0  0  0  0
   -0.5060    0.2239    1.4236 C   0  0  0  0  0  0  0  0  0  0  0  0
   -2.0892    0.8087    0.8686 S   0  0  0  0  0  6  0  0  0  0  0  0
   -2.3313    0.2157   -0.4320 O   0  0  0  0  0  0  0  0  0  0  0  0
   -2.0886    2.2485    1.0208 O   0  0  0  0  0  0  0  0  0  0  0  0
   -3.1890    0.1185    1.9538 N   0  0  0  0  0  0  0  0  0  0  0  0
   -3.2821   -1.3502    1.9709 C   0  0  0  0  0  0  0  0  0  0  0  0
   -4.4812    0.8260    2.1099 C   0  0  0  0  0  0  0  0  0  0  0  0
   -5.6014    0.3776    1.1976 C   0  0  0  0  0  0  0  0  0  0  0  0
   -6.6382   -0.4343    1.6854 C   0  0  0  0  0  0  0  0  0  0  0  0
   -7.6715   -0.8514    0.8423 C   0  0  0  0  0  0  0  0  0  0  0  0
   -7.6782   -0.4658   -0.4971 C   0  0  0  0  0  0  0  0  0  0  0  0
   -6.6538    0.3395   -0.9937 C   0  0  0  0  0  0  0  0  0  0  0  0
   -5.6228    0.7616   -0.1513 C   0  0  0  0  0  0  0  0  0  0  0  0
    0.4239    2.0466    5.0065 H   0  0  0  0  0  0  0  0  0  0  0  0
   -0.9613    3.0368    4.5234 H   0  0  0  0  0  0  0  0  0  0  0  0
    0.4193    2.9075    3.4212 H   0  0  0  0  0  0  0  0  0  0  0  0
    1.5701    0.2273    4.1216 H   0  0  0  0  0  0  0  0  0  0  0  0
    2.9654   -1.0676    2.5633 H   0  0  0  0  0  0  0  0  0  0  0  0
    1.8399   -0.6179   -1.5997 H   0  0  0  0  0  0  0  0  0  0  0  0
    2.6780   -2.1909   -3.1970 H   0  0  0  0  0  0  0  0  0  0  0  0
    3.5968   -3.0101   -1.9309 H   0  0  0  0  0  0  0  0  0  0  0  0
    5.5442   -1.8306   -0.8108 H   0  0  0  0  0  0  0  0  0  0  0  0
    7.4906   -0.3229   -1.2030 H   0  0  0  0  0  0  0  0  0  0  0  0
    3.5617   -0.1568   -4.2894 H   0  0  0  0  0  0  0  0  0  0  0  0
    7.6295    1.8499   -5.3244 H   0  0  0  0  0  0  0  0  0  0  0  0
    6.8863    3.1174   -4.3219 H   0  0  0  0  0  0  0  0  0  0  0  0
   -0.0951   -0.7683   -0.4528 H   0  0  0  0  0  0  0  0  0  0  0  0
   -2.3026   -1.7962    2.1695 H   0  0  0  0  0  0  0  0  0  0  0  0
   -3.9462   -1.6772    2.7795 H   0  0  0  0  0  0  0  0  0  0  0  0
   -3.6655   -1.7405    1.0239 H   0  0  0  0  0  0  0  0  0  0  0  0
   -4.3524    1.9107    2.0079 H   0  0  0  0  0  0  0  0  0  0  0  0
   -4.7920    0.6969    3.1554 H   0  0  0  0  0  0  0  0  0  0  0  0
   -6.6505   -0.7467    2.7284 H   0  0  0  0  0  0  0  0  0  0  0  0
   -8.4718   -1.4777    1.2298 H   0  0  0  0  0  0  0  0  0  0  0  0
   -8.4791   -0.7925   -1.1550 H   0  0  0  0  0  0  0  0  0  0  0  0
   -6.6536    0.6409   -2.0390 H   0  0  0  0  0  0  0  0  0  0  0  0
   -4.8316    1.3902   -0.5591 H   0  0  0  0  0  0  0  0  0  0  0  0
  1  2  1  0
  2  3  1  0
  3  4  2  0
  4  5  1  0
  5  6  2  0
  6  7  1  0
  7  8  2  0
  7  9  1  0
  9 10  1  0
 10 11  1  0
 11 12  2  0
 12 13  1  0
 13 14  2  0
 14 15  1  0
 15 16  2  0
 15 17  1  0
 17 18  1  0
 18 19  1  0
  6 20  1  0
 20 21  2  0
 21 22  1  0
 22 23  2  0
 22 24  2  0
 22 25  1  0
 25 26  1  0
 25 27  1  0
 27 28  1  0
 28 29  2  0
 29 30  1  0
 30 31  2  0
 31 32  1  0
 32 33  2  0
 21  3  1  0
 33 28  1  0
 16 11  1  0
 19 14  1  0
  1 34  1  0
  1 35  1  0
  1 36  1  0
  4 37  1  0
  5 38  1  0
  9 39  1  0
 10 40  1  0
 10 41  1  0
 12 42  1  0
 13 43  1  0
 16 44  1  0
 18 45  1  0
 18 46  1  0
 20 47  1  0
 26 48  1  0
 26 49  1  0
 26 50  1  0
 27 51  1  0
 27 52  1  0
 29 53  1  0
 30 54  1  0
 31 55  1  0
 32 56  1  0
 33 57  1  0
M  END
$$$$
