
     RDKit          3D

 46 48  0  0  0  0  0  0  0  0999 V2000
   -1.9234    0.4278   -1.4217 C   0  0  0  0  0  0  0  0  0  0  0  0
   -2.2267    1.1710   -0.1296 C   0  0  0  0  0  0  0  0  0  0  0  0
   -2.5844    0.2672    0.9761 N   0  0  0  0  0  4  0  0  0  0  0  0
   -1.7718   -0.0218    1.9885 C   0  0  0  0  0  0  0  0  0  0  0  0
   -0.4387    0.4082    2.2265 C   0  0  0  0  0  0  0  0  0  0  0  0
    0.5372    0.2231    1.3252 C   0  0  0  0  0  0  0  0  0  0  0  0
    1.9123    0.6347    1.5326 C   0  0  0  0  0  0  0  0  0  0  0  0
    2.9212    0.5470    0.6464 C   0  0  0  0  0  0  0  0  0  0  0  0
    2.8977   -0.0594   -0.6114 N   0  0  0  0  0  0  0  0  0  0  0  0
    2.2462   -1.2918   -0.8028 C   0  0  0  0  0  0  0  0  0  0  0  0
    2.4902   -2.3354    0.2690 C   0  0  0  0  0  0  0  0  0  0  0  0
    1.5050   -1.5476   -1.7543 O   0  0  0  0  0  0  0  0  0  0  0  0
    3.5788    0.5473   -1.7393 C   0  0  0  0  0  0  0  0  0  0  0  0
    4.0154    1.8843   -1.6892 C   0  0  0  0  0  0  0  0  0  0  0  0
    4.6828    2.4736   -2.7693 C   0  0  0  0  0  0  0  0  0  0  0  0
    4.9274    1.7392   -3.9239 C   0  0  0  0  0  0  0  0  0  0  0  0
    4.5028    0.4177   -3.9995 C   0  0  0  0  0  0  0  0  0  0  0  0
    3.8354   -0.1714   -2.9192 C   0  0  0  0  0  0  0  0  0  0  0  0
   -2.5592   -1.0281    3.1383 S   0  0  0  0  0  0  0  0  0  0  0  0
   -4.0088   -1.0705    2.2198 C   0  0  0  0  0  0  0  0  0  0  0  0
   -5.2090   -1.7384    2.5102 C   0  0  0  0  0  0  0  0  0  0  0  0
   -6.2709   -1.6059    1.6130 C   0  0  0  0  0  0  0  0  0  0  0  0
   -6.1429   -0.8303    0.4661 C   0  0  0  0  0  0  0  0  0  0  0  0
   -4.9426   -0.1673    0.1816 C   0  0  0  0  0  0  0  0  0  0  0  0
   -3.8553   -0.2982    1.0716 C   0  0  0  0  0  0  0  0  0  0  0  0
   -1.1435   -0.3241   -1.2813 H   0  0  0  0  0  0  0  0  0  0  0  0
   -2.8067   -0.0929   -1.8017 H   0  0  0  0  0  0  0  0  0  0  0  0
   -1.5907    1.1297   -2.1924 H   0  0  0  0  0  0  0  0  0  0  0  0
   -3.0550    1.8726   -0.2877 H   0  0  0  0  0  0  0  0  0  0  0  0
   -1.3732    1.7970    0.1491 H   0  0  0  0  0  0  0  0  0  0  0  0
   -0.2099    0.8332    3.2028 H   0  0  0  0  0  0  0  0  0  0  0  0
    0.3079   -0.2425    0.3732 H   0  0  0  0  0  0  0  0  0  0  0  0
    2.1274    1.1537    2.4680 H   0  0  0  0  0  0  0  0  0  0  0  0
    3.8561    1.0532    0.8869 H   0  0  0  0  0  0  0  0  0  0  0  0
    2.6907   -3.2932   -0.2213 H   0  0  0  0  0  0  0  0  0  0  0  0
    1.6056   -2.4379    0.9012 H   0  0  0  0  0  0  0  0  0  0  0  0
    3.3608   -2.0963    0.8851 H   0  0  0  0  0  0  0  0  0  0  0  0
    3.8313    2.5115   -0.8221 H   0  0  0  0  0  0  0  0  0  0  0  0
    5.0095    3.5092   -2.7082 H   0  0  0  0  0  0  0  0  0  0  0  0
    5.4470    2.1946   -4.7634 H   0  0  0  0  0  0  0  0  0  0  0  0
    4.6921   -0.1629   -4.8997 H   0  0  0  0  0  0  0  0  0  0  0  0
    3.5390   -1.2113   -3.0309 H   0  0  0  0  0  0  0  0  0  0  0  0
   -5.3183   -2.3413    3.4091 H   0  0  0  0  0  0  0  0  0  0  0  0
   -7.2127   -2.1155    1.8178 H   0  0  0  0  0  0  0  0  0  0  0  0
   -6.9879   -0.7405   -0.2168 H   0  0  0  0  0  0  0  0  0  0  0  0
   -4.8883    0.4287   -0.7249 H   0  0  0  0  0  0  0  0  0  0  0  0
  1  2  1  0
  2  3  1  0
  3  4  2  0
  4  5  1  0
  5  6  2  3
  6  7  1  0
  7  8  2  3
  8  9  1  0
  9 10  1  0
 10 11  1  0
 10 12  2  0
  9 13  1  0
 13 14  2  0
 14 15  1  0
 15 16  2  0
 16 17  1  0
 17 18  2  0
  4 19  1  0
 19 20  1  0
 20 21  2  0
 21 22  1  0
 22 23  2  0
 23 24  1  0
 24 25  2  0
 25  3  1  0
 18 13  1  0
 25 20  1  0
  1 26  1  0
  1 27  1  0
  1 28  1  0
  2 29  1  0
  2 30  1  0
  5 31  1  0
  6 32  1  0
  7 33  1  0
  8 34  1  0
 11 35  1  0
 11 36  1  0
 11 37  1  0
 14 38  1  0
 15 39  1  0
 16 40  1  0
 17 41  1  0
 18 42  1  0
 21 43  1  0
 22 44  1  0
 23 45  1  0
 24 46  1  0
M  CHG  1   3   1
M  END
$$$$
