
     RDKit          3D

 87 91  0  0  0  0  0  0  0  0999 V2000
    2.7967    6.4436    1.1140 C   0  0  0  0  0  0  0  0  0  0  0  0
    2.3451    6.0392   -0.2796 C   0  0  0  0  0  0  0  0  0  0  0  0
    2.4988    4.5555   -0.5179 C   0  0  0  0  0  0  0  0  0  0  0  0
    3.1390    3.7884    0.1881 O   0  0  0  0  0  0  0  0  0  0  0  0
    1.8341    4.2120   -1.6548 O   0  0  0  0  0  0  0  0  0  0  0  0
    1.9127    2.8354   -2.0580 C   0  0  0  0  0  0  0  0  0  0  0  0
    0.5389    2.4149   -2.5845 C   0  0  1  0  0  0  0  0  0  0  0  0
    0.5526    1.0135   -3.2344 C   0  0  0  0  0  0  0  0  0  0  0  0
   -0.2810    0.0981   -2.3071 C   0  0  2  0  0  0  0  0  0  0  0  0
    0.5275   -0.2841   -1.1824 O   0  0  0  0  0  0  0  0  0  0  0  0
    1.5760   -1.1129   -1.4102 C   0  0  0  0  0  0  0  0  0  0  0  0
    1.9355   -1.5505   -2.4897 O   0  0  0  0  0  0  0  0  0  0  0  0
    2.1966   -1.4414   -0.1126 C   0  0  0  0  0  0  0  0  0  0  0  0
    3.0683   -2.4549   -0.0384 C   0  0  0  0  0  0  0  0  0  0  0  0
    3.7275   -2.8760    1.2030 C   0  0  0  0  0  0  0  0  0  0  0  0
    5.0834   -3.2260    1.1642 C   0  0  0  0  0  0  0  0  0  0  0  0
    5.7361   -3.6666    2.3194 C   0  0  0  0  0  0  0  0  0  0  0  0
    5.0342   -3.7785    3.5198 C   0  0  0  0  0  0  0  0  0  0  0  0
    3.6818   -3.4428    3.5658 C   0  0  0  0  0  0  0  0  0  0  0  0
    3.0298   -2.9999    2.4110 C   0  0  0  0  0  0  0  0  0  0  0  0
   -1.0062   -1.0376   -3.0835 C   0  0  0  0  0  0  0  0  0  0  0  0
   -1.5602   -0.7936   -4.1609 O   0  0  0  0  0  0  0  0  0  0  0  0
   -1.0068   -2.4739   -2.6104 C   0  0  0  0  0  0  0  0  0  0  0  0
   -0.6895   -3.3992   -3.7694 C   0  0  0  0  0  0  0  0  0  0  0  0
   -1.2390   -3.0174   -1.3931 C   0  0  0  0  0  0  0  0  0  0  0  0
   -1.5696   -2.4870   -0.0541 C   0  0  0  0  0  0  0  0  0  0  0  0
   -2.9927   -2.2616    0.4437 C   0  0  2  0  0  0  0  0  0  0  0  0
   -3.3560   -1.1379    1.4000 C   0  0  0  0  0  0  0  0  0  0  0  0
   -4.2375   -0.0156    0.8071 C   0  0  0  0  0  0  0  0  0  0  0  0
   -3.6654    0.7351   -0.3805 C   0  0  2  0  0  0  0  0  0  0  0  0
   -4.4342    1.9189   -0.8687 C   0  0  0  0  0  0  0  0  0  0  0  0
   -3.2866   -0.1772   -1.3949 O   0  0  0  0  0  0  0  0  0  0  0  0
   -2.2071    0.5561   -0.7773 C   0  0  1  0  0  0  0  0  0  0  0  0
   -1.3724    1.1279   -1.8650 C   0  0  1  0  0  0  0  0  0  0  0  0
   -0.5807    2.3875   -1.5126 C   0  0  1  0  0  0  0  0  0  0  0  0
   -0.0259    2.2846   -0.1842 O   0  0  0  0  0  0  0  0  0  0  0  0
   -0.6630    3.0103    0.7855 C   0  0  0  0  0  0  0  0  0  0  0  0
   -1.6387    3.7247    0.6035 O   0  0  0  0  0  0  0  0  0  0  0  0
   -0.0057    2.7596    2.1177 C   0  0  0  0  0  0  0  0  0  0  0  0
   -0.5227    3.7226    3.1751 C   0  0  0  0  0  0  0  0  0  0  0  0
   -2.2087   -3.4536    0.9579 C   0  0  0  0  0  0  0  0  0  0  0  0
   -2.7491   -4.8104    0.5568 C   0  0  0  0  0  0  0  0  0  0  0  0
   -1.6126   -3.4555    2.3461 C   0  0  0  0  0  0  0  0  0  0  0  0
    3.8496    6.1940    1.2779 H   0  0  0  0  0  0  0  0  0  0  0  0
    2.2066    5.9256    1.8775 H   0  0  0  0  0  0  0  0  0  0  0  0
    2.6746    7.5233    1.2577 H   0  0  0  0  0  0  0  0  0  0  0  0
    2.9405    6.5674   -1.0300 H   0  0  0  0  0  0  0  0  0  0  0  0
    1.2916    6.3061   -0.4039 H   0  0  0  0  0  0  0  0  0  0  0  0
    2.2441    2.1684   -1.2494 H   0  0  0  0  0  0  0  0  0  0  0  0
    2.6612    2.7769   -2.8593 H   0  0  0  0  0  0  0  0  0  0  0  0
    0.2388    3.1311   -3.3639 H   0  0  0  0  0  0  0  0  0  0  0  0
    0.0909    1.0871   -4.2272 H   0  0  0  0  0  0  0  0  0  0  0  0
    1.5756    0.6657   -3.3984 H   0  0  0  0  0  0  0  0  0  0  0  0
    1.9076   -0.8471    0.7449 H   0  0  0  0  0  0  0  0  0  0  0  0
    3.3429   -3.0157   -0.9305 H   0  0  0  0  0  0  0  0  0  0  0  0
    5.6436   -3.1551    0.2352 H   0  0  0  0  0  0  0  0  0  0  0  0
    6.7900   -3.9338    2.2747 H   0  0  0  0  0  0  0  0  0  0  0  0
    5.5399   -4.1341    4.4147 H   0  0  0  0  0  0  0  0  0  0  0  0
    3.1292   -3.5342    4.4934 H   0  0  0  0  0  0  0  0  0  0  0  0
    1.9689   -2.7672    2.4618 H   0  0  0  0  0  0  0  0  0  0  0  0
    0.1924   -3.0447   -4.3123 H   0  0  0  0  0  0  0  0  0  0  0  0
   -0.4628   -4.4168   -3.4400 H   0  0  0  0  0  0  0  0  0  0  0  0
   -1.5294   -3.4486   -4.4682 H   0  0  0  0  0  0  0  0  0  0  0  0
   -1.1281   -4.1047   -1.3787 H   0  0  0  0  0  0  0  0  0  0  0  0
   -0.7879   -1.8608    0.3561 H   0  0  0  0  0  0  0  0  0  0  0  0
   -3.8082   -2.4673   -0.2456 H   0  0  0  0  0  0  0  0  0  0  0  0
   -3.9110   -1.5766    2.2396 H   0  0  0  0  0  0  0  0  0  0  0  0
   -2.4520   -0.6938    1.8353 H   0  0  0  0  0  0  0  0  0  0  0  0
   -4.4375    0.7092    1.6080 H   0  0  0  0  0  0  0  0  0  0  0  0
   -5.2064   -0.4404    0.5198 H   0  0  0  0  0  0  0  0  0  0  0  0
   -4.4137    2.7113   -0.1112 H   0  0  0  0  0  0  0  0  0  0  0  0
   -4.0212    2.3313   -1.7957 H   0  0  0  0  0  0  0  0  0  0  0  0
   -5.4801    1.6465   -1.0573 H   0  0  0  0  0  0  0  0  0  0  0  0
   -1.5856    0.1320   -0.0038 H   0  0  0  0  0  0  0  0  0  0  0  0
   -2.0069    1.3675   -2.7321 H   0  0  0  0  0  0  0  0  0  0  0  0
   -1.2016    3.2874   -1.6151 H   0  0  0  0  0  0  0  0  0  0  0  0
    1.0751    2.8868    2.0145 H   0  0  0  0  0  0  0  0  0  0  0  0
   -0.2168    1.7303    2.4213 H   0  0  0  0  0  0  0  0  0  0  0  0
   -1.6077    3.6144    3.3057 H   0  0  0  0  0  0  0  0  0  0  0  0
   -0.3250    4.7632    2.8813 H   0  0  0  0  0  0  0  0  0  0  0  0
   -0.0430    3.5371    4.1445 H   0  0  0  0  0  0  0  0  0  0  0  0
   -3.4578   -5.1646    1.3144 H   0  0  0  0  0  0  0  0  0  0  0  0
   -3.2768   -4.7876   -0.4043 H   0  0  0  0  0  0  0  0  0  0  0  0
   -1.9347   -5.5437    0.4788 H   0  0  0  0  0  0  0  0  0  0  0  0
   -0.7935   -4.1830    2.4010 H   0  0  0  0  0  0  0  0  0  0  0  0
   -1.2078   -2.4824    2.6308 H   0  0  0  0  0  0  0  0  0  0  0  0
   -2.3711   -3.7344    3.0838 H   0  0  0  0  0  0  0  0  0  0  0  0
  1  2  1  0
  2  3  1  0
  3  4  2  0
  3  5  1  0
  5  6  1  0
  6  7  1  0
  7  8  1  0
  8  9  1  0
  9 10  1  1
 10 11  1  0
 11 12  2  0
 11 13  1  0
 13 14  2  0
 14 15  1  0
 15 16  2  0
 16 17  1  0
 17 18  2  0
 18 19  1  0
 19 20  2  0
  9 21  1  0
 21 22  2  0
 21 23  1  0
 23 24  1  0
 23 25  2  3
 25 26  1  0
 26 27  1  0
 27 28  1  0
 28 29  1  0
 29 30  1  0
 30 31  1  6
 30 32  1  0
 32 33  1  0
 33 34  1  0
 34 35  1  0
 35 36  1  0
 36 37  1  0
 37 38  2  0
 37 39  1  0
 39 40  1  0
 27 41  1  0
 41 42  1  0
 41 43  1  0
 35  7  1  0
 34  9  1  0
 20 15  1  0
 41 26  1  0
 33 30  1  0
  1 44  1  0
  1 45  1  0
  1 46  1  0
  2 47  1  0
  2 48  1  0
  6 49  1  0
  6 50  1  0
  7 51  1  6
  8 52  1  0
  8 53  1  0
 13 54  1  0
 14 55  1  0
 16 56  1  0
 17 57  1  0
 18 58  1  0
 19 59  1  0
 20 60  1  0
 24 61  1  0
 24 62  1  0
 24 63  1  0
 25 64  1  0
 26 65  1  0
 27 66  1  6
 28 67  1  0
 28 68  1  0
 29 69  1  0
 29 70  1  0
 31 71  1  0
 31 72  1  0
 31 73  1  0
 33 74  1  1
 34 75  1  6
 35 76  1  1
 39 77  1  0
 39 78  1  0
 40 79  1  0
 40 80  1  0
 40 81  1  0
 42 82  1  0
 42 83  1  0
 42 84  1  0
 43 85  1  0
 43 86  1  0
 43 87  1  0
M  END
$$$$
