
     RDKit          3D

 31 32  0  0  0  0  0  0  0  0999 V2000
    1.9898   -2.8907    3.3868 C   0  0  0  0  0  0  0  0  0  0  0  0
    0.5611   -2.2651    2.4626 S   0  0  0  0  0  0  0  0  0  0  0  0
    1.4020   -1.4116    1.1398 C   0  0  0  0  0  0  0  0  0  0  0  0
    2.2802   -2.0809    0.2810 C   0  0  0  0  0  0  0  0  0  0  0  0
    2.9079   -1.3944   -0.7601 C   0  0  0  0  0  0  0  0  0  0  0  0
    2.6553   -0.0368   -0.9511 C   0  0  0  0  0  0  0  0  0  0  0  0
    1.7762    0.6340   -0.1022 C   0  0  0  0  0  0  0  0  0  0  0  0
    1.4873    2.0175   -0.3277 N   0  0  0  0  0  0  0  0  0  0  0  0
    0.4147    2.3512   -1.6132 S   0  0  0  0  0  6  0  0  0  0  0  0
    0.2490    3.7885   -1.6713 O   0  0  0  0  0  0  0  0  0  0  0  0
    0.7606    1.5730   -2.7842 O   0  0  0  0  0  0  0  0  0  0  0  0
   -1.1623    1.7764   -1.1324 C   0  0  0  0  0  0  0  0  0  0  0  0
   -2.1554    1.2958   -1.9621 C   0  0  0  0  0  0  0  0  0  0  0  0
   -3.1777    0.9608   -1.1230 N   0  0  0  0  0  0  0  0  0  0  0  0
   -4.4505    0.4018   -1.5021 C   0  0  0  0  0  0  0  0  0  0  0  0
   -2.7886    1.2431    0.1568 C   0  0  0  0  0  0  0  0  0  0  0  0
   -1.5723    1.7411    0.1944 N   0  0  0  0  0  0  0  0  0  0  0  0
    1.1429   -0.0521    0.9360 C   0  0  0  0  0  0  0  0  0  0  0  0
    2.5327   -3.6409    2.8061 H   0  0  0  0  0  0  0  0  0  0  0  0
    2.6660   -2.0721    3.6485 H   0  0  0  0  0  0  0  0  0  0  0  0
    1.6390   -3.3594    4.3102 H   0  0  0  0  0  0  0  0  0  0  0  0
    2.4717   -3.1442    0.4010 H   0  0  0  0  0  0  0  0  0  0  0  0
    3.5846   -1.9187   -1.4301 H   0  0  0  0  0  0  0  0  0  0  0  0
    3.1390    0.4919   -1.7691 H   0  0  0  0  0  0  0  0  0  0  0  0
    1.1141    2.4951    0.4956 H   0  0  0  0  0  0  0  0  0  0  0  0
   -2.1957    1.1693   -3.0355 H   0  0  0  0  0  0  0  0  0  0  0  0
   -5.2405    1.0716   -1.1530 H   0  0  0  0  0  0  0  0  0  0  0  0
   -4.4985    0.3055   -2.5897 H   0  0  0  0  0  0  0  0  0  0  0  0
   -4.5480   -0.5820   -1.0361 H   0  0  0  0  0  0  0  0  0  0  0  0
   -3.4249    1.0664    1.0152 H   0  0  0  0  0  0  0  0  0  0  0  0
    0.4401    0.4660    1.5839 H   0  0  0  0  0  0  0  0  0  0  0  0
  1  2  1  0
  2  3  1  0
  3  4  2  0
  4  5  1  0
  5  6  2  0
  6  7  1  0
  7  8  1  0
  8  9  1  0
  9 10  2  0
  9 11  2  0
  9 12  1  0
 12 13  2  0
 13 14  1  0
 14 15  1  0
 14 16  1  0
 16 17  2  0
  7 18  2  0
 18  3  1  0
 17 12  1  0
  1 19  1  0
  1 20  1  0
  1 21  1  0
  4 22  1  0
  5 23  1  0
  6 24  1  0
  8 25  1  0
 13 26  1  0
 15 27  1  0
 15 28  1  0
 15 29  1  0
 16 30  1  0
 18 31  1  0
M  END
$$$$
