
     RDKit          3D

 46 49  0  0  0  0  0  0  0  0999 V2000
   -4.3813   -3.5185   -1.3491 C   0  0  0  0  0  0  0  0  0  0  0  0
   -3.7659   -2.2376   -1.3816 O   0  0  0  0  0  0  0  0  0  0  0  0
   -3.0808   -1.8514   -0.2625 C   0  0  0  0  0  0  0  0  0  0  0  0
   -2.9247   -2.5991    0.9046 C   0  0  0  0  0  0  0  0  0  0  0  0
   -2.1901   -2.0825    1.9760 C   0  0  0  0  0  0  0  0  0  0  0  0
   -1.6123   -0.8159    1.8882 C   0  0  0  0  0  0  0  0  0  0  0  0
   -1.7707   -0.0552    0.7268 C   0  0  0  0  0  0  0  0  0  0  0  0
   -1.1649    1.2653    0.6202 C   0  0  0  0  0  0  0  0  0  0  0  0
    0.1238    1.6269    0.2515 C   0  0  0  0  0  0  0  0  0  0  0  0
    1.2490    0.7650   -0.1005 C   0  0  0  0  0  0  0  0  0  0  0  0
    1.2055   -0.4599   -0.0241 O   0  0  0  0  0  0  0  0  0  0  0  0
    2.3681    1.4903   -0.5195 N   0  0  0  0  0  0  0  0  0  0  0  0
    3.6184    0.9241   -0.5249 N   0  0  0  0  0  0  0  0  0  0  0  0
    3.8778   -0.0674   -1.3333 C   0  0  0  0  0  0  0  0  0  0  0  0
    2.9386   -0.5591   -2.4207 C   0  0  0  0  0  0  0  0  0  0  0  0
    5.1670   -0.7515   -1.2218 C   0  0  0  0  0  0  0  0  0  0  0  0
    5.5964   -1.9109   -1.8520 C   0  0  0  0  0  0  0  0  0  0  0  0
    6.9280   -2.2780   -1.4890 C   0  0  0  0  0  0  0  0  0  0  0  0
    7.4573   -1.3850   -0.5971 C   0  0  0  0  0  0  0  0  0  0  0  0
    9.0245   -1.4453    0.1031 Cl  0  0  0  0  0  0  0  0  0  0  0  0
    6.4020   -0.1308   -0.1928 S   0  0  0  0  0  0  0  0  0  0  0  0
    0.2289    2.9931    0.2483 N   0  0  0  0  0  0  0  0  0  0  0  0
   -0.9343    3.4997    0.6124 N   0  0  0  0  0  0  0  0  0  0  0  0
   -1.8083    2.4806    0.8714 N   0  0  0  0  0  0  0  0  0  0  0  0
   -3.1317    2.7373    1.3128 C   0  0  0  0  0  0  0  0  0  0  0  0
   -3.9882    1.7441    1.5549 N   0  0  0  0  0  0  0  0  0  0  0  0
   -5.1571    2.3905    1.9509 O   0  0  0  0  0  0  0  0  0  0  0  0
   -4.9973    3.7722    1.9438 N   0  0  0  0  0  0  0  0  0  0  0  0
   -3.7395    3.9832    1.5582 C   0  0  0  0  0  0  0  0  0  0  0  0
   -3.1789    5.2007    1.4361 N   0  0  0  0  0  0  0  0  0  0  0  0
   -2.4996   -0.5828   -0.3464 C   0  0  0  0  0  0  0  0  0  0  0  0
   -4.8771   -3.6734   -2.3117 H   0  0  0  0  0  0  0  0  0  0  0  0
   -3.6370   -4.3125   -1.2272 H   0  0  0  0  0  0  0  0  0  0  0  0
   -5.1461   -3.5687   -0.5676 H   0  0  0  0  0  0  0  0  0  0  0  0
   -3.3568   -3.5879    1.0123 H   0  0  0  0  0  0  0  0  0  0  0  0
   -2.0641   -2.6717    2.8811 H   0  0  0  0  0  0  0  0  0  0  0  0
   -1.0366   -0.4353    2.7282 H   0  0  0  0  0  0  0  0  0  0  0  0
    2.3648    2.4649   -0.2217 H   0  0  0  0  0  0  0  0  0  0  0  0
    2.1402    0.1542   -2.6343 H   0  0  0  0  0  0  0  0  0  0  0  0
    3.4933   -0.7054   -3.3529 H   0  0  0  0  0  0  0  0  0  0  0  0
    2.4997   -1.5150   -2.1197 H   0  0  0  0  0  0  0  0  0  0  0  0
    4.9852   -2.4879   -2.5355 H   0  0  0  0  0  0  0  0  0  0  0  0
    7.4531   -3.1493   -1.8585 H   0  0  0  0  0  0  0  0  0  0  0  0
   -3.7710    6.0243    1.4601 H   0  0  0  0  0  0  0  0  0  0  0  0
   -2.2825    5.3316    0.9707 H   0  0  0  0  0  0  0  0  0  0  0  0
   -2.6245   -0.0100   -1.2622 H   0  0  0  0  0  0  0  0  0  0  0  0
  1  2  1  0
  2  3  1  0
  3  4  2  0
  4  5  1  0
  5  6  2  0
  6  7  1  0
  7  8  1  0
  8  9  2  0
  9 10  1  0
 10 11  2  0
 10 12  1  0
 12 13  1  0
 13 14  2  3
 14 15  1  0
 14 16  1  0
 16 17  2  0
 17 18  1  0
 18 19  2  0
 19 20  1  0
 19 21  1  0
  9 22  1  0
 22 23  2  0
 23 24  1  0
 24 25  1  0
 25 26  2  0
 26 27  1  0
 27 28  1  0
 28 29  2  0
 29 30  1  0
  7 31  2  0
 31  3  1  0
 24  8  1  0
 29 25  1  0
 21 16  1  0
  1 32  1  0
  1 33  1  0
  1 34  1  0
  4 35  1  0
  5 36  1  0
  6 37  1  0
 12 38  1  0
 15 39  1  0
 15 40  1  0
 15 41  1  0
 17 42  1  0
 18 43  1  0
 30 44  1  0
 30 45  1  0
 31 46  1  0
M  END
$$$$
