
     RDKit          3D

 39 40  0  0  0  0  0  0  0  0999 V2000
   -1.7366   -1.4659   -1.6186 C   0  0  0  0  0  0  0  0  0  0  0  0
   -2.5305   -0.4042   -0.8815 C   0  0  0  0  0  0  0  0  0  0  0  0
   -1.9416    0.6162   -0.2266 C   0  0  0  0  0  0  0  0  0  0  0  0
   -0.4654    0.7647   -0.0816 C   0  0  0  0  0  0  0  0  0  0  0  0
    0.3551   -0.2271    0.0438 N   0  0  0  0  0  0  0  0  0  0  0  0
    1.6701    0.0979    0.2042 N   0  0  0  0  0  0  0  0  0  0  0  0
    2.6122   -0.9192    0.2510 C   0  0  0  0  0  0  0  0  0  0  0  0
    2.3636   -2.1176    0.1190 O   0  0  0  0  0  0  0  0  0  0  0  0
    4.0344   -0.5111    0.4244 C   0  0  0  0  0  0  0  0  0  0  0  0
    4.3867    0.7058    1.0268 C   0  0  0  0  0  0  0  0  0  0  0  0
    5.7346    1.0504    1.1575 C   0  0  0  0  0  0  0  0  0  0  0  0
    6.2017    2.6910    1.9756 Br  0  0  0  0  0  0  0  0  0  0  0  0
    6.7388    0.1999    0.7002 C   0  0  0  0  0  0  0  0  0  0  0  0
    6.3958   -1.0194    0.1194 C   0  0  0  0  0  0  0  0  0  0  0  0
    5.0541   -1.3780   -0.0046 C   0  0  0  0  0  0  0  0  0  0  0  0
    4.8095   -2.6078   -0.5574 O   0  0  0  0  0  0  0  0  0  0  0  0
   -2.7865    1.6814    0.3631 C   0  0  0  0  0  0  0  0  0  0  0  0
   -2.2484    2.6855    0.8310 O   0  0  0  0  0  0  0  0  0  0  0  0
   -4.1482    1.4835    0.3431 N   0  0  0  0  0  0  0  0  0  0  0  0
   -4.9978    2.4874    0.9555 C   0  0  0  0  0  0  0  0  0  0  0  0
   -4.7722    0.4453   -0.3297 C   0  0  0  0  0  0  0  0  0  0  0  0
   -6.0003    0.3783   -0.4132 O   0  0  0  0  0  0  0  0  0  0  0  0
   -3.9276   -0.5008   -0.9153 N   0  0  0  0  0  0  0  0  0  0  0  0
   -4.5771   -1.6251   -1.5892 C   0  0  0  0  0  0  0  0  0  0  0  0
   -0.7493   -1.1176   -1.9326 H   0  0  0  0  0  0  0  0  0  0  0  0
   -2.2207   -1.7605   -2.5549 H   0  0  0  0  0  0  0  0  0  0  0  0
   -1.6169   -2.3544   -0.9911 H   0  0  0  0  0  0  0  0  0  0  0  0
   -0.1085    1.8099   -0.0397 H   0  0  0  0  0  0  0  0  0  0  0  0
    1.9407    1.0736    0.1762 H   0  0  0  0  0  0  0  0  0  0  0  0
    3.6335    1.3743    1.4304 H   0  0  0  0  0  0  0  0  0  0  0  0
    7.7878    0.4685    0.8015 H   0  0  0  0  0  0  0  0  0  0  0  0
    7.1716   -1.7007   -0.2225 H   0  0  0  0  0  0  0  0  0  0  0  0
    3.8496   -2.8027   -0.4554 H   0  0  0  0  0  0  0  0  0  0  0  0
   -4.4607    3.0573    1.7192 H   0  0  0  0  0  0  0  0  0  0  0  0
   -5.8713    2.0182    1.4196 H   0  0  0  0  0  0  0  0  0  0  0  0
   -5.3402    3.1738    0.1740 H   0  0  0  0  0  0  0  0  0  0  0  0
   -4.1211   -2.5681   -1.2719 H   0  0  0  0  0  0  0  0  0  0  0  0
   -5.6449   -1.6877   -1.3580 H   0  0  0  0  0  0  0  0  0  0  0  0
   -4.4737   -1.4954   -2.6712 H   0  0  0  0  0  0  0  0  0  0  0  0
  1  2  1  0
  2  3  2  0
  3  4  1  0
  4  5  2  3
  5  6  1  0
  6  7  1  0
  7  8  2  0
  7  9  1  0
  9 10  2  0
 10 11  1  0
 11 12  1  0
 11 13  2  0
 13 14  1  0
 14 15  2  0
 15 16  1  0
  3 17  1  0
 17 18  2  0
 17 19  1  0
 19 20  1  0
 19 21  1  0
 21 22  2  0
 21 23  1  0
 23 24  1  0
 23  2  1  0
 15  9  1  0
  1 25  1  0
  1 26  1  0
  1 27  1  0
  4 28  1  0
  6 29  1  0
 10 30  1  0
 13 31  1  0
 14 32  1  0
 16 33  1  0
 20 34  1  0
 20 35  1  0
 20 36  1  0
 24 37  1  0
 24 38  1  0
 24 39  1  0
M  END
$$$$
