
     RDKit          3D

 51 53  0  0  0  0  0  0  0  0999 V2000
    7.9265    2.3979    0.3871 C   0  0  0  0  0  0  0  0  0  0  0  0
    8.6995    1.2509    0.0547 O   0  0  0  0  0  0  0  0  0  0  0  0
    8.0114    0.1071   -0.2483 C   0  0  0  0  0  0  0  0  0  0  0  0
    8.8191   -0.9922   -0.5455 C   0  0  0  0  0  0  0  0  0  0  0  0
    8.2487   -2.2205   -0.8717 C   0  0  0  0  0  0  0  0  0  0  0  0
    6.8610   -2.3537   -0.9012 C   0  0  0  0  0  0  0  0  0  0  0  0
    6.0368   -1.2614   -0.6060 C   0  0  0  0  0  0  0  0  0  0  0  0
    4.6486   -1.4776   -0.6544 N   0  0  0  0  0  0  0  0  0  0  0  0
    3.6364   -0.5790   -0.3940 C   0  0  0  0  0  0  0  0  0  0  0  0
    3.7056    0.5995   -0.0701 O   0  0  0  0  0  0  0  0  0  0  0  0
    2.2447   -1.2184   -0.5425 C   0  0  0  0  0  0  0  0  0  0  0  0
    2.1609   -2.3934   -0.8746 O   0  0  0  0  0  0  0  0  0  0  0  0
    1.2313   -0.3251   -0.2549 N   0  0  0  0  0  0  0  0  0  0  0  0
   -0.0747   -0.7113   -0.3068 N   0  0  0  0  0  0  0  0  0  0  0  0
   -0.9367    0.1984    0.0166 C   0  0  0  0  0  0  0  0  0  0  0  0
   -2.3497   -0.1297   -0.0083 C   0  0  0  0  0  0  0  0  0  0  0  0
   -2.9329   -1.3636   -0.3815 C   0  0  0  0  0  0  0  0  0  0  0  0
   -4.3042   -1.2534   -0.2755 C   0  0  0  0  0  0  0  0  0  0  0  0
   -5.3143   -2.2795   -0.6656 C   0  0  0  0  0  0  0  0  0  0  0  0
   -4.5983    0.0308    0.1714 N   0  0  0  0  0  0  0  0  0  0  0  0
   -5.9049    0.5585    0.3903 C   0  0  0  0  0  0  0  0  0  0  0  0
   -6.2387    1.8295   -0.0921 C   0  0  0  0  0  0  0  0  0  0  0  0
   -7.5219    2.3414    0.1186 C   0  0  0  0  0  0  0  0  0  0  0  0
   -8.4758    1.5910    0.8121 C   0  0  0  0  0  0  0  0  0  0  0  0
  -10.0399    2.2891    1.0353 Cl  0  0  0  0  0  0  0  0  0  0  0  0
   -8.1431    0.3210    1.2964 C   0  0  0  0  0  0  0  0  0  0  0  0
   -9.2665   -0.6587    2.1713 Cl  0  0  0  0  0  0  0  0  0  0  0  0
   -6.8597   -0.1954    1.0844 C   0  0  0  0  0  0  0  0  0  0  0  0
   -3.3935    0.7147    0.3572 C   0  0  0  0  0  0  0  0  0  0  0  0
   -3.3048    2.0891    0.9410 C   0  0  0  0  0  0  0  0  0  0  0  0
    6.6196   -0.0313   -0.2807 C   0  0  0  0  0  0  0  0  0  0  0  0
    7.3035    2.7118   -0.4569 H   0  0  0  0  0  0  0  0  0  0  0  0
    8.6202    3.2144    0.6097 H   0  0  0  0  0  0  0  0  0  0  0  0
    7.3227    2.2210    1.2833 H   0  0  0  0  0  0  0  0  0  0  0  0
    9.9013   -0.8880   -0.5214 H   0  0  0  0  0  0  0  0  0  0  0  0
    8.8848   -3.0714   -1.1002 H   0  0  0  0  0  0  0  0  0  0  0  0
    6.4353   -3.3212   -1.1566 H   0  0  0  0  0  0  0  0  0  0  0  0
    4.3225   -2.4108   -0.9025 H   0  0  0  0  0  0  0  0  0  0  0  0
    1.4945    0.6205    0.0188 H   0  0  0  0  0  0  0  0  0  0  0  0
   -0.6395    1.2188    0.3126 H   0  0  0  0  0  0  0  0  0  0  0  0
   -2.3965   -2.2430   -0.7217 H   0  0  0  0  0  0  0  0  0  0  0  0
   -5.6791   -2.8200    0.2131 H   0  0  0  0  0  0  0  0  0  0  0  0
   -4.8670   -3.0180   -1.3408 H   0  0  0  0  0  0  0  0  0  0  0  0
   -6.1610   -1.8337   -1.1963 H   0  0  0  0  0  0  0  0  0  0  0  0
   -5.5307    2.4180   -0.6709 H   0  0  0  0  0  0  0  0  0  0  0  0
   -7.7753    3.3251   -0.2707 H   0  0  0  0  0  0  0  0  0  0  0  0
   -6.6055   -1.1664    1.5021 H   0  0  0  0  0  0  0  0  0  0  0  0
   -3.3543    2.8452    0.1515 H   0  0  0  0  0  0  0  0  0  0  0  0
   -4.0972    2.2776    1.6714 H   0  0  0  0  0  0  0  0  0  0  0  0
   -2.3591    2.2263    1.4753 H   0  0  0  0  0  0  0  0  0  0  0  0
    5.9898    0.8190   -0.0541 H   0  0  0  0  0  0  0  0  0  0  0  0
  1  2  1  0
  2  3  1  0
  3  4  2  0
  4  5  1  0
  5  6  2  0
  6  7  1  0
  7  8  1  0
  8  9  1  0
  9 10  2  0
  9 11  1  0
 11 12  2  0
 11 13  1  0
 13 14  1  0
 14 15  2  3
 15 16  1  0
 16 17  1  0
 17 18  2  0
 18 19  1  0
 18 20  1  0
 20 21  1  0
 21 22  2  0
 22 23  1  0
 23 24  2  0
 24 25  1  0
 24 26  1  0
 26 27  1  0
 26 28  2  0
 20 29  1  0
 29 30  1  0
  7 31  2  0
 31  3  1  0
 29 16  2  0
 28 21  1  0
  1 32  1  0
  1 33  1  0
  1 34  1  0
  4 35  1  0
  5 36  1  0
  6 37  1  0
  8 38  1  0
 13 39  1  0
 15 40  1  0
 17 41  1  0
 19 42  1  0
 19 43  1  0
 19 44  1  0
 22 45  1  0
 23 46  1  0
 28 47  1  0
 30 48  1  0
 30 49  1  0
 30 50  1  0
 31 51  1  0
M  END
$$$$
