
     RDKit          3D

 36 35  0  0  0  0  0  0  0  0999 V2000
    1.8426   -2.6905    0.6895 C   0  0  0  0  0  0  0  0  0  0  0  0
    1.7162   -1.1829    0.5240 C   0  0  0  0  0  0  0  0  0  0  0  0
    2.5046   -0.6877   -0.6189 N   0  0  0  0  0  0  0  0  0  0  0  0
    3.8950   -0.3256   -0.2876 C   0  0  0  0  0  0  0  0  0  0  0  0
    4.0224    1.1297    0.1385 C   0  0  0  0  0  0  0  0  0  0  0  0
    1.9996   -0.5606   -1.9314 C   0  0  0  0  0  0  0  0  0  0  0  0
    2.8864   -0.0247   -3.2663 S   0  0  0  0  0  0  0  0  0  0  0  0
    0.3241   -1.0972   -2.1901 S   0  0  0  0  0  0  0  0  0  0  0  0
   -0.6667    0.6699   -2.5899 S   0  0  0  0  0  0  0  0  0  0  0  0
   -1.0102    1.2870   -0.9628 C   0  0  0  0  0  0  0  0  0  0  0  0
    0.0826    2.3924   -0.3014 S   0  0  0  0  0  0  0  0  0  0  0  0
   -2.1961    0.8433   -0.3349 N   0  0  0  0  0  0  0  0  0  0  0  0
   -3.2336    0.0365   -1.0075 C   0  0  0  0  0  0  0  0  0  0  0  0
   -3.1930   -1.4287   -0.5973 C   0  0  0  0  0  0  0  0  0  0  0  0
   -2.5417    1.2659    1.0358 C   0  0  0  0  0  0  0  0  0  0  0  0
   -3.3608    2.5497    1.0617 C   0  0  0  0  0  0  0  0  0  0  0  0
    2.8833   -2.9827    0.8621 H   0  0  0  0  0  0  0  0  0  0  0  0
    1.2493   -3.0284    1.5448 H   0  0  0  0  0  0  0  0  0  0  0  0
    1.4932   -3.2232   -0.2001 H   0  0  0  0  0  0  0  0  0  0  0  0
    0.6631   -0.9122    0.4210 H   0  0  0  0  0  0  0  0  0  0  0  0
    2.0657   -0.6803    1.4334 H   0  0  0  0  0  0  0  0  0  0  0  0
    4.5567   -0.5209   -1.1359 H   0  0  0  0  0  0  0  0  0  0  0  0
    4.2441   -0.9791    0.5204 H   0  0  0  0  0  0  0  0  0  0  0  0
    3.4133    1.3362    1.0242 H   0  0  0  0  0  0  0  0  0  0  0  0
    5.0637    1.3626    0.3815 H   0  0  0  0  0  0  0  0  0  0  0  0
    3.6977    1.8099   -0.6545 H   0  0  0  0  0  0  0  0  0  0  0  0
   -4.2123    0.4580   -0.7508 H   0  0  0  0  0  0  0  0  0  0  0  0
   -3.1588    0.1145   -2.0939 H   0  0  0  0  0  0  0  0  0  0  0  0
   -2.2218   -1.8817   -0.8078 H   0  0  0  0  0  0  0  0  0  0  0  0
   -3.3864   -1.5500    0.4729 H   0  0  0  0  0  0  0  0  0  0  0  0
   -3.9577   -1.9926   -1.1408 H   0  0  0  0  0  0  0  0  0  0  0  0
   -1.6340    1.3940    1.6328 H   0  0  0  0  0  0  0  0  0  0  0  0
   -3.1068    0.4620    1.5198 H   0  0  0  0  0  0  0  0  0  0  0  0
   -3.5826    2.8343    2.0951 H   0  0  0  0  0  0  0  0  0  0  0  0
   -4.3121    2.4237    0.5355 H   0  0  0  0  0  0  0  0  0  0  0  0
   -2.8292    3.3793    0.5869 H   0  0  0  0  0  0  0  0  0  0  0  0
  1  2  1  0
  2  3  1  0
  3  4  1  0
  4  5  1  0
  3  6  1  0
  6  7  2  0
  6  8  1  0
  8  9  1  0
  9 10  1  0
 10 11  2  0
 10 12  1  0
 12 13  1  0
 13 14  1  0
 12 15  1  0
 15 16  1  0
  1 17  1  0
  1 18  1  0
  1 19  1  0
  2 20  1  0
  2 21  1  0
  4 22  1  0
  4 23  1  0
  5 24  1  0
  5 25  1  0
  5 26  1  0
 13 27  1  0
 13 28  1  0
 14 29  1  0
 14 30  1  0
 14 31  1  0
 15 32  1  0
 15 33  1  0
 16 34  1  0
 16 35  1  0
 16 36  1  0
M  END
$$$$
