
     RDKit          3D

 36 36  0  0  0  0  0  0  0  0999 V2000
    0.5599   -5.3162    3.6419 C   0  0  0  0  0  0  0  0  0  0  0  0
    0.5672   -5.6775    2.1673 C   0  0  0  0  0  0  0  0  0  0  0  0
    0.1620   -4.5752    1.3582 O   0  0  0  0  0  0  0  0  0  0  0  0
    1.2067   -3.6339    1.1190 C   0  0  0  0  0  0  0  0  0  0  0  0
    0.6480   -2.5204    0.2428 C   0  0  0  0  0  0  0  0  0  0  0  0
    1.7238   -1.5049   -0.1186 C   0  0  0  0  0  0  0  0  0  0  0  0
    1.1874   -0.4293   -0.9334 N   0  0  0  0  0  0  0  0  0  0  0  0
    0.5994    0.6793   -0.3620 C   0  0  0  0  0  0  0  0  0  0  0  0
    0.5516    0.8380    0.8553 O   0  0  0  0  0  0  0  0  0  0  0  0
    0.0103    1.6872   -1.3075 C   0  0  0  0  0  0  0  0  0  0  0  0
    0.0719    1.4498   -2.7039 C   0  0  0  0  0  0  0  0  0  0  0  0
    0.1336    1.2168   -3.8393 N   0  0  0  0  0  0  0  0  0  0  0  0
   -0.5279    2.7882   -0.7483 C   0  0  0  0  0  0  0  0  0  0  0  0
   -1.1365    3.8804   -1.4344 C   0  0  0  0  0  0  0  0  0  0  0  0
   -1.7599    3.9899   -2.6788 C   0  0  0  0  0  0  0  0  0  0  0  0
   -2.2028    5.3283   -2.8460 C   0  0  0  0  0  0  0  0  0  0  0  0
   -1.8413    5.9665   -1.6906 C   0  0  0  0  0  0  0  0  0  0  0  0
   -2.0132    7.3152   -1.2527 N   0  0  0  0  0  4  0  0  0  0  0  0
   -2.5963    8.0747   -2.0386 O   0  0  0  0  0  0  0  0  0  0  0  0
   -1.5736    7.6236   -0.1380 O   0  0  0  0  0  1  0  0  0  0  0  0
   -1.2152    5.1244   -0.8336 O   0  0  0  0  0  0  0  0  0  0  0  0
    0.7577   -6.1997    4.2557 H   0  0  0  0  0  0  0  0  0  0  0  0
   -0.4080   -4.8938    3.9305 H   0  0  0  0  0  0  0  0  0  0  0  0
    1.3201   -4.5640    3.8719 H   0  0  0  0  0  0  0  0  0  0  0  0
   -0.1582   -6.4798    1.9969 H   0  0  0  0  0  0  0  0  0  0  0  0
    1.5481   -6.0509    1.8521 H   0  0  0  0  0  0  0  0  0  0  0  0
    1.5664   -3.2183    2.0657 H   0  0  0  0  0  0  0  0  0  0  0  0
    2.0374   -4.1356    0.6096 H   0  0  0  0  0  0  0  0  0  0  0  0
   -0.1862   -2.0321    0.7625 H   0  0  0  0  0  0  0  0  0  0  0  0
    0.2116   -2.9492   -0.6685 H   0  0  0  0  0  0  0  0  0  0  0  0
    2.5197   -1.9805   -0.7015 H   0  0  0  0  0  0  0  0  0  0  0  0
    2.1733   -1.0810    0.7863 H   0  0  0  0  0  0  0  0  0  0  0  0
    1.1700   -0.5833   -1.9349 H   0  0  0  0  0  0  0  0  0  0  0  0
   -0.4842    2.9088    0.3343 H   0  0  0  0  0  0  0  0  0  0  0  0
   -1.9015    3.1946   -3.3992 H   0  0  0  0  0  0  0  0  0  0  0  0
   -2.7214    5.7599   -3.6914 H   0  0  0  0  0  0  0  0  0  0  0  0
  1  2  1  0
  2  3  1  0
  3  4  1  0
  4  5  1  0
  5  6  1  0
  6  7  1  0
  7  8  1  0
  8  9  2  0
  8 10  1  0
 10 11  1  0
 11 12  3  0
 10 13  2  3
 13 14  1  0
 14 15  2  0
 15 16  1  0
 16 17  2  0
 17 18  1  0
 18 19  2  0
 18 20  1  0
 17 21  1  0
 21 14  1  0
  1 22  1  0
  1 23  1  0
  1 24  1  0
  2 25  1  0
  2 26  1  0
  4 27  1  0
  4 28  1  0
  5 29  1  0
  5 30  1  0
  6 31  1  0
  6 32  1  0
  7 33  1  0
 13 34  1  0
 15 35  1  0
 16 36  1  0
M  CHG  2  18   1  20  -1
M  END
$$$$
