
     RDKit          3D

 55 58  0  0  0  0  0  0  0  0999 V2000
    8.4353    0.9823   -1.8999 C   0  0  0  0  0  0  0  0  0  0  0  0
    7.7494    1.1033   -0.6625 O   0  0  0  0  0  0  0  0  0  0  0  0
    6.4026    0.8396   -0.6479 C   0  0  0  0  0  0  0  0  0  0  0  0
    5.6559    0.4793   -1.7747 C   0  0  0  0  0  0  0  0  0  0  0  0
    4.2838    0.2318   -1.6671 C   0  0  0  0  0  0  0  0  0  0  0  0
    3.6450    0.3537   -0.4303 C   0  0  0  0  0  0  0  0  0  0  0  0
    2.1840    0.0987   -0.2693 C   0  0  0  0  0  0  0  0  0  0  0  0
    1.2956    0.5034   -1.4063 C   0  0  0  0  0  0  0  0  0  0  0  0
   -0.0214    0.2615   -1.2540 C   0  0  0  0  0  0  0  0  0  0  0  0
   -1.0467    0.6023   -2.2666 C   0  0  0  0  0  0  0  0  0  0  0  0
   -1.9545    1.5008   -1.8117 F   0  0  0  0  0  0  0  0  0  0  0  0
   -0.4807    1.1714   -3.3693 F   0  0  0  0  0  0  0  0  0  0  0  0
   -1.7234   -0.4827   -2.7182 F   0  0  0  0  0  0  0  0  0  0  0  0
   -0.4806   -0.3287   -0.0833 N   0  0  0  0  0  0  0  0  0  0  0  0
   -1.7508   -0.6545    0.2497 N   0  0  0  0  0  0  0  0  0  0  0  0
   -1.6861   -1.1801    1.4849 C   0  0  0  0  0  0  0  0  0  0  0  0
   -2.8485   -1.7245    2.2218 C   0  0  0  0  0  0  0  0  0  0  0  0
   -2.6571   -2.5392    3.1276 O   0  0  0  0  0  0  0  0  0  0  0  0
   -4.1492   -1.3310    1.8696 N   0  0  0  0  0  0  0  0  0  0  0  0
   -5.2461   -2.0320    2.5181 C   0  0  0  0  0  0  0  0  0  0  0  0
   -4.4680   -0.0139    1.3126 C   0  0  0  0  0  0  0  0  0  0  0  0
   -5.3622   -0.0764    0.0958 C   0  0  0  0  0  0  0  0  0  0  0  0
   -4.9839   -0.8118   -1.0367 C   0  0  0  0  0  0  0  0  0  0  0  0
   -5.8032   -0.8519   -2.1659 C   0  0  0  0  0  0  0  0  0  0  0  0
   -7.0090   -0.1545   -2.1782 C   0  0  0  0  0  0  0  0  0  0  0  0
   -7.3947    0.5861   -1.0629 C   0  0  0  0  0  0  0  0  0  0  0  0
   -6.5751    0.6283    0.0670 C   0  0  0  0  0  0  0  0  0  0  0  0
   -0.3450   -1.2135    1.9399 C   0  0  0  0  0  0  0  0  0  0  0  0
    0.4110   -0.6575    0.9382 C   0  0  0  0  0  0  0  0  0  0  0  0
    1.7529   -0.4325    0.8400 N   0  0  0  0  0  0  0  0  0  0  0  0
    4.3912    0.6962    0.7056 C   0  0  0  0  0  0  0  0  0  0  0  0
    5.7652    0.9413    0.6055 C   0  0  0  0  0  0  0  0  0  0  0  0
    6.5672    1.2938    1.6631 O   0  0  0  0  0  0  0  0  0  0  0  0
    5.9961    1.2549    2.9637 C   0  0  0  0  0  0  0  0  0  0  0  0
    8.0531    1.6985   -2.6347 H   0  0  0  0  0  0  0  0  0  0  0  0
    9.4890    1.2186   -1.7231 H   0  0  0  0  0  0  0  0  0  0  0  0
    8.3842   -0.0427   -2.2816 H   0  0  0  0  0  0  0  0  0  0  0  0
    6.1153    0.3741   -2.7523 H   0  0  0  0  0  0  0  0  0  0  0  0
    3.7436   -0.0789   -2.5568 H   0  0  0  0  0  0  0  0  0  0  0  0
    1.7038    0.9909   -2.2824 H   0  0  0  0  0  0  0  0  0  0  0  0
   -4.9737   -3.0683    2.7397 H   0  0  0  0  0  0  0  0  0  0  0  0
   -6.1245   -2.0422    1.8676 H   0  0  0  0  0  0  0  0  0  0  0  0
   -5.4864   -1.5210    3.4554 H   0  0  0  0  0  0  0  0  0  0  0  0
   -3.5827    0.5813    1.0833 H   0  0  0  0  0  0  0  0  0  0  0  0
   -4.9702    0.5411    2.1165 H   0  0  0  0  0  0  0  0  0  0  0  0
   -4.0441   -1.3599   -1.0442 H   0  0  0  0  0  0  0  0  0  0  0  0
   -5.4959   -1.4266   -3.0357 H   0  0  0  0  0  0  0  0  0  0  0  0
   -7.6457   -0.1860   -3.0581 H   0  0  0  0  0  0  0  0  0  0  0  0
   -8.3337    1.1333   -1.0737 H   0  0  0  0  0  0  0  0  0  0  0  0
   -6.8923    1.2156    0.9256 H   0  0  0  0  0  0  0  0  0  0  0  0
    0.0184   -1.6028    2.8807 H   0  0  0  0  0  0  0  0  0  0  0  0
    3.8755    0.7729    1.6580 H   0  0  0  0  0  0  0  0  0  0  0  0
    6.7877    1.4852    3.6832 H   0  0  0  0  0  0  0  0  0  0  0  0
    5.2170    2.0162    3.0727 H   0  0  0  0  0  0  0  0  0  0  0  0
    5.6124    0.2569    3.2003 H   0  0  0  0  0  0  0  0  0  0  0  0
  1  2  1  0
  2  3  1  0
  3  4  2  0
  4  5  1  0
  5  6  2  0
  6  7  1  0
  7  8  1  0
  8  9  2  0
  9 10  1  0
 10 11  1  0
 10 12  1  0
 10 13  1  0
  9 14  1  0
 14 15  1  0
 15 16  2  0
 16 17  1  0
 17 18  2  0
 17 19  1  0
 19 20  1  0
 19 21  1  0
 21 22  1  0
 22 23  2  0
 23 24  1  0
 24 25  2  0
 25 26  1  0
 26 27  2  0
 16 28  1  0
 28 29  2  0
 29 30  1  0
  6 31  1  0
 31 32  2  0
 32 33  1  0
 33 34  1  0
 32  3  1  0
 30  7  2  0
 29 14  1  0
 27 22  1  0
  1 35  1  0
  1 36  1  0
  1 37  1  0
  4 38  1  0
  5 39  1  0
  8 40  1  0
 20 41  1  0
 20 42  1  0
 20 43  1  0
 21 44  1  0
 21 45  1  0
 23 46  1  0
 24 47  1  0
 25 48  1  0
 26 49  1  0
 27 50  1  0
 28 51  1  0
 31 52  1  0
 34 53  1  0
 34 54  1  0
 34 55  1  0
M  END
$$$$
