
     RDKit          3D

 60 63  0  0  0  0  0  0  0  0999 V2000
    8.0515    1.0549   -2.9620 C   0  0  0  0  0  0  0  0  0  0  0  0
    6.9255    0.2194   -3.2042 O   0  0  0  0  0  0  0  0  0  0  0  0
    6.1986   -0.1615   -2.1099 C   0  0  0  0  0  0  0  0  0  0  0  0
    6.3934    0.2835   -0.8014 C   0  0  0  0  0  0  0  0  0  0  0  0
    5.5794   -0.1973    0.2319 C   0  0  0  0  0  0  0  0  0  0  0  0
    4.5625   -1.1293   -0.0289 C   0  0  0  0  0  0  0  0  0  0  0  0
    3.6902   -1.6335    1.0899 C   0  0  0  0  0  0  0  0  0  0  0  0
    2.6720   -0.6681    1.4236 N   0  0  0  0  0  0  0  0  0  0  0  0
    2.6858    0.0526    2.6009 C   0  0  0  0  0  0  0  0  0  0  0  0
    3.6016   -0.0427    3.4178 O   0  0  0  0  0  0  0  0  0  0  0  0
    1.5641    1.1032    2.7380 C   0  0  0  0  0  0  0  0  0  0  0  0
    1.4103    1.5811    4.1801 C   0  0  0  0  0  0  0  0  0  0  0  0
    0.2881    0.6077    2.1962 N   0  0  0  0  0  0  0  0  0  0  0  0
   -0.3087   -0.4524    2.8945 N   0  0  0  0  0  0  0  0  0  0  0  0
   -1.4380   -0.9739    2.5054 C   0  0  0  0  0  0  0  0  0  0  0  0
   -2.0154   -2.1033    3.3097 C   0  0  0  0  0  0  0  0  0  0  0  0
   -2.0821   -0.4592    1.3229 C   0  0  0  0  0  0  0  0  0  0  0  0
   -3.2151   -0.8104    0.6062 C   0  0  0  0  0  0  0  0  0  0  0  0
   -4.1171   -1.9813    0.7647 C   0  0  0  0  0  0  0  0  0  0  0  0
   -3.3377    0.1634   -0.3967 N   0  0  0  0  0  0  0  0  0  0  0  0
   -4.4101    0.4511   -1.2987 C   0  0  0  0  0  0  0  0  0  0  0  0
   -4.1639    1.2980   -2.3940 C   0  0  0  0  0  0  0  0  0  0  0  0
   -5.1818    1.6162   -3.2991 C   0  0  0  0  0  0  0  0  0  0  0  0
   -6.4737    1.1148   -3.1167 C   0  0  0  0  0  0  0  0  0  0  0  0
   -7.5584    1.4304   -4.1049 C   0  0  0  0  0  0  0  0  0  0  0  0
   -6.7253    0.2819   -2.0221 C   0  0  0  0  0  0  0  0  0  0  0  0
   -5.7072   -0.0387   -1.1132 C   0  0  0  0  0  0  0  0  0  0  0  0
   -2.2132    0.9285   -0.4639 N   0  0  0  0  0  0  0  0  0  0  0  0
   -1.4995    0.5960    0.6136 C   0  0  0  0  0  0  0  0  0  0  0  0
   -0.2356    1.1908    1.0246 C   0  0  0  0  0  0  0  0  0  0  0  0
    0.3243    2.0914    0.4055 O   0  0  0  0  0  0  0  0  0  0  0  0
    4.3600   -1.5599   -1.3459 C   0  0  0  0  0  0  0  0  0  0  0  0
    5.1742   -1.0774   -2.3752 C   0  0  0  0  0  0  0  0  0  0  0  0
    8.7607    0.5759   -2.2762 H   0  0  0  0  0  0  0  0  0  0  0  0
    7.7398    2.0368   -2.5881 H   0  0  0  0  0  0  0  0  0  0  0  0
    8.5657    1.2094   -3.9154 H   0  0  0  0  0  0  0  0  0  0  0  0
    7.1644    1.0061   -0.5493 H   0  0  0  0  0  0  0  0  0  0  0  0
    5.7398    0.1606    1.2490 H   0  0  0  0  0  0  0  0  0  0  0  0
    4.3034   -1.8824    1.9634 H   0  0  0  0  0  0  0  0  0  0  0  0
    3.1730   -2.5519    0.7889 H   0  0  0  0  0  0  0  0  0  0  0  0
    2.0098   -0.4132    0.7028 H   0  0  0  0  0  0  0  0  0  0  0  0
    1.8966    1.9618    2.1439 H   0  0  0  0  0  0  0  0  0  0  0  0
    0.6074    2.3225    4.2583 H   0  0  0  0  0  0  0  0  0  0  0  0
    1.1723    0.7529    4.8568 H   0  0  0  0  0  0  0  0  0  0  0  0
    2.3366    2.0426    4.5411 H   0  0  0  0  0  0  0  0  0  0  0  0
   -1.5201   -2.1693    4.2840 H   0  0  0  0  0  0  0  0  0  0  0  0
   -3.0842   -1.9456    3.4773 H   0  0  0  0  0  0  0  0  0  0  0  0
   -1.8582   -3.0450    2.7775 H   0  0  0  0  0  0  0  0  0  0  0  0
   -4.9644   -1.7354    1.4119 H   0  0  0  0  0  0  0  0  0  0  0  0
   -4.4804   -2.3454   -0.1989 H   0  0  0  0  0  0  0  0  0  0  0  0
   -3.5902   -2.8284    1.2154 H   0  0  0  0  0  0  0  0  0  0  0  0
   -3.1724    1.7164   -2.5657 H   0  0  0  0  0  0  0  0  0  0  0  0
   -4.9548    2.2635   -4.1440 H   0  0  0  0  0  0  0  0  0  0  0  0
   -7.5158    0.7281   -4.9439 H   0  0  0  0  0  0  0  0  0  0  0  0
   -8.5477    1.3641   -3.6379 H   0  0  0  0  0  0  0  0  0  0  0  0
   -7.4482    2.4500   -4.4890 H   0  0  0  0  0  0  0  0  0  0  0  0
   -7.7245   -0.1142   -1.8567 H   0  0  0  0  0  0  0  0  0  0  0  0
   -5.9898   -0.6369   -0.2559 H   0  0  0  0  0  0  0  0  0  0  0  0
    3.5716   -2.2767   -1.5806 H   0  0  0  0  0  0  0  0  0  0  0  0
    5.0107   -1.4222   -3.3943 H   0  0  0  0  0  0  0  0  0  0  0  0
  1  2  1  0
  2  3  1  0
  3  4  2  0
  4  5  1  0
  5  6  2  0
  6  7  1  0
  7  8  1  0
  8  9  1  0
  9 10  2  0
  9 11  1  0
 11 12  1  0
 11 13  1  0
 13 14  1  0
 14 15  2  0
 15 16  1  0
 15 17  1  0
 17 18  2  0
 18 19  1  0
 18 20  1  0
 20 21  1  0
 21 22  2  0
 22 23  1  0
 23 24  2  0
 24 25  1  0
 24 26  1  0
 26 27  2  0
 20 28  1  0
 28 29  2  0
 29 30  1  0
 30 31  2  0
  6 32  1  0
 32 33  2  0
 33  3  1  0
 30 13  1  0
 29 17  1  0
 27 21  1  0
  1 34  1  0
  1 35  1  0
  1 36  1  0
  4 37  1  0
  5 38  1  0
  7 39  1  0
  7 40  1  0
  8 41  1  0
 11 42  1  0
 12 43  1  0
 12 44  1  0
 12 45  1  0
 16 46  1  0
 16 47  1  0
 16 48  1  0
 19 49  1  0
 19 50  1  0
 19 51  1  0
 22 52  1  0
 23 53  1  0
 25 54  1  0
 25 55  1  0
 25 56  1  0
 26 57  1  0
 27 58  1  0
 32 59  1  0
 33 60  1  0
M  END
$$$$
