
     RDKit          3D

 46 49  0  0  0  0  0  0  0  0999 V2000
    3.7116   -1.2997    0.0189 O   0  0  0  0  0  0  0  0  0  0  0  0
    3.3568   -0.1378    0.1968 C   0  0  0  0  0  0  0  0  0  0  0  0
    2.0640    0.1818    0.9284 C   0  0  0  0  0  0  0  0  0  0  0  0
    0.7372    0.4440   -0.2855 S   0  0  0  0  0  0  0  0  0  0  0  0
   -0.5529    0.8799    0.7775 C   0  0  0  0  0  0  0  0  0  0  0  0
   -0.4138    1.2792    2.0185 N   0  0  0  0  0  0  0  0  0  0  0  0
   -1.6643    1.5319    2.5178 N   0  0  0  0  0  0  0  0  0  0  0  0
   -2.5490    1.2788    1.5708 C   0  0  0  0  0  0  0  0  0  0  0  0
   -4.0301    1.4238    1.7095 C   0  0  0  0  0  0  0  0  0  0  0  0
   -4.7308    0.1147    1.9382 C   0  0  0  0  0  0  0  0  0  0  0  0
   -4.3940   -0.9072    2.8067 C   0  0  0  0  0  0  0  0  0  0  0  0
   -5.3083   -1.9973    2.7452 C   0  0  0  0  0  0  0  0  0  0  0  0
   -6.3205   -1.7694    1.8411 C   0  0  0  0  0  0  0  0  0  0  0  0
   -6.1731   -0.2456    1.0827 S   0  0  0  0  0  0  0  0  0  0  0  0
   -1.8790    0.8601    0.4394 N   0  0  0  0  0  0  0  0  0  0  0  0
   -2.4615    0.5126   -0.8428 C   0  0  0  0  0  0  0  0  0  0  0  0
   -2.8427   -0.9199   -0.9146 C   0  0  0  0  0  0  0  0  0  0  0  0
   -2.3291   -2.0924   -0.3952 C   0  0  0  0  0  0  0  0  0  0  0  0
   -3.1729   -3.1356   -0.8474 C   0  0  0  0  0  0  0  0  0  0  0  0
   -4.1431   -2.5384   -1.6167 C   0  0  0  0  0  0  0  0  0  0  0  0
   -3.9463   -1.1968   -1.6717 O   0  0  0  0  0  0  0  0  0  0  0  0
    4.0315    1.0020   -0.2177 N   0  0  0  0  0  0  0  0  0  0  0  0
    5.2759    1.0740   -0.8756 C   0  0  0  0  0  0  0  0  0  0  0  0
    6.0688   -0.0365   -1.1742 C   0  0  0  0  0  0  0  0  0  0  0  0
    7.3015    0.1230   -1.8195 C   0  0  0  0  0  0  0  0  0  0  0  0
    7.7452    1.3964   -2.1675 C   0  0  0  0  0  0  0  0  0  0  0  0
    9.4112    1.6114   -3.0338 Br  0  0  0  0  0  0  0  0  0  0  0  0
    6.9658    2.5128   -1.8795 C   0  0  0  0  0  0  0  0  0  0  0  0
    5.7350    2.3496   -1.2348 C   0  0  0  0  0  0  0  0  0  0  0  0
    2.2102    1.0725    1.5501 H   0  0  0  0  0  0  0  0  0  0  0  0
    1.8178   -0.6558    1.5903 H   0  0  0  0  0  0  0  0  0  0  0  0
   -4.2386    2.0765    2.5682 H   0  0  0  0  0  0  0  0  0  0  0  0
   -4.4313    1.9463    0.8324 H   0  0  0  0  0  0  0  0  0  0  0  0
   -3.5245   -0.8764    3.4544 H   0  0  0  0  0  0  0  0  0  0  0  0
   -5.2273   -2.9005    3.3360 H   0  0  0  0  0  0  0  0  0  0  0  0
   -7.1461   -2.4218    1.5928 H   0  0  0  0  0  0  0  0  0  0  0  0
   -3.3333    1.1576   -0.9989 H   0  0  0  0  0  0  0  0  0  0  0  0
   -1.7503    0.7598   -1.6370 H   0  0  0  0  0  0  0  0  0  0  0  0
   -1.4563   -2.1899    0.2372 H   0  0  0  0  0  0  0  0  0  0  0  0
   -3.0864   -4.1927   -0.6378 H   0  0  0  0  0  0  0  0  0  0  0  0
   -4.9988   -2.9086   -2.1664 H   0  0  0  0  0  0  0  0  0  0  0  0
    3.5614    1.8862   -0.0594 H   0  0  0  0  0  0  0  0  0  0  0  0
    5.7609   -1.0453   -0.9158 H   0  0  0  0  0  0  0  0  0  0  0  0
    7.9022   -0.7550   -2.0402 H   0  0  0  0  0  0  0  0  0  0  0  0
    7.3040    3.5115   -2.1490 H   0  0  0  0  0  0  0  0  0  0  0  0
    5.1434    3.2360   -1.0200 H   0  0  0  0  0  0  0  0  0  0  0  0
  1  2  2  0
  2  3  1  0
  3  4  1  0
  4  5  1  0
  5  6  2  0
  6  7  1  0
  7  8  2  0
  8  9  1  0
  9 10  1  0
 10 11  2  0
 11 12  1  0
 12 13  2  0
 13 14  1  0
  8 15  1  0
 15 16  1  0
 16 17  1  0
 17 18  2  0
 18 19  1  0
 19 20  2  0
 20 21  1  0
  2 22  1  0
 22 23  1  0
 23 24  2  0
 24 25  1  0
 25 26  2  0
 26 27  1  0
 26 28  1  0
 28 29  2  0
 15  5  1  0
 21 17  1  0
 29 23  1  0
 14 10  1  0
  3 30  1  0
  3 31  1  0
  9 32  1  0
  9 33  1  0
 11 34  1  0
 12 35  1  0
 13 36  1  0
 16 37  1  0
 16 38  1  0
 18 39  1  0
 19 40  1  0
 20 41  1  0
 22 42  1  0
 24 43  1  0
 25 44  1  0
 28 45  1  0
 29 46  1  0
M  END
$$$$
