
     RDKit          3D

 52 55  0  0  0  0  0  0  0  0999 V2000
    7.3457   -2.0460    2.5632 C   0  0  0  0  0  0  0  0  0  0  0  0
    6.6980   -1.6665    1.3551 O   0  0  0  0  0  0  0  0  0  0  0  0
    5.4087   -1.2247    1.4604 C   0  0  0  0  0  0  0  0  0  0  0  0
    4.6664   -1.1243    2.6353 C   0  0  0  0  0  0  0  0  0  0  0  0
    3.3457   -0.6529    2.6026 C   0  0  0  0  0  0  0  0  0  0  0  0
    2.7534   -0.2768    1.3973 C   0  0  0  0  0  0  0  0  0  0  0  0
    1.4334    0.1979    1.2795 N   0  0  0  0  0  0  0  0  0  0  0  0
    0.5285    0.4630    2.2950 C   0  0  0  0  0  0  0  0  0  0  0  0
    0.7287    0.3208    3.4987 O   0  0  0  0  0  0  0  0  0  0  0  0
   -0.8439    0.8818    1.7889 C   0  0  0  0  0  0  0  0  0  0  0  0
   -0.7230    2.1898    0.5298 S   0  0  0  0  0  0  0  0  0  0  0  0
   -2.2677    1.8831   -0.2476 C   0  0  0  0  0  0  0  0  0  0  0  0
   -3.3080    2.3925    0.3358 N   0  0  0  0  0  0  0  0  0  0  0  0
   -4.5147    2.1111   -0.2340 C   0  0  0  0  0  0  0  0  0  0  0  0
   -4.6984    1.3422   -1.3061 C   0  0  0  0  0  0  0  0  0  0  0  0
   -3.5284    0.7441   -1.9810 C   0  0  0  0  0  0  0  0  0  0  0  0
   -3.6622    0.0327   -2.9756 O   0  0  0  0  0  0  0  0  0  0  0  0
   -2.3054    1.0948   -1.3971 N   0  0  0  0  0  0  0  0  0  0  0  0
   -1.1302    0.5270   -1.9671 C   0  0  0  0  0  0  0  0  0  0  0  0
   -0.2279    1.3429   -2.6625 C   0  0  0  0  0  0  0  0  0  0  0  0
    0.9212    0.7883   -3.2271 C   0  0  0  0  0  0  0  0  0  0  0  0
    1.1769   -0.5766   -3.0938 C   0  0  0  0  0  0  0  0  0  0  0  0
    0.2861   -1.3945   -2.3958 C   0  0  0  0  0  0  0  0  0  0  0  0
   -0.8767   -0.8493   -1.8471 C   0  0  0  0  0  0  0  0  0  0  0  0
   -1.7370   -1.5981   -1.0839 O   0  0  0  0  0  0  0  0  0  0  0  0
   -2.1793   -2.7780   -1.7568 C   0  0  0  0  0  0  0  0  0  0  0  0
   -6.3271    1.1449   -1.8080 S   0  0  0  0  0  0  0  0  0  0  0  0
   -6.9537    1.9227   -0.2765 C   0  0  0  0  0  0  0  0  0  0  0  0
   -5.7754    2.6798    0.3457 C   0  0  0  0  0  0  0  0  0  0  0  0
    3.5019   -0.3802    0.2206 C   0  0  0  0  0  0  0  0  0  0  0  0
    4.8182   -0.8500    0.2537 C   0  0  0  0  0  0  0  0  0  0  0  0
    6.8366   -2.8931    3.0348 H   0  0  0  0  0  0  0  0  0  0  0  0
    7.4254   -1.1984    3.2519 H   0  0  0  0  0  0  0  0  0  0  0  0
    8.3611   -2.3667    2.3113 H   0  0  0  0  0  0  0  0  0  0  0  0
    5.0779   -1.4031    3.5998 H   0  0  0  0  0  0  0  0  0  0  0  0
    2.8073   -0.5960    3.5436 H   0  0  0  0  0  0  0  0  0  0  0  0
    1.1269    0.4390    0.3424 H   0  0  0  0  0  0  0  0  0  0  0  0
   -1.4352    1.2594    2.6287 H   0  0  0  0  0  0  0  0  0  0  0  0
   -1.3370   -0.0090    1.3863 H   0  0  0  0  0  0  0  0  0  0  0  0
   -0.4214    2.4064   -2.7827 H   0  0  0  0  0  0  0  0  0  0  0  0
    1.6160    1.4204   -3.7760 H   0  0  0  0  0  0  0  0  0  0  0  0
    2.0763   -1.0053   -3.5308 H   0  0  0  0  0  0  0  0  0  0  0  0
    0.5204   -2.4480   -2.2736 H   0  0  0  0  0  0  0  0  0  0  0  0
   -2.4081   -2.5892   -2.8118 H   0  0  0  0  0  0  0  0  0  0  0  0
   -1.4358   -3.5751   -1.6600 H   0  0  0  0  0  0  0  0  0  0  0  0
   -3.0983   -3.1147   -1.2678 H   0  0  0  0  0  0  0  0  0  0  0  0
   -7.7948    2.5875   -0.4930 H   0  0  0  0  0  0  0  0  0  0  0  0
   -7.3001    1.1311    0.3965 H   0  0  0  0  0  0  0  0  0  0  0  0
   -5.7984    2.5796    1.4364 H   0  0  0  0  0  0  0  0  0  0  0  0
   -5.8395    3.7486    0.1087 H   0  0  0  0  0  0  0  0  0  0  0  0
    3.0782   -0.0928   -0.7371 H   0  0  0  0  0  0  0  0  0  0  0  0
    5.3886   -0.9220   -0.6689 H   0  0  0  0  0  0  0  0  0  0  0  0
  1  2  1  0
  2  3  1  0
  3  4  2  0
  4  5  1  0
  5  6  2  0
  6  7  1  0
  7  8  1  0
  8  9  2  0
  8 10  1  0
 10 11  1  0
 11 12  1  0
 12 13  2  0
 13 14  1  0
 14 15  2  0
 15 16  1  0
 16 17  2  0
 16 18  1  0
 18 19  1  0
 19 20  2  0
 20 21  1  0
 21 22  2  0
 22 23  1  0
 23 24  2  0
 24 25  1  0
 25 26  1  0
 15 27  1  0
 27 28  1  0
 28 29  1  0
  6 30  1  0
 30 31  2  0
 31  3  1  0
 18 12  1  0
 24 19  1  0
 29 14  1  0
  1 32  1  0
  1 33  1  0
  1 34  1  0
  4 35  1  0
  5 36  1  0
  7 37  1  0
 10 38  1  0
 10 39  1  0
 20 40  1  0
 21 41  1  0
 22 42  1  0
 23 43  1  0
 26 44  1  0
 26 45  1  0
 26 46  1  0
 28 47  1  0
 28 48  1  0
 29 49  1  0
 29 50  1  0
 30 51  1  0
 31 52  1  0
M  END
$$$$
