
     RDKit          3D

 37 39  0  0  0  0  0  0  0  0999 V2000
   -3.5545   -1.3824    2.1553 C   0  0  0  0  0  0  0  0  0  0  0  0
   -3.2155    0.0461    1.7687 C   0  0  0  0  0  0  0  0  0  0  0  0
   -3.6942    0.3834    0.4388 N   0  0  0  0  0  0  0  0  0  0  0  0
   -4.8807    1.0222    0.3207 N   0  0  0  0  0  0  0  0  0  0  0  0
   -5.0796    1.0808   -0.9987 C   0  0  0  0  0  0  0  0  0  0  0  0
   -4.0191    0.5081   -1.7086 C   0  0  0  0  0  0  0  0  0  0  0  0
   -3.9191    0.4064   -3.5723 Br  0  0  0  0  0  0  0  0  0  0  0  0
   -3.1068    0.0863   -0.7690 C   0  0  0  0  0  0  0  0  0  0  0  0
   -1.8470   -0.5873   -0.9584 C   0  0  0  0  0  0  0  0  0  0  0  0
   -1.7921   -1.6885   -1.4874 O   0  0  0  0  0  0  0  0  0  0  0  0
   -0.7868    0.1644   -0.4956 N   0  0  0  0  0  0  0  0  0  0  0  0
    0.5573   -0.1797   -0.4608 C   0  0  0  0  0  0  0  0  0  0  0  0
    1.0948   -1.7204   -0.9730 S   0  0  0  0  0  0  0  0  0  0  0  0
    2.6688   -1.3275   -0.5996 C   0  0  0  0  0  0  0  0  0  0  0  0
    2.8339   -0.0614   -0.1077 C   0  0  0  0  0  0  0  0  0  0  0  0
    1.5949    0.6433   -0.0023 C   0  0  0  0  0  0  0  0  0  0  0  0
    1.3281    1.9860    0.5121 C   0  0  0  0  0  0  0  0  0  0  0  0
    2.4012    2.7959    0.7368 N   0  0  0  0  0  0  0  0  0  0  0  0
    0.1905    2.4041    0.7194 O   0  0  0  0  0  0  0  0  0  0  0  0
    4.2664    0.1774    0.2189 C   0  0  0  0  0  0  0  0  0  0  0  0
    4.9856   -1.0280   -0.4635 C   0  0  0  0  0  0  0  0  0  0  0  0
    3.9107   -2.1286   -0.6860 C   0  0  0  0  0  0  0  0  0  0  0  0
   -3.0878   -2.1004    1.4729 H   0  0  0  0  0  0  0  0  0  0  0  0
   -4.6362   -1.5517    2.1291 H   0  0  0  0  0  0  0  0  0  0  0  0
   -3.1994   -1.5959    3.1682 H   0  0  0  0  0  0  0  0  0  0  0  0
   -2.1355    0.2130    1.7998 H   0  0  0  0  0  0  0  0  0  0  0  0
   -3.6725    0.7493    2.4744 H   0  0  0  0  0  0  0  0  0  0  0  0
   -5.9856    1.5380   -1.3746 H   0  0  0  0  0  0  0  0  0  0  0  0
   -0.9870    1.1043   -0.1541 H   0  0  0  0  0  0  0  0  0  0  0  0
    3.3027    2.6044    0.3323 H   0  0  0  0  0  0  0  0  0  0  0  0
    2.1890    3.7577    0.9665 H   0  0  0  0  0  0  0  0  0  0  0  0
    4.4210    0.1534    1.3026 H   0  0  0  0  0  0  0  0  0  0  0  0
    4.6519    1.1166   -0.1847 H   0  0  0  0  0  0  0  0  0  0  0  0
    5.8366   -1.3889    0.1226 H   0  0  0  0  0  0  0  0  0  0  0  0
    5.3733   -0.7052   -1.4390 H   0  0  0  0  0  0  0  0  0  0  0  0
    4.0420   -2.6225   -1.6526 H   0  0  0  0  0  0  0  0  0  0  0  0
    3.9508   -2.8730    0.1158 H   0  0  0  0  0  0  0  0  0  0  0  0
  1  2  1  0
  2  3  1  0
  3  4  1  0
  4  5  2  0
  5  6  1  0
  6  7  1  0
  6  8  2  0
  8  9  1  0
  9 10  2  0
  9 11  1  0
 11 12  1  0
 12 13  1  0
 13 14  1  0
 14 15  2  0
 15 16  1  0
 16 17  1  0
 17 18  1  0
 17 19  2  0
 15 20  1  0
 20 21  1  0
 21 22  1  0
  8  3  1  0
 16 12  2  0
 22 14  1  0
  1 23  1  0
  1 24  1  0
  1 25  1  0
  2 26  1  0
  2 27  1  0
  5 28  1  0
 11 29  1  0
 18 30  1  0
 18 31  1  0
 20 32  1  0
 20 33  1  0
 21 34  1  0
 21 35  1  0
 22 36  1  0
 22 37  1  0
M  END
$$$$
