
     RDKit          3D

 44 44  0  0  0  0  0  0  0  0999 V2000
   -5.3393   -0.4425   -1.6016 C   0  0  0  0  0  0  0  0  0  0  0  0
   -4.9963    0.9505   -1.0905 C   0  0  0  0  0  0  0  0  0  0  0  0
   -3.8694    0.9210   -0.1485 N   0  0  0  0  0  0  0  0  0  0  0  0
   -4.1836    1.1978    1.2597 C   0  0  0  0  0  0  0  0  0  0  0  0
   -4.5943   -0.0692    1.9943 C   0  0  0  0  0  0  0  0  0  0  0  0
   -2.5592    0.6987   -0.5658 C   0  0  0  0  0  0  0  0  0  0  0  0
   -2.1808    0.7683   -1.9169 C   0  0  0  0  0  0  0  0  0  0  0  0
   -0.8615    0.5564   -2.3378 C   0  0  0  0  0  0  0  0  0  0  0  0
    0.1313    0.2524   -1.4130 C   0  0  0  0  0  0  0  0  0  0  0  0
   -0.2017    0.1504   -0.0690 C   0  0  0  0  0  0  0  0  0  0  0  0
    0.6692   -0.1405    0.9462 O   0  0  0  0  0  0  0  0  0  0  0  0
    1.8382   -0.8742    0.6083 C   0  0  0  0  0  0  0  0  0  0  0  0
    3.0692   -0.0252    0.2449 C   0  0  0  0  0  0  0  0  0  0  0  0
    3.0189    1.2043    0.1727 O   0  0  0  0  0  0  0  0  0  0  0  0
    4.2643   -0.7080   -0.0093 N   0  0  0  0  0  0  0  0  0  0  0  0
    4.4574   -2.1221    0.2916 C   0  0  0  0  0  0  0  0  0  0  0  0
    5.4629    0.1008   -0.2692 C   0  0  0  0  0  0  0  0  0  0  0  0
    6.0772    0.7412    0.9783 C   0  0  0  0  0  0  0  0  0  0  0  0
    6.8022   -0.2490    1.7814 C   0  0  0  0  0  0  0  0  0  0  0  0
    7.3727   -1.0487    2.3995 N   0  0  0  0  0  0  0  0  0  0  0  0
   -1.5249    0.3877    0.3368 C   0  0  0  0  0  0  0  0  0  0  0  0
   -6.2111   -0.3960   -2.2620 H   0  0  0  0  0  0  0  0  0  0  0  0
   -5.5770   -1.1197   -0.7753 H   0  0  0  0  0  0  0  0  0  0  0  0
   -4.5151   -0.8867   -2.1672 H   0  0  0  0  0  0  0  0  0  0  0  0
   -4.8018    1.6366   -1.9221 H   0  0  0  0  0  0  0  0  0  0  0  0
   -5.8901    1.3518   -0.5965 H   0  0  0  0  0  0  0  0  0  0  0  0
   -3.3499    1.6885    1.7751 H   0  0  0  0  0  0  0  0  0  0  0  0
   -5.0065    1.9214    1.3204 H   0  0  0  0  0  0  0  0  0  0  0  0
   -4.7844    0.1514    3.0494 H   0  0  0  0  0  0  0  0  0  0  0  0
   -3.8185   -0.8390    1.9412 H   0  0  0  0  0  0  0  0  0  0  0  0
   -5.5115   -0.4899    1.5703 H   0  0  0  0  0  0  0  0  0  0  0  0
   -2.9043    1.0146   -2.6873 H   0  0  0  0  0  0  0  0  0  0  0  0
   -0.6129    0.6449   -3.3920 H   0  0  0  0  0  0  0  0  0  0  0  0
    1.1478    0.1281   -1.7673 H   0  0  0  0  0  0  0  0  0  0  0  0
    2.0980   -1.4425    1.5088 H   0  0  0  0  0  0  0  0  0  0  0  0
    1.6347   -1.6024   -0.1860 H   0  0  0  0  0  0  0  0  0  0  0  0
    3.5577   -2.6980    0.0662 H   0  0  0  0  0  0  0  0  0  0  0  0
    5.2780   -2.5214   -0.3108 H   0  0  0  0  0  0  0  0  0  0  0  0
    4.6860   -2.2290    1.3551 H   0  0  0  0  0  0  0  0  0  0  0  0
    6.1934   -0.5137   -0.8092 H   0  0  0  0  0  0  0  0  0  0  0  0
    5.1703    0.9060   -0.9551 H   0  0  0  0  0  0  0  0  0  0  0  0
    6.7822    1.5194    0.6633 H   0  0  0  0  0  0  0  0  0  0  0  0
    5.3113    1.2295    1.5899 H   0  0  0  0  0  0  0  0  0  0  0  0
   -1.7286    0.2959    1.3991 H   0  0  0  0  0  0  0  0  0  0  0  0
  1  2  1  0
  2  3  1  0
  3  4  1  0
  4  5  1  0
  3  6  1  0
  6  7  2  0
  7  8  1  0
  8  9  2  0
  9 10  1  0
 10 11  1  0
 11 12  1  0
 12 13  1  0
 13 14  2  0
 13 15  1  0
 15 16  1  0
 15 17  1  0
 17 18  1  0
 18 19  1  0
 19 20  3  0
 10 21  2  0
 21  6  1  0
  1 22  1  0
  1 23  1  0
  1 24  1  0
  2 25  1  0
  2 26  1  0
  4 27  1  0
  4 28  1  0
  5 29  1  0
  5 30  1  0
  5 31  1  0
  7 32  1  0
  8 33  1  0
  9 34  1  0
 12 35  1  0
 12 36  1  0
 16 37  1  0
 16 38  1  0
 16 39  1  0
 17 40  1  0
 17 41  1  0
 18 42  1  0
 18 43  1  0
 21 44  1  0
M  END
$$$$
