
     RDKit          3D

 49 50  0  0  0  0  0  0  0  0999 V2000
    4.7065    0.4368    2.6313 C   0  0  0  0  0  0  0  0  0  0  0  0
    4.6060   -0.5346    1.4714 C   0  0  0  0  0  0  0  0  0  0  0  0
    3.4270   -0.2157    0.7263 O   0  0  0  0  0  0  0  0  0  0  0  0
    3.2142   -1.0117   -0.3633 C   0  0  0  0  0  0  0  0  0  0  0  0
    3.9599   -1.9328   -0.6804 O   0  0  0  0  0  0  0  0  0  0  0  0
    1.9864   -0.6754   -1.0986 C   0  0  0  0  0  0  0  0  0  0  0  0
    1.3471   -1.4946   -2.0922 C   0  0  0  0  0  0  0  0  0  0  0  0
    1.8279   -2.8314   -2.5518 C   0  0  0  0  0  0  0  0  0  0  0  0
    0.2265   -0.8123   -2.5425 C   0  0  0  0  0  0  0  0  0  0  0  0
   -0.7486   -1.1921   -3.6080 C   0  0  0  0  0  0  0  0  0  0  0  0
    0.1025    0.3414   -1.7878 N   0  0  0  0  0  0  0  0  0  0  0  0
   -1.0171    1.2896   -1.8822 C   0  0  0  0  0  0  0  0  0  0  0  0
   -1.7690    1.4902   -0.5847 C   0  0  0  0  0  0  0  0  0  0  0  0
   -1.7799    2.7588    0.0172 C   0  0  0  0  0  0  0  0  0  0  0  0
   -2.4801    2.9804    1.2016 C   0  0  0  0  0  0  0  0  0  0  0  0
   -3.2056    1.9460    1.7938 C   0  0  0  0  0  0  0  0  0  0  0  0
   -3.2386    0.6788    1.2059 C   0  0  0  0  0  0  0  0  0  0  0  0
   -3.9649   -0.3784    1.6893 O   0  0  0  0  0  0  0  0  0  0  0  0
   -4.7964   -0.1470    2.8178 C   0  0  0  0  0  0  0  0  0  0  0  0
   -2.4989    0.4538    0.0267 C   0  0  0  0  0  0  0  0  0  0  0  0
   -2.5387   -0.7587   -0.6210 O   0  0  0  0  0  0  0  0  0  0  0  0
   -1.8994   -1.7837    0.1434 C   0  0  0  0  0  0  0  0  0  0  0  0
    1.2342    0.4960   -1.0029 C   0  0  0  0  0  0  0  0  0  0  0  0
    1.5079    1.7326   -0.2116 C   0  0  0  0  0  0  0  0  0  0  0  0
    4.7537    1.4684    2.2669 H   0  0  0  0  0  0  0  0  0  0  0  0
    5.5957    0.2339    3.2346 H   0  0  0  0  0  0  0  0  0  0  0  0
    3.8208    0.3658    3.2713 H   0  0  0  0  0  0  0  0  0  0  0  0
    5.4889   -0.4359    0.8300 H   0  0  0  0  0  0  0  0  0  0  0  0
    4.5377   -1.5595    1.8529 H   0  0  0  0  0  0  0  0  0  0  0  0
    1.0785   -3.3541   -3.1523 H   0  0  0  0  0  0  0  0  0  0  0  0
    2.0549   -3.4746   -1.6955 H   0  0  0  0  0  0  0  0  0  0  0  0
    2.7323   -2.7204   -3.1583 H   0  0  0  0  0  0  0  0  0  0  0  0
   -1.7170   -1.4554   -3.1727 H   0  0  0  0  0  0  0  0  0  0  0  0
   -0.4001   -2.0507   -4.1886 H   0  0  0  0  0  0  0  0  0  0  0  0
   -0.8896   -0.3687   -4.3157 H   0  0  0  0  0  0  0  0  0  0  0  0
   -0.5886    2.2285   -2.2528 H   0  0  0  0  0  0  0  0  0  0  0  0
   -1.7224    0.9506   -2.6462 H   0  0  0  0  0  0  0  0  0  0  0  0
   -1.2384    3.5882   -0.4335 H   0  0  0  0  0  0  0  0  0  0  0  0
   -2.4708    3.9663    1.6604 H   0  0  0  0  0  0  0  0  0  0  0  0
   -3.7454    2.1673    2.7082 H   0  0  0  0  0  0  0  0  0  0  0  0
   -4.2005    0.1102    3.6995 H   0  0  0  0  0  0  0  0  0  0  0  0
   -5.3281   -1.0779    3.0372 H   0  0  0  0  0  0  0  0  0  0  0  0
   -5.5466    0.6223    2.6071 H   0  0  0  0  0  0  0  0  0  0  0  0
   -1.5239   -2.5365   -0.5563 H   0  0  0  0  0  0  0  0  0  0  0  0
   -1.0491   -1.4087    0.7249 H   0  0  0  0  0  0  0  0  0  0  0  0
   -2.6212   -2.2786    0.7994 H   0  0  0  0  0  0  0  0  0  0  0  0
    1.1162    1.6310    0.8050 H   0  0  0  0  0  0  0  0  0  0  0  0
    2.5825    1.9312   -0.1521 H   0  0  0  0  0  0  0  0  0  0  0  0
    1.0714    2.6213   -0.6742 H   0  0  0  0  0  0  0  0  0  0  0  0
  1  2  1  0
  2  3  1  0
  3  4  1  0
  4  5  2  0
  4  6  1  0
  6  7  1  0
  7  8  1  0
  7  9  2  0
  9 10  1  0
  9 11  1  0
 11 12  1  0
 12 13  1  0
 13 14  2  0
 14 15  1  0
 15 16  2  0
 16 17  1  0
 17 18  1  0
 18 19  1  0
 17 20  2  0
 20 21  1  0
 21 22  1  0
 11 23  1  0
 23 24  1  0
 23  6  2  0
 20 13  1  0
  1 25  1  0
  1 26  1  0
  1 27  1  0
  2 28  1  0
  2 29  1  0
  8 30  1  0
  8 31  1  0
  8 32  1  0
 10 33  1  0
 10 34  1  0
 10 35  1  0
 12 36  1  0
 12 37  1  0
 14 38  1  0
 15 39  1  0
 16 40  1  0
 19 41  1  0
 19 42  1  0
 19 43  1  0
 22 44  1  0
 22 45  1  0
 22 46  1  0
 24 47  1  0
 24 48  1  0
 24 49  1  0
M  END
$$$$
