
     RDKit          3D

 77 80  0  0  0  0  0  0  0  0999 V2000
    0.8875    3.2286   -2.8711 C   0  0  0  0  0  0  0  0  0  0  0  0
   -0.1646    3.6353   -1.8433 C   0  0  0  0  0  0  0  0  0  0  0  0
   -1.3366    4.3499   -2.5117 C   0  0  0  0  0  0  0  0  0  0  0  0
   -0.6455    2.4579   -1.1301 N   0  0  0  0  0  0  0  0  0  0  0  0
   -0.8070    2.4345    0.2259 C   0  0  0  0  0  0  0  0  0  0  0  0
   -0.4777    3.3663    0.9509 O   0  0  0  0  0  0  0  0  0  0  0  0
   -1.2824    1.2459    0.7613 N   0  0  0  0  0  0  0  0  0  0  0  0
   -1.4234    1.1909    2.2163 C   0  0  0  0  0  0  0  0  0  0  0  0
   -2.1042    0.2877    0.0103 C   0  0  0  0  0  0  0  0  0  0  0  0
   -1.3492   -0.9985   -0.4163 C   0  0  0  0  0  0  0  0  0  0  0  0
   -0.8761   -1.6247    0.7876 O   0  0  0  0  0  0  0  0  0  0  0  0
    0.3388   -2.2608    0.6424 C   0  0  0  0  0  0  0  0  0  0  0  0
    1.5653   -1.5571    0.6302 C   0  0  0  0  0  0  0  0  0  0  0  0
    1.5610   -0.1400    0.7284 N   0  0  0  0  0  0  0  0  0  0  0  0
    2.6698    0.6992    0.7745 C   0  0  0  0  0  0  0  0  0  0  0  0
    3.8375    0.3262    0.6881 O   0  0  0  0  0  0  0  0  0  0  0  0
    2.2951    2.0217    0.9454 N   0  0  0  0  0  0  0  0  0  0  0  0
    3.1535    3.1452    0.9312 C   0  0  0  0  0  0  0  0  0  0  0  0
    4.4517    3.1226    0.3782 C   0  0  0  0  0  0  0  0  0  0  0  0
    5.2681    4.2633    0.4092 C   0  0  0  0  0  0  0  0  0  0  0  0
    4.7531    5.4072    0.9798 C   0  0  0  0  0  0  0  0  0  0  0  0
    3.4794    5.4420    1.5002 C   0  0  0  0  0  0  0  0  0  0  0  0
    2.6559    4.3335    1.4883 C   0  0  0  0  0  0  0  0  0  0  0  0
    3.1725    6.6537    2.0339 O   0  0  0  0  0  0  0  0  0  0  0  0
    4.4048    7.3697    1.8083 C   0  0  0  0  0  0  0  0  0  0  0  0
    5.3878    6.6044    1.0843 O   0  0  0  0  0  0  0  0  0  0  0  0
    2.7543   -2.2953    0.5454 C   0  0  0  0  0  0  0  0  0  0  0  0
    2.7523   -3.6923    0.5191 C   0  0  0  0  0  0  0  0  0  0  0  0
    1.5484   -4.3777    0.5678 C   0  0  0  0  0  0  0  0  0  0  0  0
    0.3427   -3.6658    0.6214 C   0  0  0  0  0  0  0  0  0  0  0  0
   -0.8914   -4.4759    0.6890 C   0  0  0  0  0  0  0  0  0  0  0  0
   -0.9182   -5.3949    1.5042 O   0  0  0  0  0  0  0  0  0  0  0  0
   -1.9324   -4.2215   -0.2036 N   0  0  0  0  0  0  0  0  0  0  0  0
   -3.1249   -5.1023   -0.1621 C   0  0  0  0  0  0  0  0  0  0  0  0
   -3.8661   -5.0550    1.1798 C   0  0  0  0  0  0  0  0  0  0  0  0
   -2.8005   -6.5561   -0.5651 C   0  0  0  0  0  0  0  0  0  0  0  0
   -3.9876   -7.2038   -1.0206 O   0  0  0  0  0  0  0  0  0  0  0  0
   -1.7612   -3.3797   -1.3970 C   0  0  0  0  0  0  0  0  0  0  0  0
   -2.2752   -1.9356   -1.2581 C   0  0  0  0  0  0  0  0  0  0  0  0
   -3.7546   -1.9175   -0.8486 C   0  0  0  0  0  0  0  0  0  0  0  0
    0.4961    2.4798   -3.5732 H   0  0  0  0  0  0  0  0  0  0  0  0
    1.7658    2.7975   -2.3775 H   0  0  0  0  0  0  0  0  0  0  0  0
    1.2188    4.0998   -3.4516 H   0  0  0  0  0  0  0  0  0  0  0  0
    0.2966    4.3272   -1.1296 H   0  0  0  0  0  0  0  0  0  0  0  0
   -2.0632    4.6827   -1.7600 H   0  0  0  0  0  0  0  0  0  0  0  0
   -1.8583    3.6851   -3.2095 H   0  0  0  0  0  0  0  0  0  0  0  0
   -0.9956    5.2298   -3.0707 H   0  0  0  0  0  0  0  0  0  0  0  0
   -0.8677    1.6493   -1.6871 H   0  0  0  0  0  0  0  0  0  0  0  0
   -0.6315    1.7594    2.7081 H   0  0  0  0  0  0  0  0  0  0  0  0
   -1.3701    0.1526    2.5639 H   0  0  0  0  0  0  0  0  0  0  0  0
   -2.3878    1.6197    2.4933 H   0  0  0  0  0  0  0  0  0  0  0  0
   -2.9421    0.0361    0.6696 H   0  0  0  0  0  0  0  0  0  0  0  0
   -2.5339    0.7845   -0.8719 H   0  0  0  0  0  0  0  0  0  0  0  0
   -0.5024   -0.7025   -1.0524 H   0  0  0  0  0  0  0  0  0  0  0  0
    0.6559    0.2844    0.8711 H   0  0  0  0  0  0  0  0  0  0  0  0
    1.3871    2.1865    1.3590 H   0  0  0  0  0  0  0  0  0  0  0  0
    4.8524    2.2314   -0.0977 H   0  0  0  0  0  0  0  0  0  0  0  0
    6.2583    4.2578   -0.0245 H   0  0  0  0  0  0  0  0  0  0  0  0
    1.6687    4.3899    1.9256 H   0  0  0  0  0  0  0  0  0  0  0  0
    4.1832    8.2827    1.2448 H   0  0  0  0  0  0  0  0  0  0  0  0
    4.8321    7.6461    2.7784 H   0  0  0  0  0  0  0  0  0  0  0  0
    3.7302   -1.8208    0.5343 H   0  0  0  0  0  0  0  0  0  0  0  0
    3.6932   -4.2373    0.4752 H   0  0  0  0  0  0  0  0  0  0  0  0
    1.5413   -5.4656    0.5729 H   0  0  0  0  0  0  0  0  0  0  0  0
   -3.8408   -4.7181   -0.9007 H   0  0  0  0  0  0  0  0  0  0  0  0
   -4.0762   -4.0240    1.4819 H   0  0  0  0  0  0  0  0  0  0  0  0
   -3.3013   -5.5283    1.9889 H   0  0  0  0  0  0  0  0  0  0  0  0
   -4.8284   -5.5795    1.1016 H   0  0  0  0  0  0  0  0  0  0  0  0
   -2.0797   -6.5703   -1.3909 H   0  0  0  0  0  0  0  0  0  0  0  0
   -2.3893   -7.1282    0.2696 H   0  0  0  0  0  0  0  0  0  0  0  0
   -3.7247   -8.0750   -1.3568 H   0  0  0  0  0  0  0  0  0  0  0  0
   -2.2831   -3.8721   -2.2282 H   0  0  0  0  0  0  0  0  0  0  0  0
   -0.7079   -3.3720   -1.7001 H   0  0  0  0  0  0  0  0  0  0  0  0
   -2.2625   -1.5059   -2.2710 H   0  0  0  0  0  0  0  0  0  0  0  0
   -4.3426   -2.6096   -1.4577 H   0  0  0  0  0  0  0  0  0  0  0  0
   -4.2055   -0.9344   -1.0082 H   0  0  0  0  0  0  0  0  0  0  0  0
   -3.8860   -2.1697    0.2077 H   0  0  0  0  0  0  0  0  0  0  0  0
  1  2  1  0
  2  3  1  0
  2  4  1  0
  4  5  1  0
  5  6  2  0
  5  7  1  0
  7  8  1  0
  7  9  1  0
  9 10  1  0
 10 11  1  0
 11 12  1  0
 12 13  2  0
 13 14  1  0
 14 15  1  0
 15 16  2  0
 15 17  1  0
 17 18  1  0
 18 19  2  0
 19 20  1  0
 20 21  2  0
 21 22  1  0
 22 23  2  0
 22 24  1  0
 24 25  1  0
 25 26  1  0
 13 27  1  0
 27 28  2  0
 28 29  1  0
 29 30  2  0
 30 31  1  0
 31 32  2  0
 31 33  1  0
 33 34  1  0
 34 35  1  0
 34 36  1  0
 36 37  1  0
 33 38  1  0
 38 39  1  0
 39 40  1  0
 39 10  1  0
 30 12  1  0
 23 18  1  0
 26 21  1  0
  1 41  1  0
  1 42  1  0
  1 43  1  0
  2 44  1  0
  3 45  1  0
  3 46  1  0
  3 47  1  0
  4 48  1  0
  8 49  1  0
  8 50  1  0
  8 51  1  0
  9 52  1  0
  9 53  1  0
 10 54  1  0
 14 55  1  0
 17 56  1  0
 19 57  1  0
 20 58  1  0
 23 59  1  0
 25 60  1  0
 25 61  1  0
 27 62  1  0
 28 63  1  0
 29 64  1  0
 34 65  1  0
 35 66  1  0
 35 67  1  0
 35 68  1  0
 36 69  1  0
 36 70  1  0
 37 71  1  0
 38 72  1  0
 38 73  1  0
 39 74  1  0
 40 75  1  0
 40 76  1  0
 40 77  1  0
M  END
$$$$
