
     RDKit          3D

 31 32  0  0  0  0  0  0  0  0999 V2000
    2.8177    1.2098    3.2248 C   0  0  0  0  0  0  0  0  0  0  0  0
    4.0061    0.1967    2.2996 S   0  0  0  0  0  0  0  0  0  0  0  0
    2.9332   -0.5287    1.0703 C   0  0  0  0  0  0  0  0  0  0  0  0
    3.3603   -0.5477   -0.2621 C   0  0  0  0  0  0  0  0  0  0  0  0
    2.5518   -1.0988   -1.2586 C   0  0  0  0  0  0  0  0  0  0  0  0
    1.3114   -1.6422   -0.9279 C   0  0  0  0  0  0  0  0  0  0  0  0
    0.8896   -1.6457    0.4012 C   0  0  0  0  0  0  0  0  0  0  0  0
   -0.3944   -2.1787    0.7400 N   0  0  0  0  0  0  0  0  0  0  0  0
   -1.6112   -1.0321    1.0775 S   0  0  0  0  0  6  0  0  0  0  0  0
   -2.8137   -1.7670    1.4099 O   0  0  0  0  0  0  0  0  0  0  0  0
   -1.0999    0.0235    1.9272 O   0  0  0  0  0  0  0  0  0  0  0  0
   -2.0207   -0.2435   -0.4258 C   0  0  0  0  0  0  0  0  0  0  0  0
   -2.5611    1.0186   -0.5715 C   0  0  0  0  0  0  0  0  0  0  0  0
   -2.7104    1.1802   -1.9177 N   0  0  0  0  0  0  0  0  0  0  0  0
   -3.2418    2.3397   -2.5886 C   0  0  0  0  0  0  0  0  0  0  0  0
   -2.2699    0.0425   -2.5347 C   0  0  0  0  0  0  0  0  0  0  0  0
   -1.8422   -0.8461   -1.6649 N   0  0  0  0  0  0  0  0  0  0  0  0
    1.6989   -1.0968    1.3975 C   0  0  0  0  0  0  0  0  0  0  0  0
    2.2401    1.8440    2.5467 H   0  0  0  0  0  0  0  0  0  0  0  0
    2.1400    0.5822    3.8088 H   0  0  0  0  0  0  0  0  0  0  0  0
    3.3665    1.8540    3.9173 H   0  0  0  0  0  0  0  0  0  0  0  0
    4.3251   -0.1253   -0.5354 H   0  0  0  0  0  0  0  0  0  0  0  0
    2.8883   -1.0988   -2.2922 H   0  0  0  0  0  0  0  0  0  0  0  0
    0.6833   -2.0529   -1.7140 H   0  0  0  0  0  0  0  0  0  0  0  0
   -0.7717   -2.8165    0.0364 H   0  0  0  0  0  0  0  0  0  0  0  0
   -2.8343    1.7711    0.1559 H   0  0  0  0  0  0  0  0  0  0  0  0
   -3.5088    3.0996   -1.8499 H   0  0  0  0  0  0  0  0  0  0  0  0
   -2.4758    2.7297   -3.2636 H   0  0  0  0  0  0  0  0  0  0  0  0
   -4.1297    2.0375   -3.1498 H   0  0  0  0  0  0  0  0  0  0  0  0
   -2.2852   -0.0835   -3.6102 H   0  0  0  0  0  0  0  0  0  0  0  0
    1.3586   -1.1248    2.4288 H   0  0  0  0  0  0  0  0  0  0  0  0
  1  2  1  0
  2  3  1  0
  3  4  2  0
  4  5  1  0
  5  6  2  0
  6  7  1  0
  7  8  1  0
  8  9  1  0
  9 10  2  0
  9 11  2  0
  9 12  1  0
 12 13  2  0
 13 14  1  0
 14 15  1  0
 14 16  1  0
 16 17  2  0
  7 18  2  0
 18  3  1  0
 17 12  1  0
  1 19  1  0
  1 20  1  0
  1 21  1  0
  4 22  1  0
  5 23  1  0
  6 24  1  0
  8 25  1  0
 13 26  1  0
 15 27  1  0
 15 28  1  0
 15 29  1  0
 16 30  1  0
 18 31  1  0
M  END
$$$$
