
     RDKit          3D

 49 53  0  0  0  0  0  0  0  0999 V2000
   -0.9569   -3.2508   -2.6854 C   0  0  0  0  0  0  0  0  0  0  0  0
   -1.7493   -2.8045   -1.4916 C   0  0  0  0  0  0  0  0  0  0  0  0
   -2.1293   -3.7275   -0.5075 C   0  0  0  0  0  0  0  0  0  0  0  0
   -2.8454   -3.3153    0.6193 C   0  0  0  0  0  0  0  0  0  0  0  0
   -3.1768   -1.9717    0.7827 C   0  0  0  0  0  0  0  0  0  0  0  0
   -2.7753   -1.0444   -0.1832 C   0  0  0  0  0  0  0  0  0  0  0  0
   -3.1888    0.6688    0.0383 S   0  0  0  0  0  6  0  0  0  0  0  0
   -2.6079    1.4336   -1.0424 O   0  0  0  0  0  0  0  0  0  0  0  0
   -4.6100    0.7077    0.3145 O   0  0  0  0  0  0  0  0  0  0  0  0
   -2.4244    1.0390    1.5040 N   0  0  0  0  0  0  0  0  0  0  0  0
   -1.2865    1.8778    1.3778 C   0  0  0  0  0  0  0  0  0  0  0  0
   -1.5606    3.1403    1.7578 N   0  0  0  0  0  0  0  0  0  0  0  0
   -0.5510    4.0171    1.6168 C   0  0  0  0  0  0  0  0  0  0  0  0
   -0.7506    5.3485    1.9606 C   0  0  0  0  0  0  0  0  0  0  0  0
    0.2683    6.2933    1.8299 C   0  0  0  0  0  0  0  0  0  0  0  0
    1.5098    5.9005    1.3475 C   0  0  0  0  0  0  0  0  0  0  0  0
    1.7228    4.5659    0.9994 C   0  0  0  0  0  0  0  0  0  0  0  0
    0.7171    3.6160    1.1239 C   0  0  0  0  0  0  0  0  0  0  0  0
    0.9713    2.3374    0.7813 N   0  0  0  0  0  0  0  0  0  0  0  0
   -0.0320    1.4414    0.9087 C   0  0  0  0  0  0  0  0  0  0  0  0
    0.1650    0.0724    0.6091 N   0  0  0  0  0  0  0  0  0  0  0  0
    1.2690   -0.5626    0.0018 C   0  0  0  0  0  0  0  0  0  0  0  0
    2.1183    0.0978   -0.9123 C   0  0  0  0  0  0  0  0  0  0  0  0
    3.1702   -0.5705   -1.5524 C   0  0  0  0  0  0  0  0  0  0  0  0
    3.3405   -1.9070   -1.2772 C   0  0  0  0  0  0  0  0  0  0  0  0
    2.5087   -2.5723   -0.4115 C   0  0  0  0  0  0  0  0  0  0  0  0
    1.4662   -1.9357    0.2307 C   0  0  0  0  0  0  0  0  0  0  0  0
    2.8304   -3.8887   -0.2904 O   0  0  0  0  0  0  0  0  0  0  0  0
    3.9713   -3.9693   -1.1705 C   0  0  0  0  0  0  0  0  0  0  0  0
    4.2943   -2.7165   -1.8081 O   0  0  0  0  0  0  0  0  0  0  0  0
   -2.0684   -1.4523   -1.3186 C   0  0  0  0  0  0  0  0  0  0  0  0
   -1.1248   -2.5852   -3.5386 H   0  0  0  0  0  0  0  0  0  0  0  0
   -1.2567   -4.2574   -2.9955 H   0  0  0  0  0  0  0  0  0  0  0  0
    0.1108   -3.2564   -2.4484 H   0  0  0  0  0  0  0  0  0  0  0  0
   -1.8736   -4.7797   -0.6190 H   0  0  0  0  0  0  0  0  0  0  0  0
   -3.1489   -4.0464    1.3648 H   0  0  0  0  0  0  0  0  0  0  0  0
   -3.7472   -1.6562    1.6528 H   0  0  0  0  0  0  0  0  0  0  0  0
   -3.1160    1.4845    2.1075 H   0  0  0  0  0  0  0  0  0  0  0  0
   -1.7236    5.6581    2.3350 H   0  0  0  0  0  0  0  0  0  0  0  0
    0.0881    7.3303    2.1025 H   0  0  0  0  0  0  0  0  0  0  0  0
    2.3121    6.6262    1.2393 H   0  0  0  0  0  0  0  0  0  0  0  0
    2.6950    4.2574    0.6218 H   0  0  0  0  0  0  0  0  0  0  0  0
   -0.2664   -0.5006    1.3286 H   0  0  0  0  0  0  0  0  0  0  0  0
    1.9586    1.1473   -1.1477 H   0  0  0  0  0  0  0  0  0  0  0  0
    3.8197   -0.0527   -2.2484 H   0  0  0  0  0  0  0  0  0  0  0  0
    0.8178   -2.5010    0.8904 H   0  0  0  0  0  0  0  0  0  0  0  0
    4.8394   -4.3018   -0.5896 H   0  0  0  0  0  0  0  0  0  0  0  0
    3.7619   -4.7139   -1.9471 H   0  0  0  0  0  0  0  0  0  0  0  0
   -1.7558   -0.7209   -2.0621 H   0  0  0  0  0  0  0  0  0  0  0  0
  1  2  1  0
  2  3  2  0
  3  4  1  0
  4  5  2  0
  5  6  1  0
  6  7  1  0
  7  8  2  0
  7  9  2  0
  7 10  1  0
 10 11  1  0
 11 12  2  0
 12 13  1  0
 13 14  2  0
 14 15  1  0
 15 16  2  0
 16 17  1  0
 17 18  2  0
 18 19  1  0
 19 20  2  0
 20 21  1  0
 21 22  1  0
 22 23  2  0
 23 24  1  0
 24 25  2  0
 25 26  1  0
 26 27  2  0
 26 28  1  0
 28 29  1  0
 29 30  1  0
  6 31  2  0
 31  2  1  0
 20 11  1  0
 27 22  1  0
 18 13  1  0
 30 25  1  0
  1 32  1  0
  1 33  1  0
  1 34  1  0
  3 35  1  0
  4 36  1  0
  5 37  1  0
 10 38  1  0
 14 39  1  0
 15 40  1  0
 16 41  1  0
 17 42  1  0
 21 43  1  0
 23 44  1  0
 24 45  1  0
 27 46  1  0
 29 47  1  0
 29 48  1  0
 31 49  1  0
M  END
$$$$
