
     RDKit          3D

 44 44  0  0  0  0  0  0  0  0999 V2000
   -5.8008    0.7505    1.0340 C   0  0  0  0  0  0  0  0  0  0  0  0
   -4.8437    1.7308    0.3732 C   0  0  0  0  0  0  0  0  0  0  0  0
   -3.8112    1.0282   -0.3998 N   0  0  0  0  0  0  0  0  0  0  0  0
   -4.1413    0.7092   -1.7960 C   0  0  0  0  0  0  0  0  0  0  0  0
   -4.3406   -0.7870   -1.9987 C   0  0  0  0  0  0  0  0  0  0  0  0
   -2.5600    0.7493    0.1456 C   0  0  0  0  0  0  0  0  0  0  0  0
   -2.3164    0.8076    1.5282 C   0  0  0  0  0  0  0  0  0  0  0  0
   -1.0578    0.5370    2.0804 C   0  0  0  0  0  0  0  0  0  0  0  0
    0.0079    0.1836    1.2606 C   0  0  0  0  0  0  0  0  0  0  0  0
   -0.1924    0.0911   -0.1102 C   0  0  0  0  0  0  0  0  0  0  0  0
    0.7644   -0.2388   -1.0321 O   0  0  0  0  0  0  0  0  0  0  0  0
    1.8507   -1.0348   -0.5798 C   0  0  0  0  0  0  0  0  0  0  0  0
    3.0791   -0.2585   -0.0752 C   0  0  0  0  0  0  0  0  0  0  0  0
    3.0982    0.9729   -0.0278 O   0  0  0  0  0  0  0  0  0  0  0  0
    4.1858   -1.0053    0.3392 N   0  0  0  0  0  0  0  0  0  0  0  0
    4.3484   -2.4345    0.1060 C   0  0  0  0  0  0  0  0  0  0  0  0
    5.3748   -0.2670    0.7822 C   0  0  0  0  0  0  0  0  0  0  0  0
    6.1992    0.2892   -0.3790 C   0  0  0  0  0  0  0  0  0  0  0  0
    7.4228    0.9226    0.1228 C   0  0  0  0  0  0  0  0  0  0  0  0
    8.4003    1.4004    0.5258 N   0  0  0  0  0  0  0  0  0  0  0  0
   -1.4557    0.3867   -0.6477 C   0  0  0  0  0  0  0  0  0  0  0  0
   -6.3431    0.1647    0.2852 H   0  0  0  0  0  0  0  0  0  0  0  0
   -6.5390    1.2909    1.6348 H   0  0  0  0  0  0  0  0  0  0  0  0
   -5.2751    0.0495    1.6894 H   0  0  0  0  0  0  0  0  0  0  0  0
   -5.4187    2.3911   -0.2883 H   0  0  0  0  0  0  0  0  0  0  0  0
   -4.4071    2.4046    1.1194 H   0  0  0  0  0  0  0  0  0  0  0  0
   -5.0737    1.2094   -2.0867 H   0  0  0  0  0  0  0  0  0  0  0  0
   -3.3849    1.1023   -2.4842 H   0  0  0  0  0  0  0  0  0  0  0  0
   -3.4294   -1.3548   -1.7896 H   0  0  0  0  0  0  0  0  0  0  0  0
   -5.1288   -1.1729   -1.3449 H   0  0  0  0  0  0  0  0  0  0  0  0
   -4.6308   -0.9901   -3.0345 H   0  0  0  0  0  0  0  0  0  0  0  0
   -3.1099    1.0598    2.2246 H   0  0  0  0  0  0  0  0  0  0  0  0
   -0.9147    0.6123    3.1551 H   0  0  0  0  0  0  0  0  0  0  0  0
    0.9768    0.0146    1.7158 H   0  0  0  0  0  0  0  0  0  0  0  0
    1.5244   -1.7580    0.1774 H   0  0  0  0  0  0  0  0  0  0  0  0
    2.1773   -1.6069   -1.4560 H   0  0  0  0  0  0  0  0  0  0  0  0
    3.3968   -2.9411   -0.0574 H   0  0  0  0  0  0  0  0  0  0  0  0
    4.9782   -2.5735   -0.7772 H   0  0  0  0  0  0  0  0  0  0  0  0
    4.8326   -2.8862    0.9767 H   0  0  0  0  0  0  0  0  0  0  0  0
    5.0482    0.5582    1.4285 H   0  0  0  0  0  0  0  0  0  0  0  0
    5.9783   -0.9316    1.4129 H   0  0  0  0  0  0  0  0  0  0  0  0
    5.6137    1.0142   -0.9547 H   0  0  0  0  0  0  0  0  0  0  0  0
    6.4633   -0.5195   -1.0703 H   0  0  0  0  0  0  0  0  0  0  0  0
   -1.5462    0.3297   -1.7277 H   0  0  0  0  0  0  0  0  0  0  0  0
  1  2  1  0
  2  3  1  0
  3  4  1  0
  4  5  1  0
  3  6  1  0
  6  7  2  0
  7  8  1  0
  8  9  2  0
  9 10  1  0
 10 11  1  0
 11 12  1  0
 12 13  1  0
 13 14  2  0
 13 15  1  0
 15 16  1  0
 15 17  1  0
 17 18  1  0
 18 19  1  0
 19 20  3  0
 10 21  2  0
 21  6  1  0
  1 22  1  0
  1 23  1  0
  1 24  1  0
  2 25  1  0
  2 26  1  0
  4 27  1  0
  4 28  1  0
  5 29  1  0
  5 30  1  0
  5 31  1  0
  7 32  1  0
  8 33  1  0
  9 34  1  0
 12 35  1  0
 12 36  1  0
 16 37  1  0
 16 38  1  0
 16 39  1  0
 17 40  1  0
 17 41  1  0
 18 42  1  0
 18 43  1  0
 21 44  1  0
M  END
$$$$
