
     RDKit          3D

 46 49  0  0  0  0  0  0  0  0999 V2000
   -4.6639   -4.1142    1.4854 C   0  0  0  0  0  0  0  0  0  0  0  0
   -3.9068   -2.9272    1.6850 O   0  0  0  0  0  0  0  0  0  0  0  0
   -3.4912   -2.2641    0.5626 C   0  0  0  0  0  0  0  0  0  0  0  0
   -3.7630   -2.6312   -0.7554 C   0  0  0  0  0  0  0  0  0  0  0  0
   -3.2704   -1.8625   -1.8136 C   0  0  0  0  0  0  0  0  0  0  0  0
   -2.5091   -0.7213   -1.5602 C   0  0  0  0  0  0  0  0  0  0  0  0
   -2.2392   -0.3384   -0.2435 C   0  0  0  0  0  0  0  0  0  0  0  0
   -1.4393    0.8491    0.0302 C   0  0  0  0  0  0  0  0  0  0  0  0
   -0.0638    1.0310   -0.0254 C   0  0  0  0  0  0  0  0  0  0  0  0
    0.9748    0.0779   -0.4093 C   0  0  0  0  0  0  0  0  0  0  0  0
    0.7314   -1.0555   -0.8101 O   0  0  0  0  0  0  0  0  0  0  0  0
    2.2497    0.6143   -0.2713 N   0  0  0  0  0  0  0  0  0  0  0  0
    3.3452   -0.1059   -0.6433 N   0  0  0  0  0  0  0  0  0  0  0  0
    4.5405    0.3835   -0.4681 C   0  0  0  0  0  0  0  0  0  0  0  0
    4.8037    1.7252    0.1878 C   0  0  0  0  0  0  0  0  0  0  0  0
    5.6501   -0.4236   -0.9706 C   0  0  0  0  0  0  0  0  0  0  0  0
    5.5925   -1.7368   -1.4182 C   0  0  0  0  0  0  0  0  0  0  0  0
    6.8561   -2.2299   -1.8599 C   0  0  0  0  0  0  0  0  0  0  0  0
    7.8225   -1.2681   -1.7412 C   0  0  0  0  0  0  0  0  0  0  0  0
    9.4811   -1.4235   -2.1561 Cl  0  0  0  0  0  0  0  0  0  0  0  0
    7.2455    0.1936   -1.1212 S   0  0  0  0  0  0  0  0  0  0  0  0
    0.2417    2.3108    0.3630 N   0  0  0  0  0  0  0  0  0  0  0  0
   -0.8837    2.9371    0.6514 N   0  0  0  0  0  0  0  0  0  0  0  0
   -1.9370    2.0896    0.4398 N   0  0  0  0  0  0  0  0  0  0  0  0
   -3.2767    2.5232    0.6120 C   0  0  0  0  0  0  0  0  0  0  0  0
   -4.3068    1.7316    0.3131 N   0  0  0  0  0  0  0  0  0  0  0  0
   -5.4281    2.5093    0.5921 O   0  0  0  0  0  0  0  0  0  0  0  0
   -5.0652    3.7727    1.0472 N   0  0  0  0  0  0  0  0  0  0  0  0
   -3.7331    3.7758    1.0648 C   0  0  0  0  0  0  0  0  0  0  0  0
   -2.9835    4.8231    1.4590 N   0  0  0  0  0  0  0  0  0  0  0  0
   -2.7274   -1.1196    0.8119 C   0  0  0  0  0  0  0  0  0  0  0  0
   -4.9032   -4.5276    2.4700 H   0  0  0  0  0  0  0  0  0  0  0  0
   -4.0836   -4.8665    0.9409 H   0  0  0  0  0  0  0  0  0  0  0  0
   -5.6090   -3.8981    0.9764 H   0  0  0  0  0  0  0  0  0  0  0  0
   -4.3496   -3.5114   -0.9956 H   0  0  0  0  0  0  0  0  0  0  0  0
   -3.4758   -2.1584   -2.8393 H   0  0  0  0  0  0  0  0  0  0  0  0
   -2.1251   -0.1438   -2.3973 H   0  0  0  0  0  0  0  0  0  0  0  0
    2.3328    1.5786    0.0333 H   0  0  0  0  0  0  0  0  0  0  0  0
    4.6544    2.5189   -0.5499 H   0  0  0  0  0  0  0  0  0  0  0  0
    4.1215    1.8832    1.0278 H   0  0  0  0  0  0  0  0  0  0  0  0
    5.8137    1.7989    0.5955 H   0  0  0  0  0  0  0  0  0  0  0  0
    4.6748   -2.3167   -1.4252 H   0  0  0  0  0  0  0  0  0  0  0  0
    7.0322   -3.2274   -2.2424 H   0  0  0  0  0  0  0  0  0  0  0  0
   -1.9850    4.8610    1.2631 H   0  0  0  0  0  0  0  0  0  0  0  0
   -3.4270    5.7296    1.5660 H   0  0  0  0  0  0  0  0  0  0  0  0
   -2.5176   -0.8464    1.8433 H   0  0  0  0  0  0  0  0  0  0  0  0
  1  2  1  0
  2  3  1  0
  3  4  2  0
  4  5  1  0
  5  6  2  0
  6  7  1  0
  7  8  1  0
  8  9  2  0
  9 10  1  0
 10 11  2  0
 10 12  1  0
 12 13  1  0
 13 14  2  3
 14 15  1  0
 14 16  1  0
 16 17  2  0
 17 18  1  0
 18 19  2  0
 19 20  1  0
 19 21  1  0
  9 22  1  0
 22 23  2  0
 23 24  1  0
 24 25  1  0
 25 26  2  0
 26 27  1  0
 27 28  1  0
 28 29  2  0
 29 30  1  0
  7 31  2  0
 31  3  1  0
 24  8  1  0
 29 25  1  0
 21 16  1  0
  1 32  1  0
  1 33  1  0
  1 34  1  0
  4 35  1  0
  5 36  1  0
  6 37  1  0
 12 38  1  0
 15 39  1  0
 15 40  1  0
 15 41  1  0
 17 42  1  0
 18 43  1  0
 30 44  1  0
 30 45  1  0
 31 46  1  0
M  END
$$$$
