
     RDKit          3D

 58 63  0  0  0  0  0  0  0  0999 V2000
    7.8126    0.6925   -1.6265 C   0  0  0  0  0  0  0  0  0  0  0  0
    6.6639    0.7692   -0.6787 C   0  0  0  0  0  0  0  0  0  0  0  0
    6.0415    1.8953   -0.1732 C   0  0  0  0  0  0  0  0  0  0  0  0
    4.9646    1.5678    0.7028 C   0  0  0  0  0  0  0  0  0  0  0  0
    4.7992    0.2012    0.8302 C   0  0  0  0  0  0  0  0  0  0  0  0
    3.8193   -0.5187    1.6207 C   0  0  0  0  0  0  0  0  0  0  0  0
    4.1137   -1.0316    2.7075 O   0  0  0  0  0  0  0  0  0  0  0  0
    2.4973   -0.5635    1.1141 N   0  0  0  0  0  0  0  0  0  0  0  0
    1.5597   -1.4160    1.8348 C   0  0  0  0  0  0  0  0  0  0  0  0
    0.1115   -0.9809    1.6275 C   0  0  0  0  0  0  0  0  0  0  0  0
   -0.2568   -0.8684    0.1303 C   0  0  0  0  0  0  0  0  0  0  0  0
    0.7705    0.0720   -0.5478 C   0  0  0  0  0  0  0  0  0  0  0  0
    2.2125   -0.3715   -0.3084 C   0  0  0  0  0  0  0  0  0  0  0  0
   -0.0366   -2.1514   -0.5107 O   0  0  0  0  0  0  0  0  0  0  0  0
   -1.0214   -3.0873   -0.4162 C   0  0  0  0  0  0  0  0  0  0  0  0
   -0.6708   -4.3832   -0.7924 C   0  0  0  0  0  0  0  0  0  0  0  0
   -1.6077   -5.4154   -0.7091 C   0  0  0  0  0  0  0  0  0  0  0  0
   -2.8985   -5.1465   -0.2537 C   0  0  0  0  0  0  0  0  0  0  0  0
   -4.0485   -6.4198   -0.1497 Cl  0  0  0  0  0  0  0  0  0  0  0  0
   -3.2613   -3.8539    0.1141 C   0  0  0  0  0  0  0  0  0  0  0  0
   -2.3166   -2.8272    0.0186 C   0  0  0  0  0  0  0  0  0  0  0  0
   -2.6716   -1.4503    0.3851 C   0  0  0  0  0  0  0  0  0  0  0  0
   -3.6868   -1.2388    1.0429 O   0  0  0  0  0  0  0  0  0  0  0  0
   -1.7108   -0.3628   -0.0854 C   0  0  0  0  0  0  0  0  0  0  0  0
   -2.0462    0.9757    0.5571 C   0  0  0  0  0  0  0  0  0  0  0  0
   -2.9357    1.5213   -0.5104 C   0  0  0  0  0  0  0  0  0  0  0  0
   -3.8081    2.6999   -0.2870 C   0  0  0  0  0  0  0  0  0  0  0  0
   -4.7045    3.0796   -1.2958 C   0  0  0  0  0  0  0  0  0  0  0  0
   -5.5342    4.1916   -1.1217 C   0  0  0  0  0  0  0  0  0  0  0  0
   -5.4661    4.9274    0.0596 C   0  0  0  0  0  0  0  0  0  0  0  0
   -6.4710    6.3069    0.2677 Cl  0  0  0  0  0  0  0  0  0  0  0  0
   -4.5785    4.5581    1.0697 C   0  0  0  0  0  0  0  0  0  0  0  0
   -3.7485    3.4438    0.8983 C   0  0  0  0  0  0  0  0  0  0  0  0
   -2.8570    0.9059   -1.6472 N   0  0  0  0  0  0  0  0  0  0  0  0
   -1.9489   -0.1662   -1.4899 O   0  0  0  0  0  0  0  0  0  0  0  0
    5.9627   -0.6730   -0.0689 S   0  0  0  0  0  0  0  0  0  0  0  0
    7.5100    0.2039   -2.5594 H   0  0  0  0  0  0  0  0  0  0  0  0
    8.1807    1.6959   -1.8758 H   0  0  0  0  0  0  0  0  0  0  0  0
    8.6466    0.1299   -1.1905 H   0  0  0  0  0  0  0  0  0  0  0  0
    6.3444    2.9089   -0.4191 H   0  0  0  0  0  0  0  0  0  0  0  0
    4.3431    2.2958    1.2147 H   0  0  0  0  0  0  0  0  0  0  0  0
    1.7159   -2.4467    1.4937 H   0  0  0  0  0  0  0  0  0  0  0  0
    1.7787   -1.3971    2.9085 H   0  0  0  0  0  0  0  0  0  0  0  0
   -0.0383   -0.0129    2.1223 H   0  0  0  0  0  0  0  0  0  0  0  0
   -0.5329   -1.7058    2.1380 H   0  0  0  0  0  0  0  0  0  0  0  0
    0.6052    0.1008   -1.6319 H   0  0  0  0  0  0  0  0  0  0  0  0
    0.6667    1.0963   -0.1748 H   0  0  0  0  0  0  0  0  0  0  0  0
    2.4271   -1.3190   -0.8176 H   0  0  0  0  0  0  0  0  0  0  0  0
    2.8769    0.3784   -0.7453 H   0  0  0  0  0  0  0  0  0  0  0  0
    0.3358   -4.5957   -1.1457 H   0  0  0  0  0  0  0  0  0  0  0  0
   -1.3239   -6.4238   -0.9994 H   0  0  0  0  0  0  0  0  0  0  0  0
   -4.2701   -3.6432    0.4612 H   0  0  0  0  0  0  0  0  0  0  0  0
   -2.5430    0.8931    1.5271 H   0  0  0  0  0  0  0  0  0  0  0  0
   -1.1909    1.6506    0.6500 H   0  0  0  0  0  0  0  0  0  0  0  0
   -4.7637    2.5119   -2.2234 H   0  0  0  0  0  0  0  0  0  0  0  0
   -6.2231    4.4777   -1.9116 H   0  0  0  0  0  0  0  0  0  0  0  0
   -4.5267    5.1344    1.9911 H   0  0  0  0  0  0  0  0  0  0  0  0
   -3.0615    3.1847    1.6995 H   0  0  0  0  0  0  0  0  0  0  0  0
  1  2  1  0
  2  3  2  0
  3  4  1  0
  4  5  2  0
  5  6  1  0
  6  7  2  0
  6  8  1  0
  8  9  1  0
  9 10  1  0
 10 11  1  0
 11 12  1  0
 12 13  1  0
 11 14  1  0
 14 15  1  0
 15 16  2  0
 16 17  1  0
 17 18  2  0
 18 19  1  0
 18 20  1  0
 20 21  2  0
 21 22  1  0
 22 23  2  0
 22 24  1  0
 24 25  1  0
 25 26  1  0
 26 27  1  0
 27 28  2  0
 28 29  1  0
 29 30  2  0
 30 31  1  0
 30 32  1  0
 32 33  2  0
 26 34  2  0
 34 35  1  0
  5 36  1  0
 36  2  1  0
 13  8  1  0
 21 15  1  0
 35 24  1  0
 24 11  1  0
 33 27  1  0
  1 37  1  0
  1 38  1  0
  1 39  1  0
  3 40  1  0
  4 41  1  0
  9 42  1  0
  9 43  1  0
 10 44  1  0
 10 45  1  0
 12 46  1  0
 12 47  1  0
 13 48  1  0
 13 49  1  0
 16 50  1  0
 17 51  1  0
 20 52  1  0
 25 53  1  0
 25 54  1  0
 28 55  1  0
 29 56  1  0
 32 57  1  0
 33 58  1  0
M  END
$$$$
