
     RDKit          3D

 55 58  0  0  0  0  0  0  0  0999 V2000
    8.9360    0.6206    0.1734 C   0  0  0  0  0  0  0  0  0  0  0  0
    8.0493   -0.0372   -0.7177 O   0  0  0  0  0  0  0  0  0  0  0  0
    6.7086    0.0478   -0.4259 C   0  0  0  0  0  0  0  0  0  0  0  0
    6.2094    0.2956    0.8574 C   0  0  0  0  0  0  0  0  0  0  0  0
    4.8313    0.3316    1.0840 C   0  0  0  0  0  0  0  0  0  0  0  0
    3.9458    0.1093    0.0254 C   0  0  0  0  0  0  0  0  0  0  0  0
    2.4749    0.1521    0.2352 C   0  0  0  0  0  0  0  0  0  0  0  0
    1.9594   -0.5498    1.4573 C   0  0  0  0  0  0  0  0  0  0  0  0
    0.6230   -0.5284    1.6419 C   0  0  0  0  0  0  0  0  0  0  0  0
   -0.0578   -1.1386    2.8091 C   0  0  0  0  0  0  0  0  0  0  0  0
    0.8425   -1.6787    3.6749 F   0  0  0  0  0  0  0  0  0  0  0  0
   -0.8933   -2.1493    2.4715 F   0  0  0  0  0  0  0  0  0  0  0  0
   -0.7669   -0.2365    3.5343 F   0  0  0  0  0  0  0  0  0  0  0  0
   -0.1842    0.1306    0.7182 N   0  0  0  0  0  0  0  0  0  0  0  0
   -1.5329    0.2473    0.7096 N   0  0  0  0  0  0  0  0  0  0  0  0
   -1.8178    1.0602   -0.3195 C   0  0  0  0  0  0  0  0  0  0  0  0
   -3.1877    1.5084   -0.6051 C   0  0  0  0  0  0  0  0  0  0  0  0
   -3.4629    2.7121   -0.5604 O   0  0  0  0  0  0  0  0  0  0  0  0
   -4.1372    0.5283   -0.9272 N   0  0  0  0  0  0  0  0  0  0  0  0
   -3.8351   -0.8935   -1.1182 C   0  0  0  0  0  0  0  0  0  0  0  0
   -5.5317    0.9336   -1.0562 C   0  0  0  0  0  0  0  0  0  0  0  0
   -6.4064    0.3679    0.0382 C   0  0  0  0  0  0  0  0  0  0  0  0
   -7.3209   -0.6614   -0.2420 C   0  0  0  0  0  0  0  0  0  0  0  0
   -8.1209   -1.1918    0.7723 C   0  0  0  0  0  0  0  0  0  0  0  0
   -8.0171   -0.7005    2.0763 C   0  0  0  0  0  0  0  0  0  0  0  0
   -7.1055    0.3154    2.3682 C   0  0  0  0  0  0  0  0  0  0  0  0
   -6.3027    0.8462    1.3546 C   0  0  0  0  0  0  0  0  0  0  0  0
   -0.6489    1.4288   -1.0211 C   0  0  0  0  0  0  0  0  0  0  0  0
    0.3844    0.7887   -0.3827 C   0  0  0  0  0  0  0  0  0  0  0  0
    1.7266    0.7660   -0.6386 N   0  0  0  0  0  0  0  0  0  0  0  0
    4.4348   -0.1307   -1.2654 C   0  0  0  0  0  0  0  0  0  0  0  0
    5.8143   -0.1724   -1.4966 C   0  0  0  0  0  0  0  0  0  0  0  0
    6.3850   -0.3842   -2.7276 O   0  0  0  0  0  0  0  0  0  0  0  0
    5.5474   -0.8693   -3.7738 C   0  0  0  0  0  0  0  0  0  0  0  0
    9.0344    0.0685    1.1140 H   0  0  0  0  0  0  0  0  0  0  0  0
    9.9134    0.6437   -0.3033 H   0  0  0  0  0  0  0  0  0  0  0  0
    8.6292    1.6510    0.3624 H   0  0  0  0  0  0  0  0  0  0  0  0
    6.8756    0.4554    1.7009 H   0  0  0  0  0  0  0  0  0  0  0  0
    4.4730    0.5566    2.0849 H   0  0  0  0  0  0  0  0  0  0  0  0
    2.6407   -1.0464    2.1361 H   0  0  0  0  0  0  0  0  0  0  0  0
   -2.7663   -1.0771   -1.2110 H   0  0  0  0  0  0  0  0  0  0  0  0
   -4.2420   -1.4840   -0.2767 H   0  0  0  0  0  0  0  0  0  0  0  0
   -4.3023   -1.2281   -2.0612 H   0  0  0  0  0  0  0  0  0  0  0  0
   -5.8810    0.6028   -2.0424 H   0  0  0  0  0  0  0  0  0  0  0  0
   -5.6363    2.0257   -1.0531 H   0  0  0  0  0  0  0  0  0  0  0  0
   -7.4134   -1.0545   -1.2557 H   0  0  0  0  0  0  0  0  0  0  0  0
   -8.8220   -1.9933    0.5429 H   0  0  0  0  0  0  0  0  0  0  0  0
   -8.6402   -1.1121    2.8662 H   0  0  0  0  0  0  0  0  0  0  0  0
   -7.0168    0.6942    3.3861 H   0  0  0  0  0  0  0  0  0  0  0  0
   -5.5916    1.6384    1.5947 H   0  0  0  0  0  0  0  0  0  0  0  0
   -0.5711    2.0677   -1.8875 H   0  0  0  0  0  0  0  0  0  0  0  0
    3.7221   -0.2779   -2.0729 H   0  0  0  0  0  0  0  0  0  0  0  0
    4.8434   -0.0970   -4.1061 H   0  0  0  0  0  0  0  0  0  0  0  0
    5.0205   -1.7841   -3.4777 H   0  0  0  0  0  0  0  0  0  0  0  0
    6.1882   -1.1179   -4.6257 H   0  0  0  0  0  0  0  0  0  0  0  0
  1  2  1  0
  2  3  1  0
  3  4  2  0
  4  5  1  0
  5  6  2  0
  6  7  1  0
  7  8  1  0
  8  9  2  0
  9 10  1  0
 10 11  1  0
 10 12  1  0
 10 13  1  0
  9 14  1  0
 14 15  1  0
 15 16  2  0
 16 17  1  0
 17 18  2  0
 17 19  1  0
 19 20  1  0
 19 21  1  0
 21 22  1  0
 22 23  2  0
 23 24  1  0
 24 25  2  0
 25 26  1  0
 26 27  2  0
 16 28  1  0
 28 29  2  0
 29 30  1  0
  6 31  1  0
 31 32  2  0
 32 33  1  0
 33 34  1  0
 32  3  1  0
 30  7  2  0
 29 14  1  0
 27 22  1  0
  1 35  1  0
  1 36  1  0
  1 37  1  0
  4 38  1  0
  5 39  1  0
  8 40  1  0
 20 41  1  0
 20 42  1  0
 20 43  1  0
 21 44  1  0
 21 45  1  0
 23 46  1  0
 24 47  1  0
 25 48  1  0
 26 49  1  0
 27 50  1  0
 28 51  1  0
 31 52  1  0
 34 53  1  0
 34 54  1  0
 34 55  1  0
M  END
$$$$
