
     RDKit          3D

 53 54  0  0  0  0  0  0  0  0999 V2000
   -5.9296   -0.8475    1.5289 C   0  0  0  0  0  0  0  0  0  0  0  0
   -5.1417   -1.8747    0.7320 C   0  0  0  0  0  0  0  0  0  0  0  0
   -5.0065   -1.4188   -0.6808 N   0  0  0  0  0  0  0  0  0  0  0  0
   -6.2372   -1.6587   -1.4914 C   0  0  0  0  0  0  0  0  0  0  0  0
   -6.7125   -0.3388   -2.0750 C   0  0  0  0  0  0  0  0  0  0  0  0
   -3.5663   -1.9139   -1.4707 S   0  0  0  0  0  6  0  0  0  0  0  0
   -3.3968   -3.3277   -1.2046 O   0  0  0  0  0  0  0  0  0  0  0  0
   -3.5780   -1.3929   -2.8215 O   0  0  0  0  0  0  0  0  0  0  0  0
   -2.3116   -1.0190   -0.5843 C   0  0  0  0  0  0  0  0  0  0  0  0
   -2.3368    0.3790   -0.6020 C   0  0  0  0  0  0  0  0  0  0  0  0
   -1.3514    1.0949    0.0832 C   0  0  0  0  0  0  0  0  0  0  0  0
   -0.3419    0.4142    0.7826 C   0  0  0  0  0  0  0  0  0  0  0  0
    0.7389    1.1276    1.5164 C   0  0  0  0  0  0  0  0  0  0  0  0
    1.5808    0.5639    2.2034 O   0  0  0  0  0  0  0  0  0  0  0  0
    0.6722    2.4629    1.2924 O   0  0  0  0  0  0  0  0  0  0  0  0
    1.7302    3.2317    1.8734 C   0  0  0  0  0  0  0  0  0  0  0  0
    3.0569    3.0493    1.1337 C   0  0  0  0  0  0  0  0  0  0  0  0
    3.3702    3.7414    0.1690 O   0  0  0  0  0  0  0  0  0  0  0  0
    3.8442    2.0305    1.6291 N   0  0  0  0  0  0  0  0  0  0  0  0
    5.0496    1.6063    0.9384 C   0  0  0  0  0  0  0  0  0  0  0  0
    4.7667    0.5287   -0.1154 C   0  0  0  0  0  0  0  0  0  0  0  0
    5.9651    0.1066   -0.8186 N   0  0  0  0  0  0  0  0  0  0  0  0
    6.9170   -0.7168   -0.2684 C   0  0  0  0  0  0  0  0  0  0  0  0
    6.7232   -1.2025    0.9898 O   0  0  0  0  0  0  0  0  0  0  0  0
    7.9724   -0.9539   -1.0554 C   0  0  0  0  0  0  0  0  0  0  0  0
    7.8205   -0.1266   -2.5748 S   0  0  0  0  0  0  0  0  0  0  0  0
    6.2583    0.5683   -2.0916 C   0  0  0  0  0  0  0  0  0  0  0  0
    5.6059    1.3131   -2.8012 O   0  0  0  0  0  0  0  0  0  0  0  0
   -0.3288   -0.9898    0.7901 C   0  0  0  0  0  0  0  0  0  0  0  0
   -1.3110   -1.7094    0.1050 C   0  0  0  0  0  0  0  0  0  0  0  0
   -6.0097   -1.1554    2.5766 H   0  0  0  0  0  0  0  0  0  0  0  0
   -5.4400    0.1320    1.4968 H   0  0  0  0  0  0  0  0  0  0  0  0
   -6.9423   -0.7268    1.1342 H   0  0  0  0  0  0  0  0  0  0  0  0
   -5.6310   -2.8529    0.7733 H   0  0  0  0  0  0  0  0  0  0  0  0
   -4.1595   -1.9841    1.2011 H   0  0  0  0  0  0  0  0  0  0  0  0
   -6.0493   -2.3827   -2.2936 H   0  0  0  0  0  0  0  0  0  0  0  0
   -7.0350   -2.0893   -0.8762 H   0  0  0  0  0  0  0  0  0  0  0  0
   -6.9418    0.3804   -1.2793 H   0  0  0  0  0  0  0  0  0  0  0  0
   -5.9498    0.1086   -2.7206 H   0  0  0  0  0  0  0  0  0  0  0  0
   -7.6187   -0.4887   -2.6711 H   0  0  0  0  0  0  0  0  0  0  0  0
   -3.1135    0.9085   -1.1518 H   0  0  0  0  0  0  0  0  0  0  0  0
   -1.3798    2.1824    0.0565 H   0  0  0  0  0  0  0  0  0  0  0  0
    1.4506    4.2913    1.8079 H   0  0  0  0  0  0  0  0  0  0  0  0
    1.8423    3.0024    2.9421 H   0  0  0  0  0  0  0  0  0  0  0  0
    3.3611    1.3287    2.1880 H   0  0  0  0  0  0  0  0  0  0  0  0
    5.5281    2.4748    0.4715 H   0  0  0  0  0  0  0  0  0  0  0  0
    5.7310    1.2270    1.7057 H   0  0  0  0  0  0  0  0  0  0  0  0
    4.3047   -0.3495    0.3527 H   0  0  0  0  0  0  0  0  0  0  0  0
    4.0398    0.9092   -0.8425 H   0  0  0  0  0  0  0  0  0  0  0  0
    7.4922   -1.7495    1.2251 H   0  0  0  0  0  0  0  0  0  0  0  0
    8.8295   -1.5656   -0.8119 H   0  0  0  0  0  0  0  0  0  0  0  0
    0.4532   -1.5301    1.3228 H   0  0  0  0  0  0  0  0  0  0  0  0
   -1.2839   -2.7977    0.1097 H   0  0  0  0  0  0  0  0  0  0  0  0
  1  2  1  0
  2  3  1  0
  3  4  1  0
  4  5  1  0
  3  6  1  0
  6  7  2  0
  6  8  2  0
  6  9  1  0
  9 10  2  0
 10 11  1  0
 11 12  2  0
 12 13  1  0
 13 14  2  0
 13 15  1  0
 15 16  1  0
 16 17  1  0
 17 18  2  0
 17 19  1  0
 19 20  1  0
 20 21  1  0
 21 22  1  0
 22 23  1  0
 23 24  1  0
 23 25  2  0
 25 26  1  0
 26 27  1  0
 27 28  2  0
 12 29  1  0
 29 30  2  0
 30  9  1  0
 27 22  1  0
  1 31  1  0
  1 32  1  0
  1 33  1  0
  2 34  1  0
  2 35  1  0
  4 36  1  0
  4 37  1  0
  5 38  1  0
  5 39  1  0
  5 40  1  0
 10 41  1  0
 11 42  1  0
 16 43  1  0
 16 44  1  0
 19 45  1  0
 20 46  1  0
 20 47  1  0
 21 48  1  0
 21 49  1  0
 24 50  1  0
 25 51  1  0
 29 52  1  0
 30 53  1  0
M  END
$$$$
