
     RDKit          3D

 53 56  0  0  0  0  0  0  0  0999 V2000
   -8.9995    0.2684    1.7562 C   0  0  0  0  0  0  0  0  0  0  0  0
   -8.0777    1.3263    1.9920 O   0  0  0  0  0  0  0  0  0  0  0  0
   -6.8660    1.2437    1.3625 C   0  0  0  0  0  0  0  0  0  0  0  0
   -5.9968    2.3029    1.6302 C   0  0  0  0  0  0  0  0  0  0  0  0
   -4.7297    2.3478    1.0494 C   0  0  0  0  0  0  0  0  0  0  0  0
   -4.3192    1.3274    0.1911 C   0  0  0  0  0  0  0  0  0  0  0  0
   -5.1767    0.2553   -0.0810 C   0  0  0  0  0  0  0  0  0  0  0  0
   -4.7985   -0.8596   -1.0032 C   0  0  0  0  0  0  0  0  0  0  0  0
   -5.6728   -1.6284   -1.4066 O   0  0  0  0  0  0  0  0  0  0  0  0
   -3.3574   -0.9977   -1.4729 C   0  0  0  0  0  0  0  0  0  0  0  0
   -2.4728   -1.0385   -0.3631 O   0  0  0  0  0  0  0  0  0  0  0  0
   -1.1351   -1.0900   -0.6327 C   0  0  0  0  0  0  0  0  0  0  0  0
   -0.5527   -1.2094   -1.8924 C   0  0  0  0  0  0  0  0  0  0  0  0
    0.8450   -1.2485   -2.0270 C   0  0  0  0  0  0  0  0  0  0  0  0
    1.6892   -1.1718   -0.9095 C   0  0  0  0  0  0  0  0  0  0  0  0
    3.1652   -1.1913   -0.9843 C   0  0  0  0  0  0  0  0  0  0  0  0
    3.7724   -1.2800   -2.3619 C   0  0  0  0  0  0  0  0  0  0  0  0
    3.8823   -1.1136    0.1609 C   0  0  0  0  0  0  0  0  0  0  0  0
    5.3959   -1.1044    0.2535 C   0  0  0  0  0  0  0  0  0  0  0  0
    5.9797    0.2900    0.3612 C   0  0  0  0  0  0  0  0  0  0  0  0
    6.2157    0.8662    1.6181 C   0  0  0  0  0  0  0  0  0  0  0  0
    6.7361    2.1572    1.7238 C   0  0  0  0  0  0  0  0  0  0  0  0
    7.0265    2.8889    0.5748 C   0  0  0  0  0  0  0  0  0  0  0  0
    6.7960    2.3301   -0.6804 C   0  0  0  0  0  0  0  0  0  0  0  0
    6.2748    1.0389   -0.7875 C   0  0  0  0  0  0  0  0  0  0  0  0
    3.2105   -1.0814    1.4942 C   0  0  0  0  0  0  0  0  0  0  0  0
    3.8399   -1.1453    2.5453 O   0  0  0  0  0  0  0  0  0  0  0  0
    1.8309   -0.9895    1.5126 O   0  0  0  0  0  0  0  0  0  0  0  0
    1.0780   -1.0586    0.3334 C   0  0  0  0  0  0  0  0  0  0  0  0
   -0.3099   -1.0186    0.4862 C   0  0  0  0  0  0  0  0  0  0  0  0
   -6.4536    0.2222    0.5059 C   0  0  0  0  0  0  0  0  0  0  0  0
   -9.9081    0.4841    2.3268 H   0  0  0  0  0  0  0  0  0  0  0  0
   -9.2754    0.2151    0.6976 H   0  0  0  0  0  0  0  0  0  0  0  0
   -8.6017   -0.6875    2.1118 H   0  0  0  0  0  0  0  0  0  0  0  0
   -6.3121    3.1014    2.2983 H   0  0  0  0  0  0  0  0  0  0  0  0
   -4.0641    3.1796    1.2675 H   0  0  0  0  0  0  0  0  0  0  0  0
   -3.3289    1.3961   -0.2487 H   0  0  0  0  0  0  0  0  0  0  0  0
   -3.2865   -1.9392   -2.0314 H   0  0  0  0  0  0  0  0  0  0  0  0
   -3.1370   -0.1569   -2.1419 H   0  0  0  0  0  0  0  0  0  0  0  0
   -1.1495   -1.2803   -2.7964 H   0  0  0  0  0  0  0  0  0  0  0  0
    1.2477   -1.3424   -3.0327 H   0  0  0  0  0  0  0  0  0  0  0  0
    3.4720   -0.4201   -2.9712 H   0  0  0  0  0  0  0  0  0  0  0  0
    3.4519   -2.1998   -2.8641 H   0  0  0  0  0  0  0  0  0  0  0  0
    4.8628   -1.2965   -2.3672 H   0  0  0  0  0  0  0  0  0  0  0  0
    5.8564   -1.6161   -0.5989 H   0  0  0  0  0  0  0  0  0  0  0  0
    5.7341   -1.7084    1.1068 H   0  0  0  0  0  0  0  0  0  0  0  0
    5.9931    0.3115    2.5287 H   0  0  0  0  0  0  0  0  0  0  0  0
    6.9123    2.5900    2.7053 H   0  0  0  0  0  0  0  0  0  0  0  0
    7.4313    3.8937    0.6579 H   0  0  0  0  0  0  0  0  0  0  0  0
    7.0240    2.9000   -1.5772 H   0  0  0  0  0  0  0  0  0  0  0  0
    6.1078    0.6238   -1.7773 H   0  0  0  0  0  0  0  0  0  0  0  0
   -0.7425   -0.9348    1.4795 H   0  0  0  0  0  0  0  0  0  0  0  0
   -7.1070   -0.6148    0.2782 H   0  0  0  0  0  0  0  0  0  0  0  0
  1  2  1  0
  2  3  1  0
  3  4  2  0
  4  5  1  0
  5  6  2  0
  6  7  1  0
  7  8  1  0
  8  9  2  0
  8 10  1  0
 10 11  1  0
 11 12  1  0
 12 13  2  0
 13 14  1  0
 14 15  2  0
 15 16  1  0
 16 17  1  0
 16 18  2  0
 18 19  1  0
 19 20  1  0
 20 21  2  0
 21 22  1  0
 22 23  2  0
 23 24  1  0
 24 25  2  0
 18 26  1  0
 26 27  2  0
 26 28  1  0
 28 29  1  0
 29 30  2  0
  7 31  2  0
 31  3  1  0
 30 12  1  0
 29 15  1  0
 25 20  1  0
  1 32  1  0
  1 33  1  0
  1 34  1  0
  4 35  1  0
  5 36  1  0
  6 37  1  0
 10 38  1  0
 10 39  1  0
 13 40  1  0
 14 41  1  0
 17 42  1  0
 17 43  1  0
 17 44  1  0
 19 45  1  0
 19 46  1  0
 21 47  1  0
 22 48  1  0
 23 49  1  0
 24 50  1  0
 25 51  1  0
 30 52  1  0
 31 53  1  0
M  END
$$$$
