
     RDKit          3D

 55 59  0  0  0  0  0  0  0  0999 V2000
    8.5476    0.9133   -0.8762 C   0  0  0  0  0  0  0  0  0  0  0  0
    7.1972    0.5086   -1.0583 O   0  0  0  0  0  0  0  0  0  0  0  0
    6.3361    0.7168   -0.0152 C   0  0  0  0  0  0  0  0  0  0  0  0
    6.6466    1.3357    1.1935 C   0  0  0  0  0  0  0  0  0  0  0  0
    5.6636    1.4895    2.1747 C   0  0  0  0  0  0  0  0  0  0  0  0
    4.3677    1.0194    1.9533 C   0  0  0  0  0  0  0  0  0  0  0  0
    4.0448    0.3843    0.7499 C   0  0  0  0  0  0  0  0  0  0  0  0
    2.6969   -0.1088    0.4824 C   0  0  0  0  0  0  0  0  0  0  0  0
    1.9853    0.1702   -0.5958 N   0  0  0  0  0  0  0  0  0  0  0  0
    0.7738   -0.4641   -0.4956 N   0  0  0  0  0  0  0  0  0  0  0  0
    0.7659   -1.1270    0.6347 C   0  0  0  0  0  0  0  0  0  0  0  0
   -0.5365   -2.0928    1.2311 S   0  0  0  0  0  0  0  0  0  0  0  0
   -1.8962   -1.5215    0.1276 C   0  0  0  0  0  0  0  0  0  0  0  0
   -2.3328   -0.0940    0.5100 C   0  0  0  0  0  0  0  0  0  0  0  0
   -2.4549    0.2504    1.6888 O   0  0  0  0  0  0  0  0  0  0  0  0
   -2.6677    0.8409   -0.5697 C   0  0  0  0  0  0  0  0  0  0  0  0
   -2.0980    0.8752   -1.8328 C   0  0  0  0  0  0  0  0  0  0  0  0
   -2.6587    1.9080   -2.5340 N   0  0  0  0  0  0  0  0  0  0  0  0
   -3.5826    2.5651   -1.7571 C   0  0  0  0  0  0  0  0  0  0  0  0
   -4.3790    3.6790   -2.0545 C   0  0  0  0  0  0  0  0  0  0  0  0
   -5.2417    4.1459   -1.0577 C   0  0  0  0  0  0  0  0  0  0  0  0
   -5.3065    3.5209    0.1852 C   0  0  0  0  0  0  0  0  0  0  0  0
   -4.4993    2.4106    0.4668 C   0  0  0  0  0  0  0  0  0  0  0  0
   -3.6127    1.9209   -0.5182 C   0  0  0  0  0  0  0  0  0  0  0  0
   -3.0599   -2.5056    0.1620 C   0  0  0  0  0  0  0  0  0  0  0  0
   -3.2925   -3.3460   -0.9406 C   0  0  0  0  0  0  0  0  0  0  0  0
   -4.3529   -4.2545   -0.9339 C   0  0  0  0  0  0  0  0  0  0  0  0
   -5.1954   -4.3381    0.1716 C   0  0  0  0  0  0  0  0  0  0  0  0
   -4.9733   -3.5181    1.2768 C   0  0  0  0  0  0  0  0  0  0  0  0
   -3.9113   -2.6106    1.2755 C   0  0  0  0  0  0  0  0  0  0  0  0
    1.9599   -0.9616    1.2789 N   0  0  0  0  0  0  0  0  0  0  0  0
    2.3843   -1.5837    2.5079 C   0  0  0  0  0  0  0  0  0  0  0  0
    5.0347    0.2534   -0.2318 C   0  0  0  0  0  0  0  0  0  0  0  0
    9.1047    0.6416   -1.7784 H   0  0  0  0  0  0  0  0  0  0  0  0
    8.6197    1.9995   -0.7537 H   0  0  0  0  0  0  0  0  0  0  0  0
    9.0069    0.3875   -0.0327 H   0  0  0  0  0  0  0  0  0  0  0  0
    7.6395    1.7198    1.3991 H   0  0  0  0  0  0  0  0  0  0  0  0
    5.9067    1.9916    3.1083 H   0  0  0  0  0  0  0  0  0  0  0  0
    3.6107    1.1784    2.7185 H   0  0  0  0  0  0  0  0  0  0  0  0
   -1.4905   -1.5227   -0.8869 H   0  0  0  0  0  0  0  0  0  0  0  0
   -1.3129    0.2835   -2.2868 H   0  0  0  0  0  0  0  0  0  0  0  0
   -2.4015    2.1727   -3.4733 H   0  0  0  0  0  0  0  0  0  0  0  0
   -4.3245    4.1721   -3.0209 H   0  0  0  0  0  0  0  0  0  0  0  0
   -5.8695    5.0133   -1.2551 H   0  0  0  0  0  0  0  0  0  0  0  0
   -5.9843    3.8988    0.9478 H   0  0  0  0  0  0  0  0  0  0  0  0
   -4.5538    1.9344    1.4437 H   0  0  0  0  0  0  0  0  0  0  0  0
   -2.6466   -3.3009   -1.8157 H   0  0  0  0  0  0  0  0  0  0  0  0
   -4.5216   -4.8966   -1.7942 H   0  0  0  0  0  0  0  0  0  0  0  0
   -6.0220   -5.0442    0.1754 H   0  0  0  0  0  0  0  0  0  0  0  0
   -5.6276   -3.5841    2.1412 H   0  0  0  0  0  0  0  0  0  0  0  0
   -3.7543   -1.9860    2.1559 H   0  0  0  0  0  0  0  0  0  0  0  0
    2.0541   -0.9565    3.3396 H   0  0  0  0  0  0  0  0  0  0  0  0
    3.4710   -1.6865    2.5148 H   0  0  0  0  0  0  0  0  0  0  0  0
    1.9513   -2.5821    2.5895 H   0  0  0  0  0  0  0  0  0  0  0  0
    4.7918   -0.2152   -1.1827 H   0  0  0  0  0  0  0  0  0  0  0  0
  1  2  1  0
  2  3  1  0
  3  4  2  0
  4  5  1  0
  5  6  2  0
  6  7  1  0
  7  8  1  0
  8  9  2  0
  9 10  1  0
 10 11  2  0
 11 12  1  0
 12 13  1  0
 13 14  1  0
 14 15  2  0
 14 16  1  0
 16 17  2  0
 17 18  1  0
 18 19  1  0
 19 20  2  0
 20 21  1  0
 21 22  2  0
 22 23  1  0
 23 24  2  0
 13 25  1  0
 25 26  2  0
 26 27  1  0
 27 28  2  0
 28 29  1  0
 29 30  2  0
 11 31  1  0
 31 32  1  0
  7 33  2  0
 33  3  1  0
 31  8  1  0
 24 16  1  0
 30 25  1  0
 24 19  1  0
  1 34  1  0
  1 35  1  0
  1 36  1  0
  4 37  1  0
  5 38  1  0
  6 39  1  0
 13 40  1  0
 17 41  1  0
 18 42  1  0
 20 43  1  0
 21 44  1  0
 22 45  1  0
 23 46  1  0
 26 47  1  0
 27 48  1  0
 28 49  1  0
 29 50  1  0
 30 51  1  0
 32 52  1  0
 32 53  1  0
 32 54  1  0
 33 55  1  0
M  END
$$$$
