
     RDKit          3D

 46 48  0  0  0  0  0  0  0  0999 V2000
    3.7652    2.3887    0.9860 C   0  0  0  0  0  0  0  0  0  0  0  0
    2.7232    1.2979    0.9008 C   0  0  0  0  0  0  0  0  0  0  0  0
    3.2124   -0.1077    0.9719 C   0  0  0  0  0  0  0  0  0  0  0  0
    3.8591   -0.7202   -0.0306 C   0  0  0  0  0  0  0  0  0  0  0  0
    4.1954   -0.1498   -1.3414 C   0  0  0  0  0  0  0  0  0  0  0  0
    5.5084   -0.2739   -1.8129 C   0  0  0  0  0  0  0  0  0  0  0  0
    5.8653    0.2371   -3.0631 C   0  0  0  0  0  0  0  0  0  0  0  0
    4.9099    0.8679   -3.8569 C   0  0  0  0  0  0  0  0  0  0  0  0
    3.5973    0.9829   -3.4041 C   0  0  0  0  0  0  0  0  0  0  0  0
    3.2392    0.4703   -2.1548 C   0  0  0  0  0  0  0  0  0  0  0  0
    1.4824    1.6628    0.7958 N   0  0  0  0  0  0  0  0  0  0  0  0
    0.5298    0.6926    0.6941 N   0  0  0  0  0  0  0  0  0  0  0  0
   -0.8041    1.0337    0.5821 C   0  0  0  0  0  0  0  0  0  0  0  0
   -1.2779    2.1615    0.5791 O   0  0  0  0  0  0  0  0  0  0  0  0
   -1.6998   -0.1404    0.4059 C   0  0  0  0  0  0  0  0  0  0  0  0
   -1.6115   -1.3645    1.2799 C   0  0  0  0  0  0  0  0  0  0  0  0
   -2.8035   -0.4376    1.4261 C   0  0  0  0  0  0  0  0  0  0  0  0
   -2.8881    0.3856    2.6923 C   0  0  0  0  0  0  0  0  0  0  0  0
   -4.1542   -0.8820    0.8799 C   0  0  0  0  0  0  0  0  0  0  0  0
   -4.7289   -2.1114    1.2449 C   0  0  0  0  0  0  0  0  0  0  0  0
   -5.9725   -2.5104    0.7478 C   0  0  0  0  0  0  0  0  0  0  0  0
   -6.6725   -1.6810   -0.1238 C   0  0  0  0  0  0  0  0  0  0  0  0
   -6.1311   -0.4534   -0.4937 C   0  0  0  0  0  0  0  0  0  0  0  0
   -4.8876   -0.0599    0.0066 C   0  0  0  0  0  0  0  0  0  0  0  0
    3.5183    3.0601    1.8138 H   0  0  0  0  0  0  0  0  0  0  0  0
    3.7673    2.9601    0.0531 H   0  0  0  0  0  0  0  0  0  0  0  0
    4.7637    1.9766    1.1546 H   0  0  0  0  0  0  0  0  0  0  0  0
    3.0164   -0.6175    1.9090 H   0  0  0  0  0  0  0  0  0  0  0  0
    4.2079   -1.7400    0.1226 H   0  0  0  0  0  0  0  0  0  0  0  0
    6.2695   -0.7611   -1.2074 H   0  0  0  0  0  0  0  0  0  0  0  0
    6.8889    0.1439   -3.4164 H   0  0  0  0  0  0  0  0  0  0  0  0
    5.1867    1.2687   -4.8286 H   0  0  0  0  0  0  0  0  0  0  0  0
    2.8489    1.4726   -4.0225 H   0  0  0  0  0  0  0  0  0  0  0  0
    2.2055    0.5671   -1.8313 H   0  0  0  0  0  0  0  0  0  0  0  0
    0.8076   -0.2767    0.6093 H   0  0  0  0  0  0  0  0  0  0  0  0
   -1.9500   -0.3066   -0.6384 H   0  0  0  0  0  0  0  0  0  0  0  0
   -1.7549   -2.3283    0.8028 H   0  0  0  0  0  0  0  0  0  0  0  0
   -0.8913   -1.3891    2.0903 H   0  0  0  0  0  0  0  0  0  0  0  0
   -1.8997    0.6192    3.1023 H   0  0  0  0  0  0  0  0  0  0  0  0
   -3.4412   -0.1589    3.4653 H   0  0  0  0  0  0  0  0  0  0  0  0
   -3.4063    1.3316    2.5016 H   0  0  0  0  0  0  0  0  0  0  0  0
   -4.2002   -2.7677    1.9324 H   0  0  0  0  0  0  0  0  0  0  0  0
   -6.3946   -3.4665    1.0456 H   0  0  0  0  0  0  0  0  0  0  0  0
   -7.6410   -1.9879   -0.5094 H   0  0  0  0  0  0  0  0  0  0  0  0
   -6.6756    0.2028   -1.1675 H   0  0  0  0  0  0  0  0  0  0  0  0
   -4.4819    0.9085   -0.2836 H   0  0  0  0  0  0  0  0  0  0  0  0
  1  2  1  0
  2  3  1  0
  3  4  2  3
  4  5  1  0
  5  6  2  0
  6  7  1  0
  7  8  2  0
  8  9  1  0
  9 10  2  0
  2 11  2  3
 11 12  1  0
 12 13  1  0
 13 14  2  0
 13 15  1  0
 15 16  1  0
 16 17  1  0
 17 18  1  0
 17 19  1  0
 19 20  2  0
 20 21  1  0
 21 22  2  0
 22 23  1  0
 23 24  2  0
 10  5  1  0
 17 15  1  0
 24 19  1  0
  1 25  1  0
  1 26  1  0
  1 27  1  0
  3 28  1  0
  4 29  1  0
  6 30  1  0
  7 31  1  0
  8 32  1  0
  9 33  1  0
 10 34  1  0
 12 35  1  0
 15 36  1  0
 16 37  1  0
 16 38  1  0
 18 39  1  0
 18 40  1  0
 18 41  1  0
 20 42  1  0
 21 43  1  0
 22 44  1  0
 23 45  1  0
 24 46  1  0
M  END
$$$$
