
     RDKit          3D

 39 41  0  0  0  0  0  0  0  0999 V2000
    3.7341   -2.7373   -0.2867 O   0  0  0  0  0  0  0  0  0  0  0  0
    3.3681   -1.5744   -0.2176 C   0  0  0  0  0  0  0  0  0  0  0  0
    2.0852   -1.1533   -0.1301 O   0  0  0  0  0  0  0  0  0  0  0  0
    1.1284   -2.2146   -0.1230 C   0  0  0  0  0  0  0  0  0  0  0  0
   -0.2421   -1.5977   -0.0204 C   0  0  0  0  0  0  0  0  0  0  0  0
   -0.9199   -1.1767   -1.1703 C   0  0  0  0  0  0  0  0  0  0  0  0
   -2.1833   -0.5846   -1.0733 C   0  0  0  0  0  0  0  0  0  0  0  0
   -2.7998   -0.3906    0.1728 C   0  0  0  0  0  0  0  0  0  0  0  0
   -4.1294    0.2334    0.2734 C   0  0  0  0  0  0  0  0  0  0  0  0
   -5.1780   -0.4032    0.9582 C   0  0  0  0  0  0  0  0  0  0  0  0
   -6.4408    0.1881    1.0537 C   0  0  0  0  0  0  0  0  0  0  0  0
   -6.6760    1.4284    0.4660 C   0  0  0  0  0  0  0  0  0  0  0  0
   -5.6504    2.0772   -0.2169 C   0  0  0  0  0  0  0  0  0  0  0  0
   -4.3886    1.4839   -0.3123 C   0  0  0  0  0  0  0  0  0  0  0  0
   -2.1063   -0.8051    1.3208 C   0  0  0  0  0  0  0  0  0  0  0  0
   -0.8419   -1.3962    1.2278 C   0  0  0  0  0  0  0  0  0  0  0  0
    4.3027   -0.4174   -0.2201 C   0  0  0  0  0  0  0  0  0  0  0  0
    5.6785   -0.6784   -0.3058 C   0  0  0  0  0  0  0  0  0  0  0  0
    6.5977    0.3735   -0.3120 C   0  0  0  0  0  0  0  0  0  0  0  0
    6.1494    1.6918   -0.2329 C   0  0  0  0  0  0  0  0  0  0  0  0
    4.7834    1.9461   -0.1480 C   0  0  0  0  0  0  0  0  0  0  0  0
    4.3049    3.2207   -0.0693 O   0  0  0  0  0  0  0  0  0  0  0  0
    3.8571    0.9075   -0.1407 C   0  0  0  0  0  0  0  0  0  0  0  0
    1.2048   -2.8021   -1.0465 H   0  0  0  0  0  0  0  0  0  0  0  0
    1.3064   -2.8806    0.7304 H   0  0  0  0  0  0  0  0  0  0  0  0
   -0.4680   -1.3050   -2.1516 H   0  0  0  0  0  0  0  0  0  0  0  0
   -2.6915   -0.2799   -1.9861 H   0  0  0  0  0  0  0  0  0  0  0  0
   -5.0183   -1.3779    1.4150 H   0  0  0  0  0  0  0  0  0  0  0  0
   -7.2394   -0.3227    1.5850 H   0  0  0  0  0  0  0  0  0  0  0  0
   -7.6574    1.8891    0.5403 H   0  0  0  0  0  0  0  0  0  0  0  0
   -5.8289    3.0469   -0.6740 H   0  0  0  0  0  0  0  0  0  0  0  0
   -3.5976    2.0130   -0.8402 H   0  0  0  0  0  0  0  0  0  0  0  0
   -2.5434   -0.6533    2.3058 H   0  0  0  0  0  0  0  0  0  0  0  0
   -0.3270   -1.6918    2.1393 H   0  0  0  0  0  0  0  0  0  0  0  0
    6.0390   -1.7039   -0.3680 H   0  0  0  0  0  0  0  0  0  0  0  0
    7.6623    0.1621   -0.3787 H   0  0  0  0  0  0  0  0  0  0  0  0
    6.8737    2.5006   -0.2388 H   0  0  0  0  0  0  0  0  0  0  0  0
    5.0537    3.8394   -0.0810 H   0  0  0  0  0  0  0  0  0  0  0  0
    2.7987    1.1449   -0.0730 H   0  0  0  0  0  0  0  0  0  0  0  0
  1  2  2  0
  2  3  1  0
  3  4  1  0
  4  5  1  0
  5  6  2  0
  6  7  1  0
  7  8  2  0
  8  9  1  0
  9 10  2  0
 10 11  1  0
 11 12  2  0
 12 13  1  0
 13 14  2  0
  8 15  1  0
 15 16  2  0
  2 17  1  0
 17 18  2  0
 18 19  1  0
 19 20  2  0
 20 21  1  0
 21 22  1  0
 21 23  2  0
 16  5  1  0
 23 17  1  0
 14  9  1  0
  4 24  1  0
  4 25  1  0
  6 26  1  0
  7 27  1  0
 10 28  1  0
 11 29  1  0
 12 30  1  0
 13 31  1  0
 14 32  1  0
 15 33  1  0
 16 34  1  0
 18 35  1  0
 19 36  1  0
 20 37  1  0
 22 38  1  0
 23 39  1  0
M  END
$$$$
