
     RDKit          3D

 36 37  0  0  0  0  0  0  0  0999 V2000
   -1.9130   -2.3235   -2.0024 C   0  0  0  0  0  0  0  0  0  0  0  0
   -1.3332   -1.4870   -0.8642 C   0  0  0  0  0  0  0  0  0  0  0  0
   -1.9798   -0.1640   -0.7106 N   0  0  0  0  0  0  0  0  0  0  0  0
   -3.4028   -0.3206   -0.3236 C   0  0  0  0  0  0  0  0  0  0  0  0
   -4.1929    0.9844   -0.1028 C   0  0  0  0  0  0  0  0  0  0  0  0
   -4.0351    1.4743    1.2275 O   0  0  0  0  0  0  0  0  0  0  0  0
   -1.2446    0.6695    0.2671 C   0  0  0  0  0  0  0  0  0  0  0  0
    0.1319    1.0195   -0.2471 C   0  0  0  0  0  0  0  0  0  0  0  0
    0.3516    1.7605   -1.3941 C   0  0  0  0  0  0  0  0  0  0  0  0
    2.0002    2.0087   -1.7224 S   0  0  0  0  0  0  0  0  0  0  0  0
    2.4850    1.1326   -0.3239 C   0  0  0  0  0  0  0  0  0  0  0  0
    3.8090    0.8960    0.1020 C   0  0  0  0  0  0  0  0  0  0  0  0
    4.0389    0.1518    1.2665 C   0  0  0  0  0  0  0  0  0  0  0  0
    5.4419   -0.0780    1.7473 C   0  0  0  0  0  0  0  0  0  0  0  0
    2.9555   -0.3211    2.0009 C   0  0  0  0  0  0  0  0  0  0  0  0
    1.6436   -0.0835    1.5742 C   0  0  0  0  0  0  0  0  0  0  0  0
    1.3831    0.6538    0.3907 C   0  0  0  0  0  0  0  0  0  0  0  0
   -1.2857   -3.2055   -2.1710 H   0  0  0  0  0  0  0  0  0  0  0  0
   -2.9211   -2.6828   -1.7762 H   0  0  0  0  0  0  0  0  0  0  0  0
   -1.9442   -1.7525   -2.9362 H   0  0  0  0  0  0  0  0  0  0  0  0
   -1.3839   -2.0570    0.0722 H   0  0  0  0  0  0  0  0  0  0  0  0
   -0.2708   -1.3635   -1.1010 H   0  0  0  0  0  0  0  0  0  0  0  0
   -3.4795   -0.9449    0.5758 H   0  0  0  0  0  0  0  0  0  0  0  0
   -3.9180   -0.8387   -1.1394 H   0  0  0  0  0  0  0  0  0  0  0  0
   -5.2619    0.8031   -0.2587 H   0  0  0  0  0  0  0  0  0  0  0  0
   -3.8852    1.7640   -0.8073 H   0  0  0  0  0  0  0  0  0  0  0  0
   -4.4296    0.8195    1.8282 H   0  0  0  0  0  0  0  0  0  0  0  0
   -1.7444    1.6329    0.4138 H   0  0  0  0  0  0  0  0  0  0  0  0
   -1.2011    0.1765    1.2446 H   0  0  0  0  0  0  0  0  0  0  0  0
   -0.3996    2.1607   -2.0617 H   0  0  0  0  0  0  0  0  0  0  0  0
    4.6411    1.2906   -0.4757 H   0  0  0  0  0  0  0  0  0  0  0  0
    5.5164   -1.0205    2.3000 H   0  0  0  0  0  0  0  0  0  0  0  0
    5.7516    0.7420    2.4026 H   0  0  0  0  0  0  0  0  0  0  0  0
    6.1383   -0.1407    0.9045 H   0  0  0  0  0  0  0  0  0  0  0  0
    3.1174   -0.8838    2.9180 H   0  0  0  0  0  0  0  0  0  0  0  0
    0.8210   -0.4730    2.1679 H   0  0  0  0  0  0  0  0  0  0  0  0
  1  2  1  0
  2  3  1  0
  3  4  1  0
  4  5  1  0
  5  6  1  0
  3  7  1  0
  7  8  1  0
  8  9  2  0
  9 10  1  0
 10 11  1  0
 11 12  2  0
 12 13  1  0
 13 14  1  0
 13 15  2  0
 15 16  1  0
 16 17  2  0
 17  8  1  0
 17 11  1  0
  1 18  1  0
  1 19  1  0
  1 20  1  0
  2 21  1  0
  2 22  1  0
  4 23  1  0
  4 24  1  0
  5 25  1  0
  5 26  1  0
  6 27  1  0
  7 28  1  0
  7 29  1  0
  9 30  1  0
 12 31  1  0
 14 32  1  0
 14 33  1  0
 14 34  1  0
 15 35  1  0
 16 36  1  0
M  END
$$$$
