
     RDKit          3D

 55 59  0  0  0  0  0  0  0  0999 V2000
    7.2322    0.8024    3.2966 C   0  0  0  0  0  0  0  0  0  0  0  0
    6.0672    0.9519    2.4943 O   0  0  0  0  0  0  0  0  0  0  0  0
    5.1289   -0.0404    2.5772 C   0  0  0  0  0  0  0  0  0  0  0  0
    5.1790   -1.1481    3.4229 C   0  0  0  0  0  0  0  0  0  0  0  0
    4.1519   -2.0940    3.3977 C   0  0  0  0  0  0  0  0  0  0  0  0
    3.0671   -1.9291    2.5357 C   0  0  0  0  0  0  0  0  0  0  0  0
    2.9900   -0.8118    1.6963 C   0  0  0  0  0  0  0  0  0  0  0  0
    1.8433   -0.6645    0.8022 C   0  0  0  0  0  0  0  0  0  0  0  0
    1.3148   -1.6371    0.0784 N   0  0  0  0  0  0  0  0  0  0  0  0
    0.2705   -1.1254   -0.6508 N   0  0  0  0  0  0  0  0  0  0  0  0
    0.1573    0.1406   -0.3385 C   0  0  0  0  0  0  0  0  0  0  0  0
   -1.0128    1.2341   -0.9790 S   0  0  0  0  0  0  0  0  0  0  0  0
   -2.5820    0.4415   -0.4289 C   0  0  0  0  0  0  0  0  0  0  0  0
   -2.8031   -0.9518   -1.0426 C   0  0  0  0  0  0  0  0  0  0  0  0
   -3.1543   -1.9121   -0.3508 O   0  0  0  0  0  0  0  0  0  0  0  0
   -2.6706   -1.1469   -2.4969 C   0  0  0  0  0  0  0  0  0  0  0  0
   -2.2509   -2.3506   -3.0398 C   0  0  0  0  0  0  0  0  0  0  0  0
   -2.1904   -2.2257   -4.3958 N   0  0  0  0  0  0  0  0  0  0  0  0
   -2.6088   -0.9726   -4.7735 C   0  0  0  0  0  0  0  0  0  0  0  0
   -2.7268   -0.4249   -6.0575 C   0  0  0  0  0  0  0  0  0  0  0  0
   -3.1999    0.8830   -6.1677 C   0  0  0  0  0  0  0  0  0  0  0  0
   -3.5466    1.6104   -5.0354 C   0  0  0  0  0  0  0  0  0  0  0  0
   -3.4211    1.0484   -3.7580 C   0  0  0  0  0  0  0  0  0  0  0  0
   -2.9297   -0.2687   -3.6071 C   0  0  0  0  0  0  0  0  0  0  0  0
   -2.7112    0.5551    1.0931 C   0  0  0  0  0  0  0  0  0  0  0  0
   -3.3344    1.6886    1.6482 C   0  0  0  0  0  0  0  0  0  0  0  0
   -3.4220    1.8541    3.0322 C   0  0  0  0  0  0  0  0  0  0  0  0
   -2.8830    0.8948    3.8851 C   0  0  0  0  0  0  0  0  0  0  0  0
   -2.2555   -0.2293    3.3554 C   0  0  0  0  0  0  0  0  0  0  0  0
   -2.1669   -0.3967    1.9719 C   0  0  0  0  0  0  0  0  0  0  0  0
    1.0968    0.4782    0.5956 N   0  0  0  0  0  0  0  0  0  0  0  0
    1.2184    1.7320    1.2948 C   0  0  0  0  0  0  0  0  0  0  0  0
    4.0380    0.1183    1.7152 C   0  0  0  0  0  0  0  0  0  0  0  0
    7.8897    1.6530    3.0926 H   0  0  0  0  0  0  0  0  0  0  0  0
    6.9815    0.8235    4.3623 H   0  0  0  0  0  0  0  0  0  0  0  0
    7.7780   -0.1105    3.0359 H   0  0  0  0  0  0  0  0  0  0  0  0
    6.0051   -1.3109    4.1071 H   0  0  0  0  0  0  0  0  0  0  0  0
    4.1979   -2.9650    4.0469 H   0  0  0  0  0  0  0  0  0  0  0  0
    2.2777   -2.6794    2.5182 H   0  0  0  0  0  0  0  0  0  0  0  0
   -3.3950    1.0514   -0.8382 H   0  0  0  0  0  0  0  0  0  0  0  0
   -1.9629   -3.2741   -2.5524 H   0  0  0  0  0  0  0  0  0  0  0  0
   -1.8917   -2.9500   -5.0341 H   0  0  0  0  0  0  0  0  0  0  0  0
   -2.4640   -0.9958   -6.9424 H   0  0  0  0  0  0  0  0  0  0  0  0
   -3.3032    1.3344   -7.1517 H   0  0  0  0  0  0  0  0  0  0  0  0
   -3.9214    2.6257   -5.1407 H   0  0  0  0  0  0  0  0  0  0  0  0
   -3.7144    1.6462   -2.9028 H   0  0  0  0  0  0  0  0  0  0  0  0
   -3.7558    2.4581    1.0041 H   0  0  0  0  0  0  0  0  0  0  0  0
   -3.9130    2.7318    3.4447 H   0  0  0  0  0  0  0  0  0  0  0  0
   -2.9559    1.0195    4.9622 H   0  0  0  0  0  0  0  0  0  0  0  0
   -1.8382   -0.9845    4.0170 H   0  0  0  0  0  0  0  0  0  0  0  0
   -1.6699   -1.2887    1.5895 H   0  0  0  0  0  0  0  0  0  0  0  0
    0.2329    2.1835    1.4292 H   0  0  0  0  0  0  0  0  0  0  0  0
    1.6454    1.5653    2.2863 H   0  0  0  0  0  0  0  0  0  0  0  0
    1.8610    2.3918    0.7070 H   0  0  0  0  0  0  0  0  0  0  0  0
    4.0308    0.9713    1.0411 H   0  0  0  0  0  0  0  0  0  0  0  0
  1  2  1  0
  2  3  1  0
  3  4  2  0
  4  5  1  0
  5  6  2  0
  6  7  1  0
  7  8  1  0
  8  9  2  0
  9 10  1  0
 10 11  2  0
 11 12  1  0
 12 13  1  0
 13 14  1  0
 14 15  2  0
 14 16  1  0
 16 17  2  0
 17 18  1  0
 18 19  1  0
 19 20  2  0
 20 21  1  0
 21 22  2  0
 22 23  1  0
 23 24  2  0
 13 25  1  0
 25 26  2  0
 26 27  1  0
 27 28  2  0
 28 29  1  0
 29 30  2  0
 11 31  1  0
 31 32  1  0
  7 33  2  0
 33  3  1  0
 31  8  1  0
 24 16  1  0
 30 25  1  0
 24 19  1  0
  1 34  1  0
  1 35  1  0
  1 36  1  0
  4 37  1  0
  5 38  1  0
  6 39  1  0
 13 40  1  0
 17 41  1  0
 18 42  1  0
 20 43  1  0
 21 44  1  0
 22 45  1  0
 23 46  1  0
 26 47  1  0
 27 48  1  0
 28 49  1  0
 29 50  1  0
 30 51  1  0
 32 52  1  0
 32 53  1  0
 32 54  1  0
 33 55  1  0
M  END
$$$$
