
     RDKit          3D

 49 50  0  0  0  0  0  0  0  0999 V2000
    4.6548   -3.3928    0.5732 C   0  0  0  0  0  0  0  0  0  0  0  0
    4.9554   -2.0079    0.0347 C   0  0  0  0  0  0  0  0  0  0  0  0
    3.7100   -1.3588   -0.2366 O   0  0  0  0  0  0  0  0  0  0  0  0
    3.8249   -0.0742   -0.6841 C   0  0  0  0  0  0  0  0  0  0  0  0
    4.9037    0.4927   -0.8290 O   0  0  0  0  0  0  0  0  0  0  0  0
    2.5302    0.5677   -0.9633 C   0  0  0  0  0  0  0  0  0  0  0  0
    2.3338    1.9464   -1.3305 C   0  0  0  0  0  0  0  0  0  0  0  0
    3.4229    2.9539   -1.5053 C   0  0  0  0  0  0  0  0  0  0  0  0
    0.9698    2.1562   -1.4731 C   0  0  0  0  0  0  0  0  0  0  0  0
    0.2300    3.4072   -1.8174 C   0  0  0  0  0  0  0  0  0  0  0  0
    0.3305    0.9532   -1.2331 N   0  0  0  0  0  0  0  0  0  0  0  0
   -1.1219    0.7404   -1.3238 C   0  0  0  0  0  0  0  0  0  0  0  0
   -1.7995    0.5645    0.0197 C   0  0  0  0  0  0  0  0  0  0  0  0
   -1.3689    1.2679    1.1566 C   0  0  0  0  0  0  0  0  0  0  0  0
   -2.0147    1.1086    2.3810 C   0  0  0  0  0  0  0  0  0  0  0  0
   -3.1008    0.2428    2.4950 C   0  0  0  0  0  0  0  0  0  0  0  0
   -3.5616   -0.4647    1.3807 C   0  0  0  0  0  0  0  0  0  0  0  0
   -4.6085   -1.3487    1.4259 O   0  0  0  0  0  0  0  0  0  0  0  0
   -4.9369   -1.8921    2.6985 C   0  0  0  0  0  0  0  0  0  0  0  0
   -2.9351   -0.2633    0.1339 C   0  0  0  0  0  0  0  0  0  0  0  0
   -3.3319   -0.9052   -1.0172 O   0  0  0  0  0  0  0  0  0  0  0  0
   -4.7180   -0.7492   -1.3135 C   0  0  0  0  0  0  0  0  0  0  0  0
    1.2657   -0.0236   -0.9338 C   0  0  0  0  0  0  0  0  0  0  0  0
    0.8930   -1.4413   -0.6308 C   0  0  0  0  0  0  0  0  0  0  0  0
    4.0578   -3.9659   -0.1430 H   0  0  0  0  0  0  0  0  0  0  0  0
    5.5788   -3.9405    0.7793 H   0  0  0  0  0  0  0  0  0  0  0  0
    4.0688   -3.3249    1.4948 H   0  0  0  0  0  0  0  0  0  0  0  0
    5.5373   -2.0884   -0.8898 H   0  0  0  0  0  0  0  0  0  0  0  0
    5.5209   -1.4387    0.7806 H   0  0  0  0  0  0  0  0  0  0  0  0
    4.1370    2.6154   -2.2637 H   0  0  0  0  0  0  0  0  0  0  0  0
    3.0426    3.9254   -1.8305 H   0  0  0  0  0  0  0  0  0  0  0  0
    3.9565    3.1033   -0.5611 H   0  0  0  0  0  0  0  0  0  0  0  0
   -0.5840    3.5890   -1.1070 H   0  0  0  0  0  0  0  0  0  0  0  0
   -0.1906    3.3358   -2.8255 H   0  0  0  0  0  0  0  0  0  0  0  0
    0.8784    4.2869   -1.7871 H   0  0  0  0  0  0  0  0  0  0  0  0
   -1.2474   -0.1306   -1.9760 H   0  0  0  0  0  0  0  0  0  0  0  0
   -1.5743    1.5892   -1.8443 H   0  0  0  0  0  0  0  0  0  0  0  0
   -0.5164    1.9436    1.1039 H   0  0  0  0  0  0  0  0  0  0  0  0
   -1.6621    1.6550    3.2522 H   0  0  0  0  0  0  0  0  0  0  0  0
   -3.5717    0.1465    3.4676 H   0  0  0  0  0  0  0  0  0  0  0  0
   -5.6487   -2.7086    2.5390 H   0  0  0  0  0  0  0  0  0  0  0  0
   -4.0552   -2.3117    3.1942 H   0  0  0  0  0  0  0  0  0  0  0  0
   -5.4272   -1.1442    3.3285 H   0  0  0  0  0  0  0  0  0  0  0  0
   -5.2803   -1.6129   -0.9507 H   0  0  0  0  0  0  0  0  0  0  0  0
   -5.1378    0.1833   -0.9179 H   0  0  0  0  0  0  0  0  0  0  0  0
   -4.8206   -0.7242   -2.4025 H   0  0  0  0  0  0  0  0  0  0  0  0
    1.4781   -2.1291   -1.2513 H   0  0  0  0  0  0  0  0  0  0  0  0
   -0.1563   -1.6689   -0.8240 H   0  0  0  0  0  0  0  0  0  0  0  0
    1.0894   -1.6648    0.4230 H   0  0  0  0  0  0  0  0  0  0  0  0
  1  2  1  0
  2  3  1  0
  3  4  1  0
  4  5  2  0
  4  6  1  0
  6  7  1  0
  7  8  1  0
  7  9  2  0
  9 10  1  0
  9 11  1  0
 11 12  1  0
 12 13  1  0
 13 14  2  0
 14 15  1  0
 15 16  2  0
 16 17  1  0
 17 18  1  0
 18 19  1  0
 17 20  2  0
 20 21  1  0
 21 22  1  0
 11 23  1  0
 23 24  1  0
 23  6  2  0
 20 13  1  0
  1 25  1  0
  1 26  1  0
  1 27  1  0
  2 28  1  0
  2 29  1  0
  8 30  1  0
  8 31  1  0
  8 32  1  0
 10 33  1  0
 10 34  1  0
 10 35  1  0
 12 36  1  0
 12 37  1  0
 14 38  1  0
 15 39  1  0
 16 40  1  0
 19 41  1  0
 19 42  1  0
 19 43  1  0
 22 44  1  0
 22 45  1  0
 22 46  1  0
 24 47  1  0
 24 48  1  0
 24 49  1  0
M  END
$$$$
