
     RDKit          3D

 38 40  0  0  0  0  0  0  0  0999 V2000
   -7.2710    1.0835   -1.6235 C   0  0  0  0  0  0  0  0  0  0  0  0
   -6.6299    0.1676   -0.5951 C   0  0  0  0  0  0  0  0  0  0  0  0
   -5.2763   -0.1333   -0.9244 O   0  0  0  0  0  0  0  0  0  0  0  0
   -4.3734    0.9366   -0.6379 C   0  0  0  0  0  0  0  0  0  0  0  0
   -2.9857    0.4354   -0.8607 C   0  0  0  0  0  0  0  0  0  0  0  0
   -2.1853    0.8272   -1.8328 N   0  0  0  0  0  0  0  0  0  0  0  0
   -0.9559    0.2020   -1.7717 N   0  0  0  0  0  0  0  0  0  0  0  0
   -0.8672   -0.6214   -0.7509 C   0  0  0  0  0  0  0  0  0  0  0  0
    0.2660   -1.3488   -0.4979 N   0  0  0  0  0  0  0  0  0  0  0  0
    0.5023   -2.1838    0.5701 C   0  0  0  0  0  0  0  0  0  0  0  0
   -0.2630   -2.4470    1.4925 O   0  0  0  0  0  0  0  0  0  0  0  0
    1.8871   -2.8382    0.5017 C   0  0  0  0  0  0  0  0  0  0  0  0
    2.8571   -2.0903   -0.2214 O   0  0  0  0  0  0  0  0  0  0  0  0
    3.4737   -1.0474    0.4176 C   0  0  0  0  0  0  0  0  0  0  0  0
    3.1515   -0.5547    1.6970 C   0  0  0  0  0  0  0  0  0  0  0  0
    3.8463    0.5357    2.2376 C   0  0  0  0  0  0  0  0  0  0  0  0
    4.8459    1.1041    1.4798 C   0  0  0  0  0  0  0  0  0  0  0  0
    5.1611    0.6276    0.2312 C   0  0  0  0  0  0  0  0  0  0  0  0
    4.4934   -0.4419   -0.3266 C   0  0  0  0  0  0  0  0  0  0  0  0
    6.1736    1.3245   -0.3502 O   0  0  0  0  0  0  0  0  0  0  0  0
    6.4589    2.2964    0.6778 C   0  0  0  0  0  0  0  0  0  0  0  0
    5.6178    2.1622    1.8430 O   0  0  0  0  0  0  0  0  0  0  0  0
   -2.2698   -0.7047    0.2095 S   0  0  0  0  0  0  0  0  0  0  0  0
   -6.8186    2.0803   -1.6053 H   0  0  0  0  0  0  0  0  0  0  0  0
   -7.1345    0.6864   -2.6352 H   0  0  0  0  0  0  0  0  0  0  0  0
   -8.3414    1.1931   -1.4263 H   0  0  0  0  0  0  0  0  0  0  0  0
   -6.6955    0.5943    0.4123 H   0  0  0  0  0  0  0  0  0  0  0  0
   -7.1717   -0.7841   -0.5818 H   0  0  0  0  0  0  0  0  0  0  0  0
   -4.5707    1.7802   -1.3074 H   0  0  0  0  0  0  0  0  0  0  0  0
   -4.4941    1.2706    0.3994 H   0  0  0  0  0  0  0  0  0  0  0  0
    1.0219   -1.1816   -1.1526 H   0  0  0  0  0  0  0  0  0  0  0  0
    2.2415   -3.0890    1.5083 H   0  0  0  0  0  0  0  0  0  0  0  0
    1.7557   -3.7880   -0.0296 H   0  0  0  0  0  0  0  0  0  0  0  0
    2.3621   -0.9900    2.3028 H   0  0  0  0  0  0  0  0  0  0  0  0
    3.6043    0.9248    3.2208 H   0  0  0  0  0  0  0  0  0  0  0  0
    4.7576   -0.8021   -1.3150 H   0  0  0  0  0  0  0  0  0  0  0  0
    6.3209    3.3002    0.2592 H   0  0  0  0  0  0  0  0  0  0  0  0
    7.5049    2.1837    0.9858 H   0  0  0  0  0  0  0  0  0  0  0  0
  1  2  1  0
  2  3  1  0
  3  4  1  0
  4  5  1  0
  5  6  2  0
  6  7  1  0
  7  8  2  0
  8  9  1  0
  9 10  1  0
 10 11  2  0
 10 12  1  0
 12 13  1  0
 13 14  1  0
 14 15  2  0
 15 16  1  0
 16 17  2  0
 17 18  1  0
 18 19  2  0
 18 20  1  0
 20 21  1  0
 21 22  1  0
  8 23  1  0
 23  5  1  0
 19 14  1  0
 22 17  1  0
  1 24  1  0
  1 25  1  0
  1 26  1  0
  2 27  1  0
  2 28  1  0
  4 29  1  0
  4 30  1  0
  9 31  1  0
 12 32  1  0
 12 33  1  0
 15 34  1  0
 16 35  1  0
 19 36  1  0
 21 37  1  0
 21 38  1  0
M  END
$$$$
