
     RDKit          3D

 29 30  0  0  0  0  0  0  0  0999 V2000
   -3.2563   -1.2368   -0.5250 C   0  0  0  0  0  0  0  0  0  0  0  0
   -2.2152   -0.2553   -0.0662 C   0  0  0  0  0  0  0  0  0  0  0  0
   -1.0803   -0.5522    0.5986 C   0  0  0  0  0  0  0  0  0  0  0  0
   -0.7103   -1.9343    1.0695 C   0  0  0  0  0  0  0  0  0  0  0  0
   -0.0704    0.5252    0.9489 C   0  0  0  0  0  0  0  0  0  0  0  0
    1.2660    0.3485    0.2453 C   0  0  0  0  0  0  0  0  0  0  0  0
    1.3732    0.4603   -1.1513 C   0  0  0  0  0  0  0  0  0  0  0  0
    2.6043    0.2937   -1.7874 C   0  0  0  0  0  0  0  0  0  0  0  0
    3.7441    0.0127   -1.0375 C   0  0  0  0  0  0  0  0  0  0  0  0
    3.6549   -0.1017    0.3483 C   0  0  0  0  0  0  0  0  0  0  0  0
    2.4244    0.0652    0.9870 C   0  0  0  0  0  0  0  0  0  0  0  0
   -0.5917    1.8529    0.6986 N   0  0  0  0  0  0  0  0  0  0  0  0
   -1.7002    2.1141   -0.0298 C   0  0  0  0  0  0  0  0  0  0  0  0
   -2.1134    3.6691   -0.4450 S   0  0  0  0  0  0  0  0  0  0  0  0
   -2.4701    1.0560   -0.3926 N   0  0  0  0  0  0  0  0  0  0  0  0
   -3.5678   -1.0117   -1.5515 H   0  0  0  0  0  0  0  0  0  0  0  0
   -4.1390   -1.1798    0.1201 H   0  0  0  0  0  0  0  0  0  0  0  0
   -2.8993   -2.2696   -0.5322 H   0  0  0  0  0  0  0  0  0  0  0  0
   -0.3338   -1.8969    2.0978 H   0  0  0  0  0  0  0  0  0  0  0  0
   -1.5571   -2.6249    1.0808 H   0  0  0  0  0  0  0  0  0  0  0  0
    0.0701   -2.3611    0.4318 H   0  0  0  0  0  0  0  0  0  0  0  0
    0.0912    0.5002    2.0345 H   0  0  0  0  0  0  0  0  0  0  0  0
    0.4914    0.6808   -1.7502 H   0  0  0  0  0  0  0  0  0  0  0  0
    2.6722    0.3852   -2.8683 H   0  0  0  0  0  0  0  0  0  0  0  0
    4.7025   -0.1159   -1.5337 H   0  0  0  0  0  0  0  0  0  0  0  0
    4.5452   -0.3201    0.9324 H   0  0  0  0  0  0  0  0  0  0  0  0
    2.3773   -0.0282    2.0698 H   0  0  0  0  0  0  0  0  0  0  0  0
    0.0014    2.6420    0.9163 H   0  0  0  0  0  0  0  0  0  0  0  0
   -3.3134    1.2827   -0.9090 H   0  0  0  0  0  0  0  0  0  0  0  0
  1  2  1  0
  2  3  2  0
  3  4  1  0
  3  5  1  0
  5  6  1  0
  6  7  2  0
  7  8  1  0
  8  9  2  0
  9 10  1  0
 10 11  2  0
  5 12  1  0
 12 13  1  0
 13 14  2  0
 13 15  1  0
 15  2  1  0
 11  6  1  0
  1 16  1  0
  1 17  1  0
  1 18  1  0
  4 19  1  0
  4 20  1  0
  4 21  1  0
  5 22  1  0
  7 23  1  0
  8 24  1  0
  9 25  1  0
 10 26  1  0
 11 27  1  0
 12 28  1  0
 15 29  1  0
M  END
$$$$
