
     RDKit          3D

 32 33  0  0  0  0  0  0  0  0999 V2000
    3.9897   -1.5458    0.3188 C   0  0  0  0  0  0  0  0  0  0  0  0
    4.2626   -0.2992   -0.5055 C   0  0  0  0  0  0  0  0  0  0  0  0
    3.1272    1.0534   -0.0720 S   0  0  0  0  0  0  0  0  0  0  0  0
    1.6264    0.5071   -0.7486 C   0  0  0  0  0  0  0  0  0  0  0  0
    1.3328   -0.0947   -1.9481 C   0  0  0  0  0  0  0  0  0  0  0  0
   -0.0091   -0.3358   -2.0578 N   0  0  0  0  0  0  0  0  0  0  0  0
   -0.5539    0.1079   -0.9394 C   0  0  0  0  0  0  0  0  0  0  0  0
   -1.9838    0.0649   -0.6443 C   0  0  0  0  0  0  0  0  0  0  0  0
   -2.4957   -0.8234    0.3089 C   0  0  0  0  0  0  0  0  0  0  0  0
   -3.8641   -0.8472    0.5867 C   0  0  0  0  0  0  0  0  0  0  0  0
   -4.7290    0.0094   -0.0934 C   0  0  0  0  0  0  0  0  0  0  0  0
   -4.2296    0.8835   -1.0580 C   0  0  0  0  0  0  0  0  0  0  0  0
   -2.8617    0.9076   -1.3364 C   0  0  0  0  0  0  0  0  0  0  0  0
    0.4156    0.6534   -0.1113 N   0  0  0  0  0  0  0  0  0  0  0  0
    0.1692    1.3155    1.1587 C   0  0  0  0  0  0  0  0  0  0  0  0
    0.4142    0.4134    2.3573 C   0  0  0  0  0  0  0  0  0  0  0  0
    4.0763   -1.3440    1.3918 H   0  0  0  0  0  0  0  0  0  0  0  0
    4.7204   -2.3223    0.0690 H   0  0  0  0  0  0  0  0  0  0  0  0
    2.9945   -1.9568    0.1216 H   0  0  0  0  0  0  0  0  0  0  0  0
    5.2811    0.0486   -0.3041 H   0  0  0  0  0  0  0  0  0  0  0  0
    4.2039   -0.5202   -1.5756 H   0  0  0  0  0  0  0  0  0  0  0  0
    2.0115   -0.3625   -2.7465 H   0  0  0  0  0  0  0  0  0  0  0  0
   -1.8345   -1.5141    0.8259 H   0  0  0  0  0  0  0  0  0  0  0  0
   -4.2565   -1.5418    1.3250 H   0  0  0  0  0  0  0  0  0  0  0  0
   -5.7951   -0.0138    0.1183 H   0  0  0  0  0  0  0  0  0  0  0  0
   -4.9047    1.5403   -1.6004 H   0  0  0  0  0  0  0  0  0  0  0  0
   -2.4791    1.5811   -2.1005 H   0  0  0  0  0  0  0  0  0  0  0  0
   -0.8629    1.6807    1.1671 H   0  0  0  0  0  0  0  0  0  0  0  0
    0.8055    2.2055    1.2078 H   0  0  0  0  0  0  0  0  0  0  0  0
   -0.2261   -0.4730    2.3287 H   0  0  0  0  0  0  0  0  0  0  0  0
    1.4518    0.0681    2.3971 H   0  0  0  0  0  0  0  0  0  0  0  0
    0.2030    0.9542    3.2851 H   0  0  0  0  0  0  0  0  0  0  0  0
  1  2  1  0
  2  3  1  0
  3  4  1  0
  4  5  2  0
  5  6  1  0
  6  7  2  0
  7  8  1  0
  8  9  2  0
  9 10  1  0
 10 11  2  0
 11 12  1  0
 12 13  2  0
  7 14  1  0
 14 15  1  0
 15 16  1  0
 14  4  1  0
 13  8  1  0
  1 17  1  0
  1 18  1  0
  1 19  1  0
  2 20  1  0
  2 21  1  0
  5 22  1  0
  9 23  1  0
 10 24  1  0
 11 25  1  0
 12 26  1  0
 13 27  1  0
 15 28  1  0
 15 29  1  0
 16 30  1  0
 16 31  1  0
 16 32  1  0
M  END
$$$$
