
     RDKit          3D

 51 53  0  0  0  0  0  0  0  0999 V2000
    7.1126   -2.1630    1.4938 C   0  0  0  0  0  0  0  0  0  0  0  0
    6.8675   -1.8059    0.1391 O   0  0  0  0  0  0  0  0  0  0  0  0
    5.9803   -0.7819   -0.0887 C   0  0  0  0  0  0  0  0  0  0  0  0
    5.5668    0.1284    0.8888 C   0  0  0  0  0  0  0  0  0  0  0  0
    4.6714    1.1532    0.5695 C   0  0  0  0  0  0  0  0  0  0  0  0
    4.1794    1.2842   -0.7326 C   0  0  0  0  0  0  0  0  0  0  0  0
    3.2041    2.3791   -1.0859 C   0  0  0  0  0  0  0  0  0  0  0  0
    1.7999    1.8445   -1.3357 C   0  0  0  0  0  0  0  0  0  0  0  0
    1.4460    1.5123   -2.4641 O   0  0  0  0  0  0  0  0  0  0  0  0
    1.0376    1.7901   -0.1791 N   0  0  0  0  0  0  0  0  0  0  0  0
   -0.2898    1.3382   -0.0425 C   0  0  0  0  0  0  0  0  0  0  0  0
   -1.0619    0.8421   -1.0927 C   0  0  0  0  0  0  0  0  0  0  0  0
   -2.3792    0.4174   -0.8647 C   0  0  0  0  0  0  0  0  0  0  0  0
   -2.9454    0.4774    0.4145 C   0  0  0  0  0  0  0  0  0  0  0  0
   -4.2808    0.0449    0.5533 N   0  0  0  0  0  0  0  0  0  0  0  0
   -5.0147   -0.0404    1.7222 C   0  0  0  0  0  0  0  0  0  0  0  0
   -4.6037    0.1578    2.8600 O   0  0  0  0  0  0  0  0  0  0  0  0
   -6.4401   -0.4513    1.5511 C   0  0  0  0  0  0  0  0  0  0  0  0
   -7.1844   -0.1039    0.4143 C   0  0  0  0  0  0  0  0  0  0  0  0
   -8.5219   -0.4995    0.3065 C   0  0  0  0  0  0  0  0  0  0  0  0
   -9.1170   -1.2296    1.3367 C   0  0  0  0  0  0  0  0  0  0  0  0
  -10.9268   -1.7549    1.1885 Br  0  0  0  0  0  0  0  0  0  0  0  0
   -8.3910   -1.5648    2.4782 C   0  0  0  0  0  0  0  0  0  0  0  0
   -7.0544   -1.1718    2.5865 C   0  0  0  0  0  0  0  0  0  0  0  0
   -2.1725    0.9731    1.4636 C   0  0  0  0  0  0  0  0  0  0  0  0
   -0.8567    1.3978    1.2373 C   0  0  0  0  0  0  0  0  0  0  0  0
    4.5972    0.3721   -1.7147 C   0  0  0  0  0  0  0  0  0  0  0  0
    5.4961   -0.6567   -1.4063 C   0  0  0  0  0  0  0  0  0  0  0  0
    5.9558   -1.5846   -2.3116 O   0  0  0  0  0  0  0  0  0  0  0  0
    5.4411   -1.5204   -3.6339 C   0  0  0  0  0  0  0  0  0  0  0  0
    7.6983   -1.3916    2.0037 H   0  0  0  0  0  0  0  0  0  0  0  0
    7.7032   -3.0850    1.4979 H   0  0  0  0  0  0  0  0  0  0  0  0
    6.1785   -2.3688    2.0286 H   0  0  0  0  0  0  0  0  0  0  0  0
    5.9376    0.0768    1.9079 H   0  0  0  0  0  0  0  0  0  0  0  0
    4.3762    1.8575    1.3507 H   0  0  0  0  0  0  0  0  0  0  0  0
    3.5439    2.9034   -1.9870 H   0  0  0  0  0  0  0  0  0  0  0  0
    3.1737    3.1412   -0.2972 H   0  0  0  0  0  0  0  0  0  0  0  0
    1.4888    2.0882    0.6780 H   0  0  0  0  0  0  0  0  0  0  0  0
   -0.6737    0.7722   -2.1067 H   0  0  0  0  0  0  0  0  0  0  0  0
   -2.9481    0.0444   -1.7127 H   0  0  0  0  0  0  0  0  0  0  0  0
   -4.7189   -0.2886   -0.2953 H   0  0  0  0  0  0  0  0  0  0  0  0
   -6.7541    0.5003   -0.3806 H   0  0  0  0  0  0  0  0  0  0  0  0
   -9.0939   -0.2231   -0.5759 H   0  0  0  0  0  0  0  0  0  0  0  0
   -8.8538   -2.1228    3.2896 H   0  0  0  0  0  0  0  0  0  0  0  0
   -6.4917   -1.4263    3.4832 H   0  0  0  0  0  0  0  0  0  0  0  0
   -2.5612    1.0494    2.4743 H   0  0  0  0  0  0  0  0  0  0  0  0
   -0.2906    1.7800    2.0845 H   0  0  0  0  0  0  0  0  0  0  0  0
    4.2017    0.4895   -2.7209 H   0  0  0  0  0  0  0  0  0  0  0  0
    4.3574   -1.6804   -3.6433 H   0  0  0  0  0  0  0  0  0  0  0  0
    5.9049   -2.3274   -4.2139 H   0  0  0  0  0  0  0  0  0  0  0  0
    5.7061   -0.5724   -4.1172 H   0  0  0  0  0  0  0  0  0  0  0  0
  1  2  1  0
  2  3  1  0
  3  4  2  0
  4  5  1  0
  5  6  2  0
  6  7  1  0
  7  8  1  0
  8  9  2  0
  8 10  1  0
 10 11  1  0
 11 12  2  0
 12 13  1  0
 13 14  2  0
 14 15  1  0
 15 16  1  0
 16 17  2  0
 16 18  1  0
 18 19  2  0
 19 20  1  0
 20 21  2  0
 21 22  1  0
 21 23  1  0
 23 24  2  0
 14 25  1  0
 25 26  2  0
  6 27  1  0
 27 28  2  0
 28 29  1  0
 29 30  1  0
 28  3  1  0
 26 11  1  0
 24 18  1  0
  1 31  1  0
  1 32  1  0
  1 33  1  0
  4 34  1  0
  5 35  1  0
  7 36  1  0
  7 37  1  0
 10 38  1  0
 12 39  1  0
 13 40  1  0
 15 41  1  0
 19 42  1  0
 20 43  1  0
 23 44  1  0
 24 45  1  0
 25 46  1  0
 26 47  1  0
 27 48  1  0
 30 49  1  0
 30 50  1  0
 30 51  1  0
M  END
$$$$
