
     RDKit          3D

 37 38  0  0  0  0  0  0  0  0999 V2000
    5.8675    0.0560   -0.6315 C   0  0  0  0  0  0  0  0  0  0  0  0
    4.5626    0.7337   -1.0087 C   0  0  0  0  0  0  0  0  0  0  0  0
    3.4587    0.2961   -0.1768 N   0  0  0  0  0  0  0  0  0  0  0  0
    2.5414   -0.6675   -0.4754 C   0  0  0  0  0  0  0  0  0  0  0  0
    1.6906   -0.7449    0.6096 C   0  0  0  0  0  0  0  0  0  0  0  0
    0.5217   -1.6393    0.7924 C   0  0  0  0  0  0  0  0  0  0  0  0
   -0.6570   -0.9332    0.3480 N   0  0  0  0  0  0  0  0  0  0  0  0
   -1.9062   -1.4583    0.5878 C   0  0  0  0  0  0  0  0  0  0  0  0
   -2.0915   -2.4863    1.2286 O   0  0  0  0  0  0  0  0  0  0  0  0
   -3.0628   -0.7295   -0.0044 C   0  0  0  0  0  0  0  0  0  0  0  0
   -4.2441   -1.4472   -0.2461 C   0  0  0  0  0  0  0  0  0  0  0  0
   -5.3628   -0.8142   -0.7928 C   0  0  0  0  0  0  0  0  0  0  0  0
   -5.3140    0.5458   -1.0967 C   0  0  0  0  0  0  0  0  0  0  0  0
   -4.1395    1.2672   -0.8422 C   0  0  0  0  0  0  0  0  0  0  0  0
   -4.0888    2.7008   -1.1549 N   0  0  0  0  0  4  0  0  0  0  0  0
   -5.1401    3.2521   -1.5086 O   0  0  0  0  0  0  0  0  0  0  0  0
   -2.9935    3.2708   -1.0525 O   0  0  0  0  0  1  0  0  0  0  0  0
   -3.0114    0.6397   -0.2923 C   0  0  0  0  0  0  0  0  0  0  0  0
    2.1864    0.2364    1.5127 C   0  0  0  0  0  0  0  0  0  0  0  0
    1.6525    0.5977    2.8499 C   0  0  0  0  0  0  0  0  0  0  0  0
    3.2589    0.8684    1.0214 N   0  0  0  0  0  0  0  0  0  0  0  0
    6.1432    0.2773    0.4050 H   0  0  0  0  0  0  0  0  0  0  0  0
    5.7895   -1.0319   -0.7308 H   0  0  0  0  0  0  0  0  0  0  0  0
    6.6772    0.4017   -1.2814 H   0  0  0  0  0  0  0  0  0  0  0  0
    4.6442    1.8215   -0.9068 H   0  0  0  0  0  0  0  0  0  0  0  0
    4.3035    0.5127   -2.0499 H   0  0  0  0  0  0  0  0  0  0  0  0
    2.5719   -1.2139   -1.4078 H   0  0  0  0  0  0  0  0  0  0  0  0
    0.3984   -1.9355    1.8396 H   0  0  0  0  0  0  0  0  0  0  0  0
    0.6206   -2.5506    0.1923 H   0  0  0  0  0  0  0  0  0  0  0  0
   -0.5300   -0.2455   -0.3815 H   0  0  0  0  0  0  0  0  0  0  0  0
   -4.2944   -2.5091   -0.0063 H   0  0  0  0  0  0  0  0  0  0  0  0
   -6.2717   -1.3835   -0.9770 H   0  0  0  0  0  0  0  0  0  0  0  0
   -6.1936    1.0262   -1.5217 H   0  0  0  0  0  0  0  0  0  0  0  0
   -2.1190    1.2178   -0.0662 H   0  0  0  0  0  0  0  0  0  0  0  0
    0.5990    0.8855    2.7754 H   0  0  0  0  0  0  0  0  0  0  0  0
    2.2011    1.4370    3.2898 H   0  0  0  0  0  0  0  0  0  0  0  0
    1.7313   -0.2539    3.5331 H   0  0  0  0  0  0  0  0  0  0  0  0
  1  2  1  0
  2  3  1  0
  3  4  1  0
  4  5  2  0
  5  6  1  0
  6  7  1  0
  7  8  1  0
  8  9  2  0
  8 10  1  0
 10 11  2  0
 11 12  1  0
 12 13  2  0
 13 14  1  0
 14 15  1  0
 15 16  2  0
 15 17  1  0
 14 18  2  0
  5 19  1  0
 19 20  1  0
 19 21  2  0
 21  3  1  0
 18 10  1  0
  1 22  1  0
  1 23  1  0
  1 24  1  0
  2 25  1  0
  2 26  1  0
  4 27  1  0
  6 28  1  0
  6 29  1  0
  7 30  1  0
 11 31  1  0
 12 32  1  0
 13 33  1  0
 18 34  1  0
 20 35  1  0
 20 36  1  0
 20 37  1  0
M  CHG  2  15   1  17  -1
M  END
$$$$
