
     RDKit          3D

 44 47  0  0  0  0  0  0  0  0999 V2000
   -3.8291    2.8807   -0.2492 C   0  0  0  0  0  0  0  0  0  0  0  0
   -3.6707    1.5909    0.5573 C   0  0  0  0  0  0  0  0  0  0  0  0
   -2.2081    1.2920    0.8512 C   0  0  0  0  0  0  0  0  0  0  0  0
   -1.4538    0.7442   -0.3404 C   0  0  0  0  0  0  0  0  0  0  0  0
   -0.7431    1.4921   -1.0209 O   0  0  0  0  0  0  0  0  0  0  0  0
   -1.5083   -0.6261   -0.5716 N   0  0  0  0  0  0  0  0  0  0  0  0
   -0.6456   -1.1733   -1.6255 C   0  0  0  0  0  0  0  0  0  0  0  0
    0.8066   -1.3427   -1.1607 C   0  0  0  0  0  0  0  0  0  0  0  0
    1.2597   -2.4574   -0.9122 O   0  0  0  0  0  0  0  0  0  0  0  0
    1.4827   -0.1390   -1.0569 N   0  0  0  0  0  0  0  0  0  0  0  0
    2.8188    0.0784   -0.6689 C   0  0  0  0  0  0  0  0  0  0  0  0
    3.7290   -0.9566   -0.3815 C   0  0  0  0  0  0  0  0  0  0  0  0
    5.0478   -0.6725   -0.0014 C   0  0  0  0  0  0  0  0  0  0  0  0
    5.4237    0.6487    0.0803 C   0  0  0  0  0  0  0  0  0  0  0  0
    4.5429    1.6640   -0.2001 C   0  0  0  0  0  0  0  0  0  0  0  0
    3.2394    1.4137   -0.5766 C   0  0  0  0  0  0  0  0  0  0  0  0
    5.1077    2.8938   -0.0613 O   0  0  0  0  0  0  0  0  0  0  0  0
    6.4472    2.5330    0.3363 C   0  0  0  0  0  0  0  0  0  0  0  0
    6.6537    1.1084    0.4305 O   0  0  0  0  0  0  0  0  0  0  0  0
   -2.4032   -1.5170    0.1007 C   0  0  0  0  0  0  0  0  0  0  0  0
   -1.9296   -2.7725    0.5180 C   0  0  0  0  0  0  0  0  0  0  0  0
   -2.7611   -3.6686    1.1937 C   0  0  0  0  0  0  0  0  0  0  0  0
   -4.0857   -3.3336    1.4474 C   0  0  0  0  0  0  0  0  0  0  0  0
   -4.5836   -2.1056    1.0154 C   0  0  0  0  0  0  0  0  0  0  0  0
   -3.7555   -1.1906    0.3468 C   0  0  0  0  0  0  0  0  0  0  0  0
   -4.5579    0.2605   -0.3282 S   0  0  0  0  0  0  0  0  0  0  0  0
   -4.8853    3.1414   -0.3824 H   0  0  0  0  0  0  0  0  0  0  0  0
   -3.3672    2.8063   -1.2401 H   0  0  0  0  0  0  0  0  0  0  0  0
   -3.3555    3.7194    0.2735 H   0  0  0  0  0  0  0  0  0  0  0  0
   -4.1847    1.7324    1.5155 H   0  0  0  0  0  0  0  0  0  0  0  0
   -1.6934    2.2029    1.1840 H   0  0  0  0  0  0  0  0  0  0  0  0
   -2.1090    0.5994    1.6962 H   0  0  0  0  0  0  0  0  0  0  0  0
   -1.0267   -2.1373   -1.9824 H   0  0  0  0  0  0  0  0  0  0  0  0
   -0.6583   -0.4993   -2.4913 H   0  0  0  0  0  0  0  0  0  0  0  0
    0.9230    0.6995   -1.2297 H   0  0  0  0  0  0  0  0  0  0  0  0
    3.4390   -2.0008   -0.4487 H   0  0  0  0  0  0  0  0  0  0  0  0
    5.7489   -1.4694    0.2197 H   0  0  0  0  0  0  0  0  0  0  0  0
    2.5714    2.2412   -0.7900 H   0  0  0  0  0  0  0  0  0  0  0  0
    6.6556    2.9828    1.3139 H   0  0  0  0  0  0  0  0  0  0  0  0
    7.1524    2.9420   -0.3964 H   0  0  0  0  0  0  0  0  0  0  0  0
   -0.8946   -3.0663    0.3590 H   0  0  0  0  0  0  0  0  0  0  0  0
   -2.3688   -4.6289    1.5208 H   0  0  0  0  0  0  0  0  0  0  0  0
   -4.7368   -4.0342    1.9645 H   0  0  0  0  0  0  0  0  0  0  0  0
   -5.6337   -1.8762    1.1864 H   0  0  0  0  0  0  0  0  0  0  0  0
  1  2  1  0
  2  3  1  0
  3  4  1  0
  4  5  2  0
  4  6  1  0
  6  7  1  0
  7  8  1  0
  8  9  2  0
  8 10  1  0
 10 11  1  0
 11 12  2  0
 12 13  1  0
 13 14  2  0
 14 15  1  0
 15 16  2  0
 15 17  1  0
 17 18  1  0
 18 19  1  0
  6 20  1  0
 20 21  2  0
 21 22  1  0
 22 23  2  0
 23 24  1  0
 24 25  2  0
 25 26  1  0
 26  2  1  0
 16 11  1  0
 25 20  1  0
 19 14  1  0
  1 27  1  0
  1 28  1  0
  1 29  1  0
  2 30  1  0
  3 31  1  0
  3 32  1  0
  7 33  1  0
  7 34  1  0
 10 35  1  0
 12 36  1  0
 13 37  1  0
 16 38  1  0
 18 39  1  0
 18 40  1  0
 21 41  1  0
 22 42  1  0
 23 43  1  0
 24 44  1  0
M  END
$$$$
