
     RDKit          3D

 56 58  0  0  0  0  0  0  0  0999 V2000
   10.1310    2.6205   -0.8648 C   0  0  0  0  0  0  0  0  0  0  0  0
    8.6317    2.8500   -0.7936 C   0  0  0  0  0  0  0  0  0  0  0  0
    8.0501    1.7435   -0.1075 O   0  0  0  0  0  0  0  0  0  0  0  0
    6.6953    1.7582    0.0668 C   0  0  0  0  0  0  0  0  0  0  0  0
    6.1800    0.6533    0.7450 C   0  0  0  0  0  0  0  0  0  0  0  0
    4.8070    0.5346    0.9916 C   0  0  0  0  0  0  0  0  0  0  0  0
    3.9268    1.5248    0.5598 C   0  0  0  0  0  0  0  0  0  0  0  0
    2.5309    1.4876    0.7602 N   0  0  0  0  0  0  0  0  0  0  0  0
    1.7963    0.5012    1.3986 C   0  0  0  0  0  0  0  0  0  0  0  0
    2.2335   -0.5318    1.8937 O   0  0  0  0  0  0  0  0  0  0  0  0
    0.3107    0.8201    1.3960 C   0  0  0  0  0  0  0  0  0  0  0  0
   -0.4951   -0.1376    2.2664 C   0  0  0  0  0  0  0  0  0  0  0  0
   -0.4961   -1.4870    1.6748 N   0  0  0  0  0  0  0  0  0  0  0  0
   -1.6517   -2.5826    2.2166 S   0  0  0  0  0  6  0  0  0  0  0  0
   -2.1725   -2.1342    3.4875 O   0  0  0  0  0  0  0  0  0  0  0  0
   -1.0832   -3.9003    2.0411 O   0  0  0  0  0  0  0  0  0  0  0  0
   -2.9209   -2.3844    0.9897 C   0  0  0  0  0  0  0  0  0  0  0  0
   -2.9794   -3.2536   -0.0989 C   0  0  0  0  0  0  0  0  0  0  0  0
   -4.0001   -3.1120   -1.0460 C   0  0  0  0  0  0  0  0  0  0  0  0
   -4.9723   -2.1055   -0.9173 C   0  0  0  0  0  0  0  0  0  0  0  0
   -4.8930   -1.2482    0.1805 C   0  0  0  0  0  0  0  0  0  0  0  0
   -3.8818   -1.3873    1.1438 C   0  0  0  0  0  0  0  0  0  0  0  0
   -5.8846   -0.1722    0.3274 C   0  0  0  0  0  0  0  0  0  0  0  0
   -5.7714    0.6148    1.2643 O   0  0  0  0  0  0  0  0  0  0  0  0
   -6.8859   -0.1120   -0.6276 N   0  0  0  0  0  0  0  0  0  0  0  0
   -7.8989    0.9201   -0.4995 C   0  0  0  0  0  0  0  0  0  0  0  0
   -6.9945   -0.9556   -1.7273 C   0  0  0  0  0  0  0  0  0  0  0  0
   -7.9093   -0.8257   -2.5447 O   0  0  0  0  0  0  0  0  0  0  0  0
   -6.0222   -1.9427   -1.8595 N   0  0  0  0  0  0  0  0  0  0  0  0
   -6.1103   -2.8431   -3.0029 C   0  0  0  0  0  0  0  0  0  0  0  0
    4.4462    2.6344   -0.1189 C   0  0  0  0  0  0  0  0  0  0  0  0
    5.8210    2.7522   -0.3644 C   0  0  0  0  0  0  0  0  0  0  0  0
   10.3531    1.6853   -1.3894 H   0  0  0  0  0  0  0  0  0  0  0  0
   10.6280    3.4441   -1.3855 H   0  0  0  0  0  0  0  0  0  0  0  0
   10.5552    2.5309    0.1410 H   0  0  0  0  0  0  0  0  0  0  0  0
    8.4380    3.7807   -0.2480 H   0  0  0  0  0  0  0  0  0  0  0  0
    8.2308    2.9199   -1.8114 H   0  0  0  0  0  0  0  0  0  0  0  0
    6.8528   -0.1296    1.0878 H   0  0  0  0  0  0  0  0  0  0  0  0
    4.4662   -0.3473    1.5237 H   0  0  0  0  0  0  0  0  0  0  0  0
    2.0137    2.2761    0.3926 H   0  0  0  0  0  0  0  0  0  0  0  0
   -0.0461    0.7878    0.3597 H   0  0  0  0  0  0  0  0  0  0  0  0
    0.1779    1.8398    1.7762 H   0  0  0  0  0  0  0  0  0  0  0  0
   -0.0714   -0.1873    3.2755 H   0  0  0  0  0  0  0  0  0  0  0  0
   -1.5197    0.2412    2.3337 H   0  0  0  0  0  0  0  0  0  0  0  0
    0.4317   -1.9273    1.6297 H   0  0  0  0  0  0  0  0  0  0  0  0
   -2.2407   -4.0447   -0.2180 H   0  0  0  0  0  0  0  0  0  0  0  0
   -4.0085   -3.8127   -1.8766 H   0  0  0  0  0  0  0  0  0  0  0  0
   -3.8511   -0.7222    2.0051 H   0  0  0  0  0  0  0  0  0  0  0  0
   -7.8968    1.5388   -1.4036 H   0  0  0  0  0  0  0  0  0  0  0  0
   -7.7378    1.5626    0.3697 H   0  0  0  0  0  0  0  0  0  0  0  0
   -8.8806    0.4423   -0.4100 H   0  0  0  0  0  0  0  0  0  0  0  0
   -5.2033   -2.7494   -3.6088 H   0  0  0  0  0  0  0  0  0  0  0  0
   -6.2277   -3.8721   -2.6472 H   0  0  0  0  0  0  0  0  0  0  0  0
   -6.9648   -2.6153   -3.6463 H   0  0  0  0  0  0  0  0  0  0  0  0
    3.7918    3.4277   -0.4701 H   0  0  0  0  0  0  0  0  0  0  0  0
    6.1717    3.6310   -0.8945 H   0  0  0  0  0  0  0  0  0  0  0  0
  1  2  1  0
  2  3  1  0
  3  4  1  0
  4  5  2  0
  5  6  1  0
  6  7  2  0
  7  8  1  0
  8  9  1  0
  9 10  2  0
  9 11  1  0
 11 12  1  0
 12 13  1  0
 13 14  1  0
 14 15  2  0
 14 16  2  0
 14 17  1  0
 17 18  2  0
 18 19  1  0
 19 20  2  0
 20 21  1  0
 21 22  2  0
 21 23  1  0
 23 24  2  0
 23 25  1  0
 25 26  1  0
 25 27  1  0
 27 28  2  0
 27 29  1  0
 29 30  1  0
  7 31  1  0
 31 32  2  0
 32  4  1  0
 22 17  1  0
 29 20  1  0
  1 33  1  0
  1 34  1  0
  1 35  1  0
  2 36  1  0
  2 37  1  0
  5 38  1  0
  6 39  1  0
  8 40  1  0
 11 41  1  0
 11 42  1  0
 12 43  1  0
 12 44  1  0
 13 45  1  0
 18 46  1  0
 19 47  1  0
 22 48  1  0
 26 49  1  0
 26 50  1  0
 26 51  1  0
 30 52  1  0
 30 53  1  0
 30 54  1  0
 31 55  1  0
 32 56  1  0
M  END
$$$$
