
     RDKit          3D

 44 46  0  0  0  0  0  0  0  0999 V2000
    7.5790    4.8984    1.8300 C   0  0  0  0  0  0  0  0  0  0  0  0
    6.4774    4.4739    2.6235 O   0  0  0  0  0  0  0  0  0  0  0  0
    5.5315    3.7039    2.0068 C   0  0  0  0  0  0  0  0  0  0  0  0
    5.5412    3.2983    0.6743 C   0  0  0  0  0  0  0  0  0  0  0  0
    4.4986    2.5084    0.1695 C   0  0  0  0  0  0  0  0  0  0  0  0
    3.4291    2.1090    0.9844 C   0  0  0  0  0  0  0  0  0  0  0  0
    2.3356    1.2962    0.4634 C   0  0  0  0  0  0  0  0  0  0  0  0
    1.1295    0.8586    0.9580 C   0  0  0  0  0  0  0  0  0  0  0  0
    0.5497    0.1066   -0.0941 C   0  0  0  0  0  0  0  0  0  0  0  0
   -0.7516   -0.5729   -0.0922 C   0  0  0  0  0  0  0  0  0  0  0  0
   -1.4814   -0.5329    0.8923 O   0  0  0  0  0  0  0  0  0  0  0  0
   -1.0154   -1.2217   -1.2851 N   0  0  0  0  0  0  0  0  0  0  0  0
   -2.1613   -1.9517   -1.6526 C   0  0  0  0  0  0  0  0  0  0  0  0
   -2.1604   -2.5294   -2.9274 C   0  0  0  0  0  0  0  0  0  0  0  0
   -3.2603   -3.2619   -3.3713 C   0  0  0  0  0  0  0  0  0  0  0  0
   -4.3777   -3.4046   -2.5502 C   0  0  0  0  0  0  0  0  0  0  0  0
   -5.4096   -4.1570   -3.0535 O   0  0  0  0  0  0  0  0  0  0  0  0
   -6.5514   -3.3445   -3.3265 C   0  0  0  0  0  0  0  0  0  0  0  0
   -4.3897   -2.8600   -1.2577 C   0  0  0  0  0  0  0  0  0  0  0  0
   -5.5077   -3.1012   -0.5018 O   0  0  0  0  0  0  0  0  0  0  0  0
   -5.4997   -2.6472    0.8454 C   0  0  0  0  0  0  0  0  0  0  0  0
   -3.2767   -2.1256   -0.8235 C   0  0  0  0  0  0  0  0  0  0  0  0
    1.3644    0.0799   -1.1646 N   0  0  0  0  0  0  0  0  0  0  0  0
    2.4729    0.8273   -0.8107 O   0  0  0  0  0  0  0  0  0  0  0  0
    3.4338    2.5207    2.3233 C   0  0  0  0  0  0  0  0  0  0  0  0
    4.4746    3.3092    2.8265 C   0  0  0  0  0  0  0  0  0  0  0  0
    7.2463    5.5408    1.0082 H   0  0  0  0  0  0  0  0  0  0  0  0
    8.2423    5.4904    2.4678 H   0  0  0  0  0  0  0  0  0  0  0  0
    8.1521    4.0429    1.4576 H   0  0  0  0  0  0  0  0  0  0  0  0
    6.3404    3.5785   -0.0037 H   0  0  0  0  0  0  0  0  0  0  0  0
    4.5372    2.2112   -0.8773 H   0  0  0  0  0  0  0  0  0  0  0  0
    0.7035    1.0506    1.9318 H   0  0  0  0  0  0  0  0  0  0  0  0
   -0.2724   -1.1454   -1.9755 H   0  0  0  0  0  0  0  0  0  0  0  0
   -1.3040   -2.4255   -3.5878 H   0  0  0  0  0  0  0  0  0  0  0  0
   -3.2511   -3.7181   -4.3570 H   0  0  0  0  0  0  0  0  0  0  0  0
   -7.1090   -3.1216   -2.4125 H   0  0  0  0  0  0  0  0  0  0  0  0
   -7.2134   -3.9149   -3.9854 H   0  0  0  0  0  0  0  0  0  0  0  0
   -6.2789   -2.4172   -3.8444 H   0  0  0  0  0  0  0  0  0  0  0  0
   -5.4474   -1.5544    0.8934 H   0  0  0  0  0  0  0  0  0  0  0  0
   -4.6874   -3.1106    1.4154 H   0  0  0  0  0  0  0  0  0  0  0  0
   -6.4447   -2.9526    1.3042 H   0  0  0  0  0  0  0  0  0  0  0  0
   -3.2796   -1.6882    0.1660 H   0  0  0  0  0  0  0  0  0  0  0  0
    2.6329    2.2350    2.9999 H   0  0  0  0  0  0  0  0  0  0  0  0
    4.4590    3.6195    3.8688 H   0  0  0  0  0  0  0  0  0  0  0  0
  1  2  1  0
  2  3  1  0
  3  4  2  0
  4  5  1  0
  5  6  2  0
  6  7  1  0
  7  8  2  0
  8  9  1  0
  9 10  1  0
 10 11  2  0
 10 12  1  0
 12 13  1  0
 13 14  2  0
 14 15  1  0
 15 16  2  0
 16 17  1  0
 17 18  1  0
 16 19  1  0
 19 20  1  0
 20 21  1  0
 19 22  2  0
  9 23  2  0
 23 24  1  0
  6 25  1  0
 25 26  2  0
 26  3  1  0
 24  7  1  0
 22 13  1  0
  1 27  1  0
  1 28  1  0
  1 29  1  0
  4 30  1  0
  5 31  1  0
  8 32  1  0
 12 33  1  0
 14 34  1  0
 15 35  1  0
 18 36  1  0
 18 37  1  0
 18 38  1  0
 21 39  1  0
 21 40  1  0
 21 41  1  0
 22 42  1  0
 25 43  1  0
 26 44  1  0
M  END
$$$$
