
     RDKit          3D

 48 49  0  0  0  0  0  0  0  0999 V2000
   -7.5041   -1.2554    1.9576 C   0  0  0  0  0  0  0  0  0  0  0  0
   -6.8161   -0.4452    0.8985 C   0  0  0  0  0  0  0  0  0  0  0  0
   -7.5576    0.2832   -0.0306 C   0  0  0  0  0  0  0  0  0  0  0  0
   -6.9091    1.0077   -1.0289 C   0  0  0  0  0  0  0  0  0  0  0  0
   -5.5066    1.0108   -1.1255 C   0  0  0  0  0  0  0  0  0  0  0  0
   -4.8739    1.8164   -2.2289 C   0  0  0  0  0  0  0  0  0  0  0  0
   -4.7467    0.2633   -0.1989 C   0  0  0  0  0  0  0  0  0  0  0  0
   -3.3357    0.2698   -0.3142 N   0  0  0  0  0  0  0  0  0  0  0  0
   -2.4081   -0.3856    0.4786 C   0  0  0  0  0  0  0  0  0  0  0  0
   -2.6347   -1.1064    1.4433 O   0  0  0  0  0  0  0  0  0  0  0  0
   -0.9913   -0.1096    0.0108 C   0  0  0  0  0  0  0  0  0  0  0  0
    0.0369   -0.8278    0.8763 C   0  0  0  0  0  0  0  0  0  0  0  0
    1.4500   -0.5530    0.4071 C   0  0  0  0  0  0  0  0  0  0  0  0
    1.6993    0.1520   -0.5664 O   0  0  0  0  0  0  0  0  0  0  0  0
    2.3912   -1.1943    1.2137 N   0  0  0  0  0  0  0  0  0  0  0  0
    3.7350   -1.2531    0.9418 N   0  0  0  0  0  0  0  0  0  0  0  0
    4.2974   -0.1827    0.4696 C   0  0  0  0  0  0  0  0  0  0  0  0
    5.7280   -0.1738    0.0938 C   0  0  0  0  0  0  0  0  0  0  0  0
    6.2680    1.0194   -0.3988 C   0  0  0  0  0  0  0  0  0  0  0  0
    7.6222    1.0594   -0.7641 C   0  0  0  0  0  0  0  0  0  0  0  0
    8.1971    2.3089   -1.2795 N   0  0  0  0  0  4  0  0  0  0  0  0
    9.3831    2.2947   -1.6362 O   0  0  0  0  0  0  0  0  0  0  0  0
    7.4598    3.3037   -1.3239 O   0  0  0  0  0  1  0  0  0  0  0  0
    8.4334   -0.0775   -0.6418 C   0  0  0  0  0  0  0  0  0  0  0  0
    7.8845   -1.2633   -0.1508 C   0  0  0  0  0  0  0  0  0  0  0  0
    6.5397   -1.3102    0.2136 C   0  0  0  0  0  0  0  0  0  0  0  0
    6.0805   -2.5098    0.6823 O   0  0  0  0  0  0  0  0  0  0  0  0
   -5.4161   -0.4588    0.7980 C   0  0  0  0  0  0  0  0  0  0  0  0
   -6.9117   -1.2757    2.8785 H   0  0  0  0  0  0  0  0  0  0  0  0
   -8.4792   -0.8253    2.2093 H   0  0  0  0  0  0  0  0  0  0  0  0
   -7.6515   -2.2814    1.6068 H   0  0  0  0  0  0  0  0  0  0  0  0
   -8.6441    0.2930    0.0165 H   0  0  0  0  0  0  0  0  0  0  0  0
   -7.5114    1.5722   -1.7379 H   0  0  0  0  0  0  0  0  0  0  0  0
   -5.6255    2.3305   -2.8377 H   0  0  0  0  0  0  0  0  0  0  0  0
   -4.3031    1.1633   -2.8968 H   0  0  0  0  0  0  0  0  0  0  0  0
   -4.2143    2.5830   -1.8096 H   0  0  0  0  0  0  0  0  0  0  0  0
   -2.9560    0.8225   -1.0709 H   0  0  0  0  0  0  0  0  0  0  0  0
   -0.9003   -0.4372   -1.0320 H   0  0  0  0  0  0  0  0  0  0  0  0
   -0.8196    0.9733    0.0428 H   0  0  0  0  0  0  0  0  0  0  0  0
   -0.1345   -1.9105    0.8443 H   0  0  0  0  0  0  0  0  0  0  0  0
   -0.0519   -0.5005    1.9193 H   0  0  0  0  0  0  0  0  0  0  0  0
    2.0568   -1.9658    1.7870 H   0  0  0  0  0  0  0  0  0  0  0  0
    3.7565    0.7724    0.3509 H   0  0  0  0  0  0  0  0  0  0  0  0
    5.6393    1.9020   -0.4986 H   0  0  0  0  0  0  0  0  0  0  0  0
    9.4850   -0.0582   -0.9221 H   0  0  0  0  0  0  0  0  0  0  0  0
    8.5024   -2.1531   -0.0523 H   0  0  0  0  0  0  0  0  0  0  0  0
    5.1244   -2.4027    0.8822 H   0  0  0  0  0  0  0  0  0  0  0  0
   -4.8674   -1.0513    1.5236 H   0  0  0  0  0  0  0  0  0  0  0  0
  1  2  1  0
  2  3  2  0
  3  4  1  0
  4  5  2  0
  5  6  1  0
  5  7  1  0
  7  8  1  0
  8  9  1  0
  9 10  2  0
  9 11  1  0
 11 12  1  0
 12 13  1  0
 13 14  2  0
 13 15  1  0
 15 16  1  0
 16 17  2  3
 17 18  1  0
 18 19  2  0
 19 20  1  0
 20 21  1  0
 21 22  2  0
 21 23  1  0
 20 24  2  0
 24 25  1  0
 25 26  2  0
 26 27  1  0
  7 28  2  0
 28  2  1  0
 26 18  1  0
  1 29  1  0
  1 30  1  0
  1 31  1  0
  3 32  1  0
  4 33  1  0
  6 34  1  0
  6 35  1  0
  6 36  1  0
  8 37  1  0
 11 38  1  0
 11 39  1  0
 12 40  1  0
 12 41  1  0
 15 42  1  0
 17 43  1  0
 19 44  1  0
 24 45  1  0
 25 46  1  0
 27 47  1  0
 28 48  1  0
M  CHG  2  21   1  23  -1
M  END
$$$$
