
     RDKit          3D

 55 58  0  0  0  0  0  0  0  0999 V2000
    3.1466    3.0675   -0.1414 O   0  0  0  0  0  0  0  0  0  0  0  0
    2.3772    2.3954   -0.8344 C   0  0  0  0  0  0  0  0  0  0  0  0
    1.1433    2.9801   -1.4967 C   0  0  0  0  0  0  0  0  0  0  0  0
   -0.2833    2.9326   -0.3703 S   0  0  0  0  0  0  0  0  0  0  0  0
   -0.7380    1.2654   -0.5034 C   0  0  0  0  0  0  0  0  0  0  0  0
   -0.1246    0.3737   -1.2477 N   0  0  0  0  0  0  0  0  0  0  0  0
   -0.6825   -0.8502   -0.9822 N   0  0  0  0  0  0  0  0  0  0  0  0
   -1.6613   -0.6782   -0.1109 C   0  0  0  0  0  0  0  0  0  0  0  0
   -2.4387   -1.7570    0.4882 C   0  0  0  0  0  0  0  0  0  0  0  0
   -1.8098   -2.6209    1.4019 C   0  0  0  0  0  0  0  0  0  0  0  0
   -2.5150   -3.6813    1.9802 C   0  0  0  0  0  0  0  0  0  0  0  0
   -3.8527   -3.9025    1.6328 C   0  0  0  0  0  0  0  0  0  0  0  0
   -4.4869   -3.0615    0.7171 C   0  0  0  0  0  0  0  0  0  0  0  0
   -3.7814   -1.9953    0.1474 C   0  0  0  0  0  0  0  0  0  0  0  0
   -4.4183   -1.1778   -0.7489 O   0  0  0  0  0  0  0  0  0  0  0  0
   -1.7575    0.6722    0.1884 N   0  0  0  0  0  0  0  0  0  0  0  0
   -2.6338    1.2761    1.1795 C   0  0  0  0  0  0  0  0  0  0  0  0
   -3.5300    2.3686    0.6409 C   0  0  0  0  0  0  0  0  0  0  0  0
   -4.2364    2.2197   -0.5626 C   0  0  0  0  0  0  0  0  0  0  0  0
   -5.0837    3.2301   -1.0231 C   0  0  0  0  0  0  0  0  0  0  0  0
   -5.2460    4.3973   -0.2795 C   0  0  0  0  0  0  0  0  0  0  0  0
   -4.5617    4.5575    0.9319 C   0  0  0  0  0  0  0  0  0  0  0  0
   -3.7126    3.5482    1.3909 C   0  0  0  0  0  0  0  0  0  0  0  0
    2.5981    1.0548   -1.0916 N   0  0  0  0  0  0  0  0  0  0  0  0
    3.6570    0.4351   -0.4102 N   0  0  0  0  0  0  0  0  0  0  0  0
    3.9434   -0.8840   -0.7143 C   0  0  0  0  0  0  0  0  0  0  0  0
    3.2521   -1.5650   -1.4760 O   0  0  0  0  0  0  0  0  0  0  0  0
    5.1638   -1.4836   -0.1080 C   0  0  0  0  0  0  0  0  0  0  0  0
    5.8243   -0.8941    0.9809 C   0  0  0  0  0  0  0  0  0  0  0  0
    6.9761   -1.4855    1.5142 C   0  0  0  0  0  0  0  0  0  0  0  0
    7.4751   -2.6690    0.9712 C   0  0  0  0  0  0  0  0  0  0  0  0
    6.8157   -3.2725   -0.0963 C   0  0  0  0  0  0  0  0  0  0  0  0
    5.6636   -2.6900   -0.6272 C   0  0  0  0  0  0  0  0  0  0  0  0
    5.0713   -3.3682   -1.6627 O   0  0  0  0  0  0  0  0  0  0  0  0
    0.9290    2.4698   -2.4411 H   0  0  0  0  0  0  0  0  0  0  0  0
    1.3603    4.0250   -1.7493 H   0  0  0  0  0  0  0  0  0  0  0  0
   -0.7623   -2.4761    1.6573 H   0  0  0  0  0  0  0  0  0  0  0  0
   -2.0123   -4.3447    2.6816 H   0  0  0  0  0  0  0  0  0  0  0  0
   -4.3977   -4.7335    2.0776 H   0  0  0  0  0  0  0  0  0  0  0  0
   -5.5286   -3.2488    0.4584 H   0  0  0  0  0  0  0  0  0  0  0  0
   -5.2528   -1.6105   -1.0397 H   0  0  0  0  0  0  0  0  0  0  0  0
   -1.9764    1.6591    1.9699 H   0  0  0  0  0  0  0  0  0  0  0  0
   -3.2634    0.5021    1.6291 H   0  0  0  0  0  0  0  0  0  0  0  0
   -4.1257    1.3208   -1.1662 H   0  0  0  0  0  0  0  0  0  0  0  0
   -5.6149    3.1044   -1.9658 H   0  0  0  0  0  0  0  0  0  0  0  0
   -5.9017    5.1840   -0.6446 H   0  0  0  0  0  0  0  0  0  0  0  0
   -4.6835    5.4691    1.5109 H   0  0  0  0  0  0  0  0  0  0  0  0
   -3.1798    3.6998    2.3257 H   0  0  0  0  0  0  0  0  0  0  0  0
    1.8308    0.4405   -1.3912 H   0  0  0  0  0  0  0  0  0  0  0  0
    4.3123    1.0713    0.0434 H   0  0  0  0  0  0  0  0  0  0  0  0
    5.4560    0.0142    1.4475 H   0  0  0  0  0  0  0  0  0  0  0  0
    7.4856   -1.0256    2.3583 H   0  0  0  0  0  0  0  0  0  0  0  0
    8.3703   -3.1265    1.3861 H   0  0  0  0  0  0  0  0  0  0  0  0
    7.1896   -4.2035   -0.5191 H   0  0  0  0  0  0  0  0  0  0  0  0
    4.2120   -2.9283   -1.8578 H   0  0  0  0  0  0  0  0  0  0  0  0
  1  2  2  0
  2  3  1  0
  3  4  1  0
  4  5  1  0
  5  6  2  0
  6  7  1  0
  7  8  2  0
  8  9  1  0
  9 10  2  0
 10 11  1  0
 11 12  2  0
 12 13  1  0
 13 14  2  0
 14 15  1  0
  8 16  1  0
 16 17  1  0
 17 18  1  0
 18 19  2  0
 19 20  1  0
 20 21  2  0
 21 22  1  0
 22 23  2  0
  2 24  1  0
 24 25  1  0
 25 26  1  0
 26 27  2  0
 26 28  1  0
 28 29  2  0
 29 30  1  0
 30 31  2  0
 31 32  1  0
 32 33  2  0
 33 34  1  0
 16  5  1  0
 23 18  1  0
 33 28  1  0
 14  9  1  0
  3 35  1  0
  3 36  1  0
 10 37  1  0
 11 38  1  0
 12 39  1  0
 13 40  1  0
 15 41  1  0
 17 42  1  0
 17 43  1  0
 19 44  1  0
 20 45  1  0
 21 46  1  0
 22 47  1  0
 23 48  1  0
 24 49  1  0
 25 50  1  0
 29 51  1  0
 30 52  1  0
 31 53  1  0
 32 54  1  0
 34 55  1  0
M  END
$$$$
