
     RDKit          3D

 51 55  0  0  0  0  0  0  0  0999 V2000
    6.0915   -0.7711    1.8697 F   0  0  0  0  0  0  0  0  0  0  0  0
    6.0592   -0.1107    0.7027 C   0  0  0  0  0  0  0  0  0  0  0  0
    7.0836   -0.3224   -0.2155 C   0  0  0  0  0  0  0  0  0  0  0  0
    7.0695    0.3563   -1.4322 C   0  0  0  0  0  0  0  0  0  0  0  0
    6.0298    1.2408   -1.7206 C   0  0  0  0  0  0  0  0  0  0  0  0
    5.0045    1.4490   -0.7936 C   0  0  0  0  0  0  0  0  0  0  0  0
    5.0101    0.7739    0.4339 C   0  0  0  0  0  0  0  0  0  0  0  0
    3.9083    0.9803    1.4430 C   0  0  0  0  0  0  0  0  0  0  0  0
    2.9013   -0.1850    1.5078 C   0  0  0  0  0  0  0  0  0  0  0  0
    2.0731   -0.3546    0.2983 N   0  0  0  0  0  0  0  0  0  0  0  0
    1.2941   -1.6143    0.3489 C   0  0  0  0  0  0  0  0  0  0  0  0
   -0.1876   -1.4478    0.7426 C   0  0  0  0  0  0  0  0  0  0  0  0
   -0.8892   -0.5576   -0.1987 N   0  0  0  0  0  0  0  0  0  0  0  0
   -2.2721   -0.4334   -0.1150 C   0  0  0  0  0  0  0  0  0  0  0  0
   -2.8610   -0.8500    0.9802 N   0  0  0  0  0  0  0  0  0  0  0  0
   -4.2519   -0.7173    1.1493 C   0  0  0  0  0  0  0  0  0  0  0  0
   -4.8200   -1.1637    2.3441 C   0  0  0  0  0  0  0  0  0  0  0  0
   -6.1940   -1.0448    2.5698 C   0  0  0  0  0  0  0  0  0  0  0  0
   -7.0159   -0.4745    1.5972 C   0  0  0  0  0  0  0  0  0  0  0  0
   -6.4696   -0.0221    0.3956 C   0  0  0  0  0  0  0  0  0  0  0  0
   -5.0930   -0.1476    0.1848 C   0  0  0  0  0  0  0  0  0  0  0  0
   -4.4628    0.2665   -0.9996 N   0  0  0  0  0  0  0  0  0  0  0  0
   -5.0119    0.8277   -2.1283 C   0  0  0  0  0  0  0  0  0  0  0  0
   -4.0105    0.9883   -3.0599 C   0  0  0  0  0  0  0  0  0  0  0  0
   -2.8124    0.5243   -2.4691 C   0  0  0  0  0  0  0  0  0  0  0  0
   -3.1030    0.1203   -1.1769 C   0  0  0  0  0  0  0  0  0  0  0  0
   -0.0517    0.4870   -0.8053 C   0  0  0  0  0  0  0  0  0  0  0  0
    1.1822    0.8047    0.0694 C   0  0  0  0  0  0  0  0  0  0  0  0
    7.8833   -1.0153    0.0242 H   0  0  0  0  0  0  0  0  0  0  0  0
    7.8642    0.1949   -2.1555 H   0  0  0  0  0  0  0  0  0  0  0  0
    6.0143    1.7676   -2.6717 H   0  0  0  0  0  0  0  0  0  0  0  0
    4.1984    2.1358   -1.0388 H   0  0  0  0  0  0  0  0  0  0  0  0
    4.3703    1.0985    2.4323 H   0  0  0  0  0  0  0  0  0  0  0  0
    3.3954    1.9311    1.2551 H   0  0  0  0  0  0  0  0  0  0  0  0
    2.2553   -0.0448    2.3845 H   0  0  0  0  0  0  0  0  0  0  0  0
    3.4682   -1.1081    1.6854 H   0  0  0  0  0  0  0  0  0  0  0  0
    1.7663   -2.3545    1.0063 H   0  0  0  0  0  0  0  0  0  0  0  0
    1.3328   -2.0506   -0.6581 H   0  0  0  0  0  0  0  0  0  0  0  0
   -0.2577   -1.0484    1.7620 H   0  0  0  0  0  0  0  0  0  0  0  0
   -0.6622   -2.4363    0.7337 H   0  0  0  0  0  0  0  0  0  0  0  0
   -4.1817   -1.6065    3.1040 H   0  0  0  0  0  0  0  0  0  0  0  0
   -6.6202   -1.3976    3.5053 H   0  0  0  0  0  0  0  0  0  0  0  0
   -8.0846   -0.3846    1.7764 H   0  0  0  0  0  0  0  0  0  0  0  0
   -7.1293    0.4144   -0.3468 H   0  0  0  0  0  0  0  0  0  0  0  0
   -6.0663    1.0516   -2.1986 H   0  0  0  0  0  0  0  0  0  0  0  0
   -4.1337    1.3837   -4.0600 H   0  0  0  0  0  0  0  0  0  0  0  0
   -1.8424    0.4878   -2.9450 H   0  0  0  0  0  0  0  0  0  0  0  0
   -0.6158    1.4184   -0.9281 H   0  0  0  0  0  0  0  0  0  0  0  0
    0.2731    0.1558   -1.7985 H   0  0  0  0  0  0  0  0  0  0  0  0
    0.8188    1.2025    1.0269 H   0  0  0  0  0  0  0  0  0  0  0  0
    1.7528    1.6025   -0.4183 H   0  0  0  0  0  0  0  0  0  0  0  0
  1  2  1  0
  2  3  2  0
  3  4  1  0
  4  5  2  0
  5  6  1  0
  6  7  2  0
  7  8  1  0
  8  9  1  0
  9 10  1  0
 10 11  1  0
 11 12  1  0
 12 13  1  0
 13 14  1  0
 14 15  2  0
 15 16  1  0
 16 17  2  0
 17 18  1  0
 18 19  2  0
 19 20  1  0
 20 21  2  0
 21 22  1  0
 22 23  1  0
 23 24  2  0
 24 25  1  0
 25 26  2  0
 13 27  1  0
 27 28  1  0
  7  2  1  0
 28 10  1  0
 26 14  1  0
 21 16  1  0
 26 22  1  0
  3 29  1  0
  4 30  1  0
  5 31  1  0
  6 32  1  0
  8 33  1  0
  8 34  1  0
  9 35  1  0
  9 36  1  0
 11 37  1  0
 11 38  1  0
 12 39  1  0
 12 40  1  0
 17 41  1  0
 18 42  1  0
 19 43  1  0
 20 44  1  0
 23 45  1  0
 24 46  1  0
 25 47  1  0
 27 48  1  0
 27 49  1  0
 28 50  1  0
 28 51  1  0
M  END
$$$$
