
     RDKit          3D

 19 19  0  0  0  0  0  0  0  0999 V2000
   -3.3836   -0.4086   -1.8662 C   0  0  0  0  0  0  0  0  0  0  0  0
   -2.7038   -0.7018   -0.5366 C   0  0  0  0  0  0  0  0  0  0  0  0
   -1.2472   -0.2446   -0.5515 C   0  0  0  0  0  0  0  0  0  0  0  0
   -0.4675   -0.6100    1.0503 S   0  0  0  0  0  0  0  0  0  0  0  0
    1.1458    0.0067    0.7729 C   0  0  0  0  0  0  0  0  0  0  0  0
    1.5278    0.5255   -0.3731 N   0  0  0  0  0  0  0  0  0  0  0  0
    2.8452    0.9410   -0.3369 N   0  0  0  0  0  0  0  0  0  0  0  0
    3.4082    0.7200    0.8297 C   0  0  0  0  0  0  0  0  0  0  0  0
    4.6864    1.0216    1.1302 N   0  0  0  0  0  0  0  0  0  0  0  0
    2.3662   -0.0247    1.9744 S   0  0  0  0  0  0  0  0  0  0  0  0
   -2.8808   -0.9297   -2.6872 H   0  0  0  0  0  0  0  0  0  0  0  0
   -3.3750    0.6644   -2.0830 H   0  0  0  0  0  0  0  0  0  0  0  0
   -4.4260   -0.7415   -1.8403 H   0  0  0  0  0  0  0  0  0  0  0  0
   -2.7643   -1.7794   -0.3411 H   0  0  0  0  0  0  0  0  0  0  0  0
   -3.2567   -0.1907    0.2610 H   0  0  0  0  0  0  0  0  0  0  0  0
   -1.1954    0.8330   -0.7412 H   0  0  0  0  0  0  0  0  0  0  0  0
   -0.7006   -0.7637   -1.3463 H   0  0  0  0  0  0  0  0  0  0  0  0
    5.1279    0.4988    1.8773 H   0  0  0  0  0  0  0  0  0  0  0  0
    5.2932    1.1838    0.3330 H   0  0  0  0  0  0  0  0  0  0  0  0
  1  2  1  0
  2  3  1  0
  3  4  1  0
  4  5  1  0
  5  6  2  0
  6  7  1  0
  7  8  2  0
  8  9  1  0
  8 10  1  0
 10  5  1  0
  1 11  1  0
  1 12  1  0
  1 13  1  0
  2 14  1  0
  2 15  1  0
  3 16  1  0
  3 17  1  0
  9 18  1  0
  9 19  1  0
M  END
$$$$
