
     RDKit          3D

 52 55  0  0  0  0  0  0  0  0999 V2000
    4.5793    3.0205    5.0974 C   0  0  0  0  0  0  0  0  0  0  0  0
    4.8469    2.5996    3.7655 O   0  0  0  0  0  0  0  0  0  0  0  0
    3.9882    1.6859    3.2214 C   0  0  0  0  0  0  0  0  0  0  0  0
    4.3340    1.2454    1.9433 C   0  0  0  0  0  0  0  0  0  0  0  0
    3.5432    0.3100    1.2656 C   0  0  0  0  0  0  0  0  0  0  0  0
    2.3880   -0.1936    1.8592 C   0  0  0  0  0  0  0  0  0  0  0  0
    1.5286   -1.1286    1.2511 N   0  0  0  0  0  0  0  0  0  0  0  0
    1.5528   -1.5824   -0.0534 C   0  0  0  0  0  0  0  0  0  0  0  0
    2.3877   -1.2783   -0.9035 O   0  0  0  0  0  0  0  0  0  0  0  0
    0.4732   -2.6050   -0.3951 C   0  0  0  0  0  0  0  0  0  0  0  0
   -1.0927   -2.3999    0.5085 S   0  0  0  0  0  0  0  0  0  0  0  0
   -1.5041   -0.7836   -0.0490 C   0  0  0  0  0  0  0  0  0  0  0  0
   -1.0986    0.1689    0.7328 N   0  0  0  0  0  0  0  0  0  0  0  0
   -1.2805    1.4397    0.2758 C   0  0  0  0  0  0  0  0  0  0  0  0
   -1.8764    1.7650   -0.8696 C   0  0  0  0  0  0  0  0  0  0  0  0
   -2.4246    0.6974   -1.7321 C   0  0  0  0  0  0  0  0  0  0  0  0
   -3.0880    0.9729   -2.7313 O   0  0  0  0  0  0  0  0  0  0  0  0
   -2.1666   -0.5980   -1.2591 N   0  0  0  0  0  0  0  0  0  0  0  0
   -2.6570   -1.6818   -2.0474 C   0  0  0  0  0  0  0  0  0  0  0  0
   -3.6591   -2.5232   -1.5424 C   0  0  0  0  0  0  0  0  0  0  0  0
   -4.1598   -3.5652   -2.3241 C   0  0  0  0  0  0  0  0  0  0  0  0
   -3.6618   -3.7762   -3.6092 C   0  0  0  0  0  0  0  0  0  0  0  0
   -2.6648   -2.9441   -4.1216 C   0  0  0  0  0  0  0  0  0  0  0  0
   -2.1723   -1.8874   -3.3513 C   0  0  0  0  0  0  0  0  0  0  0  0
   -1.1302   -1.1014   -3.7763 O   0  0  0  0  0  0  0  0  0  0  0  0
   -1.3141   -0.5873   -5.0949 C   0  0  0  0  0  0  0  0  0  0  0  0
   -1.9430    3.4427   -1.2222 S   0  0  0  0  0  0  0  0  0  0  0  0
   -1.3287    3.8805    0.4432 C   0  0  0  0  0  0  0  0  0  0  0  0
   -0.7350    2.6036    1.0474 C   0  0  0  0  0  0  0  0  0  0  0  0
    2.0432    0.2480    3.1426 C   0  0  0  0  0  0  0  0  0  0  0  0
    2.8357    1.1831    3.8205 C   0  0  0  0  0  0  0  0  0  0  0  0
    5.3710    3.7154    5.3944 H   0  0  0  0  0  0  0  0  0  0  0  0
    3.6263    3.5569    5.1566 H   0  0  0  0  0  0  0  0  0  0  0  0
    4.6010    2.1744    5.7926 H   0  0  0  0  0  0  0  0  0  0  0  0
    5.2321    1.6295    1.4651 H   0  0  0  0  0  0  0  0  0  0  0  0
    3.8633   -0.0032    0.2771 H   0  0  0  0  0  0  0  0  0  0  0  0
    0.6904   -1.3653    1.7744 H   0  0  0  0  0  0  0  0  0  0  0  0
    0.2719   -2.5517   -1.4689 H   0  0  0  0  0  0  0  0  0  0  0  0
    0.8730   -3.5990   -0.1726 H   0  0  0  0  0  0  0  0  0  0  0  0
   -4.0733   -2.3618   -0.5501 H   0  0  0  0  0  0  0  0  0  0  0  0
   -4.9404   -4.2124   -1.9312 H   0  0  0  0  0  0  0  0  0  0  0  0
   -4.0462   -4.5955   -4.2124 H   0  0  0  0  0  0  0  0  0  0  0  0
   -2.2666   -3.1470   -5.1113 H   0  0  0  0  0  0  0  0  0  0  0  0
   -2.3467   -0.2653   -5.2721 H   0  0  0  0  0  0  0  0  0  0  0  0
   -1.0072   -1.3279   -5.8399 H   0  0  0  0  0  0  0  0  0  0  0  0
   -0.6657    0.2872   -5.2048 H   0  0  0  0  0  0  0  0  0  0  0  0
   -0.5880    4.6834    0.3855 H   0  0  0  0  0  0  0  0  0  0  0  0
   -2.1752    4.2314    1.0429 H   0  0  0  0  0  0  0  0  0  0  0  0
    0.3589    2.6170    0.9693 H   0  0  0  0  0  0  0  0  0  0  0  0
   -0.9900    2.5360    2.1105 H   0  0  0  0  0  0  0  0  0  0  0  0
    1.1463   -0.1245    3.6326 H   0  0  0  0  0  0  0  0  0  0  0  0
    2.5218    1.4951    4.8108 H   0  0  0  0  0  0  0  0  0  0  0  0
  1  2  1  0
  2  3  1  0
  3  4  2  0
  4  5  1  0
  5  6  2  0
  6  7  1  0
  7  8  1  0
  8  9  2  0
  8 10  1  0
 10 11  1  0
 11 12  1  0
 12 13  2  0
 13 14  1  0
 14 15  2  0
 15 16  1  0
 16 17  2  0
 16 18  1  0
 18 19  1  0
 19 20  2  0
 20 21  1  0
 21 22  2  0
 22 23  1  0
 23 24  2  0
 24 25  1  0
 25 26  1  0
 15 27  1  0
 27 28  1  0
 28 29  1  0
  6 30  1  0
 30 31  2  0
 31  3  1  0
 18 12  1  0
 24 19  1  0
 29 14  1  0
  1 32  1  0
  1 33  1  0
  1 34  1  0
  4 35  1  0
  5 36  1  0
  7 37  1  0
 10 38  1  0
 10 39  1  0
 20 40  1  0
 21 41  1  0
 22 42  1  0
 23 43  1  0
 26 44  1  0
 26 45  1  0
 26 46  1  0
 28 47  1  0
 28 48  1  0
 29 49  1  0
 29 50  1  0
 30 51  1  0
 31 52  1  0
M  END
$$$$
