
     RDKit          3D

 43 46  0  0  0  0  0  0  0  0999 V2000
    5.9265    1.8790    1.6221 C   0  0  0  0  0  0  0  0  0  0  0  0
    4.6104    1.3418    1.1396 C   0  0  0  0  0  0  0  0  0  0  0  0
    3.7672    0.6447    2.0092 C   0  0  0  0  0  0  0  0  0  0  0  0
    2.5548    0.1181    1.5533 C   0  0  0  0  0  0  0  0  0  0  0  0
    2.1780    0.2720    0.2141 C   0  0  0  0  0  0  0  0  0  0  0  0
    0.8126   -0.3213   -0.2870 C   0  0  0  0  0  0  0  0  0  0  0  0
   -0.1406   -0.9667    0.4919 C   0  0  0  0  0  0  0  0  0  0  0  0
   -1.2332   -1.3059   -0.3117 N   0  0  0  0  0  4  0  0  0  0  0  0
   -2.4553   -1.9813    0.1141 C   0  0  0  0  0  0  0  0  0  0  0  0
   -3.2318   -1.0691    1.0307 C   0  0  0  0  0  0  0  0  0  0  0  0
   -3.4982   -1.4435    2.3554 C   0  0  0  0  0  0  0  0  0  0  0  0
   -4.2148   -0.5926    3.2034 C   0  0  0  0  0  0  0  0  0  0  0  0
   -4.6768    0.6432    2.7423 C   0  0  0  0  0  0  0  0  0  0  0  0
   -5.5461    1.6432    3.8471 Cl  0  0  0  0  0  0  0  0  0  0  0  0
   -4.4228    1.0253    1.4230 C   0  0  0  0  0  0  0  0  0  0  0  0
   -4.9516    2.5342    0.7711 Cl  0  0  0  0  0  0  0  0  0  0  0  0
   -3.7079    0.1711    0.5734 C   0  0  0  0  0  0  0  0  0  0  0  0
   -0.9476   -0.9109   -1.5471 C   0  0  0  0  0  0  0  0  0  0  0  0
    0.2537   -0.3427   -1.5530 N   0  0  0  0  0  0  0  0  0  0  0  0
    0.6369    0.1092   -2.8831 C   0  0  0  0  0  0  0  0  0  0  0  0
   -0.4200   -0.5533   -3.8099 C   0  0  0  0  0  0  0  0  0  0  0  0
   -1.5904   -0.9333   -2.8811 C   0  0  0  0  0  0  0  0  0  0  0  0
    3.0220    0.9583   -0.6592 C   0  0  0  0  0  0  0  0  0  0  0  0
    4.2339    1.4841   -0.1993 C   0  0  0  0  0  0  0  0  0  0  0  0
    6.7069    1.1218    1.4992 H   0  0  0  0  0  0  0  0  0  0  0  0
    6.2112    2.7758    1.0618 H   0  0  0  0  0  0  0  0  0  0  0  0
    5.8693    2.1611    2.6787 H   0  0  0  0  0  0  0  0  0  0  0  0
    4.0517    0.5095    3.0518 H   0  0  0  0  0  0  0  0  0  0  0  0
    1.9354   -0.4101    2.2719 H   0  0  0  0  0  0  0  0  0  0  0  0
   -0.1928   -1.2135    1.5389 H   0  0  0  0  0  0  0  0  0  0  0  0
   -3.0639   -2.2411   -0.7584 H   0  0  0  0  0  0  0  0  0  0  0  0
   -2.1713   -2.9137    0.6146 H   0  0  0  0  0  0  0  0  0  0  0  0
   -3.1571   -2.4010    2.7480 H   0  0  0  0  0  0  0  0  0  0  0  0
   -4.4139   -0.9001    4.2291 H   0  0  0  0  0  0  0  0  0  0  0  0
   -3.5222    0.4846   -0.4515 H   0  0  0  0  0  0  0  0  0  0  0  0
    1.6446   -0.2271   -3.1366 H   0  0  0  0  0  0  0  0  0  0  0  0
    0.5660    1.2001   -2.9194 H   0  0  0  0  0  0  0  0  0  0  0  0
    0.0072   -1.4667   -4.2404 H   0  0  0  0  0  0  0  0  0  0  0  0
   -0.7249    0.0953   -4.6356 H   0  0  0  0  0  0  0  0  0  0  0  0
   -2.3760   -0.1752   -2.8629 H   0  0  0  0  0  0  0  0  0  0  0  0
   -1.9868   -1.9317   -3.0692 H   0  0  0  0  0  0  0  0  0  0  0  0
    2.7724    1.1153   -1.7001 H   0  0  0  0  0  0  0  0  0  0  0  0
    4.8854    2.0130   -0.8937 H   0  0  0  0  0  0  0  0  0  0  0  0
  1  2  1  0
  2  3  2  0
  3  4  1  0
  4  5  2  0
  5  6  1  0
  6  7  2  0
  7  8  1  0
  8  9  1  0
  9 10  1  0
 10 11  2  0
 11 12  1  0
 12 13  2  0
 13 14  1  0
 13 15  1  0
 15 16  1  0
 15 17  2  0
  8 18  2  0
 18 19  1  0
 19 20  1  0
 20 21  1  0
 21 22  1  0
  5 23  1  0
 23 24  2  0
 24  2  1  0
 19  6  1  0
 17 10  1  0
 22 18  1  0
  1 25  1  0
  1 26  1  0
  1 27  1  0
  3 28  1  0
  4 29  1  0
  7 30  1  0
  9 31  1  0
  9 32  1  0
 11 33  1  0
 12 34  1  0
 17 35  1  0
 20 36  1  0
 20 37  1  0
 21 38  1  0
 21 39  1  0
 22 40  1  0
 22 41  1  0
 23 42  1  0
 24 43  1  0
M  CHG  1   8   1
M  END
$$$$
