
     RDKit          3D

 34 34  0  0  0  0  0  0  0  0999 V2000
    6.1448   -0.5082    0.0452 C   0  0  0  0  0  0  0  0  0  0  0  0
    5.4503    0.2227   -1.0933 C   0  0  0  0  0  0  0  0  0  0  0  0
    3.9494   -0.0517   -1.1661 C   0  0  0  0  0  0  0  0  0  0  0  0
    3.1724    0.4717    0.0377 C   0  0  0  0  0  0  0  0  0  0  0  0
    1.7774    0.2347   -0.2024 O   0  0  0  0  0  0  0  0  0  0  0  0
    0.9613    0.6645    0.7926 C   0  0  0  0  0  0  0  0  0  0  0  0
    1.3200    1.2103    1.8237 O   0  0  0  0  0  0  0  0  0  0  0  0
   -0.4616    0.3799    0.4611 C   0  0  0  0  0  0  0  0  0  0  0  0
   -1.4464    0.7588    1.3799 C   0  0  0  0  0  0  0  0  0  0  0  0
   -2.8003    0.5136    1.1159 C   0  0  0  0  0  0  0  0  0  0  0  0
   -3.1895   -0.1127   -0.0690 C   0  0  0  0  0  0  0  0  0  0  0  0
   -4.5278   -0.3963   -0.4100 N   0  0  0  0  0  0  0  0  0  0  0  0
   -5.6634   -0.1091    0.3263 C   0  0  0  0  0  0  0  0  0  0  0  0
   -6.9233   -0.5639   -0.3679 C   0  0  0  0  0  0  0  0  0  0  0  0
   -5.7168    0.4664    1.4069 O   0  0  0  0  0  0  0  0  0  0  0  0
   -2.2018   -0.4921   -0.9877 C   0  0  0  0  0  0  0  0  0  0  0  0
   -0.8476   -0.2489   -0.7277 C   0  0  0  0  0  0  0  0  0  0  0  0
    7.2263   -0.3476   -0.0099 H   0  0  0  0  0  0  0  0  0  0  0  0
    5.9592   -1.5855   -0.0081 H   0  0  0  0  0  0  0  0  0  0  0  0
    5.8059   -0.1459    1.0202 H   0  0  0  0  0  0  0  0  0  0  0  0
    5.9077   -0.0908   -2.0393 H   0  0  0  0  0  0  0  0  0  0  0  0
    5.6283    1.3001   -0.9972 H   0  0  0  0  0  0  0  0  0  0  0  0
    3.7661   -1.1276   -1.2797 H   0  0  0  0  0  0  0  0  0  0  0  0
    3.5464    0.4113   -2.0760 H   0  0  0  0  0  0  0  0  0  0  0  0
    3.4726   -0.0560    0.9494 H   0  0  0  0  0  0  0  0  0  0  0  0
    3.3443    1.5476    0.1586 H   0  0  0  0  0  0  0  0  0  0  0  0
   -1.1695    1.2492    2.3120 H   0  0  0  0  0  0  0  0  0  0  0  0
   -3.5240    0.8268    1.8625 H   0  0  0  0  0  0  0  0  0  0  0  0
   -4.6703   -0.8558   -1.3005 H   0  0  0  0  0  0  0  0  0  0  0  0
   -7.7163   -0.7022    0.3728 H   0  0  0  0  0  0  0  0  0  0  0  0
   -6.7662   -1.5188   -0.8778 H   0  0  0  0  0  0  0  0  0  0  0  0
   -7.2313    0.1943   -1.0925 H   0  0  0  0  0  0  0  0  0  0  0  0
   -2.4682   -0.9825   -1.9207 H   0  0  0  0  0  0  0  0  0  0  0  0
   -0.1080   -0.5563   -1.4629 H   0  0  0  0  0  0  0  0  0  0  0  0
  1  2  1  0
  2  3  1  0
  3  4  1  0
  4  5  1  0
  5  6  1  0
  6  7  2  0
  6  8  1  0
  8  9  2  0
  9 10  1  0
 10 11  2  0
 11 12  1  0
 12 13  1  0
 13 14  1  0
 13 15  2  0
 11 16  1  0
 16 17  2  0
 17  8  1  0
  1 18  1  0
  1 19  1  0
  1 20  1  0
  2 21  1  0
  2 22  1  0
  3 23  1  0
  3 24  1  0
  4 25  1  0
  4 26  1  0
  9 27  1  0
 10 28  1  0
 12 29  1  0
 14 30  1  0
 14 31  1  0
 14 32  1  0
 16 33  1  0
 17 34  1  0
M  END
$$$$
