
     RDKit          3D

 44 46  0  0  0  0  0  0  0  0999 V2000
   -7.3006    0.5141   -0.2928 C   0  0  0  0  0  0  0  0  0  0  0  0
   -5.8181    0.2819   -0.3054 C   0  0  0  0  0  0  0  0  0  0  0  0
   -5.0593    0.6141   -1.4342 C   0  0  0  0  0  0  0  0  0  0  0  0
   -3.6692    0.4311   -1.4495 C   0  0  0  0  0  0  0  0  0  0  0  0
   -2.8925    0.7900   -2.6841 C   0  0  0  0  0  0  0  0  0  0  0  0
   -3.0395   -0.0422   -0.2880 C   0  0  0  0  0  0  0  0  0  0  0  0
   -1.6772   -0.2096   -0.2824 O   0  0  0  0  0  0  0  0  0  0  0  0
   -1.0327    0.9810    0.1904 C   0  0  0  0  0  0  0  0  0  0  0  0
    0.4867    0.8024    0.2061 C   0  0  0  0  0  0  0  0  0  0  0  0
    1.2160    1.7163    0.5810 O   0  0  0  0  0  0  0  0  0  0  0  0
    0.8759   -0.4434   -0.2306 N   0  0  0  0  0  0  0  0  0  0  0  0
    2.1786   -0.8356   -0.3045 C   0  0  0  0  0  0  0  0  0  0  0  0
    3.2607   -0.1704   -0.0018 N   0  0  0  0  0  0  0  0  0  0  0  0
    4.3770   -0.9658   -0.2340 C   0  0  0  0  0  0  0  0  0  0  0  0
    5.7344   -0.4863    0.0153 C   0  0  0  0  0  0  0  0  0  0  0  0
    5.9468    0.8017    0.4999 C   0  0  0  0  0  0  0  0  0  0  0  0
    7.2531    1.2275    0.7267 C   0  0  0  0  0  0  0  0  0  0  0  0
    8.3058    0.3596    0.4646 C   0  0  0  0  0  0  0  0  0  0  0  0
    8.0079   -0.9048   -0.0159 C   0  0  0  0  0  0  0  0  0  0  0  0
    6.7523   -1.3483   -0.2465 N   0  0  0  0  0  0  0  0  0  0  0  0
    4.0917   -2.2320   -0.7146 C   0  0  0  0  0  0  0  0  0  0  0  0
    2.3951   -2.4280   -0.8780 S   0  0  0  0  0  0  0  0  0  0  0  0
   -3.7827   -0.4185    0.8416 C   0  0  0  0  0  0  0  0  0  0  0  0
   -3.1281   -0.9743    2.0740 C   0  0  0  0  0  0  0  0  0  0  0  0
   -5.1714   -0.2249    0.8283 C   0  0  0  0  0  0  0  0  0  0  0  0
   -7.8045   -0.2115    0.3543 H   0  0  0  0  0  0  0  0  0  0  0  0
   -7.5176    1.5233    0.0706 H   0  0  0  0  0  0  0  0  0  0  0  0
   -7.7227    0.4007   -1.2968 H   0  0  0  0  0  0  0  0  0  0  0  0
   -5.5586    1.0146   -2.3150 H   0  0  0  0  0  0  0  0  0  0  0  0
   -2.0499    0.1071   -2.8332 H   0  0  0  0  0  0  0  0  0  0  0  0
   -2.5159    1.8144   -2.6075 H   0  0  0  0  0  0  0  0  0  0  0  0
   -3.5215    0.7172   -3.5780 H   0  0  0  0  0  0  0  0  0  0  0  0
   -1.3452    1.2077    1.2161 H   0  0  0  0  0  0  0  0  0  0  0  0
   -1.2550    1.8274   -0.4692 H   0  0  0  0  0  0  0  0  0  0  0  0
    0.1624   -1.1042   -0.5118 H   0  0  0  0  0  0  0  0  0  0  0  0
    5.1091    1.4649    0.6984 H   0  0  0  0  0  0  0  0  0  0  0  0
    7.4424    2.2281    1.1045 H   0  0  0  0  0  0  0  0  0  0  0  0
    9.3339    0.6611    0.6308 H   0  0  0  0  0  0  0  0  0  0  0  0
    8.7974   -1.6180   -0.2354 H   0  0  0  0  0  0  0  0  0  0  0  0
    4.7822   -3.0242   -0.9685 H   0  0  0  0  0  0  0  0  0  0  0  0
   -3.8301   -1.5892    2.6475 H   0  0  0  0  0  0  0  0  0  0  0  0
   -2.2813   -1.6181    1.8151 H   0  0  0  0  0  0  0  0  0  0  0  0
   -2.7777   -0.1593    2.7143 H   0  0  0  0  0  0  0  0  0  0  0  0
   -5.7580   -0.4779    1.7099 H   0  0  0  0  0  0  0  0  0  0  0  0
  1  2  1  0
  2  3  2  0
  3  4  1  0
  4  5  1  0
  4  6  2  0
  6  7  1  0
  7  8  1  0
  8  9  1  0
  9 10  2  0
  9 11  1  0
 11 12  1  0
 12 13  2  0
 13 14  1  0
 14 15  1  0
 15 16  2  0
 16 17  1  0
 17 18  2  0
 18 19  1  0
 19 20  2  0
 14 21  2  0
 21 22  1  0
  6 23  1  0
 23 24  1  0
 23 25  2  0
 25  2  1  0
 22 12  1  0
 20 15  1  0
  1 26  1  0
  1 27  1  0
  1 28  1  0
  3 29  1  0
  5 30  1  0
  5 31  1  0
  5 32  1  0
  8 33  1  0
  8 34  1  0
 11 35  1  0
 16 36  1  0
 17 37  1  0
 18 38  1  0
 19 39  1  0
 21 40  1  0
 24 41  1  0
 24 42  1  0
 24 43  1  0
 25 44  1  0
M  END
$$$$
