
     RDKit          3D

 58 59  0  0  0  0  0  0  0  0999 V2000
    7.5997   -2.0364   -2.9090 C   0  0  0  0  0  0  0  0  0  0  0  0
    8.4014   -0.8836   -2.3246 C   0  0  0  0  0  0  0  0  0  0  0  0
    7.6267   -0.0739   -1.2861 C   0  0  0  0  0  0  0  0  0  0  0  0
    6.4465    0.6993   -1.8735 C   0  0  0  0  0  0  0  0  0  0  0  0
    5.8335    1.5120   -0.8711 O   0  0  0  0  0  0  0  0  0  0  0  0
    4.8269    0.9824   -0.1145 C   0  0  0  0  0  0  0  0  0  0  0  0
    4.2178    1.8925    0.7541 C   0  0  0  0  0  0  0  0  0  0  0  0
    3.1748    1.4921    1.5931 C   0  0  0  0  0  0  0  0  0  0  0  0
    2.7234    0.1697    1.5657 C   0  0  0  0  0  0  0  0  0  0  0  0
    1.6101   -0.2214    2.4741 C   0  0  0  0  0  0  0  0  0  0  0  0
    1.3884    0.4156    3.4974 O   0  0  0  0  0  0  0  0  0  0  0  0
    0.8379   -1.2927    2.0717 N   0  0  0  0  0  0  0  0  0  0  0  0
   -0.3835   -1.6122    2.7969 C   0  0  0  0  0  0  0  0  0  0  0  0
   -1.5564   -0.8079    2.2527 C   0  0  0  0  0  0  0  0  0  0  0  0
   -1.6047   -0.3032    1.1350 O   0  0  0  0  0  0  0  0  0  0  0  0
   -2.5756   -0.7852    3.1584 O   0  0  0  0  0  0  0  0  0  0  0  0
   -3.7478   -0.1048    2.6963 C   0  0  0  0  0  0  0  0  0  0  0  0
   -4.4561   -0.8668    1.5709 C   0  0  0  0  0  0  0  0  0  0  0  0
   -4.2576   -2.0770    1.4085 O   0  0  0  0  0  0  0  0  0  0  0  0
   -5.3362   -0.0952    0.6266 C   0  0  0  0  0  0  0  0  0  0  0  0
   -5.5724   -0.5478   -0.6265 C   0  0  0  0  0  0  0  0  0  0  0  0
   -5.0976   -1.7726   -1.0833 N   0  0  0  0  0  0  0  0  0  0  0  0
   -6.3323    0.2272   -1.4989 N   0  0  0  0  0  0  0  0  0  0  0  0
   -6.6867   -0.3194   -2.8090 C   0  0  0  0  0  0  0  0  0  0  0  0
   -6.7991    1.5032   -1.1962 C   0  0  0  0  0  0  0  0  0  0  0  0
   -7.4662    2.1717   -1.9879 O   0  0  0  0  0  0  0  0  0  0  0  0
   -6.4830    1.9789    0.0636 N   0  0  0  0  0  0  0  0  0  0  0  0
   -7.0016    3.2819    0.4382 C   0  0  0  0  0  0  0  0  0  0  0  0
   -5.9329    1.1914    1.0468 C   0  0  0  0  0  0  0  0  0  0  0  0
   -5.9288    1.5072    2.2361 O   0  0  0  0  0  0  0  0  0  0  0  0
    3.3434   -0.7502    0.7116 C   0  0  0  0  0  0  0  0  0  0  0  0
    4.3904   -0.3427   -0.1262 C   0  0  0  0  0  0  0  0  0  0  0  0
    8.2319   -2.6348   -3.5729 H   0  0  0  0  0  0  0  0  0  0  0  0
    7.2219   -2.6928   -2.1187 H   0  0  0  0  0  0  0  0  0  0  0  0
    6.7496   -1.6777   -3.4964 H   0  0  0  0  0  0  0  0  0  0  0  0
    8.7423   -0.2274   -3.1336 H   0  0  0  0  0  0  0  0  0  0  0  0
    9.3003   -1.2918   -1.8475 H   0  0  0  0  0  0  0  0  0  0  0  0
    7.2887   -0.7320   -0.4774 H   0  0  0  0  0  0  0  0  0  0  0  0
    8.3100    0.6415   -0.8106 H   0  0  0  0  0  0  0  0  0  0  0  0
    5.7168    0.0624   -2.3840 H   0  0  0  0  0  0  0  0  0  0  0  0
    6.8242    1.3898   -2.6370 H   0  0  0  0  0  0  0  0  0  0  0  0
    4.5602    2.9246    0.7797 H   0  0  0  0  0  0  0  0  0  0  0  0
    2.7165    2.2156    2.2643 H   0  0  0  0  0  0  0  0  0  0  0  0
    0.8422   -1.5194    1.0851 H   0  0  0  0  0  0  0  0  0  0  0  0
   -0.2484   -1.3985    3.8614 H   0  0  0  0  0  0  0  0  0  0  0  0
   -0.5905   -2.6758    2.6501 H   0  0  0  0  0  0  0  0  0  0  0  0
   -3.4711    0.9073    2.3820 H   0  0  0  0  0  0  0  0  0  0  0  0
   -4.4308   -0.0422    3.5487 H   0  0  0  0  0  0  0  0  0  0  0  0
   -4.5350   -2.2665   -0.3780 H   0  0  0  0  0  0  0  0  0  0  0  0
   -4.5678   -1.6791   -1.9453 H   0  0  0  0  0  0  0  0  0  0  0  0
   -7.3948    0.3159   -3.3481 H   0  0  0  0  0  0  0  0  0  0  0  0
   -5.7802   -0.4065   -3.4165 H   0  0  0  0  0  0  0  0  0  0  0  0
   -7.1526   -1.3025   -2.6840 H   0  0  0  0  0  0  0  0  0  0  0  0
   -6.9412    3.9771   -0.4048 H   0  0  0  0  0  0  0  0  0  0  0  0
   -6.4423    3.7010    1.2799 H   0  0  0  0  0  0  0  0  0  0  0  0
   -8.0509    3.1668    0.7286 H   0  0  0  0  0  0  0  0  0  0  0  0
    3.0463   -1.7952    0.7045 H   0  0  0  0  0  0  0  0  0  0  0  0
    4.8517   -1.0918   -0.7608 H   0  0  0  0  0  0  0  0  0  0  0  0
  1  2  1  0
  2  3  1  0
  3  4  1  0
  4  5  1  0
  5  6  1  0
  6  7  2  0
  7  8  1  0
  8  9  2  0
  9 10  1  0
 10 11  2  0
 10 12  1  0
 12 13  1  0
 13 14  1  0
 14 15  2  0
 14 16  1  0
 16 17  1  0
 17 18  1  0
 18 19  2  0
 18 20  1  0
 20 21  2  0
 21 22  1  0
 21 23  1  0
 23 24  1  0
 23 25  1  0
 25 26  2  0
 25 27  1  0
 27 28  1  0
 27 29  1  0
 29 30  2  0
  9 31  1  0
 31 32  2  0
 32  6  1  0
 29 20  1  0
  1 33  1  0
  1 34  1  0
  1 35  1  0
  2 36  1  0
  2 37  1  0
  3 38  1  0
  3 39  1  0
  4 40  1  0
  4 41  1  0
  7 42  1  0
  8 43  1  0
 12 44  1  0
 13 45  1  0
 13 46  1  0
 17 47  1  0
 17 48  1  0
 22 49  1  0
 22 50  1  0
 24 51  1  0
 24 52  1  0
 24 53  1  0
 28 54  1  0
 28 55  1  0
 28 56  1  0
 31 57  1  0
 32 58  1  0
M  END
$$$$
