
     RDKit          3D

 61 63  0  0  0  0  0  0  0  0999 V2000
   -9.6893    2.0551   -0.3567 C   0  0  0  0  0  0  0  0  0  0  0  0
   -9.3491    0.7497   -0.8170 O   0  0  0  0  0  0  0  0  0  0  0  0
   -8.3956    0.0738   -0.1032 C   0  0  0  0  0  0  0  0  0  0  0  0
   -7.7328    0.5420    1.0320 C   0  0  0  0  0  0  0  0  0  0  0  0
   -6.7661   -0.2528    1.6582 C   0  0  0  0  0  0  0  0  0  0  0  0
   -6.4583   -1.5306    1.1670 C   0  0  0  0  0  0  0  0  0  0  0  0
   -5.3879   -2.3614    1.8286 C   0  0  0  0  0  0  0  0  0  0  0  0
   -4.1222   -2.1856    1.1677 N   0  0  0  0  0  0  0  0  0  0  0  0
   -3.2661   -1.1601    1.4924 C   0  0  0  0  0  0  0  0  0  0  0  0
   -3.3707   -0.3932    2.4407 O   0  0  0  0  0  0  0  0  0  0  0  0
   -2.0904   -1.0044    0.5021 C   0  0  0  0  0  0  0  0  0  0  0  0
   -1.9311   -1.8210   -0.3947 O   0  0  0  0  0  0  0  0  0  0  0  0
   -1.3157    0.1050    0.7467 N   0  0  0  0  0  0  0  0  0  0  0  0
   -0.0543    0.3355    0.0635 C   0  0  0  0  0  0  0  0  0  0  0  0
    1.1607   -0.2721    0.8187 C   0  0  0  0  0  0  0  0  0  0  0  0
    0.9580   -1.6840    1.0364 O   0  0  0  0  0  0  0  0  0  0  0  0
    1.5057   -2.3313   -0.1128 C   0  0  0  0  0  0  0  0  0  0  0  0
    2.7372   -1.5152   -0.4489 C   0  0  0  0  0  0  0  0  0  0  0  0
    2.4575   -0.1864    0.1196 N   0  0  0  0  0  0  0  0  0  0  0  0
    2.7859    1.1804   -0.7856 S   0  0  0  0  0  6  0  0  0  0  0  0
    2.1478    1.0154   -2.0752 O   0  0  0  0  0  0  0  0  0  0  0  0
    2.5136    2.3363    0.0431 O   0  0  0  0  0  0  0  0  0  0  0  0
    4.5433    1.0774   -1.0064 C   0  0  0  0  0  0  0  0  0  0  0  0
    5.0729    0.7198   -2.2469 C   0  0  0  0  0  0  0  0  0  0  0  0
    6.4583    0.6383   -2.4034 C   0  0  0  0  0  0  0  0  0  0  0  0
    7.3115    0.9286   -1.3303 C   0  0  0  0  0  0  0  0  0  0  0  0
    8.6821    0.8799   -1.3956 O   0  0  0  0  0  0  0  0  0  0  0  0
    9.2734    0.4861   -2.6259 C   0  0  0  0  0  0  0  0  0  0  0  0
    6.7659    1.3146   -0.0844 C   0  0  0  0  0  0  0  0  0  0  0  0
    7.6689    1.5813    0.9171 O   0  0  0  0  0  0  0  0  0  0  0  0
    7.1853    2.2684    2.0707 C   0  0  0  0  0  0  0  0  0  0  0  0
    5.3792    1.3824    0.0742 C   0  0  0  0  0  0  0  0  0  0  0  0
   -7.1250   -1.9942    0.0247 C   0  0  0  0  0  0  0  0  0  0  0  0
   -8.0874   -1.1969   -0.6004 C   0  0  0  0  0  0  0  0  0  0  0  0
  -10.4546    2.4575   -1.0302 H   0  0  0  0  0  0  0  0  0  0  0  0
  -10.1163    2.0189    0.6528 H   0  0  0  0  0  0  0  0  0  0  0  0
   -8.8253    2.7298   -0.3971 H   0  0  0  0  0  0  0  0  0  0  0  0
   -7.9346    1.5208    1.4545 H   0  0  0  0  0  0  0  0  0  0  0  0
   -6.2419    0.1361    2.5315 H   0  0  0  0  0  0  0  0  0  0  0  0
   -5.2917   -2.0988    2.8923 H   0  0  0  0  0  0  0  0  0  0  0  0
   -5.6466   -3.4285    1.7772 H   0  0  0  0  0  0  0  0  0  0  0  0
   -3.9557   -2.6385    0.2770 H   0  0  0  0  0  0  0  0  0  0  0  0
   -1.5437    0.6291    1.5889 H   0  0  0  0  0  0  0  0  0  0  0  0
    0.0460    1.4200   -0.0298 H   0  0  0  0  0  0  0  0  0  0  0  0
   -0.1313   -0.0897   -0.9417 H   0  0  0  0  0  0  0  0  0  0  0  0
    1.2491    0.1927    1.8066 H   0  0  0  0  0  0  0  0  0  0  0  0
    1.7392   -3.3744    0.1171 H   0  0  0  0  0  0  0  0  0  0  0  0
    0.7729   -2.3084   -0.9270 H   0  0  0  0  0  0  0  0  0  0  0  0
    2.9291   -1.5159   -1.5242 H   0  0  0  0  0  0  0  0  0  0  0  0
    3.6163   -1.9215    0.0618 H   0  0  0  0  0  0  0  0  0  0  0  0
    4.4232    0.5060   -3.0931 H   0  0  0  0  0  0  0  0  0  0  0  0
    6.8418    0.3529   -3.3784 H   0  0  0  0  0  0  0  0  0  0  0  0
    8.9957   -0.5427   -2.8832 H   0  0  0  0  0  0  0  0  0  0  0  0
    9.0169    1.1825   -3.4322 H   0  0  0  0  0  0  0  0  0  0  0  0
   10.3609    0.5146   -2.4980 H   0  0  0  0  0  0  0  0  0  0  0  0
    8.0480    2.5315    2.6928 H   0  0  0  0  0  0  0  0  0  0  0  0
    6.5358    1.6209    2.6697 H   0  0  0  0  0  0  0  0  0  0  0  0
    6.6738    3.2021    1.7964 H   0  0  0  0  0  0  0  0  0  0  0  0
    4.9272    1.6587    1.0229 H   0  0  0  0  0  0  0  0  0  0  0  0
   -6.8994   -2.9742   -0.3884 H   0  0  0  0  0  0  0  0  0  0  0  0
   -8.6001   -1.5624   -1.4869 H   0  0  0  0  0  0  0  0  0  0  0  0
  1  2  1  0
  2  3  1  0
  3  4  2  0
  4  5  1  0
  5  6  2  0
  6  7  1  0
  7  8  1  0
  8  9  1  0
  9 10  2  0
  9 11  1  0
 11 12  2  0
 11 13  1  0
 13 14  1  0
 14 15  1  0
 15 16  1  0
 16 17  1  0
 17 18  1  0
 18 19  1  0
 19 20  1  0
 20 21  2  0
 20 22  2  0
 20 23  1  0
 23 24  2  0
 24 25  1  0
 25 26  2  0
 26 27  1  0
 27 28  1  0
 26 29  1  0
 29 30  1  0
 30 31  1  0
 29 32  2  0
  6 33  1  0
 33 34  2  0
 34  3  1  0
 19 15  1  0
 32 23  1  0
  1 35  1  0
  1 36  1  0
  1 37  1  0
  4 38  1  0
  5 39  1  0
  7 40  1  0
  7 41  1  0
  8 42  1  0
 13 43  1  0
 14 44  1  0
 14 45  1  0
 15 46  1  0
 17 47  1  0
 17 48  1  0
 18 49  1  0
 18 50  1  0
 24 51  1  0
 25 52  1  0
 28 53  1  0
 28 54  1  0
 28 55  1  0
 31 56  1  0
 31 57  1  0
 31 58  1  0
 32 59  1  0
 33 60  1  0
 34 61  1  0
M  END
$$$$
