
     RDKit          3D

 35 36  0  0  0  0  0  0  0  0999 V2000
   -5.8407   -0.1133    0.7054 C   0  0  0  0  0  0  0  0  0  0  0  0
   -5.2462    0.4260   -0.5691 C   0  0  0  0  0  0  0  0  0  0  0  0
   -5.9394    0.6084   -1.5676 O   0  0  0  0  0  0  0  0  0  0  0  0
   -3.7893    0.7512   -0.6072 C   0  0  0  0  0  0  0  0  0  0  0  0
   -3.2153    1.0991   -1.8382 C   0  0  0  0  0  0  0  0  0  0  0  0
   -1.8557    1.4104   -1.9237 C   0  0  0  0  0  0  0  0  0  0  0  0
   -1.0674    1.3906   -0.7743 C   0  0  0  0  0  0  0  0  0  0  0  0
    0.3291    1.6641   -0.8711 N   0  0  0  0  0  0  0  0  0  0  0  0
    1.3684    0.3157   -0.9804 S   0  0  0  0  0  6  0  0  0  0  0  0
    0.5806   -0.8920   -1.0990 O   0  0  0  0  0  0  0  0  0  0  0  0
    2.3401    0.6969   -1.9855 O   0  0  0  0  0  0  0  0  0  0  0  0
    2.1503    0.3801    0.6362 C   0  0  0  0  0  0  0  0  0  0  0  0
    3.1892   -0.7081    0.7315 C   0  0  0  0  0  0  0  0  0  0  0  0
    2.8346   -1.9964    1.1603 C   0  0  0  0  0  0  0  0  0  0  0  0
    3.7969   -3.0054    1.2440 C   0  0  0  0  0  0  0  0  0  0  0  0
    5.1181   -2.7335    0.8974 C   0  0  0  0  0  0  0  0  0  0  0  0
    6.3033   -3.9760    1.0027 Cl  0  0  0  0  0  0  0  0  0  0  0  0
    5.4846   -1.4617    0.4639 C   0  0  0  0  0  0  0  0  0  0  0  0
    4.5232   -0.4519    0.3794 C   0  0  0  0  0  0  0  0  0  0  0  0
   -1.6256    1.0359    0.4533 C   0  0  0  0  0  0  0  0  0  0  0  0
   -2.9864    0.7214    0.5400 C   0  0  0  0  0  0  0  0  0  0  0  0
   -5.8474    0.6626    1.4750 H   0  0  0  0  0  0  0  0  0  0  0  0
   -5.2873   -0.9935    1.0430 H   0  0  0  0  0  0  0  0  0  0  0  0
   -6.8738   -0.4218    0.5169 H   0  0  0  0  0  0  0  0  0  0  0  0
   -3.8239    1.1177   -2.7412 H   0  0  0  0  0  0  0  0  0  0  0  0
   -1.4270    1.6530   -2.8922 H   0  0  0  0  0  0  0  0  0  0  0  0
    0.5833    2.3122   -1.6213 H   0  0  0  0  0  0  0  0  0  0  0  0
    1.3779    0.2466    1.3991 H   0  0  0  0  0  0  0  0  0  0  0  0
    2.6042    1.3687    0.7569 H   0  0  0  0  0  0  0  0  0  0  0  0
    1.8033   -2.2301    1.4205 H   0  0  0  0  0  0  0  0  0  0  0  0
    3.5081   -4.0002    1.5727 H   0  0  0  0  0  0  0  0  0  0  0  0
    6.5136   -1.2513    0.1843 H   0  0  0  0  0  0  0  0  0  0  0  0
    4.8242    0.5328    0.0255 H   0  0  0  0  0  0  0  0  0  0  0  0
   -1.0148    1.0096    1.3505 H   0  0  0  0  0  0  0  0  0  0  0  0
   -3.3931    0.4589    1.5122 H   0  0  0  0  0  0  0  0  0  0  0  0
  1  2  1  0
  2  3  2  0
  2  4  1  0
  4  5  2  0
  5  6  1  0
  6  7  2  0
  7  8  1  0
  8  9  1  0
  9 10  2  0
  9 11  2  0
  9 12  1  0
 12 13  1  0
 13 14  2  0
 14 15  1  0
 15 16  2  0
 16 17  1  0
 16 18  1  0
 18 19  2  0
  7 20  1  0
 20 21  2  0
 21  4  1  0
 19 13  1  0
  1 22  1  0
  1 23  1  0
  1 24  1  0
  5 25  1  0
  6 26  1  0
  8 27  1  0
 12 28  1  0
 12 29  1  0
 14 30  1  0
 15 31  1  0
 18 32  1  0
 19 33  1  0
 20 34  1  0
 21 35  1  0
M  END
$$$$
