
     RDKit          3D

 46 48  0  0  0  0  0  0  0  0999 V2000
   -3.4341    3.1561    1.8889 C   0  0  0  0  0  0  0  0  0  0  0  0
   -2.5971    3.2482    0.8456 C   0  0  0  0  0  0  0  0  0  0  0  0
   -1.6486    2.2053    0.3157 C   0  0  0  0  0  0  0  0  0  0  0  0
   -1.6453    0.9394    1.0268 N   0  0  0  0  0  0  0  0  0  0  0  0
   -0.8782    0.6061    2.1126 C   0  0  0  0  0  0  0  0  0  0  0  0
    0.1454    1.7124    2.9588 S   0  0  0  0  0  0  0  0  0  0  0  0
    1.5168    0.6124    3.4253 C   0  0  0  0  0  0  0  0  0  0  0  0
    2.4118    0.2834    2.2530 C   0  0  0  0  0  0  0  0  0  0  0  0
    2.2612   -0.9268    1.5602 C   0  0  0  0  0  0  0  0  0  0  0  0
    3.0705   -1.2248    0.4600 C   0  0  0  0  0  0  0  0  0  0  0  0
    4.0445   -0.3132    0.0348 C   0  0  0  0  0  0  0  0  0  0  0  0
    4.9284   -0.5741   -1.1337 C   0  0  0  0  0  0  0  0  0  0  0  0
    5.7644    0.2198   -1.5366 O   0  0  0  0  0  0  0  0  0  0  0  0
    4.6692   -1.7930   -1.6695 O   0  0  0  0  0  0  0  0  0  0  0  0
    5.4795   -2.1135   -2.8009 C   0  0  0  0  0  0  0  0  0  0  0  0
    4.1977    0.8974    0.7230 C   0  0  0  0  0  0  0  0  0  0  0  0
    3.3875    1.1939    1.8221 C   0  0  0  0  0  0  0  0  0  0  0  0
   -1.0343   -0.6641    2.3987 N   0  0  0  0  0  0  0  0  0  0  0  0
   -1.8965   -1.1946    1.4737 N   0  0  0  0  0  0  0  0  0  0  0  0
   -2.2835   -0.2271    0.6636 C   0  0  0  0  0  0  0  0  0  0  0  0
   -3.1762   -0.4417   -0.4336 C   0  0  0  0  0  0  0  0  0  0  0  0
   -4.5367    0.5531   -0.7466 S   0  0  0  0  0  0  0  0  0  0  0  0
   -4.9409   -0.4186   -2.0961 C   0  0  0  0  0  0  0  0  0  0  0  0
   -6.0088   -0.1452   -2.8646 N   0  0  0  0  0  0  0  0  0  0  0  0
   -4.1557   -1.4426   -2.3074 N   0  0  0  0  0  0  0  0  0  0  0  0
   -3.1505   -1.4826   -1.3504 C   0  0  0  0  0  0  0  0  0  0  0  0
   -2.1682   -2.5988   -1.4113 C   0  0  0  0  0  0  0  0  0  0  0  0
   -3.5213    2.2632    2.5009 H   0  0  0  0  0  0  0  0  0  0  0  0
   -4.0669    3.9958    2.1631 H   0  0  0  0  0  0  0  0  0  0  0  0
   -2.5824    4.1887    0.2956 H   0  0  0  0  0  0  0  0  0  0  0  0
   -1.8734    2.0048   -0.7372 H   0  0  0  0  0  0  0  0  0  0  0  0
   -0.6269    2.6011    0.3281 H   0  0  0  0  0  0  0  0  0  0  0  0
    1.1373   -0.3003    3.8989 H   0  0  0  0  0  0  0  0  0  0  0  0
    2.1110    1.1218    4.1930 H   0  0  0  0  0  0  0  0  0  0  0  0
    1.5026   -1.6461    1.8692 H   0  0  0  0  0  0  0  0  0  0  0  0
    2.9247   -2.1713   -0.0550 H   0  0  0  0  0  0  0  0  0  0  0  0
    5.2940   -1.4069   -3.6158 H   0  0  0  0  0  0  0  0  0  0  0  0
    5.2039   -3.1154   -3.1418 H   0  0  0  0  0  0  0  0  0  0  0  0
    6.5391   -2.1209   -2.5260 H   0  0  0  0  0  0  0  0  0  0  0  0
    4.9496    1.6174    0.4043 H   0  0  0  0  0  0  0  0  0  0  0  0
    3.5208    2.1431    2.3381 H   0  0  0  0  0  0  0  0  0  0  0  0
   -6.3209   -0.9270   -3.4316 H   0  0  0  0  0  0  0  0  0  0  0  0
   -6.7711    0.3558   -2.4247 H   0  0  0  0  0  0  0  0  0  0  0  0
   -1.1429   -2.2166   -1.3865 H   0  0  0  0  0  0  0  0  0  0  0  0
   -2.3109   -3.2796   -0.5665 H   0  0  0  0  0  0  0  0  0  0  0  0
   -2.2889   -3.1742   -2.3346 H   0  0  0  0  0  0  0  0  0  0  0  0
  1  2  2  0
  2  3  1  0
  3  4  1  0
  4  5  1  0
  5  6  1  0
  6  7  1  0
  7  8  1  0
  8  9  2  0
  9 10  1  0
 10 11  2  0
 11 12  1  0
 12 13  2  0
 12 14  1  0
 14 15  1  0
 11 16  1  0
 16 17  2  0
  5 18  2  0
 18 19  1  0
 19 20  2  0
 20 21  1  0
 21 22  1  0
 22 23  1  0
 23 24  1  0
 23 25  2  0
 25 26  1  0
 26 27  1  0
 20  4  1  0
 26 21  2  0
 17  8  1  0
  1 28  1  0
  1 29  1  0
  2 30  1  0
  3 31  1  0
  3 32  1  0
  7 33  1  0
  7 34  1  0
  9 35  1  0
 10 36  1  0
 15 37  1  0
 15 38  1  0
 15 39  1  0
 16 40  1  0
 17 41  1  0
 24 42  1  0
 24 43  1  0
 27 44  1  0
 27 45  1  0
 27 46  1  0
M  END
$$$$
