
     RDKit          3D

 47 49  0  0  0  0  0  0  0  0999 V2000
   -3.4326   -0.4475   -3.5211 O   0  0  0  0  0  0  0  0  0  0  0  0
   -3.7094    0.1129   -2.4647 C   0  0  0  0  0  0  0  0  0  0  0  0
   -5.1739    0.3461   -2.0680 C   0  0  0  0  0  0  0  0  0  0  0  0
   -5.3818    0.7191   -0.7104 O   0  0  0  0  0  0  0  0  0  0  0  0
   -5.4666   -0.2749    0.2254 C   0  0  0  0  0  0  0  0  0  0  0  0
   -5.1522   -1.6206    0.0295 C   0  0  0  0  0  0  0  0  0  0  0  0
   -5.2567   -2.5266    1.0914 C   0  0  0  0  0  0  0  0  0  0  0  0
   -5.6717   -2.0852    2.3461 C   0  0  0  0  0  0  0  0  0  0  0  0
   -5.8067   -3.3115    3.7776 Br  0  0  0  0  0  0  0  0  0  0  0  0
   -5.9828   -0.7445    2.5517 C   0  0  0  0  0  0  0  0  0  0  0  0
   -5.8761    0.1570    1.4907 C   0  0  0  0  0  0  0  0  0  0  0  0
   -2.8152    0.6055   -1.5311 N   0  0  0  0  0  0  0  0  0  0  0  0
   -1.4099    0.5969   -1.5886 C   0  0  0  0  0  0  0  0  0  0  0  0
   -0.7224    1.0651   -0.4606 C   0  0  0  0  0  0  0  0  0  0  0  0
    0.6771    1.0997   -0.4359 C   0  0  0  0  0  0  0  0  0  0  0  0
    1.4062    0.6569   -1.5450 C   0  0  0  0  0  0  0  0  0  0  0  0
    2.8978    0.6914   -1.5803 C   0  0  0  0  0  0  0  0  0  0  0  0
    3.4466    0.8872   -2.6582 O   0  0  0  0  0  0  0  0  0  0  0  0
    3.5180    0.4634   -0.3669 N   0  0  0  0  0  0  0  0  0  0  0  0
    4.9072    0.4684   -0.0733 C   0  0  0  0  0  0  0  0  0  0  0  0
    5.8694    0.8008   -1.0347 C   0  0  0  0  0  0  0  0  0  0  0  0
    7.2329    0.7968   -0.7237 C   0  0  0  0  0  0  0  0  0  0  0  0
    7.6603    0.4628    0.5560 C   0  0  0  0  0  0  0  0  0  0  0  0
    6.7224    0.1361    1.5320 C   0  0  0  0  0  0  0  0  0  0  0  0
    5.3481    0.1374    1.2307 C   0  0  0  0  0  0  0  0  0  0  0  0
    4.3644   -0.2093    2.2947 C   0  0  0  0  0  0  0  0  0  0  0  0
    3.1514   -0.2242    2.1627 O   0  0  0  0  0  0  0  0  0  0  0  0
    4.9346   -0.5207    3.4734 O   0  0  0  0  0  0  0  0  0  0  0  0
    0.7214    0.2060   -2.6790 C   0  0  0  0  0  0  0  0  0  0  0  0
   -0.6780    0.1709   -2.6982 C   0  0  0  0  0  0  0  0  0  0  0  0
   -5.7797   -0.5240   -2.3443 H   0  0  0  0  0  0  0  0  0  0  0  0
   -5.5283    1.1827   -2.6806 H   0  0  0  0  0  0  0  0  0  0  0  0
   -4.8144   -2.0044   -0.9276 H   0  0  0  0  0  0  0  0  0  0  0  0
   -5.0085   -3.5723    0.9280 H   0  0  0  0  0  0  0  0  0  0  0  0
   -6.3059   -0.3904    3.5265 H   0  0  0  0  0  0  0  0  0  0  0  0
   -6.1191    1.2048    1.6518 H   0  0  0  0  0  0  0  0  0  0  0  0
   -3.2375    0.9709   -0.6831 H   0  0  0  0  0  0  0  0  0  0  0  0
   -1.2649    1.4148    0.4140 H   0  0  0  0  0  0  0  0  0  0  0  0
    1.1752    1.4980    0.4439 H   0  0  0  0  0  0  0  0  0  0  0  0
    2.9193    0.1896    0.4129 H   0  0  0  0  0  0  0  0  0  0  0  0
    5.5915    1.0728   -2.0485 H   0  0  0  0  0  0  0  0  0  0  0  0
    7.9583    1.0549   -1.4910 H   0  0  0  0  0  0  0  0  0  0  0  0
    8.7217    0.4584    0.7939 H   0  0  0  0  0  0  0  0  0  0  0  0
    7.0749   -0.1182    2.5291 H   0  0  0  0  0  0  0  0  0  0  0  0
    4.1834   -0.7415    4.0639 H   0  0  0  0  0  0  0  0  0  0  0  0
    1.2752   -0.1238   -3.5567 H   0  0  0  0  0  0  0  0  0  0  0  0
   -1.1629   -0.1881   -3.6006 H   0  0  0  0  0  0  0  0  0  0  0  0
  1  2  2  0
  2  3  1  0
  3  4  1  0
  4  5  1  0
  5  6  2  0
  6  7  1  0
  7  8  2  0
  8  9  1  0
  8 10  1  0
 10 11  2  0
  2 12  1  0
 12 13  1  0
 13 14  2  0
 14 15  1  0
 15 16  2  0
 16 17  1  0
 17 18  2  0
 17 19  1  0
 19 20  1  0
 20 21  2  0
 21 22  1  0
 22 23  2  0
 23 24  1  0
 24 25  2  0
 25 26  1  0
 26 27  2  0
 26 28  1  0
 16 29  1  0
 29 30  2  0
 11  5  1  0
 30 13  1  0
 25 20  1  0
  3 31  1  0
  3 32  1  0
  6 33  1  0
  7 34  1  0
 10 35  1  0
 11 36  1  0
 12 37  1  0
 14 38  1  0
 15 39  1  0
 19 40  1  0
 21 41  1  0
 22 42  1  0
 23 43  1  0
 24 44  1  0
 28 45  1  0
 29 46  1  0
 30 47  1  0
M  END
$$$$
