
     RDKit          3D

 52 51  0  0  0  0  0  0  0  0999 V2000
   -6.8605   -0.2993   -2.1587 C   0  0  0  0  0  0  0  0  0  0  0  0
   -6.5361    0.5444   -1.3673 C   0  0  0  0  0  0  0  0  0  0  0  0
   -6.1548    1.5839   -0.4072 C   0  0  0  0  0  0  0  0  0  0  0  0
   -4.9518    1.1591    0.4717 N   0  0  0  0  0  4  0  0  0  0  0  0
   -5.3172   -0.0962    1.2589 C   0  0  0  0  0  0  0  0  0  0  0  0
   -4.6961    2.3019    1.4511 C   0  0  0  0  0  0  0  0  0  0  0  0
   -3.7273    0.9214   -0.4362 C   0  0  0  0  0  0  0  0  0  0  0  0
   -2.4387    0.6193    0.3346 C   0  0  0  0  0  0  0  0  0  0  0  0
   -1.2879    0.3368   -0.6384 C   0  0  0  0  0  0  0  0  0  0  0  0
    0.0666    0.1480    0.0535 C   0  0  0  0  0  0  0  0  0  0  0  0
    0.1494   -1.1306    0.8881 C   0  0  0  0  0  0  0  0  0  0  0  0
    1.4805   -1.3105    1.6289 C   0  0  0  0  0  0  0  0  0  0  0  0
    2.7031   -1.4692    0.7170 C   0  0  0  0  0  0  0  0  0  0  0  0
    3.5008   -0.1697    0.5664 C   0  0  0  0  0  0  0  0  0  0  0  0
    4.6245   -0.2608   -0.4723 C   0  0  0  0  0  0  0  0  0  0  0  0
    5.7369   -1.2374   -0.0819 C   0  0  0  0  0  0  0  0  0  0  0  0
    6.8635   -1.3154   -1.1160 C   0  0  0  0  0  0  0  0  0  0  0  0
    7.6716   -0.0325   -1.2353 C   0  0  0  0  0  0  0  0  0  0  0  0
   -7.1589   -1.0410   -2.8670 H   0  0  0  0  0  0  0  0  0  0  0  0
   -6.9876    1.8066    0.2698 H   0  0  0  0  0  0  0  0  0  0  0  0
   -5.8665    2.5082   -0.9206 H   0  0  0  0  0  0  0  0  0  0  0  0
   -4.5515   -0.2712    2.0193 H   0  0  0  0  0  0  0  0  0  0  0  0
   -6.2837    0.0686    1.7450 H   0  0  0  0  0  0  0  0  0  0  0  0
   -5.3668   -0.9472    0.5745 H   0  0  0  0  0  0  0  0  0  0  0  0
   -4.3653    3.1769    0.8843 H   0  0  0  0  0  0  0  0  0  0  0  0
   -5.6279    2.5189    1.9827 H   0  0  0  0  0  0  0  0  0  0  0  0
   -3.9332    1.9935    2.1703 H   0  0  0  0  0  0  0  0  0  0  0  0
   -3.9676    0.0820   -1.0977 H   0  0  0  0  0  0  0  0  0  0  0  0
   -3.6035    1.8251   -1.0450 H   0  0  0  0  0  0  0  0  0  0  0  0
   -2.1605    1.4693    0.9661 H   0  0  0  0  0  0  0  0  0  0  0  0
   -2.5838   -0.2467    0.9859 H   0  0  0  0  0  0  0  0  0  0  0  0
   -1.1982    1.1792   -1.3358 H   0  0  0  0  0  0  0  0  0  0  0  0
   -1.5201   -0.5493   -1.2417 H   0  0  0  0  0  0  0  0  0  0  0  0
    0.8317    0.1166   -0.7303 H   0  0  0  0  0  0  0  0  0  0  0  0
    0.2839    1.0198    0.6820 H   0  0  0  0  0  0  0  0  0  0  0  0
   -0.6461   -1.1327    1.6415 H   0  0  0  0  0  0  0  0  0  0  0  0
   -0.0277   -2.0002    0.2435 H   0  0  0  0  0  0  0  0  0  0  0  0
    1.3889   -2.2245    2.2303 H   0  0  0  0  0  0  0  0  0  0  0  0
    1.6283   -0.4897    2.3408 H   0  0  0  0  0  0  0  0  0  0  0  0
    3.3579   -2.2250    1.1668 H   0  0  0  0  0  0  0  0  0  0  0  0
    2.4048   -1.8558   -0.2643 H   0  0  0  0  0  0  0  0  0  0  0  0
    2.8335    0.6460    0.2692 H   0  0  0  0  0  0  0  0  0  0  0  0
    3.9236    0.1147    1.5379 H   0  0  0  0  0  0  0  0  0  0  0  0
    5.0447    0.7440   -0.5933 H   0  0  0  0  0  0  0  0  0  0  0  0
    4.2033   -0.5471   -1.4435 H   0  0  0  0  0  0  0  0  0  0  0  0
    6.1519   -0.9568    0.8936 H   0  0  0  0  0  0  0  0  0  0  0  0
    5.3188   -2.2442    0.0282 H   0  0  0  0  0  0  0  0  0  0  0  0
    6.4527   -1.5815   -2.0969 H   0  0  0  0  0  0  0  0  0  0  0  0
    7.5427   -2.1264   -0.8266 H   0  0  0  0  0  0  0  0  0  0  0  0
    7.0705    0.7853   -1.6428 H   0  0  0  0  0  0  0  0  0  0  0  0
    8.5206   -0.1856   -1.9095 H   0  0  0  0  0  0  0  0  0  0  0  0
    8.0644    0.2769   -0.2617 H   0  0  0  0  0  0  0  0  0  0  0  0
  1  2  3  0
  2  3  1  0
  3  4  1  0
  4  5  1  0
  4  6  1  0
  4  7  1  0
  7  8  1  0
  8  9  1  0
  9 10  1  0
 10 11  1  0
 11 12  1  0
 12 13  1  0
 13 14  1  0
 14 15  1  0
 15 16  1  0
 16 17  1  0
 17 18  1  0
  1 19  1  0
  3 20  1  0
  3 21  1  0
  5 22  1  0
  5 23  1  0
  5 24  1  0
  6 25  1  0
  6 26  1  0
  6 27  1  0
  7 28  1  0
  7 29  1  0
  8 30  1  0
  8 31  1  0
  9 32  1  0
  9 33  1  0
 10 34  1  0
 10 35  1  0
 11 36  1  0
 11 37  1  0
 12 38  1  0
 12 39  1  0
 13 40  1  0
 13 41  1  0
 14 42  1  0
 14 43  1  0
 15 44  1  0
 15 45  1  0
 16 46  1  0
 16 47  1  0
 17 48  1  0
 17 49  1  0
 18 50  1  0
 18 51  1  0
 18 52  1  0
M  CHG  1   4   1
M  END
$$$$
