
     RDKit          3D

 36 36  0  0  0  0  0  0  0  0999 V2000
    1.1784   -5.5673    2.9667 C   0  0  0  0  0  0  0  0  0  0  0  0
    1.7987   -4.2502    2.5352 C   0  0  0  0  0  0  0  0  0  0  0  0
    2.0948   -4.2659    1.1396 O   0  0  0  0  0  0  0  0  0  0  0  0
    0.9985   -3.9011    0.3032 C   0  0  0  0  0  0  0  0  0  0  0  0
    0.9210   -2.3852    0.1544 C   0  0  0  0  0  0  0  0  0  0  0  0
   -0.1520   -1.9841   -0.8505 C   0  0  0  0  0  0  0  0  0  0  0  0
   -0.2601   -0.5421   -0.9703 N   0  0  0  0  0  0  0  0  0  0  0  0
   -0.9999    0.1930   -0.0670 C   0  0  0  0  0  0  0  0  0  0  0  0
   -1.6653   -0.3037    0.8331 O   0  0  0  0  0  0  0  0  0  0  0  0
   -0.9115    1.6659   -0.2444 C   0  0  0  0  0  0  0  0  0  0  0  0
   -0.6149    2.4398    0.9107 C   0  0  0  0  0  0  0  0  0  0  0  0
   -0.3687    3.0749    1.8508 N   0  0  0  0  0  0  0  0  0  0  0  0
   -1.2288    2.1576   -1.4565 C   0  0  0  0  0  0  0  0  0  0  0  0
   -1.2088    3.5422   -1.7833 C   0  0  0  0  0  0  0  0  0  0  0  0
   -1.9359    4.2064   -2.7702 C   0  0  0  0  0  0  0  0  0  0  0  0
   -1.5800    5.5785   -2.7371 C   0  0  0  0  0  0  0  0  0  0  0  0
   -0.6368    5.6757   -1.7477 C   0  0  0  0  0  0  0  0  0  0  0  0
    0.1133    6.7872   -1.2548 N   0  0  0  0  0  4  0  0  0  0  0  0
   -0.1869    7.8956   -1.7198 O   0  0  0  0  0  0  0  0  0  0  0  0
    1.0075    6.5641   -0.4305 O   0  0  0  0  0  1  0  0  0  0  0  0
   -0.3992    4.4729   -1.1674 O   0  0  0  0  0  0  0  0  0  0  0  0
    1.8225   -6.4063    2.6836 H   0  0  0  0  0  0  0  0  0  0  0  0
    0.2114   -5.7300    2.4817 H   0  0  0  0  0  0  0  0  0  0  0  0
    1.0291   -5.5872    4.0501 H   0  0  0  0  0  0  0  0  0  0  0  0
    1.1550   -3.4050    2.7996 H   0  0  0  0  0  0  0  0  0  0  0  0
    2.7491   -4.1169    3.0622 H   0  0  0  0  0  0  0  0  0  0  0  0
    1.1877   -4.3527   -0.6768 H   0  0  0  0  0  0  0  0  0  0  0  0
    0.0568   -4.3171    0.6775 H   0  0  0  0  0  0  0  0  0  0  0  0
    1.8975   -1.9946   -0.1594 H   0  0  0  0  0  0  0  0  0  0  0  0
    0.7228   -1.9218    1.1278 H   0  0  0  0  0  0  0  0  0  0  0  0
    0.0895   -2.3706   -1.8463 H   0  0  0  0  0  0  0  0  0  0  0  0
   -1.1261   -2.3890   -0.5539 H   0  0  0  0  0  0  0  0  0  0  0  0
    0.4010   -0.0714   -1.5763 H   0  0  0  0  0  0  0  0  0  0  0  0
   -1.5497    1.4795   -2.2444 H   0  0  0  0  0  0  0  0  0  0  0  0
   -2.6566    3.7456   -3.4343 H   0  0  0  0  0  0  0  0  0  0  0  0
   -1.9532    6.3832   -3.3562 H   0  0  0  0  0  0  0  0  0  0  0  0
  1  2  1  0
  2  3  1  0
  3  4  1  0
  4  5  1  0
  5  6  1  0
  6  7  1  0
  7  8  1  0
  8  9  2  0
  8 10  1  0
 10 11  1  0
 11 12  3  0
 10 13  2  3
 13 14  1  0
 14 15  2  0
 15 16  1  0
 16 17  2  0
 17 18  1  0
 18 19  2  0
 18 20  1  0
 17 21  1  0
 21 14  1  0
  1 22  1  0
  1 23  1  0
  1 24  1  0
  2 25  1  0
  2 26  1  0
  4 27  1  0
  4 28  1  0
  5 29  1  0
  5 30  1  0
  6 31  1  0
  6 32  1  0
  7 33  1  0
 13 34  1  0
 15 35  1  0
 16 36  1  0
M  CHG  2  18   1  20  -1
M  END
$$$$
