
     RDKit          3D

 32 33  0  0  0  0  0  0  0  0999 V2000
   -5.1672   -1.1405    0.6530 C   0  0  0  0  0  0  0  0  0  0  0  0
   -3.8980   -0.4994    0.1735 C   0  0  0  0  0  0  0  0  0  0  0  0
   -3.5169   -0.5982   -1.1707 C   0  0  0  0  0  0  0  0  0  0  0  0
   -2.3507    0.0253   -1.6259 C   0  0  0  0  0  0  0  0  0  0  0  0
   -1.9551   -0.1140   -3.3022 Cl  0  0  0  0  0  0  0  0  0  0  0  0
   -1.5451    0.7492   -0.7391 C   0  0  0  0  0  0  0  0  0  0  0  0
   -0.4135    1.3858   -1.1859 O   0  0  0  0  0  0  0  0  0  0  0  0
    0.7229    0.5128   -1.1057 C   0  0  0  0  0  0  0  0  0  0  0  0
    1.9721    1.3725   -1.2800 C   0  0  0  0  0  0  0  0  0  0  0  0
    3.2582    0.5541   -1.3311 C   0  0  0  0  0  0  0  0  0  0  0  0
    3.5302   -0.1795   -0.1135 N   0  0  0  0  0  0  0  0  0  0  0  0
    3.9072    0.3546    1.0861 C   0  0  0  0  0  0  0  0  0  0  0  0
    4.0382   -0.7254    1.9276 C   0  0  0  0  0  0  0  0  0  0  0  0
    3.7614   -1.8939    1.2658 N   0  0  0  0  0  0  0  0  0  0  0  0
    3.4688   -1.5351    0.0363 C   0  0  0  0  0  0  0  0  0  0  0  0
   -1.9477    0.8878    0.5945 C   0  0  0  0  0  0  0  0  0  0  0  0
   -0.9516    1.9273    1.8333 Br  0  0  0  0  0  0  0  0  0  0  0  0
   -3.1141    0.2633    1.0486 C   0  0  0  0  0  0  0  0  0  0  0  0
   -5.0857   -1.4270    1.7068 H   0  0  0  0  0  0  0  0  0  0  0  0
   -6.0040   -0.4448    0.5385 H   0  0  0  0  0  0  0  0  0  0  0  0
   -5.3831   -2.0514    0.0849 H   0  0  0  0  0  0  0  0  0  0  0  0
   -4.1355   -1.1584   -1.8692 H   0  0  0  0  0  0  0  0  0  0  0  0
    0.6711   -0.2343   -1.9059 H   0  0  0  0  0  0  0  0  0  0  0  0
    0.7513   -0.0050   -0.1393 H   0  0  0  0  0  0  0  0  0  0  0  0
    2.0162    2.1116   -0.4701 H   0  0  0  0  0  0  0  0  0  0  0  0
    1.8809    1.9542   -2.2059 H   0  0  0  0  0  0  0  0  0  0  0  0
    4.1169    1.2141   -1.5010 H   0  0  0  0  0  0  0  0  0  0  0  0
    3.2269   -0.1618   -2.1605 H   0  0  0  0  0  0  0  0  0  0  0  0
    4.0410    1.4158    1.2427 H   0  0  0  0  0  0  0  0  0  0  0  0
    4.3182   -0.7240    2.9731 H   0  0  0  0  0  0  0  0  0  0  0  0
    3.2056   -2.2097   -0.7682 H   0  0  0  0  0  0  0  0  0  0  0  0
   -3.4190    0.3743    2.0877 H   0  0  0  0  0  0  0  0  0  0  0  0
  1  2  1  0
  2  3  2  0
  3  4  1  0
  4  5  1  0
  4  6  2  0
  6  7  1  0
  7  8  1  0
  8  9  1  0
  9 10  1  0
 10 11  1  0
 11 12  1  0
 12 13  2  0
 13 14  1  0
 14 15  2  0
  6 16  1  0
 16 17  1  0
 16 18  2  0
 18  2  1  0
 15 11  1  0
  1 19  1  0
  1 20  1  0
  1 21  1  0
  3 22  1  0
  8 23  1  0
  8 24  1  0
  9 25  1  0
  9 26  1  0
 10 27  1  0
 10 28  1  0
 12 29  1  0
 13 30  1  0
 15 31  1  0
 18 32  1  0
M  END
$$$$
