
     RDKit          3D

 51 53  0  0  0  0  0  0  0  0999 V2000
    7.1114   -2.9058   -1.1814 C   0  0  0  0  0  0  0  0  0  0  0  0
    6.8651   -1.9706   -0.1401 O   0  0  0  0  0  0  0  0  0  0  0  0
    5.9685   -0.9599   -0.3869 C   0  0  0  0  0  0  0  0  0  0  0  0
    5.3545   -0.7303   -1.6219 C   0  0  0  0  0  0  0  0  0  0  0  0
    4.4696    0.3408   -1.7864 C   0  0  0  0  0  0  0  0  0  0  0  0
    4.1844    1.1968   -0.7175 C   0  0  0  0  0  0  0  0  0  0  0  0
    3.2334    2.3563   -0.8847 C   0  0  0  0  0  0  0  0  0  0  0  0
    1.8977    2.1173   -0.1945 C   0  0  0  0  0  0  0  0  0  0  0  0
    1.7469    2.3978    0.9905 O   0  0  0  0  0  0  0  0  0  0  0  0
    0.9458    1.5726   -1.0414 N   0  0  0  0  0  0  0  0  0  0  0  0
   -0.3751    1.1992   -0.7231 C   0  0  0  0  0  0  0  0  0  0  0  0
   -1.1759    0.7253   -1.7695 C   0  0  0  0  0  0  0  0  0  0  0  0
   -2.5002    0.3347   -1.5364 C   0  0  0  0  0  0  0  0  0  0  0  0
   -3.0466    0.3971   -0.2490 C   0  0  0  0  0  0  0  0  0  0  0  0
   -4.3865   -0.0208   -0.0985 N   0  0  0  0  0  0  0  0  0  0  0  0
   -5.1276   -0.0495    1.0705 C   0  0  0  0  0  0  0  0  0  0  0  0
   -4.7644    0.3135    2.1848 O   0  0  0  0  0  0  0  0  0  0  0  0
   -6.5258   -0.5547    0.9238 C   0  0  0  0  0  0  0  0  0  0  0  0
   -7.5097   -0.0326    1.7785 C   0  0  0  0  0  0  0  0  0  0  0  0
   -8.8322   -0.4732    1.6849 C   0  0  0  0  0  0  0  0  0  0  0  0
   -9.1713   -1.4442    0.7427 C   0  0  0  0  0  0  0  0  0  0  0  0
  -10.9599   -2.0455    0.6129 Br  0  0  0  0  0  0  0  0  0  0  0  0
   -8.1988   -1.9845   -0.1009 C   0  0  0  0  0  0  0  0  0  0  0  0
   -6.8736   -1.5448   -0.0084 C   0  0  0  0  0  0  0  0  0  0  0  0
   -2.2453    0.8627    0.7947 C   0  0  0  0  0  0  0  0  0  0  0  0
   -0.9207    1.2620    0.5592 C   0  0  0  0  0  0  0  0  0  0  0  0
    4.7898    0.9576    0.5259 C   0  0  0  0  0  0  0  0  0  0  0  0
    5.6790   -0.1110    0.7001 C   0  0  0  0  0  0  0  0  0  0  0  0
    6.3194   -0.4023    1.8813 O   0  0  0  0  0  0  0  0  0  0  0  0
    5.9328    0.3339    3.0342 C   0  0  0  0  0  0  0  0  0  0  0  0
    7.8467   -3.6275   -0.8134 H   0  0  0  0  0  0  0  0  0  0  0  0
    7.5414   -2.4191   -2.0615 H   0  0  0  0  0  0  0  0  0  0  0  0
    6.2013   -3.4578   -1.4381 H   0  0  0  0  0  0  0  0  0  0  0  0
    5.5489   -1.3642   -2.4796 H   0  0  0  0  0  0  0  0  0  0  0  0
    4.0142    0.4988   -2.7631 H   0  0  0  0  0  0  0  0  0  0  0  0
    3.6789    3.2673   -0.4690 H   0  0  0  0  0  0  0  0  0  0  0  0
    3.0724    2.5711   -1.9474 H   0  0  0  0  0  0  0  0  0  0  0  0
    1.2291    1.4126   -1.9981 H   0  0  0  0  0  0  0  0  0  0  0  0
   -0.7882    0.6580   -2.7835 H   0  0  0  0  0  0  0  0  0  0  0  0
   -3.0917   -0.0200   -2.3786 H   0  0  0  0  0  0  0  0  0  0  0  0
   -4.8584   -0.2784   -0.9544 H   0  0  0  0  0  0  0  0  0  0  0  0
   -7.2449    0.7212    2.5219 H   0  0  0  0  0  0  0  0  0  0  0  0
   -9.5835   -0.0574    2.3528 H   0  0  0  0  0  0  0  0  0  0  0  0
   -8.4617   -2.7535   -0.8241 H   0  0  0  0  0  0  0  0  0  0  0  0
   -6.1280   -2.0082   -0.6488 H   0  0  0  0  0  0  0  0  0  0  0  0
   -2.6170    0.9408    1.8131 H   0  0  0  0  0  0  0  0  0  0  0  0
   -0.3471    1.6180    1.4124 H   0  0  0  0  0  0  0  0  0  0  0  0
    4.5495    1.6261    1.3486 H   0  0  0  0  0  0  0  0  0  0  0  0
    6.4917   -0.0633    3.8871 H   0  0  0  0  0  0  0  0  0  0  0  0
    6.1950    1.3919    2.9313 H   0  0  0  0  0  0  0  0  0  0  0  0
    4.8668    0.2058    3.2481 H   0  0  0  0  0  0  0  0  0  0  0  0
  1  2  1  0
  2  3  1  0
  3  4  2  0
  4  5  1  0
  5  6  2  0
  6  7  1  0
  7  8  1  0
  8  9  2  0
  8 10  1  0
 10 11  1  0
 11 12  2  0
 12 13  1  0
 13 14  2  0
 14 15  1  0
 15 16  1  0
 16 17  2  0
 16 18  1  0
 18 19  2  0
 19 20  1  0
 20 21  2  0
 21 22  1  0
 21 23  1  0
 23 24  2  0
 14 25  1  0
 25 26  2  0
  6 27  1  0
 27 28  2  0
 28 29  1  0
 29 30  1  0
 28  3  1  0
 26 11  1  0
 24 18  1  0
  1 31  1  0
  1 32  1  0
  1 33  1  0
  4 34  1  0
  5 35  1  0
  7 36  1  0
  7 37  1  0
 10 38  1  0
 12 39  1  0
 13 40  1  0
 15 41  1  0
 19 42  1  0
 20 43  1  0
 23 44  1  0
 24 45  1  0
 25 46  1  0
 26 47  1  0
 27 48  1  0
 30 49  1  0
 30 50  1  0
 30 51  1  0
M  END
$$$$
