
     RDKit          3D

 88 91  0  0  0  0  0  0  0  0999 V2000
   -7.2183   -3.2498   -0.0225 C   0  0  0  0  0  0  0  0  0  0  0  0
   -6.2008   -2.9764    0.9340 O   0  0  0  0  0  0  0  0  0  0  0  0
   -4.8967   -2.8666    0.3292 C   0  0  2  0  0  0  0  0  0  0  0  0
   -3.8830   -3.4348    1.3086 C   0  0  0  0  0  0  0  0  0  0  0  0
   -4.1604   -4.8146    1.8364 C   0  0  0  0  0  0  0  0  0  0  0  0
   -2.7687   -2.7603    1.6521 C   0  0  0  0  0  0  0  0  0  0  0  0
   -2.4478   -1.3833    1.1004 C   0  0  0  0  0  0  0  0  0  0  0  0
   -0.9440   -1.1489    1.0985 C   0  0  0  0  0  0  0  0  0  0  0  0
   -0.3294   -0.8080    2.1039 O   0  0  0  0  0  0  0  0  0  0  0  0
   -0.3790   -1.3766   -0.1165 O   0  0  0  0  0  0  0  0  0  0  0  0
    0.9620   -0.9155   -0.3960 C   0  0  1  0  0  0  0  0  0  0  0  0
    1.0180    0.6053   -0.3743 C   0  0  0  0  0  0  0  0  0  0  0  0
    2.4217    1.0820   -0.7171 C   0  0  1  0  0  0  0  0  0  0  0  0
    2.5350    2.6159   -0.6479 C   0  0  0  0  0  0  0  0  0  0  0  0
    2.2222    3.2089    0.7038 C   0  0  0  0  0  0  0  0  0  0  0  0
    1.1445    3.9341    1.0749 C   0  0  0  0  0  0  0  0  0  0  0  0
    1.1096    4.5294    2.4615 C   0  0  0  0  0  0  0  0  0  0  0  0
   -0.0309    4.2456    0.1588 C   0  0  0  0  0  0  0  0  0  0  0  0
   -1.4394    4.3410    0.8039 C   0  0  1  0  0  0  0  0  0  0  0  0
   -2.4481    4.9331   -0.1897 C   0  0  0  0  0  0  0  0  0  0  0  0
   -1.9258    3.0737    1.4802 C   0  0  0  0  0  0  0  0  0  0  0  0
   -2.4290    1.9167    1.0151 C   0  0  0  0  0  0  0  0  0  0  0  0
   -2.6213    1.5237   -0.3575 C   0  0  0  0  0  0  0  0  0  0  0  0
   -2.9476    0.3282   -0.9041 C   0  0  0  0  0  0  0  0  0  0  0  0
   -3.1366    0.3340   -2.4115 C   0  0  0  0  0  0  0  0  0  0  0  0
   -1.9054   -0.0573   -3.0095 O   0  0  0  0  0  0  0  0  0  0  0  0
   -3.1514   -1.0711   -0.2554 C   0  0  1  0  0  0  0  0  0  0  0  0
   -2.7058   -2.0511   -1.2265 O   0  0  0  0  0  0  0  0  0  0  0  0
   -4.6644   -1.3689   -0.0437 C   0  0  2  0  0  0  0  0  0  0  0  0
   -5.2258   -0.5100    0.9699 O   0  0  0  0  0  0  0  0  0  0  0  0
    3.3953    0.4891    0.1526 O   0  0  0  0  0  0  0  0  0  0  0  0
    3.4271   -0.9437    0.1079 C   0  0  2  0  0  0  0  0  0  0  0  0
    4.4632   -1.4332    1.1340 C   0  0  0  0  0  0  0  0  0  0  0  0
    5.8848   -1.0749    0.7159 C   0  0  0  0  0  0  0  0  0  0  0  0
    6.1629   -1.5648   -0.7093 C   0  0  2  0  0  0  0  0  0  0  0  0
    7.5719   -1.1555   -1.1379 C   0  0  0  0  0  0  0  0  0  0  0  0
    5.0673   -1.0309   -1.6526 C   0  0  1  0  0  0  0  0  0  0  0  0
    5.1982   -1.5696   -3.0739 C   0  0  0  0  0  0  0  0  0  0  0  0
    3.7696   -1.4321   -1.1934 O   0  0  0  0  0  0  0  0  0  0  0  0
    2.0534   -1.5256    0.4799 C   0  0  0  0  0  0  0  0  0  0  0  0
   -8.1768   -3.2835    0.5024 H   0  0  0  0  0  0  0  0  0  0  0  0
   -7.0453   -4.2221   -0.4943 H   0  0  0  0  0  0  0  0  0  0  0  0
   -7.2637   -2.4633   -0.7816 H   0  0  0  0  0  0  0  0  0  0  0  0
   -4.8414   -3.4834   -0.5793 H   0  0  0  0  0  0  0  0  0  0  0  0
   -3.3208   -5.2068    2.4222 H   0  0  0  0  0  0  0  0  0  0  0  0
   -4.3357   -5.5093    1.0077 H   0  0  0  0  0  0  0  0  0  0  0  0
   -5.0439   -4.8106    2.4826 H   0  0  0  0  0  0  0  0  0  0  0  0
   -2.0674   -3.1859    2.3689 H   0  0  0  0  0  0  0  0  0  0  0  0
   -2.8351   -0.7065    1.8667 H   0  0  0  0  0  0  0  0  0  0  0  0
    1.1440   -1.2395   -1.4288 H   0  0  0  0  0  0  0  0  0  0  0  0
    0.7263    0.9583    0.6198 H   0  0  0  0  0  0  0  0  0  0  0  0
    0.2876    1.0184   -1.0775 H   0  0  0  0  0  0  0  0  0  0  0  0
    2.6614    0.7931   -1.7483 H   0  0  0  0  0  0  0  0  0  0  0  0
    3.5672    2.9029   -0.8898 H   0  0  0  0  0  0  0  0  0  0  0  0
    1.9057    3.0613   -1.4251 H   0  0  0  0  0  0  0  0  0  0  0  0
    3.0066    3.0278    1.4410 H   0  0  0  0  0  0  0  0  0  0  0  0
    0.4109    3.9829    3.0973 H   0  0  0  0  0  0  0  0  0  0  0  0
    2.0921    4.4945    2.9465 H   0  0  0  0  0  0  0  0  0  0  0  0
    0.8153    5.5827    2.4199 H   0  0  0  0  0  0  0  0  0  0  0  0
   -0.0833    3.5134   -0.6555 H   0  0  0  0  0  0  0  0  0  0  0  0
    0.1898    5.2140   -0.3104 H   0  0  0  0  0  0  0  0  0  0  0  0
   -1.3833    5.0897    1.6081 H   0  0  0  0  0  0  0  0  0  0  0  0
   -3.4727    4.8745    0.1946 H   0  0  0  0  0  0  0  0  0  0  0  0
   -2.4100    4.4451   -1.1681 H   0  0  0  0  0  0  0  0  0  0  0  0
   -2.2230    5.9927   -0.3603 H   0  0  0  0  0  0  0  0  0  0  0  0
   -1.8647    3.1385    2.5702 H   0  0  0  0  0  0  0  0  0  0  0  0
   -2.7512    1.2223    1.7817 H   0  0  0  0  0  0  0  0  0  0  0  0
   -2.4904    2.3500   -1.0522 H   0  0  0  0  0  0  0  0  0  0  0  0
   -3.4148    1.3185   -2.8037 H   0  0  0  0  0  0  0  0  0  0  0  0
   -3.9212   -0.3575   -2.7312 H   0  0  0  0  0  0  0  0  0  0  0  0
   -1.3000    0.6962   -2.9082 H   0  0  0  0  0  0  0  0  0  0  0  0
   -1.8341   -1.7508   -1.5560 H   0  0  0  0  0  0  0  0  0  0  0  0
   -5.2324   -1.1663   -0.9593 H   0  0  0  0  0  0  0  0  0  0  0  0
   -5.8946   -1.0625    1.4265 H   0  0  0  0  0  0  0  0  0  0  0  0
    4.3996   -2.5238    1.2320 H   0  0  0  0  0  0  0  0  0  0  0  0
    4.2655   -0.9974    2.1205 H   0  0  0  0  0  0  0  0  0  0  0  0
    6.5950   -1.5264    1.4184 H   0  0  0  0  0  0  0  0  0  0  0  0
    6.0238    0.0114    0.7782 H   0  0  0  0  0  0  0  0  0  0  0  0
    6.1093   -2.6624   -0.6956 H   0  0  0  0  0  0  0  0  0  0  0  0
    7.6588   -0.0672   -1.2302 H   0  0  0  0  0  0  0  0  0  0  0  0
    8.3125   -1.4898   -0.4051 H   0  0  0  0  0  0  0  0  0  0  0  0
    7.8397   -1.6015   -2.0995 H   0  0  0  0  0  0  0  0  0  0  0  0
    5.1053    0.0654   -1.6999 H   0  0  0  0  0  0  0  0  0  0  0  0
    6.1167   -1.2270   -3.5587 H   0  0  0  0  0  0  0  0  0  0  0  0
    5.1840   -2.6649   -3.0786 H   0  0  0  0  0  0  0  0  0  0  0  0
    4.3487   -1.2410   -3.6838 H   0  0  0  0  0  0  0  0  0  0  0  0
    2.0368   -2.6173    0.3563 H   0  0  0  0  0  0  0  0  0  0  0  0
    1.8560   -1.3241    1.5375 H   0  0  0  0  0  0  0  0  0  0  0  0
  1  2  1  0
  2  3  1  0
  3  4  1  0
  4  5  1  0
  4  6  2  0
  6  7  1  0
  7  8  1  0
  8  9  2  0
  8 10  1  0
 10 11  1  0
 11 12  1  0
 12 13  1  0
 13 14  1  0
 14 15  1  0
 15 16  2  0
 16 17  1  0
 16 18  1  0
 18 19  1  0
 19 20  1  0
 19 21  1  0
 21 22  2  0
 22 23  1  0
 23 24  2  0
 24 25  1  0
 25 26  1  0
 24 27  1  0
 27 28  1  6
 27 29  1  0
 29 30  1  0
 13 31  1  0
 32 31  1  6
 32 33  1  0
 33 34  1  0
 34 35  1  0
 35 36  1  0
 35 37  1  0
 37 38  1  0
 37 39  1  0
 32 40  1  0
 29  3  1  0
 39 32  1  0
 27  7  1  0
 40 11  1  0
  1 41  1  0
  1 42  1  0
  1 43  1  0
  3 44  1  6
  5 45  1  0
  5 46  1  0
  5 47  1  0
  6 48  1  0
  7 49  1  0
 11 50  1  6
 12 51  1  0
 12 52  1  0
 13 53  1  6
 14 54  1  0
 14 55  1  0
 15 56  1  0
 17 57  1  0
 17 58  1  0
 17 59  1  0
 18 60  1  0
 18 61  1  0
 19 62  1  1
 20 63  1  0
 20 64  1  0
 20 65  1  0
 21 66  1  0
 22 67  1  0
 23 68  1  0
 25 69  1  0
 25 70  1  0
 26 71  1  0
 28 72  1  0
 29 73  1  6
 30 74  1  0
 33 75  1  0
 33 76  1  0
 34 77  1  0
 34 78  1  0
 35 79  1  1
 36 80  1  0
 36 81  1  0
 36 82  1  0
 37 83  1  6
 38 84  1  0
 38 85  1  0
 38 86  1  0
 40 87  1  0
 40 88  1  0
M  END
$$$$
