
     RDKit          3D

 41 42  0  0  0  0  0  0  0  0999 V2000
    6.8656    1.9877    0.6850 C   0  0  0  0  0  0  0  0  0  0  0  0
    5.5339    1.6466    0.3009 O   0  0  0  0  0  0  0  0  0  0  0  0
    5.1775    0.3666    0.6085 C   0  0  0  0  0  0  0  0  0  0  0  0
    5.9100   -0.4390    1.1675 O   0  0  0  0  0  0  0  0  0  0  0  0
    3.8111    0.1190    0.1824 C   0  0  0  0  0  0  0  0  0  0  0  0
    2.9131    1.0077   -0.3893 C   0  0  0  0  0  0  0  0  0  0  0  0
    1.6913    0.3359   -0.5906 C   0  0  0  0  0  0  0  0  0  0  0  0
    1.8296   -0.9652   -0.1316 C   0  0  0  0  0  0  0  0  0  0  0  0
    0.6500   -2.2998   -0.0552 S   0  0  0  0  0  6  0  0  0  0  0  0
    0.9788   -3.1126   -1.2016 O   0  0  0  0  0  0  0  0  0  0  0  0
    0.7236   -2.7833    1.3033 O   0  0  0  0  0  0  0  0  0  0  0  0
   -0.8648   -1.6376   -0.3180 N   0  0  0  0  0  0  0  0  0  0  0  0
   -1.4285   -0.8427    0.7768 C   0  0  0  0  0  0  0  0  0  0  0  0
   -2.6803   -0.1283    0.3284 C   0  0  0  0  0  0  0  0  0  0  0  0
   -3.8358   -0.8577    0.0146 C   0  0  0  0  0  0  0  0  0  0  0  0
   -4.9974   -0.2086   -0.4184 C   0  0  0  0  0  0  0  0  0  0  0  0
   -5.0177    1.1796   -0.5457 C   0  0  0  0  0  0  0  0  0  0  0  0
   -6.0802    1.9358   -0.9570 O   0  0  0  0  0  0  0  0  0  0  0  0
   -7.2804    1.2402   -1.2704 C   0  0  0  0  0  0  0  0  0  0  0  0
   -3.8671    1.9092   -0.2376 C   0  0  0  0  0  0  0  0  0  0  0  0
   -2.7053    1.2646    0.1946 C   0  0  0  0  0  0  0  0  0  0  0  0
    3.1480   -1.0989    0.2768 N   0  0  0  0  0  0  0  0  0  0  0  0
    3.7676   -2.3290    0.7383 C   0  0  0  0  0  0  0  0  0  0  0  0
    6.9842    1.9090    1.7703 H   0  0  0  0  0  0  0  0  0  0  0  0
    7.0472    3.0255    0.3922 H   0  0  0  0  0  0  0  0  0  0  0  0
    7.5898    1.3508    0.1675 H   0  0  0  0  0  0  0  0  0  0  0  0
    3.1227    2.0454   -0.6222 H   0  0  0  0  0  0  0  0  0  0  0  0
    0.7887    0.7599   -1.0112 H   0  0  0  0  0  0  0  0  0  0  0  0
   -0.9458   -1.2213   -1.2441 H   0  0  0  0  0  0  0  0  0  0  0  0
   -0.6994   -0.1060    1.1303 H   0  0  0  0  0  0  0  0  0  0  0  0
   -1.6762   -1.4934    1.6232 H   0  0  0  0  0  0  0  0  0  0  0  0
   -3.8337   -1.9432    0.1024 H   0  0  0  0  0  0  0  0  0  0  0  0
   -5.8648   -0.8180   -0.6489 H   0  0  0  0  0  0  0  0  0  0  0  0
   -7.1315    0.5557   -2.1121 H   0  0  0  0  0  0  0  0  0  0  0  0
   -7.6712    0.7119   -0.3944 H   0  0  0  0  0  0  0  0  0  0  0  0
   -8.0269    1.9812   -1.5724 H   0  0  0  0  0  0  0  0  0  0  0  0
   -3.8778    2.9924   -0.3351 H   0  0  0  0  0  0  0  0  0  0  0  0
   -1.8273    1.8629    0.4270 H   0  0  0  0  0  0  0  0  0  0  0  0
    3.1715   -3.1957    0.4537 H   0  0  0  0  0  0  0  0  0  0  0  0
    3.8637   -2.2745    1.8252 H   0  0  0  0  0  0  0  0  0  0  0  0
    4.7443   -2.4327    0.2591 H   0  0  0  0  0  0  0  0  0  0  0  0
  1  2  1  0
  2  3  1  0
  3  4  2  0
  3  5  1  0
  5  6  2  0
  6  7  1  0
  7  8  2  0
  8  9  1  0
  9 10  2  0
  9 11  2  0
  9 12  1  0
 12 13  1  0
 13 14  1  0
 14 15  2  0
 15 16  1  0
 16 17  2  0
 17 18  1  0
 18 19  1  0
 17 20  1  0
 20 21  2  0
  8 22  1  0
 22 23  1  0
 22  5  1  0
 21 14  1  0
  1 24  1  0
  1 25  1  0
  1 26  1  0
  6 27  1  0
  7 28  1  0
 12 29  1  0
 13 30  1  0
 13 31  1  0
 15 32  1  0
 16 33  1  0
 19 34  1  0
 19 35  1  0
 19 36  1  0
 20 37  1  0
 21 38  1  0
 23 39  1  0
 23 40  1  0
 23 41  1  0
M  END
$$$$
