
     RDKit          3D

 42 44  0  0  0  0  0  0  0  0999 V2000
   -8.3861    0.9213   -0.4378 C   0  0  0  0  0  0  0  0  0  0  0  0
   -7.6275   -0.3060   -0.0049 C   0  0  0  0  0  0  0  0  0  0  0  0
   -8.2178   -1.3286    0.3378 O   0  0  0  0  0  0  0  0  0  0  0  0
   -6.1348   -0.2693   -0.0038 C   0  0  0  0  0  0  0  0  0  0  0  0
   -5.4381   -1.3581    0.5312 C   0  0  0  0  0  0  0  0  0  0  0  0
   -4.0376   -1.3692    0.5534 C   0  0  0  0  0  0  0  0  0  0  0  0
   -3.3129   -0.2931    0.0417 C   0  0  0  0  0  0  0  0  0  0  0  0
   -1.9041   -0.2281    0.0196 N   0  0  0  0  0  0  0  0  0  0  0  0
   -1.0141   -1.1393    0.5599 C   0  0  0  0  0  0  0  0  0  0  0  0
   -1.2910   -2.1349    1.2176 O   0  0  0  0  0  0  0  0  0  0  0  0
    0.4258   -0.8205    0.3381 C   0  0  0  0  0  0  0  0  0  0  0  0
    0.8801   -0.2154   -0.8385 C   0  0  0  0  0  0  0  0  0  0  0  0
    2.2416    0.0716   -1.0035 C   0  0  0  0  0  0  0  0  0  0  0  0
    3.1629   -0.2516   -0.0050 C   0  0  0  0  0  0  0  0  0  0  0  0
    4.5422    0.0069   -0.0933 N   0  0  0  0  0  0  0  0  0  0  0  0
    5.2369    0.6392   -1.1096 C   0  0  0  0  0  0  0  0  0  0  0  0
    4.7393    1.0973   -2.1330 O   0  0  0  0  0  0  0  0  0  0  0  0
    6.6620    0.7231   -0.8408 C   0  0  0  0  0  0  0  0  0  0  0  0
    7.6956    1.2773   -1.5717 C   0  0  0  0  0  0  0  0  0  0  0  0
    8.8804    1.0720   -0.8254 C   0  0  0  0  0  0  0  0  0  0  0  0
    8.5030    0.4061    0.3163 C   0  0  0  0  0  0  0  0  0  0  0  0
    7.1625    0.1884    0.3209 O   0  0  0  0  0  0  0  0  0  0  0  0
    2.7055   -0.8796    1.1603 C   0  0  0  0  0  0  0  0  0  0  0  0
    1.3474   -1.1663    1.3307 C   0  0  0  0  0  0  0  0  0  0  0  0
   -4.0123    0.7931   -0.5000 C   0  0  0  0  0  0  0  0  0  0  0  0
   -5.4130    0.8090   -0.5228 C   0  0  0  0  0  0  0  0  0  0  0  0
   -9.4553    0.7616   -0.2678 H   0  0  0  0  0  0  0  0  0  0  0  0
   -8.2316    1.1049   -1.5041 H   0  0  0  0  0  0  0  0  0  0  0  0
   -8.0808    1.7877    0.1549 H   0  0  0  0  0  0  0  0  0  0  0  0
   -5.9789   -2.2109    0.9385 H   0  0  0  0  0  0  0  0  0  0  0  0
   -3.5467   -2.2406    0.9761 H   0  0  0  0  0  0  0  0  0  0  0  0
   -1.5108    0.6137   -0.3795 H   0  0  0  0  0  0  0  0  0  0  0  0
    0.2004    0.0142   -1.6546 H   0  0  0  0  0  0  0  0  0  0  0  0
    2.5506    0.5371   -1.9349 H   0  0  0  0  0  0  0  0  0  0  0  0
    5.1206   -0.2921    0.6853 H   0  0  0  0  0  0  0  0  0  0  0  0
    7.5913    1.7680   -2.5305 H   0  0  0  0  0  0  0  0  0  0  0  0
    9.8856    1.3724   -1.0868 H   0  0  0  0  0  0  0  0  0  0  0  0
    9.0418    0.0351    1.1777 H   0  0  0  0  0  0  0  0  0  0  0  0
    3.3965   -1.1562    1.9532 H   0  0  0  0  0  0  0  0  0  0  0  0
    1.0102   -1.6583    2.2413 H   0  0  0  0  0  0  0  0  0  0  0  0
   -3.4782    1.6468   -0.9104 H   0  0  0  0  0  0  0  0  0  0  0  0
   -5.9104    1.6714   -0.9558 H   0  0  0  0  0  0  0  0  0  0  0  0
  1  2  1  0
  2  3  2  0
  2  4  1  0
  4  5  2  0
  5  6  1  0
  6  7  2  0
  7  8  1  0
  8  9  1  0
  9 10  2  0
  9 11  1  0
 11 12  2  0
 12 13  1  0
 13 14  2  0
 14 15  1  0
 15 16  1  0
 16 17  2  0
 16 18  1  0
 18 19  2  0
 19 20  1  0
 20 21  2  0
 21 22  1  0
 14 23  1  0
 23 24  2  0
  7 25  1  0
 25 26  2  0
 26  4  1  0
 24 11  1  0
 22 18  1  0
  1 27  1  0
  1 28  1  0
  1 29  1  0
  5 30  1  0
  6 31  1  0
  8 32  1  0
 12 33  1  0
 13 34  1  0
 15 35  1  0
 19 36  1  0
 20 37  1  0
 21 38  1  0
 23 39  1  0
 24 40  1  0
 25 41  1  0
 26 42  1  0
M  END
$$$$
