
     RDKit          3D

 29 29  0  0  0  0  0  0  0  0999 V2000
   -5.1024   -2.7264    0.7208 C   0  0  0  0  0  0  0  0  0  0  0  0
   -4.2928   -1.8409    0.7802 C   0  0  0  0  0  0  0  0  0  0  0  0
   -3.3039   -0.7573    0.8555 C   0  0  0  0  0  0  0  0  0  0  0  0
   -2.9429   -0.2501   -0.4705 N   0  0  0  0  0  0  0  0  0  0  0  0
   -2.1361   -1.1785   -1.2659 C   0  0  0  0  0  0  0  0  0  0  0  0
   -0.7106   -1.3865   -0.7532 C   0  0  0  0  0  0  0  0  0  0  0  0
    0.0760   -0.0837   -0.6319 C   0  0  0  0  0  0  0  0  0  0  0  0
    1.4114   -0.4181   -0.2479 O   0  0  0  0  0  0  0  0  0  0  0  0
    2.3064    0.6054   -0.0800 C   0  0  0  0  0  0  0  0  0  0  0  0
    2.0010    1.9610   -0.2436 C   0  0  0  0  0  0  0  0  0  0  0  0
    2.9852    2.9364   -0.0489 C   0  0  0  0  0  0  0  0  0  0  0  0
    4.2777    2.5616    0.3101 C   0  0  0  0  0  0  0  0  0  0  0  0
    5.4808    3.7679    0.5472 Cl  0  0  0  0  0  0  0  0  0  0  0  0
    4.6007    1.2197    0.4779 C   0  0  0  0  0  0  0  0  0  0  0  0
    3.6169    0.2470    0.2833 C   0  0  0  0  0  0  0  0  0  0  0  0
    4.0675   -1.4095    0.5036 Cl  0  0  0  0  0  0  0  0  0  0  0  0
   -5.8194   -3.5131    0.6689 H   0  0  0  0  0  0  0  0  0  0  0  0
   -3.7396    0.0752    1.4203 H   0  0  0  0  0  0  0  0  0  0  0  0
   -2.4205   -1.0702    1.4207 H   0  0  0  0  0  0  0  0  0  0  0  0
   -3.8105   -0.0557   -0.9721 H   0  0  0  0  0  0  0  0  0  0  0  0
   -2.6365   -2.1484   -1.3686 H   0  0  0  0  0  0  0  0  0  0  0  0
   -2.0728   -0.7673   -2.2810 H   0  0  0  0  0  0  0  0  0  0  0  0
   -0.1815   -2.0583   -1.4417 H   0  0  0  0  0  0  0  0  0  0  0  0
   -0.7092   -1.9087    0.2109 H   0  0  0  0  0  0  0  0  0  0  0  0
    0.0844    0.4307   -1.6002 H   0  0  0  0  0  0  0  0  0  0  0  0
   -0.3786    0.5562    0.1330 H   0  0  0  0  0  0  0  0  0  0  0  0
    1.0061    2.2952   -0.5212 H   0  0  0  0  0  0  0  0  0  0  0  0
    2.7339    3.9864   -0.1791 H   0  0  0  0  0  0  0  0  0  0  0  0
    5.6094    0.9299    0.7582 H   0  0  0  0  0  0  0  0  0  0  0  0
  1  2  3  0
  2  3  1  0
  3  4  1  0
  4  5  1  0
  5  6  1  0
  6  7  1  0
  7  8  1  0
  8  9  1  0
  9 10  2  0
 10 11  1  0
 11 12  2  0
 12 13  1  0
 12 14  1  0
 14 15  2  0
 15 16  1  0
 15  9  1  0
  1 17  1  0
  3 18  1  0
  3 19  1  0
  4 20  1  0
  5 21  1  0
  5 22  1  0
  6 23  1  0
  6 24  1  0
  7 25  1  0
  7 26  1  0
 10 27  1  0
 11 28  1  0
 14 29  1  0
M  END
$$$$
