
     RDKit          3D

 52 54  0  0  0  0  0  0  0  0999 V2000
    6.4530   -2.8240   -4.9593 C   0  0  0  0  0  0  0  0  0  0  0  0
    6.0168   -2.3945   -3.5901 C   0  0  0  0  0  0  0  0  0  0  0  0
    5.8245   -3.3408   -2.5774 C   0  0  0  0  0  0  0  0  0  0  0  0
    5.4466   -2.9393   -1.2936 C   0  0  0  0  0  0  0  0  0  0  0  0
    5.2724   -1.5816   -0.9958 C   0  0  0  0  0  0  0  0  0  0  0  0
    4.8411   -1.1440    0.3790 C   0  0  0  0  0  0  0  0  0  0  0  0
    3.4088   -1.0244    0.4538 N   0  0  0  0  0  0  0  0  0  0  0  0
    2.7592    0.1723    0.2708 C   0  0  0  0  0  0  0  0  0  0  0  0
    3.2784    1.2752    0.1706 O   0  0  0  0  0  0  0  0  0  0  0  0
    1.2218    0.0294    0.1895 C   0  0  0  0  0  0  0  0  0  0  0  0
    0.6935   -1.0617    0.3486 O   0  0  0  0  0  0  0  0  0  0  0  0
    0.5650    1.2138   -0.0451 N   0  0  0  0  0  0  0  0  0  0  0  0
   -0.8833    1.3107    0.0185 C   0  0  0  0  0  0  0  0  0  0  0  0
   -1.4489    1.1713    1.4452 C   0  0  0  0  0  0  0  0  0  0  0  0
   -0.8511    2.1799    2.2881 O   0  0  0  0  0  0  0  0  0  0  0  0
   -1.8037    2.3899    3.3311 C   0  0  0  0  0  0  0  0  0  0  0  0
   -3.1276    2.3811    2.6013 C   0  0  0  0  0  0  0  0  0  0  0  0
   -2.9060    1.4504    1.4731 N   0  0  0  0  0  0  0  0  0  0  0  0
   -3.8560    0.0551    1.4236 S   0  0  0  0  0  6  0  0  0  0  0  0
   -3.5112   -0.6845    0.2310 O   0  0  0  0  0  0  0  0  0  0  0  0
   -3.7997   -0.5490    2.7377 O   0  0  0  0  0  0  0  0  0  0  0  0
   -5.4863    0.7168    1.1772 C   0  0  0  0  0  0  0  0  0  0  0  0
   -6.4680    0.5529    2.1589 C   0  0  0  0  0  0  0  0  0  0  0  0
   -7.7433    1.0806    1.9472 C   0  0  0  0  0  0  0  0  0  0  0  0
   -8.0254    1.7592    0.7599 C   0  0  0  0  0  0  0  0  0  0  0  0
   -9.7534    2.4728    0.4791 Br  0  0  0  0  0  0  0  0  0  0  0  0
   -7.0463    1.9143   -0.2229 C   0  0  0  0  0  0  0  0  0  0  0  0
   -5.7698    1.3890   -0.0167 C   0  0  0  0  0  0  0  0  0  0  0  0
    5.4697   -0.6355   -2.0104 C   0  0  0  0  0  0  0  0  0  0  0  0
    5.8470   -1.0379   -3.2934 C   0  0  0  0  0  0  0  0  0  0  0  0
    6.0789   -2.1340   -5.7231 H   0  0  0  0  0  0  0  0  0  0  0  0
    6.0612   -3.8178   -5.2004 H   0  0  0  0  0  0  0  0  0  0  0  0
    7.5457   -2.8519   -5.0122 H   0  0  0  0  0  0  0  0  0  0  0  0
    5.9637   -4.3998   -2.7834 H   0  0  0  0  0  0  0  0  0  0  0  0
    5.2913   -3.6955   -0.5275 H   0  0  0  0  0  0  0  0  0  0  0  0
    5.1496   -1.8812    1.1284 H   0  0  0  0  0  0  0  0  0  0  0  0
    5.3183   -0.1932    0.6429 H   0  0  0  0  0  0  0  0  0  0  0  0
    2.8335   -1.8601    0.3997 H   0  0  0  0  0  0  0  0  0  0  0  0
    1.1277    2.0580    0.0262 H   0  0  0  0  0  0  0  0  0  0  0  0
   -1.1399    2.2920   -0.3963 H   0  0  0  0  0  0  0  0  0  0  0  0
   -1.3058    0.5433   -0.6381 H   0  0  0  0  0  0  0  0  0  0  0  0
   -1.2047    0.1961    1.8824 H   0  0  0  0  0  0  0  0  0  0  0  0
   -1.7278    1.5677    4.0517 H   0  0  0  0  0  0  0  0  0  0  0  0
   -1.6058    3.3356    3.8421 H   0  0  0  0  0  0  0  0  0  0  0  0
   -3.3424    3.3675    2.1753 H   0  0  0  0  0  0  0  0  0  0  0  0
   -3.9532    2.1104    3.2633 H   0  0  0  0  0  0  0  0  0  0  0  0
   -6.2532    0.0169    3.0809 H   0  0  0  0  0  0  0  0  0  0  0  0
   -8.5098    0.9538    2.7081 H   0  0  0  0  0  0  0  0  0  0  0  0
   -7.2692    2.4361   -1.1505 H   0  0  0  0  0  0  0  0  0  0  0  0
   -5.0056    1.5000   -0.7834 H   0  0  0  0  0  0  0  0  0  0  0  0
    5.3271    0.4243   -1.8043 H   0  0  0  0  0  0  0  0  0  0  0  0
    6.0025   -0.2833   -4.0613 H   0  0  0  0  0  0  0  0  0  0  0  0
  1  2  1  0
  2  3  2  0
  3  4  1  0
  4  5  2  0
  5  6  1  0
  6  7  1  0
  7  8  1  0
  8  9  2  0
  8 10  1  0
 10 11  2  0
 10 12  1  0
 12 13  1  0
 13 14  1  0
 14 15  1  0
 15 16  1  0
 16 17  1  0
 17 18  1  0
 18 19  1  0
 19 20  2  0
 19 21  2  0
 19 22  1  0
 22 23  2  0
 23 24  1  0
 24 25  2  0
 25 26  1  0
 25 27  1  0
 27 28  2  0
  5 29  1  0
 29 30  2  0
 30  2  1  0
 18 14  1  0
 28 22  1  0
  1 31  1  0
  1 32  1  0
  1 33  1  0
  3 34  1  0
  4 35  1  0
  6 36  1  0
  6 37  1  0
  7 38  1  0
 12 39  1  0
 13 40  1  0
 13 41  1  0
 14 42  1  0
 16 43  1  0
 16 44  1  0
 17 45  1  0
 17 46  1  0
 23 47  1  0
 24 48  1  0
 27 49  1  0
 28 50  1  0
 29 51  1  0
 30 52  1  0
M  END
$$$$
