
     RDKit          3D

 43 46  0  0  0  0  0  0  0  0999 V2000
    6.4047    2.0641    0.8371 C   0  0  0  0  0  0  0  0  0  0  0  0
    5.0386    1.5292    0.5187 C   0  0  0  0  0  0  0  0  0  0  0  0
    4.5755    0.3590    1.1276 C   0  0  0  0  0  0  0  0  0  0  0  0
    3.2915   -0.1256    0.8573 C   0  0  0  0  0  0  0  0  0  0  0  0
    2.4523    0.5613   -0.0202 C   0  0  0  0  0  0  0  0  0  0  0  0
    1.0077    0.0291   -0.3321 C   0  0  0  0  0  0  0  0  0  0  0  0
    0.0509    0.6555   -1.1227 C   0  0  0  0  0  0  0  0  0  0  0  0
   -1.1160   -0.1119   -1.1206 N   0  0  0  0  0  4  0  0  0  0  0  0
   -2.3604    0.1875   -1.8241 C   0  0  0  0  0  0  0  0  0  0  0  0
   -3.4830    0.3255   -0.8257 C   0  0  0  0  0  0  0  0  0  0  0  0
   -4.6632   -0.4170   -0.9727 C   0  0  0  0  0  0  0  0  0  0  0  0
   -5.7036   -0.2872   -0.0468 C   0  0  0  0  0  0  0  0  0  0  0  0
   -5.5840    0.5886    1.0359 C   0  0  0  0  0  0  0  0  0  0  0  0
   -6.9021    0.6845    2.1446 Cl  0  0  0  0  0  0  0  0  0  0  0  0
   -4.4187    1.3440    1.1864 C   0  0  0  0  0  0  0  0  0  0  0  0
   -4.1846    2.4439    2.4960 Cl  0  0  0  0  0  0  0  0  0  0  0  0
   -3.3792    1.2164    0.2563 C   0  0  0  0  0  0  0  0  0  0  0  0
   -0.8768   -1.1882   -0.3778 C   0  0  0  0  0  0  0  0  0  0  0  0
    0.3694   -1.1266    0.0810 N   0  0  0  0  0  0  0  0  0  0  0  0
    0.7081   -2.2885    0.8912 C   0  0  0  0  0  0  0  0  0  0  0  0
   -0.4548   -3.2792    0.6073 C   0  0  0  0  0  0  0  0  0  0  0  0
   -1.5996   -2.4064    0.0559 C   0  0  0  0  0  0  0  0  0  0  0  0
    2.9034    1.7443   -0.6167 C   0  0  0  0  0  0  0  0  0  0  0  0
    4.1878    2.2252   -0.3445 C   0  0  0  0  0  0  0  0  0  0  0  0
    6.8149    2.6184   -0.0136 H   0  0  0  0  0  0  0  0  0  0  0  0
    6.3523    2.7315    1.7028 H   0  0  0  0  0  0  0  0  0  0  0  0
    7.1009    1.2487    1.0594 H   0  0  0  0  0  0  0  0  0  0  0  0
    5.2164   -0.1824    1.8222 H   0  0  0  0  0  0  0  0  0  0  0  0
    2.9816   -1.0298    1.3642 H   0  0  0  0  0  0  0  0  0  0  0  0
    0.0464    1.5756   -1.6824 H   0  0  0  0  0  0  0  0  0  0  0  0
   -2.2548    1.1159   -2.3956 H   0  0  0  0  0  0  0  0  0  0  0  0
   -2.5464   -0.6295   -2.5302 H   0  0  0  0  0  0  0  0  0  0  0  0
   -4.7958   -1.1026   -1.8094 H   0  0  0  0  0  0  0  0  0  0  0  0
   -6.6138   -0.8711   -0.1766 H   0  0  0  0  0  0  0  0  0  0  0  0
   -2.4810    1.8186    0.3836 H   0  0  0  0  0  0  0  0  0  0  0  0
    0.7260   -1.9912    1.9437 H   0  0  0  0  0  0  0  0  0  0  0  0
    1.6673   -2.7134    0.5872 H   0  0  0  0  0  0  0  0  0  0  0  0
   -0.1378   -3.9861   -0.1687 H   0  0  0  0  0  0  0  0  0  0  0  0
   -0.7450   -3.8565    1.4892 H   0  0  0  0  0  0  0  0  0  0  0  0
   -2.1071   -2.8457   -0.8035 H   0  0  0  0  0  0  0  0  0  0  0  0
   -2.2993   -2.0972    0.8351 H   0  0  0  0  0  0  0  0  0  0  0  0
    2.2870    2.3197   -1.3007 H   0  0  0  0  0  0  0  0  0  0  0  0
    4.5241    3.1496   -0.8121 H   0  0  0  0  0  0  0  0  0  0  0  0
  1  2  1  0
  2  3  2  0
  3  4  1  0
  4  5  2  0
  5  6  1  0
  6  7  2  0
  7  8  1  0
  8  9  1  0
  9 10  1  0
 10 11  2  0
 11 12  1  0
 12 13  2  0
 13 14  1  0
 13 15  1  0
 15 16  1  0
 15 17  2  0
  8 18  2  0
 18 19  1  0
 19 20  1  0
 20 21  1  0
 21 22  1  0
  5 23  1  0
 23 24  2  0
 24  2  1  0
 19  6  1  0
 17 10  1  0
 22 18  1  0
  1 25  1  0
  1 26  1  0
  1 27  1  0
  3 28  1  0
  4 29  1  0
  7 30  1  0
  9 31  1  0
  9 32  1  0
 11 33  1  0
 12 34  1  0
 17 35  1  0
 20 36  1  0
 20 37  1  0
 21 38  1  0
 21 39  1  0
 22 40  1  0
 22 41  1  0
 23 42  1  0
 24 43  1  0
M  CHG  1   8   1
M  END
$$$$
