
     RDKit          3D

 60 64  0  0  0  0  0  0  0  0999 V2000
   -1.5062   -4.1522   -1.0561 C   0  0  0  0  0  0  0  0  0  0  0  0
   -2.1093   -2.8544   -0.7552 N   0  0  0  0  0  0  0  0  0  0  0  0
   -3.4690   -2.8554   -0.4460 C   0  0  0  0  0  0  0  0  0  0  0  0
   -4.1141   -3.9097   -0.4165 O   0  0  0  0  0  0  0  0  0  0  0  0
   -4.1920   -1.5694   -0.1561 C   0  0  0  0  0  0  0  0  0  0  0  0
   -5.5401   -1.6376   -0.1406 C   0  0  0  0  0  0  0  0  0  0  0  0
   -6.4670   -0.5497    0.1922 C   0  0  0  0  0  0  0  0  0  0  0  0
   -6.8200   -0.3181    1.5249 C   0  0  0  0  0  0  0  0  0  0  0  0
   -7.7068    0.7115    1.8514 C   0  0  0  0  0  0  0  0  0  0  0  0
   -8.2501    1.5276    0.8505 C   0  0  0  0  0  0  0  0  0  0  0  0
   -9.2224    2.6241    1.2072 C   0  0  0  0  0  0  0  0  0  0  0  0
   -9.2596    3.6316    0.2885 F   0  0  0  0  0  0  0  0  0  0  0  0
   -8.9396    3.2190    2.3983 F   0  0  0  0  0  0  0  0  0  0  0  0
  -10.5000    2.1678    1.3141 F   0  0  0  0  0  0  0  0  0  0  0  0
   -7.8980    1.2827   -0.4852 C   0  0  0  0  0  0  0  0  0  0  0  0
   -7.0103    0.2532   -0.8128 C   0  0  0  0  0  0  0  0  0  0  0  0
   -3.3494   -0.1271    0.2270 S   0  0  0  0  0  0  0  0  0  0  0  0
   -1.7560   -0.4218   -0.4727 C   0  0  0  0  0  0  0  0  0  0  0  0
   -0.9219    0.7100   -0.5912 C   0  0  0  0  0  0  0  0  0  0  0  0
    0.3847    0.5977   -1.0554 C   0  0  0  0  0  0  0  0  0  0  0  0
    0.8759   -0.6605   -1.3789 C   0  0  0  0  0  0  0  0  0  0  0  0
    2.2582   -0.8338   -1.8746 C   0  0  0  0  0  0  0  0  0  0  0  0
    2.4003   -1.4113   -2.9506 O   0  0  0  0  0  0  0  0  0  0  0  0
    3.3208   -0.3371   -1.1191 N   0  0  0  0  0  0  0  0  0  0  0  0
    3.2580   -0.1855    0.3456 C   0  0  0  0  0  0  0  0  0  0  0  0
    4.3148    0.7951    0.8810 C   0  0  0  0  0  0  0  0  0  0  0  0
    5.6601    0.4059    0.4090 N   0  0  0  0  0  0  0  0  0  0  0  0
    6.6722    1.2286    0.9523 C   0  0  0  0  0  0  0  0  0  0  0  0
    8.0057    0.8301    0.8378 C   0  0  0  0  0  0  0  0  0  0  0  0
    9.0185    1.6145    1.3878 C   0  0  0  0  0  0  0  0  0  0  0  0
    8.6803    2.7865    2.0462 C   0  0  0  0  0  0  0  0  0  0  0  0
    7.3427    3.1174    2.1271 C   0  0  0  0  0  0  0  0  0  0  0  0
    6.3456    2.3657    1.6065 N   0  0  0  0  0  0  0  0  0  0  0  0
    5.7317    0.3572   -1.0708 C   0  0  0  0  0  0  0  0  0  0  0  0
    4.6691   -0.6037   -1.6323 C   0  0  0  0  0  0  0  0  0  0  0  0
    0.0458   -1.7844   -1.2974 C   0  0  0  0  0  0  0  0  0  0  0  0
   -1.2850   -1.6875   -0.8423 C   0  0  0  0  0  0  0  0  0  0  0  0
   -2.2022   -4.9854   -0.9228 H   0  0  0  0  0  0  0  0  0  0  0  0
   -0.6590   -4.3246   -0.3840 H   0  0  0  0  0  0  0  0  0  0  0  0
   -1.1772   -4.1658   -2.1004 H   0  0  0  0  0  0  0  0  0  0  0  0
   -6.0492   -2.5739   -0.3663 H   0  0  0  0  0  0  0  0  0  0  0  0
   -6.4070   -0.9376    2.3177 H   0  0  0  0  0  0  0  0  0  0  0  0
   -7.9712    0.8767    2.8948 H   0  0  0  0  0  0  0  0  0  0  0  0
   -8.3126    1.8985   -1.2789 H   0  0  0  0  0  0  0  0  0  0  0  0
   -6.7482    0.0860   -1.8542 H   0  0  0  0  0  0  0  0  0  0  0  0
   -1.2918    1.6962   -0.3110 H   0  0  0  0  0  0  0  0  0  0  0  0
    1.0090    1.4831   -1.1556 H   0  0  0  0  0  0  0  0  0  0  0  0
    3.4205   -1.1846    0.7706 H   0  0  0  0  0  0  0  0  0  0  0  0
    2.2695    0.1384    0.6710 H   0  0  0  0  0  0  0  0  0  0  0  0
    4.2727    0.7786    1.9773 H   0  0  0  0  0  0  0  0  0  0  0  0
    4.0632    1.8066    0.5365 H   0  0  0  0  0  0  0  0  0  0  0  0
    8.2585   -0.1053    0.3495 H   0  0  0  0  0  0  0  0  0  0  0  0
   10.0543    1.2979    1.3141 H   0  0  0  0  0  0  0  0  0  0  0  0
    9.4384    3.4172    2.4942 H   0  0  0  0  0  0  0  0  0  0  0  0
    7.0201    4.0206    2.6371 H   0  0  0  0  0  0  0  0  0  0  0  0
    5.5658    1.3603   -1.4823 H   0  0  0  0  0  0  0  0  0  0  0  0
    6.7122    0.0103   -1.4146 H   0  0  0  0  0  0  0  0  0  0  0  0
    4.6707   -0.5503   -2.7279 H   0  0  0  0  0  0  0  0  0  0  0  0
    4.9173   -1.6373   -1.3532 H   0  0  0  0  0  0  0  0  0  0  0  0
    0.4787   -2.7325   -1.6062 H   0  0  0  0  0  0  0  0  0  0  0  0
  1  2  1  0
  2  3  1  0
  3  4  2  0
  3  5  1  0
  5  6  2  3
  6  7  1  0
  7  8  2  0
  8  9  1  0
  9 10  2  0
 10 11  1  0
 11 12  1  0
 11 13  1  0
 11 14  1  0
 10 15  1  0
 15 16  2  0
  5 17  1  0
 17 18  1  0
 18 19  2  0
 19 20  1  0
 20 21  2  0
 21 22  1  0
 22 23  2  0
 22 24  1  0
 24 25  1  0
 25 26  1  0
 26 27  1  0
 27 28  1  0
 28 29  2  0
 29 30  1  0
 30 31  2  0
 31 32  1  0
 32 33  2  0
 27 34  1  0
 34 35  1  0
 21 36  1  0
 36 37  2  0
 37  2  1  0
 16  7  1  0
 37 18  1  0
 35 24  1  0
 33 28  1  0
  1 38  1  0
  1 39  1  0
  1 40  1  0
  6 41  1  0
  8 42  1  0
  9 43  1  0
 15 44  1  0
 16 45  1  0
 19 46  1  0
 20 47  1  0
 25 48  1  0
 25 49  1  0
 26 50  1  0
 26 51  1  0
 29 52  1  0
 30 53  1  0
 31 54  1  0
 32 55  1  0
 34 56  1  0
 34 57  1  0
 35 58  1  0
 35 59  1  0
 36 60  1  0
M  END
$$$$
