
     RDKit          3D

 56 58  0  0  0  0  0  0  0  0999 V2000
    3.1836    2.5050    3.0232 C   0  0  0  0  0  0  0  0  0  0  0  0
    3.3823    2.8856    1.6673 O   0  0  0  0  0  0  0  0  0  0  0  0
    3.5327    1.8703    0.7604 C   0  0  0  0  0  0  0  0  0  0  0  0
    3.4238    0.5076    1.0311 C   0  0  0  0  0  0  0  0  0  0  0  0
    3.5922   -0.4284    0.0044 C   0  0  0  0  0  0  0  0  0  0  0  0
    3.8719   -0.0181   -1.3067 C   0  0  0  0  0  0  0  0  0  0  0  0
    3.9984   -1.0347   -2.4139 C   0  0  0  0  0  0  0  0  0  0  0  0
    2.7049   -1.3812   -2.9442 N   0  0  0  0  0  0  0  0  0  0  0  0
    1.9788   -2.4393   -2.4473 C   0  0  0  0  0  0  0  0  0  0  0  0
    2.3884   -3.3132   -1.6972 O   0  0  0  0  0  0  0  0  0  0  0  0
    0.4939   -2.4242   -2.8832 C   0  0  0  0  0  0  0  0  0  0  0  0
    0.1415   -1.7633   -3.8494 O   0  0  0  0  0  0  0  0  0  0  0  0
   -0.3275   -3.1631   -2.0568 N   0  0  0  0  0  0  0  0  0  0  0  0
   -1.7700   -3.0079   -2.0932 C   0  0  0  0  0  0  0  0  0  0  0  0
   -2.3271   -1.9202   -1.1433 C   0  0  0  0  0  0  0  0  0  0  0  0
   -3.7481   -1.8032   -1.3624 O   0  0  0  0  0  0  0  0  0  0  0  0
   -4.0528   -0.4064   -1.3515 C   0  0  0  0  0  0  0  0  0  0  0  0
   -2.8203    0.2560   -1.9242 C   0  0  0  0  0  0  0  0  0  0  0  0
   -1.7452   -0.6009   -1.4272 N   0  0  0  0  0  0  0  0  0  0  0  0
   -0.5907    0.0136   -0.3833 S   0  0  0  0  0  6  0  0  0  0  0  0
   -0.0697    1.2267   -0.9743 O   0  0  0  0  0  0  0  0  0  0  0  0
    0.2822   -1.0762    0.0012 O   0  0  0  0  0  0  0  0  0  0  0  0
   -1.5158    0.4813    1.0652 C   0  0  0  0  0  0  0  0  0  0  0  0
   -2.0163    1.7817    1.1760 C   0  0  0  0  0  0  0  0  0  0  0  0
   -2.7332    2.1497    2.3144 C   0  0  0  0  0  0  0  0  0  0  0  0
   -2.9262    1.2380    3.3600 C   0  0  0  0  0  0  0  0  0  0  0  0
   -3.7308    1.6211    4.5676 C   0  0  0  0  0  0  0  0  0  0  0  0
   -2.3984   -0.0548    3.2478 C   0  0  0  0  0  0  0  0  0  0  0  0
   -1.6827   -0.4315    2.1092 C   0  0  0  0  0  0  0  0  0  0  0  0
    3.9719    1.3517   -1.5732 C   0  0  0  0  0  0  0  0  0  0  0  0
    3.8067    2.2844   -0.5447 C   0  0  0  0  0  0  0  0  0  0  0  0
    2.2316    1.9757    3.1500 H   0  0  0  0  0  0  0  0  0  0  0  0
    3.1391    3.4189    3.6247 H   0  0  0  0  0  0  0  0  0  0  0  0
    4.0220    1.9065    3.3961 H   0  0  0  0  0  0  0  0  0  0  0  0
    3.1904    0.1366    2.0213 H   0  0  0  0  0  0  0  0  0  0  0  0
    3.4762   -1.4873    0.2291 H   0  0  0  0  0  0  0  0  0  0  0  0
    4.5957   -0.6300   -3.2373 H   0  0  0  0  0  0  0  0  0  0  0  0
    4.5137   -1.9308   -2.0476 H   0  0  0  0  0  0  0  0  0  0  0  0
    2.1669   -0.6675   -3.4248 H   0  0  0  0  0  0  0  0  0  0  0  0
    0.1220   -3.5012   -1.2089 H   0  0  0  0  0  0  0  0  0  0  0  0
   -2.2085   -3.9767   -1.8279 H   0  0  0  0  0  0  0  0  0  0  0  0
   -2.0823   -2.7930   -3.1234 H   0  0  0  0  0  0  0  0  0  0  0  0
   -2.1789   -2.2231   -0.1027 H   0  0  0  0  0  0  0  0  0  0  0  0
   -4.2331   -0.1045   -0.3136 H   0  0  0  0  0  0  0  0  0  0  0  0
   -4.9550   -0.2093   -1.9383 H   0  0  0  0  0  0  0  0  0  0  0  0
   -2.8198    0.1991   -3.0184 H   0  0  0  0  0  0  0  0  0  0  0  0
   -2.7405    1.3061   -1.6404 H   0  0  0  0  0  0  0  0  0  0  0  0
   -1.8497    2.5112    0.3864 H   0  0  0  0  0  0  0  0  0  0  0  0
   -3.1352    3.1604    2.3864 H   0  0  0  0  0  0  0  0  0  0  0  0
   -3.7010    2.7019    4.7347 H   0  0  0  0  0  0  0  0  0  0  0  0
   -4.7733    1.3125    4.4341 H   0  0  0  0  0  0  0  0  0  0  0  0
   -3.3318    1.1426    5.4682 H   0  0  0  0  0  0  0  0  0  0  0  0
   -2.5365   -0.7753    4.0516 H   0  0  0  0  0  0  0  0  0  0  0  0
   -1.2579   -1.4303    2.0510 H   0  0  0  0  0  0  0  0  0  0  0  0
    4.1659    1.7054   -2.5810 H   0  0  0  0  0  0  0  0  0  0  0  0
    3.8814    3.3459   -0.7658 H   0  0  0  0  0  0  0  0  0  0  0  0
  1  2  1  0
  2  3  1  0
  3  4  2  0
  4  5  1  0
  5  6  2  0
  6  7  1  0
  7  8  1  0
  8  9  1  0
  9 10  2  0
  9 11  1  0
 11 12  2  0
 11 13  1  0
 13 14  1  0
 14 15  1  0
 15 16  1  0
 16 17  1  0
 17 18  1  0
 18 19  1  0
 19 20  1  0
 20 21  2  0
 20 22  2  0
 20 23  1  0
 23 24  2  0
 24 25  1  0
 25 26  2  0
 26 27  1  0
 26 28  1  0
 28 29  2  0
  6 30  1  0
 30 31  2  0
 31  3  1  0
 19 15  1  0
 29 23  1  0
  1 32  1  0
  1 33  1  0
  1 34  1  0
  4 35  1  0
  5 36  1  0
  7 37  1  0
  7 38  1  0
  8 39  1  0
 13 40  1  0
 14 41  1  0
 14 42  1  0
 15 43  1  0
 17 44  1  0
 17 45  1  0
 18 46  1  0
 18 47  1  0
 24 48  1  0
 25 49  1  0
 27 50  1  0
 27 51  1  0
 27 52  1  0
 28 53  1  0
 29 54  1  0
 30 55  1  0
 31 56  1  0
M  END
$$$$
