
     RDKit          3D

 57 59  0  0  0  0  0  0  0  0999 V2000
    9.0609   -1.8714   -2.7537 C   0  0  0  0  0  0  0  0  0  0  0  0
    8.5036   -1.1164   -1.6857 O   0  0  0  0  0  0  0  0  0  0  0  0
    7.5639   -1.7401   -0.9121 C   0  0  0  0  0  0  0  0  0  0  0  0
    7.0367   -0.9534    0.1139 C   0  0  0  0  0  0  0  0  0  0  0  0
    6.0680   -1.4658    0.9798 C   0  0  0  0  0  0  0  0  0  0  0  0
    5.6154   -2.7829    0.8363 C   0  0  0  0  0  0  0  0  0  0  0  0
    4.5535   -3.3275    1.7547 C   0  0  0  0  0  0  0  0  0  0  0  0
    3.2383   -3.0162    1.2607 N   0  0  0  0  0  0  0  0  0  0  0  0
    2.5310   -1.9188    1.6890 C   0  0  0  0  0  0  0  0  0  0  0  0
    2.8369   -1.1680    2.6047 O   0  0  0  0  0  0  0  0  0  0  0  0
    1.2343   -1.6717    0.8840 C   0  0  0  0  0  0  0  0  0  0  0  0
    0.8762   -2.4777    0.0370 O   0  0  0  0  0  0  0  0  0  0  0  0
    0.5781   -0.5158    1.2344 N   0  0  0  0  0  0  0  0  0  0  0  0
   -0.7639   -0.2229    0.7608 C   0  0  0  0  0  0  0  0  0  0  0  0
   -1.1558    1.2499    0.9830 C   0  0  0  0  0  0  0  0  0  0  0  0
   -1.0263    1.5542    2.3937 O   0  0  0  0  0  0  0  0  0  0  0  0
   -2.3474    1.7279    2.9114 C   0  0  0  0  0  0  0  0  0  0  0  0
   -3.1435    2.2507    1.7394 C   0  0  0  0  0  0  0  0  0  0  0  0
   -2.5720    1.4817    0.6254 N   0  0  0  0  0  0  0  0  0  0  0  0
   -2.7912    2.0859   -0.9350 S   0  0  0  0  0  6  0  0  0  0  0  0
   -2.3962    3.4781   -0.9270 O   0  0  0  0  0  0  0  0  0  0  0  0
   -2.2039    1.1454   -1.8628 O   0  0  0  0  0  0  0  0  0  0  0  0
   -4.5528    2.0012   -1.1269 C   0  0  0  0  0  0  0  0  0  0  0  0
   -5.3121    3.1724   -1.1780 C   0  0  0  0  0  0  0  0  0  0  0  0
   -6.7007    3.0904   -1.3271 C   0  0  0  0  0  0  0  0  0  0  0  0
   -7.3247    1.8443   -1.4296 C   0  0  0  0  0  0  0  0  0  0  0  0
   -8.6671    1.6278   -1.5743 O   0  0  0  0  0  0  0  0  0  0  0  0
   -9.4991    2.7767   -1.6752 C   0  0  0  0  0  0  0  0  0  0  0  0
   -6.5496    0.6800   -1.3854 C   0  0  0  0  0  0  0  0  0  0  0  0
   -5.1636    0.7511   -1.2388 C   0  0  0  0  0  0  0  0  0  0  0  0
    6.1386   -3.5664   -0.2009 C   0  0  0  0  0  0  0  0  0  0  0  0
    7.1095   -3.0497   -1.0673 C   0  0  0  0  0  0  0  0  0  0  0  0
    9.5992   -2.7481   -2.3784 H   0  0  0  0  0  0  0  0  0  0  0  0
    9.7839   -1.2341   -3.2720 H   0  0  0  0  0  0  0  0  0  0  0  0
    8.2915   -2.1590   -3.4779 H   0  0  0  0  0  0  0  0  0  0  0  0
    7.3802    0.0707    0.2381 H   0  0  0  0  0  0  0  0  0  0  0  0
    5.6644   -0.8286    1.7650 H   0  0  0  0  0  0  0  0  0  0  0  0
    4.6853   -2.9291    2.7672 H   0  0  0  0  0  0  0  0  0  0  0  0
    4.6306   -4.4182    1.8223 H   0  0  0  0  0  0  0  0  0  0  0  0
    2.8973   -3.4678    0.4171 H   0  0  0  0  0  0  0  0  0  0  0  0
    0.9096   -0.0527    2.0796 H   0  0  0  0  0  0  0  0  0  0  0  0
   -1.4369   -0.8833    1.3211 H   0  0  0  0  0  0  0  0  0  0  0  0
   -0.8361   -0.5006   -0.2955 H   0  0  0  0  0  0  0  0  0  0  0  0
   -0.4704    1.9218    0.4550 H   0  0  0  0  0  0  0  0  0  0  0  0
   -2.3331    2.4164    3.7602 H   0  0  0  0  0  0  0  0  0  0  0  0
   -2.7153    0.7524    3.2482 H   0  0  0  0  0  0  0  0  0  0  0  0
   -2.9583    3.3222    1.6118 H   0  0  0  0  0  0  0  0  0  0  0  0
   -4.2135    2.0708    1.8647 H   0  0  0  0  0  0  0  0  0  0  0  0
   -4.8368    4.1486   -1.1072 H   0  0  0  0  0  0  0  0  0  0  0  0
   -7.2652    4.0167   -1.3633 H   0  0  0  0  0  0  0  0  0  0  0  0
  -10.5297    2.4325   -1.8045 H   0  0  0  0  0  0  0  0  0  0  0  0
   -9.2365    3.3792   -2.5510 H   0  0  0  0  0  0  0  0  0  0  0  0
   -9.4598    3.3734   -0.7579 H   0  0  0  0  0  0  0  0  0  0  0  0
   -7.0330   -0.2908   -1.4727 H   0  0  0  0  0  0  0  0  0  0  0  0
   -4.5722   -0.1614   -1.2152 H   0  0  0  0  0  0  0  0  0  0  0  0
    5.7937   -4.5881   -0.3443 H   0  0  0  0  0  0  0  0  0  0  0  0
    7.4863   -3.6958   -1.8528 H   0  0  0  0  0  0  0  0  0  0  0  0
  1  2  1  0
  2  3  1  0
  3  4  2  0
  4  5  1  0
  5  6  2  0
  6  7  1  0
  7  8  1  0
  8  9  1  0
  9 10  2  0
  9 11  1  0
 11 12  2  0
 11 13  1  0
 13 14  1  0
 14 15  1  0
 15 16  1  0
 16 17  1  0
 17 18  1  0
 18 19  1  0
 19 20  1  0
 20 21  2  0
 20 22  2  0
 20 23  1  0
 23 24  2  0
 24 25  1  0
 25 26  2  0
 26 27  1  0
 27 28  1  0
 26 29  1  0
 29 30  2  0
  6 31  1  0
 31 32  2  0
 32  3  1  0
 19 15  1  0
 30 23  1  0
  1 33  1  0
  1 34  1  0
  1 35  1  0
  4 36  1  0
  5 37  1  0
  7 38  1  0
  7 39  1  0
  8 40  1  0
 13 41  1  0
 14 42  1  0
 14 43  1  0
 15 44  1  0
 17 45  1  0
 17 46  1  0
 18 47  1  0
 18 48  1  0
 24 49  1  0
 25 50  1  0
 28 51  1  0
 28 52  1  0
 28 53  1  0
 29 54  1  0
 30 55  1  0
 31 56  1  0
 32 57  1  0
M  END
$$$$
