
     RDKit          3D

 52 54  0  0  0  0  0  0  0  0999 V2000
    5.3098   -2.0900   -5.1797 C   0  0  0  0  0  0  0  0  0  0  0  0
    5.1040   -1.6610   -3.7573 C   0  0  0  0  0  0  0  0  0  0  0  0
    4.3145   -0.5448   -3.4601 C   0  0  0  0  0  0  0  0  0  0  0  0
    4.1487   -0.1269   -2.1377 C   0  0  0  0  0  0  0  0  0  0  0  0
    4.7842   -0.8067   -1.0900 C   0  0  0  0  0  0  0  0  0  0  0  0
    4.5841   -0.3644    0.3357 C   0  0  0  0  0  0  0  0  0  0  0  0
    3.3979   -0.9566    0.8962 N   0  0  0  0  0  0  0  0  0  0  0  0
    2.1877   -0.3033    0.9099 C   0  0  0  0  0  0  0  0  0  0  0  0
    1.9927    0.8615    0.5972 O   0  0  0  0  0  0  0  0  0  0  0  0
    1.0155   -1.2037    1.3660 C   0  0  0  0  0  0  0  0  0  0  0  0
    1.2120   -2.3910    1.5913 O   0  0  0  0  0  0  0  0  0  0  0  0
   -0.1907   -0.5521    1.4901 N   0  0  0  0  0  0  0  0  0  0  0  0
   -1.3400   -1.2080    2.0844 C   0  0  0  0  0  0  0  0  0  0  0  0
   -2.6881   -0.5316    1.7624 C   0  0  0  0  0  0  0  0  0  0  0  0
   -3.7633   -1.4554    2.0373 O   0  0  0  0  0  0  0  0  0  0  0  0
   -4.3562   -1.0469    3.2751 C   0  0  0  0  0  0  0  0  0  0  0  0
   -4.2329    0.4593    3.2558 C   0  0  0  0  0  0  0  0  0  0  0  0
   -2.9265    0.6380    2.6244 N   0  0  0  0  0  0  0  0  0  0  0  0
   -2.4480    2.1553    2.1153 S   0  0  0  0  0  6  0  0  0  0  0  0
   -1.0880    2.0409    1.6329 O   0  0  0  0  0  0  0  0  0  0  0  0
   -2.7926    3.0975    3.1585 O   0  0  0  0  0  0  0  0  0  0  0  0
   -3.4859    2.5110    0.7124 C   0  0  0  0  0  0  0  0  0  0  0  0
   -4.7176    3.1461    0.9061 C   0  0  0  0  0  0  0  0  0  0  0  0
   -5.5140    3.4588   -0.1976 C   0  0  0  0  0  0  0  0  0  0  0  0
   -5.0661    3.1545   -1.4837 C   0  0  0  0  0  0  0  0  0  0  0  0
   -6.1449    3.5825   -2.9758 Br  0  0  0  0  0  0  0  0  0  0  0  0
   -3.8247    2.5484   -1.6800 C   0  0  0  0  0  0  0  0  0  0  0  0
   -3.0252    2.2330   -0.5796 C   0  0  0  0  0  0  0  0  0  0  0  0
    5.5773   -1.9217   -1.3899 C   0  0  0  0  0  0  0  0  0  0  0  0
    5.7426   -2.3391   -2.7130 C   0  0  0  0  0  0  0  0  0  0  0  0
    5.4468   -3.1746   -5.2436 H   0  0  0  0  0  0  0  0  0  0  0  0
    4.4404   -1.8360   -5.7952 H   0  0  0  0  0  0  0  0  0  0  0  0
    6.1938   -1.5960   -5.5950 H   0  0  0  0  0  0  0  0  0  0  0  0
    3.8192    0.0068   -4.2561 H   0  0  0  0  0  0  0  0  0  0  0  0
    3.5186    0.7359   -1.9255 H   0  0  0  0  0  0  0  0  0  0  0  0
    4.5289    0.7287    0.3904 H   0  0  0  0  0  0  0  0  0  0  0  0
    5.4318   -0.6779    0.9545 H   0  0  0  0  0  0  0  0  0  0  0  0
    3.3649   -1.9596    1.0521 H   0  0  0  0  0  0  0  0  0  0  0  0
   -0.1480    0.4741    1.4703 H   0  0  0  0  0  0  0  0  0  0  0  0
   -1.1731   -1.2483    3.1676 H   0  0  0  0  0  0  0  0  0  0  0  0
   -1.3604   -2.2480    1.7364 H   0  0  0  0  0  0  0  0  0  0  0  0
   -2.7526   -0.2895    0.6988 H   0  0  0  0  0  0  0  0  0  0  0  0
   -3.7860   -1.4933    4.0975 H   0  0  0  0  0  0  0  0  0  0  0  0
   -5.3925   -1.3905    3.3288 H   0  0  0  0  0  0  0  0  0  0  0  0
   -5.0260    0.8861    2.6360 H   0  0  0  0  0  0  0  0  0  0  0  0
   -4.2747    0.8836    4.2613 H   0  0  0  0  0  0  0  0  0  0  0  0
   -5.0584    3.4083    1.9054 H   0  0  0  0  0  0  0  0  0  0  0  0
   -6.4731    3.9488   -0.0469 H   0  0  0  0  0  0  0  0  0  0  0  0
   -3.4671    2.3293   -2.6832 H   0  0  0  0  0  0  0  0  0  0  0  0
   -2.0471    1.7832   -0.7412 H   0  0  0  0  0  0  0  0  0  0  0  0
    6.0761   -2.4719   -0.5956 H   0  0  0  0  0  0  0  0  0  0  0  0
    6.3722   -3.2007   -2.9235 H   0  0  0  0  0  0  0  0  0  0  0  0
  1  2  1  0
  2  3  2  0
  3  4  1  0
  4  5  2  0
  5  6  1  0
  6  7  1  0
  7  8  1  0
  8  9  2  0
  8 10  1  0
 10 11  2  0
 10 12  1  0
 12 13  1  0
 13 14  1  0
 14 15  1  0
 15 16  1  0
 16 17  1  0
 17 18  1  0
 18 19  1  0
 19 20  2  0
 19 21  2  0
 19 22  1  0
 22 23  2  0
 23 24  1  0
 24 25  2  0
 25 26  1  0
 25 27  1  0
 27 28  2  0
  5 29  1  0
 29 30  2  0
 30  2  1  0
 18 14  1  0
 28 22  1  0
  1 31  1  0
  1 32  1  0
  1 33  1  0
  3 34  1  0
  4 35  1  0
  6 36  1  0
  6 37  1  0
  7 38  1  0
 12 39  1  0
 13 40  1  0
 13 41  1  0
 14 42  1  0
 16 43  1  0
 16 44  1  0
 17 45  1  0
 17 46  1  0
 23 47  1  0
 24 48  1  0
 27 49  1  0
 28 50  1  0
 29 51  1  0
 30 52  1  0
M  END
$$$$
