
     RDKit          3D

 33 34  0  0  0  0  0  0  0  0999 V2000
   -2.7583    2.7425   -0.0133 C   0  0  0  0  0  0  0  0  0  0  0  0
   -1.8839    1.8229   -0.8511 C   0  0  0  0  0  0  0  0  0  0  0  0
   -1.2558    0.7609   -0.0475 N   0  0  0  0  0  0  0  0  0  0  0  0
   -2.1545   -0.2464    0.5560 C   0  0  0  0  0  0  0  0  0  0  0  0
   -2.4759    0.0820    2.0084 C   0  0  0  0  0  0  0  0  0  0  0  0
   -0.0642    0.1681   -0.5777 C   0  0  0  0  0  0  0  0  0  0  0  0
    0.1526    0.1475   -1.9725 C   0  0  0  0  0  0  0  0  0  0  0  0
    1.2966   -0.4173   -2.5163 C   0  0  0  0  0  0  0  0  0  0  0  0
    2.2419   -0.9701   -1.6553 C   0  0  0  0  0  0  0  0  0  0  0  0
    3.4237   -1.5406   -2.2749 N   0  0  0  0  0  4  0  0  0  0  0  0
    3.2480   -2.4939   -3.0453 O   0  0  0  0  0  0  0  0  0  0  0  0
    4.5150   -1.0210   -2.0074 O   0  0  0  0  0  1  0  0  0  0  0  0
    2.0789   -0.9967   -0.2501 C   0  0  0  0  0  0  0  0  0  0  0  0
    3.0097   -1.5754    0.6510 C   0  0  0  0  0  0  0  0  0  0  0  0
    2.7843   -1.5599    2.0188 C   0  0  0  0  0  0  0  0  0  0  0  0
    1.6270   -0.9695    2.4605 C   0  0  0  0  0  0  0  0  0  0  0  0
    0.7126   -0.4199    1.6365 N   0  0  0  0  0  0  0  0  0  0  0  0
    0.9062   -0.4183    0.2962 C   0  0  0  0  0  0  0  0  0  0  0  0
   -2.2208    3.1095    0.8670 H   0  0  0  0  0  0  0  0  0  0  0  0
   -3.0713    3.6072   -0.6076 H   0  0  0  0  0  0  0  0  0  0  0  0
   -3.6670    2.2333    0.3205 H   0  0  0  0  0  0  0  0  0  0  0  0
   -1.1088    2.4558   -1.3022 H   0  0  0  0  0  0  0  0  0  0  0  0
   -2.4832    1.3929   -1.6629 H   0  0  0  0  0  0  0  0  0  0  0  0
   -3.0898   -0.2991   -0.0156 H   0  0  0  0  0  0  0  0  0  0  0  0
   -1.7306   -1.2584    0.5143 H   0  0  0  0  0  0  0  0  0  0  0  0
   -3.0335    1.0163    2.1047 H   0  0  0  0  0  0  0  0  0  0  0  0
   -3.0907   -0.7131    2.4426 H   0  0  0  0  0  0  0  0  0  0  0  0
   -1.5732    0.1792    2.6164 H   0  0  0  0  0  0  0  0  0  0  0  0
   -0.5836    0.5556   -2.6590 H   0  0  0  0  0  0  0  0  0  0  0  0
    1.4397   -0.4248   -3.5945 H   0  0  0  0  0  0  0  0  0  0  0  0
    3.9282   -2.0411    0.2983 H   0  0  0  0  0  0  0  0  0  0  0  0
    3.4940   -1.9923    2.7144 H   0  0  0  0  0  0  0  0  0  0  0  0
    1.3866   -0.9162    3.5182 H   0  0  0  0  0  0  0  0  0  0  0  0
  1  2  1  0
  2  3  1  0
  3  4  1  0
  4  5  1  0
  3  6  1  0
  6  7  2  0
  7  8  1  0
  8  9  2  0
  9 10  1  0
 10 11  2  0
 10 12  1  0
  9 13  1  0
 13 14  2  0
 14 15  1  0
 15 16  2  0
 16 17  1  0
 17 18  2  0
 18  6  1  0
 18 13  1  0
  1 19  1  0
  1 20  1  0
  1 21  1  0
  2 22  1  0
  2 23  1  0
  4 24  1  0
  4 25  1  0
  5 26  1  0
  5 27  1  0
  5 28  1  0
  7 29  1  0
  8 30  1  0
 14 31  1  0
 15 32  1  0
 16 33  1  0
M  CHG  2  10   1  12  -1
M  END
$$$$
