
     RDKit          3D

 57 59  0  0  0  0  0  0  0  0999 V2000
    8.5031   -1.3891   -2.9040 C   0  0  0  0  0  0  0  0  0  0  0  0
    8.0116   -2.6697   -2.5253 O   0  0  0  0  0  0  0  0  0  0  0  0
    7.1635   -2.7111   -1.4525 C   0  0  0  0  0  0  0  0  0  0  0  0
    6.6814   -3.9844   -1.1401 C   0  0  0  0  0  0  0  0  0  0  0  0
    5.8072   -4.1733   -0.0672 C   0  0  0  0  0  0  0  0  0  0  0  0
    5.4080   -3.0854    0.7187 C   0  0  0  0  0  0  0  0  0  0  0  0
    4.4499   -3.2742    1.8648 C   0  0  0  0  0  0  0  0  0  0  0  0
    3.1117   -2.9164    1.4723 N   0  0  0  0  0  0  0  0  0  0  0  0
    2.5346   -1.7206    1.8230 C   0  0  0  0  0  0  0  0  0  0  0  0
    2.9881   -0.8949    2.6038 O   0  0  0  0  0  0  0  0  0  0  0  0
    1.1849   -1.4591    1.1163 C   0  0  0  0  0  0  0  0  0  0  0  0
    0.7421   -2.2724    0.3182 O   0  0  0  0  0  0  0  0  0  0  0  0
    0.5842   -0.2786    1.4889 N   0  0  0  0  0  0  0  0  0  0  0  0
   -0.7728    0.0413    1.0824 C   0  0  0  0  0  0  0  0  0  0  0  0
   -1.1600    1.4934    1.4014 C   0  0  0  0  0  0  0  0  0  0  0  0
   -1.1239    1.6796    2.8321 O   0  0  0  0  0  0  0  0  0  0  0  0
   -2.1062    2.6834    3.1004 C   0  0  0  0  0  0  0  0  0  0  0  0
   -3.2411    2.3209    2.1694 C   0  0  0  0  0  0  0  0  0  0  0  0
   -2.5530    1.7702    0.9843 N   0  0  0  0  0  0  0  0  0  0  0  0
   -2.6531    2.6528   -0.4528 S   0  0  0  0  0  6  0  0  0  0  0  0
   -2.3969    4.0399   -0.1250 O   0  0  0  0  0  0  0  0  0  0  0  0
   -1.8717    1.9605   -1.4544 O   0  0  0  0  0  0  0  0  0  0  0  0
   -4.3623    2.4730   -0.8873 C   0  0  0  0  0  0  0  0  0  0  0  0
   -5.2362    3.5538   -0.7714 C   0  0  0  0  0  0  0  0  0  0  0  0
   -6.5773    3.3858   -1.1224 C   0  0  0  0  0  0  0  0  0  0  0  0
   -7.0427    2.1565   -1.6048 C   0  0  0  0  0  0  0  0  0  0  0  0
   -8.3757    2.1329   -1.9104 O   0  0  0  0  0  0  0  0  0  0  0  0
   -8.8655    0.9648   -2.5589 C   0  0  0  0  0  0  0  0  0  0  0  0
   -6.1557    1.0840   -1.7260 C   0  0  0  0  0  0  0  0  0  0  0  0
   -4.8129    1.2402   -1.3678 C   0  0  0  0  0  0  0  0  0  0  0  0
    5.8879   -1.8076    0.3976 C   0  0  0  0  0  0  0  0  0  0  0  0
    6.7608   -1.6212   -0.6800 C   0  0  0  0  0  0  0  0  0  0  0  0
    9.1623   -1.5271   -3.7666 H   0  0  0  0  0  0  0  0  0  0  0  0
    7.6854   -0.7277   -3.2118 H   0  0  0  0  0  0  0  0  0  0  0  0
    9.0966   -0.9384   -2.1005 H   0  0  0  0  0  0  0  0  0  0  0  0
    6.9870   -4.8373   -1.7423 H   0  0  0  0  0  0  0  0  0  0  0  0
    5.4435   -5.1754    0.1468 H   0  0  0  0  0  0  0  0  0  0  0  0
    4.4274   -4.3238    2.1779 H   0  0  0  0  0  0  0  0  0  0  0  0
    4.7734   -2.6826    2.7289 H   0  0  0  0  0  0  0  0  0  0  0  0
    2.6498   -3.4400    0.7331 H   0  0  0  0  0  0  0  0  0  0  0  0
    0.9750    0.1801    2.3102 H   0  0  0  0  0  0  0  0  0  0  0  0
   -0.8757   -0.1714    0.0127 H   0  0  0  0  0  0  0  0  0  0  0  0
   -1.4303   -0.6527    1.6200 H   0  0  0  0  0  0  0  0  0  0  0  0
   -0.4418    2.1982    0.9657 H   0  0  0  0  0  0  0  0  0  0  0  0
   -2.3942    2.6573    4.1548 H   0  0  0  0  0  0  0  0  0  0  0  0
   -1.6800    3.6659    2.8651 H   0  0  0  0  0  0  0  0  0  0  0  0
   -3.8519    1.5177    2.5955 H   0  0  0  0  0  0  0  0  0  0  0  0
   -3.8941    3.1724    1.9671 H   0  0  0  0  0  0  0  0  0  0  0  0
   -4.8913    4.5209   -0.4135 H   0  0  0  0  0  0  0  0  0  0  0  0
   -7.2686    4.2209   -1.0258 H   0  0  0  0  0  0  0  0  0  0  0  0
   -9.9249    1.1268   -2.7820 H   0  0  0  0  0  0  0  0  0  0  0  0
   -8.3464    0.7929   -3.5088 H   0  0  0  0  0  0  0  0  0  0  0  0
   -8.7942    0.0898   -1.9038 H   0  0  0  0  0  0  0  0  0  0  0  0
   -6.4767    0.1143   -2.0937 H   0  0  0  0  0  0  0  0  0  0  0  0
   -4.1260    0.4020   -1.4666 H   0  0  0  0  0  0  0  0  0  0  0  0
    5.5797   -0.9447    0.9878 H   0  0  0  0  0  0  0  0  0  0  0  0
    7.1041   -0.6130   -0.8874 H   0  0  0  0  0  0  0  0  0  0  0  0
  1  2  1  0
  2  3  1  0
  3  4  2  0
  4  5  1  0
  5  6  2  0
  6  7  1  0
  7  8  1  0
  8  9  1  0
  9 10  2  0
  9 11  1  0
 11 12  2  0
 11 13  1  0
 13 14  1  0
 14 15  1  0
 15 16  1  0
 16 17  1  0
 17 18  1  0
 18 19  1  0
 19 20  1  0
 20 21  2  0
 20 22  2  0
 20 23  1  0
 23 24  2  0
 24 25  1  0
 25 26  2  0
 26 27  1  0
 27 28  1  0
 26 29  1  0
 29 30  2  0
  6 31  1  0
 31 32  2  0
 32  3  1  0
 19 15  1  0
 30 23  1  0
  1 33  1  0
  1 34  1  0
  1 35  1  0
  4 36  1  0
  5 37  1  0
  7 38  1  0
  7 39  1  0
  8 40  1  0
 13 41  1  0
 14 42  1  0
 14 43  1  0
 15 44  1  0
 17 45  1  0
 17 46  1  0
 18 47  1  0
 18 48  1  0
 24 49  1  0
 25 50  1  0
 28 51  1  0
 28 52  1  0
 28 53  1  0
 29 54  1  0
 30 55  1  0
 31 56  1  0
 32 57  1  0
M  END
$$$$
