
     RDKit          3D

 56 60  0  0  0  0  0  0  0  0999 V2000
   -5.9427    0.9482    0.6912 C   0  0  0  0  0  0  0  0  0  0  0  0
   -4.4805    0.6070    0.6975 C   0  0  0  0  0  0  0  0  0  0  0  0
   -3.5894    1.5316    1.2685 C   0  0  0  0  0  0  0  0  0  0  0  0
   -2.2149    1.2780    1.3252 C   0  0  0  0  0  0  0  0  0  0  0  0
   -1.6712    0.0887    0.8174 C   0  0  0  0  0  0  0  0  0  0  0  0
   -0.2160   -0.1485    0.8745 C   0  0  0  0  0  0  0  0  0  0  0  0
    0.5116    0.8650    0.3476 N   0  0  0  0  0  0  0  0  0  0  0  0
    1.8775    0.7951    0.3056 N   0  0  0  0  0  0  0  0  0  0  0  0
    2.5321   -0.2855    0.7778 C   0  0  0  0  0  0  0  0  0  0  0  0
    3.9480   -0.3517    0.7000 N   0  0  0  0  0  0  0  0  0  0  0  0
    4.8838    0.6934    0.5269 C   0  0  0  0  0  0  0  0  0  0  0  0
    6.2150    0.3450    0.1853 C   0  0  0  0  0  0  0  0  0  0  0  0
    7.2324    1.3045    0.1097 C   0  0  0  0  0  0  0  0  0  0  0  0
    6.9000    2.6051    0.4027 C   0  0  0  0  0  0  0  0  0  0  0  0
    5.6196    2.9610    0.7503 C   0  0  0  0  0  0  0  0  0  0  0  0
    4.5995    2.0325    0.8322 C   0  0  0  0  0  0  0  0  0  0  0  0
    5.5057    4.2891    1.0187 O   0  0  0  0  0  0  0  0  0  0  0  0
    6.8721    4.7208    0.8382 C   0  0  0  0  0  0  0  0  0  0  0  0
    7.7528    3.6578    0.4177 O   0  0  0  0  0  0  0  0  0  0  0  0
    1.8188   -1.3652    1.3528 C   0  0  0  0  0  0  0  0  0  0  0  0
    2.4615   -2.5100    1.8952 C   0  0  0  0  0  0  0  0  0  0  0  0
    1.7441   -3.5570    2.4716 C   0  0  0  0  0  0  0  0  0  0  0  0
    0.3636   -3.4787    2.5442 C   0  0  0  0  0  0  0  0  0  0  0  0
   -0.2959   -2.3592    2.0337 C   0  0  0  0  0  0  0  0  0  0  0  0
    0.4048   -1.2926    1.4142 C   0  0  0  0  0  0  0  0  0  0  0  0
   -2.5570   -0.8252    0.2267 C   0  0  0  0  0  0  0  0  0  0  0  0
   -3.9448   -0.5785    0.1684 C   0  0  0  0  0  0  0  0  0  0  0  0
   -4.9298   -1.8721   -0.5690 S   0  0  0  0  0  6  0  0  0  0  0  0
   -6.3104   -1.4692   -0.6558 O   0  0  0  0  0  0  0  0  0  0  0  0
   -4.5379   -3.1126    0.0600 O   0  0  0  0  0  0  0  0  0  0  0  0
   -4.3457   -1.9355   -2.1337 N   0  0  0  0  0  0  0  0  0  0  0  0
   -4.4367   -0.7497   -2.9862 C   0  0  0  0  0  0  0  0  0  0  0  0
   -4.5124   -1.1700   -4.4593 C   0  0  0  0  0  0  0  0  0  0  0  0
   -4.6006   -0.0328   -5.3066 O   0  0  0  0  0  0  0  0  0  0  0  0
   -6.3086    1.0498   -0.3369 H   0  0  0  0  0  0  0  0  0  0  0  0
   -6.1329    1.9060    1.1941 H   0  0  0  0  0  0  0  0  0  0  0  0
   -6.5168    0.1900    1.2349 H   0  0  0  0  0  0  0  0  0  0  0  0
   -3.9576    2.4708    1.6834 H   0  0  0  0  0  0  0  0  0  0  0  0
   -1.5592    2.0265    1.7747 H   0  0  0  0  0  0  0  0  0  0  0  0
    4.2144   -1.1916    0.2020 H   0  0  0  0  0  0  0  0  0  0  0  0
    6.4723   -0.6922   -0.0114 H   0  0  0  0  0  0  0  0  0  0  0  0
    8.2489    1.0309   -0.1499 H   0  0  0  0  0  0  0  0  0  0  0  0
    3.6138    2.3553    1.1451 H   0  0  0  0  0  0  0  0  0  0  0  0
    7.2398    5.1271    1.7947 H   0  0  0  0  0  0  0  0  0  0  0  0
    6.8986    5.5216    0.0824 H   0  0  0  0  0  0  0  0  0  0  0  0
    3.5473   -2.5890    1.8920 H   0  0  0  0  0  0  0  0  0  0  0  0
    2.2666   -4.4240    2.8757 H   0  0  0  0  0  0  0  0  0  0  0  0
   -0.2042   -4.2813    3.0066 H   0  0  0  0  0  0  0  0  0  0  0  0
   -1.3787   -2.3286    2.1423 H   0  0  0  0  0  0  0  0  0  0  0  0
   -2.1630   -1.7491   -0.1952 H   0  0  0  0  0  0  0  0  0  0  0  0
   -3.5863   -2.5969   -2.2769 H   0  0  0  0  0  0  0  0  0  0  0  0
   -3.5568   -0.1143   -2.8283 H   0  0  0  0  0  0  0  0  0  0  0  0
   -5.3192   -0.1484   -2.7436 H   0  0  0  0  0  0  0  0  0  0  0  0
   -5.3789   -1.8179   -4.6428 H   0  0  0  0  0  0  0  0  0  0  0  0
   -3.6163   -1.7298   -4.7412 H   0  0  0  0  0  0  0  0  0  0  0  0
   -5.4802    0.3559   -5.1841 H   0  0  0  0  0  0  0  0  0  0  0  0
  1  2  1  0
  2  3  2  0
  3  4  1  0
  4  5  2  0
  5  6  1  0
  6  7  2  0
  7  8  1  0
  8  9  2  0
  9 10  1  0
 10 11  1  0
 11 12  2  0
 12 13  1  0
 13 14  2  0
 14 15  1  0
 15 16  2  0
 15 17  1  0
 17 18  1  0
 18 19  1  0
  9 20  1  0
 20 21  2  0
 21 22  1  0
 22 23  2  0
 23 24  1  0
 24 25  2  0
  5 26  1  0
 26 27  2  0
 27 28  1  0
 28 29  2  0
 28 30  2  0
 28 31  1  0
 31 32  1  0
 32 33  1  0
 33 34  1  0
 27  2  1  0
 25  6  1  0
 16 11  1  0
 25 20  1  0
 19 14  1  0
  1 35  1  0
  1 36  1  0
  1 37  1  0
  3 38  1  0
  4 39  1  0
 10 40  1  0
 12 41  1  0
 13 42  1  0
 16 43  1  0
 18 44  1  0
 18 45  1  0
 21 46  1  0
 22 47  1  0
 23 48  1  0
 24 49  1  0
 26 50  1  0
 31 51  1  0
 32 52  1  0
 32 53  1  0
 33 54  1  0
 33 55  1  0
 34 56  1  0
M  END
$$$$
