
     RDKit          3D

 61 65  0  0  0  0  0  0  0  0999 V2000
   -7.7526    2.7942   -3.9810 C   0  0  0  0  0  0  0  0  0  0  0  0
   -6.8980    1.8965   -3.1366 C   0  0  0  0  0  0  0  0  0  0  0  0
   -7.4654    0.8460   -2.4131 C   0  0  0  0  0  0  0  0  0  0  0  0
   -6.6669    0.0325   -1.6010 C   0  0  0  0  0  0  0  0  0  0  0  0
   -5.2821    0.2469   -1.4703 C   0  0  0  0  0  0  0  0  0  0  0  0
   -4.4639   -0.6207   -0.5931 C   0  0  0  0  0  0  0  0  0  0  0  0
   -3.2841   -0.2056   -0.0015 C   0  0  0  0  0  0  0  0  0  0  0  0
   -2.5832   -1.1072    0.8017 C   0  0  0  0  0  0  0  0  0  0  0  0
   -1.2841   -0.6273    1.3299 C   0  0  0  0  0  0  0  0  0  0  0  0
   -1.2730    0.4134    1.9730 O   0  0  0  0  0  0  0  0  0  0  0  0
   -0.2051   -1.4084    0.9576 N   0  0  0  0  0  0  0  0  0  0  0  0
    1.1538   -1.1929    1.2635 C   0  0  0  0  0  0  0  0  0  0  0  0
    2.0719   -2.1376    0.7815 C   0  0  0  0  0  0  0  0  0  0  0  0
    3.4397   -1.9974    1.0324 C   0  0  0  0  0  0  0  0  0  0  0  0
    3.8958   -0.8965    1.7598 C   0  0  0  0  0  0  0  0  0  0  0  0
    5.6299   -0.7255    2.0945 S   0  0  0  0  0  6  0  0  0  0  0  0
    6.1857   -2.0627    2.1705 O   0  0  0  0  0  0  0  0  0  0  0  0
    5.8190    0.2119    3.1797 O   0  0  0  0  0  0  0  0  0  0  0  0
    6.2082   -0.0812    0.6566 N   0  0  0  0  0  0  0  0  0  0  0  0
    6.1969    1.3624    0.5422 C   0  0  0  0  0  0  0  0  0  0  0  0
    5.2468    2.1846    1.0617 O   0  0  0  0  0  0  0  0  0  0  0  0
    5.5261    3.4932    0.7246 N   0  0  0  0  0  0  0  0  0  0  0  0
    6.6483    3.4477   -0.0017 C   0  0  0  0  0  0  0  0  0  0  0  0
    7.2385    4.7008   -0.5288 C   0  0  0  0  0  0  0  0  0  0  0  0
    7.1163    2.1119   -0.1598 C   0  0  0  0  0  0  0  0  0  0  0  0
    8.3099    1.6432   -0.8977 C   0  0  0  0  0  0  0  0  0  0  0  0
    2.9926    0.0416    2.2608 C   0  0  0  0  0  0  0  0  0  0  0  0
    1.6242   -0.1080    2.0083 C   0  0  0  0  0  0  0  0  0  0  0  0
   -3.0846   -2.3997    1.0622 C   0  0  0  0  0  0  0  0  0  0  0  0
   -2.4860   -3.3516    1.9283 C   0  0  0  0  0  0  0  0  0  0  0  0
   -3.0497   -4.6128    2.1088 C   0  0  0  0  0  0  0  0  0  0  0  0
   -4.2192   -4.9389    1.4383 C   0  0  0  0  0  0  0  0  0  0  0  0
   -4.8242   -3.9958    0.6048 C   0  0  0  0  0  0  0  0  0  0  0  0
   -4.2857   -2.7306    0.4114 C   0  0  0  0  0  0  0  0  0  0  0  0
   -4.9409   -1.8758   -0.3922 N   0  0  0  0  0  0  0  0  0  0  0  0
   -4.7311    1.3124   -2.2055 C   0  0  0  0  0  0  0  0  0  0  0  0
   -5.5261    2.1297   -3.0193 C   0  0  0  0  0  0  0  0  0  0  0  0
   -8.6359    2.2626   -4.3469 H   0  0  0  0  0  0  0  0  0  0  0  0
   -8.0776    3.6610   -3.3972 H   0  0  0  0  0  0  0  0  0  0  0  0
   -7.2002    3.1457   -4.8594 H   0  0  0  0  0  0  0  0  0  0  0  0
   -8.5329    0.6482   -2.4734 H   0  0  0  0  0  0  0  0  0  0  0  0
   -7.1419   -0.7806   -1.0538 H   0  0  0  0  0  0  0  0  0  0  0  0
   -2.8997    0.7996   -0.1427 H   0  0  0  0  0  0  0  0  0  0  0  0
   -0.4056   -2.2141    0.3756 H   0  0  0  0  0  0  0  0  0  0  0  0
    1.7352   -2.9988    0.2092 H   0  0  0  0  0  0  0  0  0  0  0  0
    4.1358   -2.7462    0.6613 H   0  0  0  0  0  0  0  0  0  0  0  0
    6.9915   -0.6034    0.2734 H   0  0  0  0  0  0  0  0  0  0  0  0
    6.6121    5.5699   -0.3008 H   0  0  0  0  0  0  0  0  0  0  0  0
    7.3503    4.6432   -1.6165 H   0  0  0  0  0  0  0  0  0  0  0  0
    8.2257    4.8704   -0.0889 H   0  0  0  0  0  0  0  0  0  0  0  0
    9.0065    1.1413   -0.2187 H   0  0  0  0  0  0  0  0  0  0  0  0
    8.0232    0.9355   -1.6819 H   0  0  0  0  0  0  0  0  0  0  0  0
    8.8436    2.4715   -1.3735 H   0  0  0  0  0  0  0  0  0  0  0  0
    3.3373    0.8948    2.8423 H   0  0  0  0  0  0  0  0  0  0  0  0
    0.9517    0.6466    2.4066 H   0  0  0  0  0  0  0  0  0  0  0  0
   -1.5857   -3.1082    2.4902 H   0  0  0  0  0  0  0  0  0  0  0  0
   -2.5822   -5.3313    2.7773 H   0  0  0  0  0  0  0  0  0  0  0  0
   -4.6738   -5.9177    1.5690 H   0  0  0  0  0  0  0  0  0  0  0  0
   -5.7502   -4.2541    0.0946 H   0  0  0  0  0  0  0  0  0  0  0  0
   -3.6647    1.5229   -2.1690 H   0  0  0  0  0  0  0  0  0  0  0  0
   -5.0604    2.9490   -3.5641 H   0  0  0  0  0  0  0  0  0  0  0  0
  1  2  1  0
  2  3  2  0
  3  4  1  0
  4  5  2  0
  5  6  1  0
  6  7  2  0
  7  8  1  0
  8  9  1  0
  9 10  2  0
  9 11  1  0
 11 12  1  0
 12 13  2  0
 13 14  1  0
 14 15  2  0
 15 16  1  0
 16 17  2  0
 16 18  2  0
 16 19  1  0
 19 20  1  0
 20 21  1  0
 21 22  1  0
 22 23  2  0
 23 24  1  0
 23 25  1  0
 25 26  1  0
 15 27  1  0
 27 28  2  0
  8 29  2  0
 29 30  1  0
 30 31  2  0
 31 32  1  0
 32 33  2  0
 33 34  1  0
 34 35  2  0
  5 36  1  0
 36 37  2  0
 37  2  1  0
 35  6  1  0
 28 12  1  0
 34 29  1  0
 25 20  2  0
  1 38  1  0
  1 39  1  0
  1 40  1  0
  3 41  1  0
  4 42  1  0
  7 43  1  0
 11 44  1  0
 13 45  1  0
 14 46  1  0
 19 47  1  0
 24 48  1  0
 24 49  1  0
 24 50  1  0
 26 51  1  0
 26 52  1  0
 26 53  1  0
 27 54  1  0
 28 55  1  0
 30 56  1  0
 31 57  1  0
 32 58  1  0
 33 59  1  0
 36 60  1  0
 37 61  1  0
M  END
$$$$
