
     RDKit          3D

 55 60  0  0  0  0  0  0  0  0999 V2000
    2.5600    1.2783    3.4312 O   0  0  0  0  0  0  0  0  0  0  0  0
    2.9969    0.5738    2.5229 C   0  0  0  0  0  0  0  0  0  0  0  0
    4.1833   -0.2414    2.7326 C   0  0  0  0  0  0  0  0  0  0  0  0
    4.6438   -0.8013    3.9609 C   0  0  0  0  0  0  0  0  0  0  0  0
    5.8223   -1.4511    3.6817 C   0  0  0  0  0  0  0  0  0  0  0  0
    6.1389   -1.3096    2.3698 O   0  0  0  0  0  0  0  0  0  0  0  0
    5.1580   -0.5587    1.8069 C   0  0  0  0  0  0  0  0  0  0  0  0
    2.3914    0.5492    1.2499 N   0  0  0  0  0  0  0  0  0  0  0  0
    1.3751    1.5697    1.0335 C   0  0  0  0  0  0  0  0  0  0  0  0
    1.0864    1.7829   -0.4440 C   0  0  0  0  0  0  0  0  0  0  0  0
    0.7232    0.4905   -1.2095 C   0  0  0  0  0  0  0  0  0  0  0  0
    1.7699   -0.6022   -0.8619 C   0  0  0  0  0  0  0  0  0  0  0  0
    2.1426   -0.7395    0.6063 C   0  0  0  0  0  0  0  0  0  0  0  0
    1.0210    0.7349   -2.6230 O   0  0  0  0  0  0  0  0  0  0  0  0
    0.1015    1.3947   -3.3788 C   0  0  0  0  0  0  0  0  0  0  0  0
    0.5409    1.8555   -4.6211 C   0  0  0  0  0  0  0  0  0  0  0  0
   -0.3313    2.5587   -5.4539 C   0  0  0  0  0  0  0  0  0  0  0  0
   -1.6383    2.7928   -5.0389 C   0  0  0  0  0  0  0  0  0  0  0  0
   -2.4707    3.4719   -5.8378 F   0  0  0  0  0  0  0  0  0  0  0  0
   -2.0925    2.3300   -3.8113 C   0  0  0  0  0  0  0  0  0  0  0  0
   -1.2136    1.6183   -2.9910 C   0  0  0  0  0  0  0  0  0  0  0  0
   -1.6564    1.0940   -1.6954 C   0  0  0  0  0  0  0  0  0  0  0  0
   -2.6862    1.5313   -1.1872 O   0  0  0  0  0  0  0  0  0  0  0  0
   -0.7610    0.0323   -1.0511 C   0  0  0  0  0  0  0  0  0  0  0  0
   -1.2752   -0.2900    0.3420 C   0  0  0  0  0  0  0  0  0  0  0  0
   -2.1987   -1.4091   -0.0082 C   0  0  0  0  0  0  0  0  0  0  0  0
   -3.2286   -1.9109    0.9315 C   0  0  0  0  0  0  0  0  0  0  0  0
   -4.1135   -2.9070    0.4959 C   0  0  0  0  0  0  0  0  0  0  0  0
   -5.0942   -3.4065    1.3574 C   0  0  0  0  0  0  0  0  0  0  0  0
   -5.1903   -2.9117    2.6557 C   0  0  0  0  0  0  0  0  0  0  0  0
   -6.3950   -3.5252    3.7188 Cl  0  0  0  0  0  0  0  0  0  0  0  0
   -4.3139   -1.9224    3.0994 C   0  0  0  0  0  0  0  0  0  0  0  0
   -3.3313   -1.4208    2.2389 C   0  0  0  0  0  0  0  0  0  0  0  0
   -1.9942   -1.9258   -1.1778 N   0  0  0  0  0  0  0  0  0  0  0  0
   -0.9576   -1.1886   -1.7902 O   0  0  0  0  0  0  0  0  0  0  0  0
    4.1642   -0.7303    4.9277 H   0  0  0  0  0  0  0  0  0  0  0  0
    6.5258   -2.0185    4.2753 H   0  0  0  0  0  0  0  0  0  0  0  0
    5.2947   -0.3314    0.7585 H   0  0  0  0  0  0  0  0  0  0  0  0
    1.7277    2.5173    1.4598 H   0  0  0  0  0  0  0  0  0  0  0  0
    0.4765    1.2931    1.5929 H   0  0  0  0  0  0  0  0  0  0  0  0
    1.9808    2.2239   -0.9077 H   0  0  0  0  0  0  0  0  0  0  0  0
    0.3052    2.5434   -0.5556 H   0  0  0  0  0  0  0  0  0  0  0  0
    1.4639   -1.5775   -1.2587 H   0  0  0  0  0  0  0  0  0  0  0  0
    2.6995   -0.3669   -1.4026 H   0  0  0  0  0  0  0  0  0  0  0  0
    3.0195   -1.3868    0.6783 H   0  0  0  0  0  0  0  0  0  0  0  0
    1.3704   -1.2578    1.1796 H   0  0  0  0  0  0  0  0  0  0  0  0
    1.5645    1.6723   -4.9394 H   0  0  0  0  0  0  0  0  0  0  0  0
   -0.0004    2.9255   -6.4210 H   0  0  0  0  0  0  0  0  0  0  0  0
   -3.1196    2.5157   -3.5115 H   0  0  0  0  0  0  0  0  0  0  0  0
   -0.5285   -0.7066    1.0116 H   0  0  0  0  0  0  0  0  0  0  0  0
   -1.7796    0.5409    0.8399 H   0  0  0  0  0  0  0  0  0  0  0  0
   -4.0483   -3.2994   -0.5176 H   0  0  0  0  0  0  0  0  0  0  0  0
   -5.7761   -4.1773    1.0076 H   0  0  0  0  0  0  0  0  0  0  0  0
   -4.3907   -1.5372    4.1134 H   0  0  0  0  0  0  0  0  0  0  0  0
   -2.6622   -0.6528    2.6153 H   0  0  0  0  0  0  0  0  0  0  0  0
  1  2  2  0
  2  3  1  0
  3  4  1  0
  4  5  2  0
  5  6  1  0
  6  7  1  0
  2  8  1  0
  8  9  1  0
  9 10  1  0
 10 11  1  0
 11 12  1  0
 12 13  1  0
 11 14  1  0
 14 15  1  0
 15 16  2  0
 16 17  1  0
 17 18  2  0
 18 19  1  0
 18 20  1  0
 20 21  2  0
 21 22  1  0
 22 23  2  0
 22 24  1  0
 24 25  1  0
 25 26  1  0
 26 27  1  0
 27 28  2  0
 28 29  1  0
 29 30  2  0
 30 31  1  0
 30 32  1  0
 32 33  2  0
 26 34  2  0
 34 35  1  0
  7  3  2  0
 13  8  1  0
 21 15  1  0
 35 24  1  0
 24 11  1  0
 33 27  1  0
  4 36  1  0
  5 37  1  0
  7 38  1  0
  9 39  1  0
  9 40  1  0
 10 41  1  0
 10 42  1  0
 12 43  1  0
 12 44  1  0
 13 45  1  0
 13 46  1  0
 16 47  1  0
 17 48  1  0
 20 49  1  0
 25 50  1  0
 25 51  1  0
 28 52  1  0
 29 53  1  0
 32 54  1  0
 33 55  1  0
M  END
$$$$
