
     RDKit          3D

 60 62  0  0  0  0  0  0  0  0999 V2000
   -5.1893    3.0711    0.0743 C   0  0  0  0  0  0  0  0  0  0  0  0
   -3.7335    3.3612   -0.2614 C   0  0  0  0  0  0  0  0  0  0  0  0
   -2.8871    2.1124   -0.2663 C   0  0  0  0  0  0  0  0  0  0  0  0
   -2.3998    1.5876   -1.4690 C   0  0  0  0  0  0  0  0  0  0  0  0
   -1.6163    0.4251   -1.4701 C   0  0  0  0  0  0  0  0  0  0  0  0
   -1.3095   -0.2365   -0.2738 C   0  0  0  0  0  0  0  0  0  0  0  0
   -0.5184   -1.4002   -0.3671 N   0  0  0  0  0  0  0  0  0  0  0  0
    0.0025   -2.1447    0.6766 C   0  0  0  0  0  0  0  0  0  0  0  0
   -0.1487   -1.9245    1.8789 O   0  0  0  0  0  0  0  0  0  0  0  0
    0.8916   -3.3169    0.2109 C   0  0  0  0  0  0  0  0  0  0  0  0
    2.0733   -3.3554    1.1072 N   0  0  0  0  0  0  0  0  0  0  0  0
    3.4930   -2.5945    0.6318 S   0  0  0  0  0  6  0  0  0  0  0  0
    4.3829   -2.5961    1.7703 O   0  0  0  0  0  0  0  0  0  0  0  0
    3.8705   -3.1689   -0.6430 O   0  0  0  0  0  0  0  0  0  0  0  0
    3.0011   -0.9124    0.3368 C   0  0  0  0  0  0  0  0  0  0  0  0
    3.0741   -0.3799   -0.9597 C   0  0  0  0  0  0  0  0  0  0  0  0
    2.6265    0.9242   -1.2163 C   0  0  0  0  0  0  0  0  0  0  0  0
    2.1072    1.6786   -0.1750 C   0  0  0  0  0  0  0  0  0  0  0  0
    2.0618    1.1355    1.1168 C   0  0  0  0  0  0  0  0  0  0  0  0
    2.5205   -0.1454    1.3983 C   0  0  0  0  0  0  0  0  0  0  0  0
    1.4522    2.0897    2.0948 C   0  0  0  0  0  0  0  0  0  0  0  0
    1.0419    3.2515    1.1890 C   0  0  0  0  0  0  0  0  0  0  0  0
    1.5436    2.9707   -0.1645 N   0  0  0  0  0  0  0  0  0  0  0  0
    1.3427    3.9119   -1.1534 C   0  0  0  0  0  0  0  0  0  0  0  0
    1.9102    3.6824   -2.5242 C   0  0  0  0  0  0  0  0  0  0  0  0
    0.7099    4.9537   -0.9354 O   0  0  0  0  0  0  0  0  0  0  0  0
    0.1609   -4.6791    0.2507 C   0  0  0  0  0  0  0  0  0  0  0  0
   -0.9679   -4.7394   -0.7772 C   0  0  0  0  0  0  0  0  0  0  0  0
   -0.3755   -5.0614    1.6346 C   0  0  0  0  0  0  0  0  0  0  0  0
   -1.7972    0.2846    0.9267 C   0  0  0  0  0  0  0  0  0  0  0  0
   -2.5731    1.4527    0.9302 C   0  0  0  0  0  0  0  0  0  0  0  0
   -5.6195    2.3325   -0.6106 H   0  0  0  0  0  0  0  0  0  0  0  0
   -5.7829    3.9888    0.0070 H   0  0  0  0  0  0  0  0  0  0  0  0
   -5.2869    2.6838    1.0941 H   0  0  0  0  0  0  0  0  0  0  0  0
   -3.6808    3.8490   -1.2412 H   0  0  0  0  0  0  0  0  0  0  0  0
   -3.3202    4.0730    0.4593 H   0  0  0  0  0  0  0  0  0  0  0  0
   -2.6327    2.0770   -2.4105 H   0  0  0  0  0  0  0  0  0  0  0  0
   -1.2464    0.0619   -2.4225 H   0  0  0  0  0  0  0  0  0  0  0  0
   -0.2579   -1.6710   -1.3076 H   0  0  0  0  0  0  0  0  0  0  0  0
    1.2274   -3.1403   -0.8178 H   0  0  0  0  0  0  0  0  0  0  0  0
    1.8640   -3.2227    2.1005 H   0  0  0  0  0  0  0  0  0  0  0  0
    3.4723   -0.9762   -1.7794 H   0  0  0  0  0  0  0  0  0  0  0  0
    2.6945    1.2857   -2.2312 H   0  0  0  0  0  0  0  0  0  0  0  0
    2.4630   -0.5468    2.4079 H   0  0  0  0  0  0  0  0  0  0  0  0
    2.1889    2.4082    2.8406 H   0  0  0  0  0  0  0  0  0  0  0  0
    0.5826    1.6550    2.5984 H   0  0  0  0  0  0  0  0  0  0  0  0
    1.4578    4.2026    1.5415 H   0  0  0  0  0  0  0  0  0  0  0  0
   -0.0502    3.3603    1.1438 H   0  0  0  0  0  0  0  0  0  0  0  0
    2.9849    3.4705   -2.4638 H   0  0  0  0  0  0  0  0  0  0  0  0
    1.3609    2.8817   -3.0341 H   0  0  0  0  0  0  0  0  0  0  0  0
    1.7957    4.6016   -3.1185 H   0  0  0  0  0  0  0  0  0  0  0  0
    0.8896   -5.4511   -0.0293 H   0  0  0  0  0  0  0  0  0  0  0  0
   -1.4240   -5.7326   -0.7854 H   0  0  0  0  0  0  0  0  0  0  0  0
   -0.5930   -4.5360   -1.7836 H   0  0  0  0  0  0  0  0  0  0  0  0
   -1.7560   -4.0160   -0.5560 H   0  0  0  0  0  0  0  0  0  0  0  0
   -1.1400   -4.3671    1.9841 H   0  0  0  0  0  0  0  0  0  0  0  0
    0.4275   -5.0872    2.3755 H   0  0  0  0  0  0  0  0  0  0  0  0
   -0.8260   -6.0602    1.6104 H   0  0  0  0  0  0  0  0  0  0  0  0
   -1.5967   -0.1891    1.8863 H   0  0  0  0  0  0  0  0  0  0  0  0
   -2.9458    1.8270    1.8801 H   0  0  0  0  0  0  0  0  0  0  0  0
  1  2  1  0
  2  3  1  0
  3  4  2  0
  4  5  1  0
  5  6  2  0
  6  7  1  0
  7  8  1  0
  8  9  2  0
  8 10  1  0
 10 11  1  0
 11 12  1  0
 12 13  2  0
 12 14  2  0
 12 15  1  0
 15 16  2  0
 16 17  1  0
 17 18  2  0
 18 19  1  0
 19 20  2  0
 19 21  1  0
 21 22  1  0
 22 23  1  0
 23 24  1  0
 24 25  1  0
 24 26  2  0
 10 27  1  0
 27 28  1  0
 27 29  1  0
  6 30  1  0
 30 31  2  0
 31  3  1  0
 20 15  1  0
 23 18  1  0
  1 32  1  0
  1 33  1  0
  1 34  1  0
  2 35  1  0
  2 36  1  0
  4 37  1  0
  5 38  1  0
  7 39  1  0
 10 40  1  0
 11 41  1  0
 16 42  1  0
 17 43  1  0
 20 44  1  0
 21 45  1  0
 21 46  1  0
 22 47  1  0
 22 48  1  0
 25 49  1  0
 25 50  1  0
 25 51  1  0
 27 52  1  0
 28 53  1  0
 28 54  1  0
 28 55  1  0
 29 56  1  0
 29 57  1  0
 29 58  1  0
 30 59  1  0
 31 60  1  0
M  END
$$$$
