
     RDKit          3D

 43 45  0  0  0  0  0  0  0  0999 V2000
   -1.1563    5.2271   -0.6996 C   0  0  0  0  0  0  0  0  0  0  0  0
   -2.1187    4.1220   -0.3794 C   0  0  0  0  0  0  0  0  0  0  0  0
   -2.6077    3.9372    0.7265 O   0  0  0  0  0  0  0  0  0  0  0  0
   -2.3463    3.3847   -1.5353 O   0  0  0  0  0  0  0  0  0  0  0  0
   -3.1947    2.2906   -1.3252 C   0  0  0  0  0  0  0  0  0  0  0  0
   -4.5754    2.5042   -1.3626 C   0  0  0  0  0  0  0  0  0  0  0  0
   -5.4388    1.4252   -1.1891 C   0  0  0  0  0  0  0  0  0  0  0  0
   -4.9213    0.1439   -0.9979 C   0  0  0  0  0  0  0  0  0  0  0  0
   -3.5378   -0.0638   -0.9815 C   0  0  0  0  0  0  0  0  0  0  0  0
   -2.6509    1.0098   -1.1422 C   0  0  0  0  0  0  0  0  0  0  0  0
   -1.1964    0.7921   -1.1813 C   0  0  0  0  0  0  0  0  0  0  0  0
   -0.5441    0.0351   -0.2839 C   0  0  0  0  0  0  0  0  0  0  0  0
    0.8985   -0.2324   -0.2788 C   0  0  0  0  0  0  0  0  0  0  0  0
    1.8390    0.6430   -0.8019 C   0  0  0  0  0  0  0  0  0  0  0  0
    3.1854    0.2993   -0.7261 C   0  0  0  0  0  0  0  0  0  0  0  0
    3.5664   -0.9023   -0.1196 C   0  0  0  0  0  0  0  0  0  0  0  0
    4.9195   -1.2861   -0.0352 C   0  0  0  0  0  0  0  0  0  0  0  0
    5.2828   -2.4913    0.5661 C   0  0  0  0  0  0  0  0  0  0  0  0
    4.2996   -3.3169    1.0954 C   0  0  0  0  0  0  0  0  0  0  0  0
    2.9633   -2.9133    1.0235 C   0  0  0  0  0  0  0  0  0  0  0  0
    1.9944   -3.7809    1.5486 O   0  0  0  0  0  0  0  0  0  0  0  0
    1.5616   -3.3673    2.8009 C   0  0  0  0  0  0  0  0  0  0  0  0
    0.3717   -4.1907    3.1951 C   0  0  0  0  0  0  0  0  0  0  0  0
    2.0726   -2.5134    3.5145 O   0  0  0  0  0  0  0  0  0  0  0  0
    2.5527   -1.7256    0.4088 C   0  0  0  0  0  0  0  0  0  0  0  0
    1.2435   -1.3923    0.3248 N   0  0  0  0  0  0  0  0  0  0  0  0
   -0.9553    5.8060    0.2064 H   0  0  0  0  0  0  0  0  0  0  0  0
   -1.5915    5.8921   -1.4496 H   0  0  0  0  0  0  0  0  0  0  0  0
   -0.2138    4.8051   -1.0579 H   0  0  0  0  0  0  0  0  0  0  0  0
   -4.9748    3.5022   -1.5145 H   0  0  0  0  0  0  0  0  0  0  0  0
   -6.5144    1.5809   -1.2035 H   0  0  0  0  0  0  0  0  0  0  0  0
   -5.5954   -0.6992   -0.8671 H   0  0  0  0  0  0  0  0  0  0  0  0
   -3.1611   -1.0764   -0.8535 H   0  0  0  0  0  0  0  0  0  0  0  0
   -0.6765    1.2910   -1.9937 H   0  0  0  0  0  0  0  0  0  0  0  0
   -1.0840   -0.4620    0.5190 H   0  0  0  0  0  0  0  0  0  0  0  0
    1.5490    1.5837   -1.2550 H   0  0  0  0  0  0  0  0  0  0  0  0
    3.9309    0.9752   -1.1372 H   0  0  0  0  0  0  0  0  0  0  0  0
    5.6990   -0.6453   -0.4423 H   0  0  0  0  0  0  0  0  0  0  0  0
    6.3290   -2.7802    0.6235 H   0  0  0  0  0  0  0  0  0  0  0  0
    4.5649   -4.2568    1.5694 H   0  0  0  0  0  0  0  0  0  0  0  0
   -0.0398   -3.8061    4.1326 H   0  0  0  0  0  0  0  0  0  0  0  0
    0.6731   -5.2309    3.3403 H   0  0  0  0  0  0  0  0  0  0  0  0
   -0.4019   -4.1171    2.4263 H   0  0  0  0  0  0  0  0  0  0  0  0
  1  2  1  0
  2  3  2  0
  2  4  1  0
  4  5  1  0
  5  6  2  0
  6  7  1  0
  7  8  2  0
  8  9  1  0
  9 10  2  0
 10 11  1  0
 11 12  2  0
 12 13  1  0
 13 14  2  0
 14 15  1  0
 15 16  2  0
 16 17  1  0
 17 18  2  0
 18 19  1  0
 19 20  2  0
 20 21  1  0
 21 22  1  0
 22 23  1  0
 22 24  2  0
 20 25  1  0
 25 26  2  0
 10  5  1  0
 26 13  1  0
 25 16  1  0
  1 27  1  0
  1 28  1  0
  1 29  1  0
  6 30  1  0
  7 31  1  0
  8 32  1  0
  9 33  1  0
 11 34  1  0
 12 35  1  0
 14 36  1  0
 15 37  1  0
 17 38  1  0
 18 39  1  0
 19 40  1  0
 23 41  1  0
 23 42  1  0
 23 43  1  0
M  END
$$$$
