
     RDKit          3D

 43 45  0  0  0  0  0  0  0  0999 V2000
    8.5624   -0.1134    1.0051 C   0  0  0  0  0  0  0  0  0  0  0  0
    7.1762    0.2301    1.0226 O   0  0  0  0  0  0  0  0  0  0  0  0
    6.3752   -0.6804    0.4156 C   0  0  0  0  0  0  0  0  0  0  0  0
    6.7444   -1.7164   -0.1152 O   0  0  0  0  0  0  0  0  0  0  0  0
    4.9508   -0.2530    0.4755 C   0  0  0  0  0  0  0  0  0  0  0  0
    4.5462    0.9393    1.0850 C   0  0  0  0  0  0  0  0  0  0  0  0
    3.1920    1.2866    1.1090 C   0  0  0  0  0  0  0  0  0  0  0  0
    2.2287    0.4563    0.5297 C   0  0  0  0  0  0  0  0  0  0  0  0
    0.9477    0.9205    0.6275 O   0  0  0  0  0  0  0  0  0  0  0  0
   -0.0829    0.1301    0.0442 C   0  0  0  0  0  0  0  0  0  0  0  0
   -1.4711    0.7763    0.2354 C   0  0  0  0  0  0  0  0  0  0  0  0
   -1.5594    1.8425    0.8469 O   0  0  0  0  0  0  0  0  0  0  0  0
   -2.5647    0.0720   -0.3341 N   0  0  0  0  0  0  0  0  0  0  0  0
   -2.3085   -1.0158   -1.2895 C   0  0  0  0  0  0  0  0  0  0  0  0
   -3.5037   -1.8978   -1.5960 C   0  0  0  0  0  0  0  0  0  0  0  0
   -4.6431   -1.0317   -2.0819 C   0  0  0  0  0  0  0  0  0  0  0  0
   -4.9444    0.0140   -1.0454 C   0  0  0  0  0  0  0  0  0  0  0  0
   -6.2674    0.4875   -0.9559 C   0  0  0  0  0  0  0  0  0  0  0  0
   -6.6160    1.4448   -0.0113 C   0  0  0  0  0  0  0  0  0  0  0  0
   -5.6457    1.9326    0.8511 C   0  0  0  0  0  0  0  0  0  0  0  0
   -4.3243    1.4789    0.7557 C   0  0  0  0  0  0  0  0  0  0  0  0
   -3.9329    0.5345   -0.2062 C   0  0  0  0  0  0  0  0  0  0  0  0
    2.6293   -0.7335   -0.0780 C   0  0  0  0  0  0  0  0  0  0  0  0
    3.9844   -1.0858   -0.1048 C   0  0  0  0  0  0  0  0  0  0  0  0
    8.9275   -0.1816   -0.0245 H   0  0  0  0  0  0  0  0  0  0  0  0
    8.7314   -1.0530    1.5404 H   0  0  0  0  0  0  0  0  0  0  0  0
    9.1144    0.6802    1.5162 H   0  0  0  0  0  0  0  0  0  0  0  0
    5.2676    1.6095    1.5453 H   0  0  0  0  0  0  0  0  0  0  0  0
    2.8826    2.2155    1.5847 H   0  0  0  0  0  0  0  0  0  0  0  0
    0.1050    0.0400   -1.0312 H   0  0  0  0  0  0  0  0  0  0  0  0
   -0.1055   -0.8476    0.5388 H   0  0  0  0  0  0  0  0  0  0  0  0
   -1.9269   -0.5545   -2.2093 H   0  0  0  0  0  0  0  0  0  0  0  0
   -1.5176   -1.6641   -0.9010 H   0  0  0  0  0  0  0  0  0  0  0  0
   -3.8011   -2.4485   -0.6941 H   0  0  0  0  0  0  0  0  0  0  0  0
   -3.2396   -2.6392   -2.3581 H   0  0  0  0  0  0  0  0  0  0  0  0
   -5.5200   -1.6652   -2.2597 H   0  0  0  0  0  0  0  0  0  0  0  0
   -4.3869   -0.5388   -3.0273 H   0  0  0  0  0  0  0  0  0  0  0  0
   -7.0352    0.1014   -1.6231 H   0  0  0  0  0  0  0  0  0  0  0  0
   -7.6397    1.8018    0.0578 H   0  0  0  0  0  0  0  0  0  0  0  0
   -5.9061    2.6705    1.6057 H   0  0  0  0  0  0  0  0  0  0  0  0
   -3.6268    1.8853    1.4805 H   0  0  0  0  0  0  0  0  0  0  0  0
    1.9203   -1.4122   -0.5394 H   0  0  0  0  0  0  0  0  0  0  0  0
    4.2836   -2.0177   -0.5822 H   0  0  0  0  0  0  0  0  0  0  0  0
  1  2  1  0
  2  3  1  0
  3  4  2  0
  3  5  1  0
  5  6  2  0
  6  7  1  0
  7  8  2  0
  8  9  1  0
  9 10  1  0
 10 11  1  0
 11 12  2  0
 11 13  1  0
 13 14  1  0
 14 15  1  0
 15 16  1  0
 16 17  1  0
 17 18  2  0
 18 19  1  0
 19 20  2  0
 20 21  1  0
 21 22  2  0
  8 23  1  0
 23 24  2  0
 24  5  1  0
 22 13  1  0
 22 17  1  0
  1 25  1  0
  1 26  1  0
  1 27  1  0
  6 28  1  0
  7 29  1  0
 10 30  1  0
 10 31  1  0
 14 32  1  0
 14 33  1  0
 15 34  1  0
 15 35  1  0
 16 36  1  0
 16 37  1  0
 18 38  1  0
 19 39  1  0
 20 40  1  0
 21 41  1  0
 23 42  1  0
 24 43  1  0
M  END
$$$$
