
     RDKit          3D

 55 60  0  0  0  0  0  0  0  0999 V2000
    4.8552    2.0157   -0.7203 O   0  0  0  0  0  0  0  0  0  0  0  0
    4.0531    1.8248    0.1928 C   0  0  0  0  0  0  0  0  0  0  0  0
    4.3410    2.3177    1.5325 C   0  0  0  0  0  0  0  0  0  0  0  0
    3.4894    2.8257    2.5586 C   0  0  0  0  0  0  0  0  0  0  0  0
    4.3037    3.1842    3.6074 C   0  0  0  0  0  0  0  0  0  0  0  0
    5.6031    2.9557    3.2953 O   0  0  0  0  0  0  0  0  0  0  0  0
    5.6214    2.4532    2.0353 C   0  0  0  0  0  0  0  0  0  0  0  0
    2.8454    1.1535   -0.0336 N   0  0  0  0  0  0  0  0  0  0  0  0
    2.0517    0.5048    1.0063 C   0  0  0  0  0  0  0  0  0  0  0  0
    1.4846   -0.8419    0.5588 C   0  0  0  0  0  0  0  0  0  0  0  0
    0.6925   -0.7945   -0.7843 C   0  0  0  0  0  0  0  0  0  0  0  0
    1.0320    0.4993   -1.5658 C   0  0  0  0  0  0  0  0  0  0  0  0
    2.5076    0.8488   -1.4184 C   0  0  0  0  0  0  0  0  0  0  0  0
    1.2434   -1.9206   -1.5299 O   0  0  0  0  0  0  0  0  0  0  0  0
    0.5207   -2.4171   -2.5742 C   0  0  0  0  0  0  0  0  0  0  0  0
    1.1849   -3.3167   -3.4076 C   0  0  0  0  0  0  0  0  0  0  0  0
    0.5320   -3.8553   -4.5195 C   0  0  0  0  0  0  0  0  0  0  0  0
   -0.7869   -3.4930   -4.7940 C   0  0  0  0  0  0  0  0  0  0  0  0
   -1.5838   -4.1525   -6.1678 Cl  0  0  0  0  0  0  0  0  0  0  0  0
   -1.4623   -2.6041   -3.9624 C   0  0  0  0  0  0  0  0  0  0  0  0
   -0.8015   -2.0810   -2.8469 C   0  0  0  0  0  0  0  0  0  0  0  0
   -1.4887   -1.1572   -1.9357 C   0  0  0  0  0  0  0  0  0  0  0  0
   -2.5103   -0.5818   -2.2999 O   0  0  0  0  0  0  0  0  0  0  0  0
   -0.8381   -0.9721   -0.5700 C   0  0  0  0  0  0  0  0  0  0  0  0
   -1.5215    0.1301    0.2239 C   0  0  0  0  0  0  0  0  0  0  0  0
   -2.5041   -0.7061    0.9727 C   0  0  0  0  0  0  0  0  0  0  0  0
   -3.6586   -0.1182    1.6925 C   0  0  0  0  0  0  0  0  0  0  0  0
   -4.5668   -0.9760    2.3288 C   0  0  0  0  0  0  0  0  0  0  0  0
   -5.6641   -0.4559    3.0209 C   0  0  0  0  0  0  0  0  0  0  0  0
   -5.8544    0.9224    3.0783 C   0  0  0  0  0  0  0  0  0  0  0  0
   -7.2024    1.5662    3.9303 Cl  0  0  0  0  0  0  0  0  0  0  0  0
   -4.9568    1.7844    2.4499 C   0  0  0  0  0  0  0  0  0  0  0  0
   -3.8572    1.2661    1.7568 C   0  0  0  0  0  0  0  0  0  0  0  0
   -2.2413   -1.9742    0.9744 N   0  0  0  0  0  0  0  0  0  0  0  0
   -1.0890   -2.1717    0.1830 O   0  0  0  0  0  0  0  0  0  0  0  0
    2.4156    2.9375    2.5338 H   0  0  0  0  0  0  0  0  0  0  0  0
    4.1262    3.6087    4.5860 H   0  0  0  0  0  0  0  0  0  0  0  0
    6.6015    2.2391    1.6301 H   0  0  0  0  0  0  0  0  0  0  0  0
    1.2438    1.1943    1.2689 H   0  0  0  0  0  0  0  0  0  0  0  0
    2.6589    0.3409    1.9014 H   0  0  0  0  0  0  0  0  0  0  0  0
    2.3289   -1.5395    0.4629 H   0  0  0  0  0  0  0  0  0  0  0  0
    0.8705   -1.2465    1.3713 H   0  0  0  0  0  0  0  0  0  0  0  0
    0.4324    1.3417   -1.2006 H   0  0  0  0  0  0  0  0  0  0  0  0
    0.8128    0.3852   -2.6333 H   0  0  0  0  0  0  0  0  0  0  0  0
    3.1475    0.0225   -1.7504 H   0  0  0  0  0  0  0  0  0  0  0  0
    2.7465    1.7183   -2.0420 H   0  0  0  0  0  0  0  0  0  0  0  0
    2.2150   -3.5956   -3.1974 H   0  0  0  0  0  0  0  0  0  0  0  0
    1.0575   -4.5534   -5.1666 H   0  0  0  0  0  0  0  0  0  0  0  0
   -2.4934   -2.3281   -4.1704 H   0  0  0  0  0  0  0  0  0  0  0  0
   -1.9932    0.8988   -0.3917 H   0  0  0  0  0  0  0  0  0  0  0  0
   -0.8681    0.6028    0.9599 H   0  0  0  0  0  0  0  0  0  0  0  0
   -4.4289   -2.0553    2.2884 H   0  0  0  0  0  0  0  0  0  0  0  0
   -6.3623   -1.1314    3.5085 H   0  0  0  0  0  0  0  0  0  0  0  0
   -5.1086    2.8602    2.4946 H   0  0  0  0  0  0  0  0  0  0  0  0
   -3.1766    1.9636    1.2783 H   0  0  0  0  0  0  0  0  0  0  0  0
  1  2  2  0
  2  3  1  0
  3  4  1  0
  4  5  2  0
  5  6  1  0
  6  7  1  0
  2  8  1  0
  8  9  1  0
  9 10  1  0
 10 11  1  0
 11 12  1  0
 12 13  1  0
 11 14  1  0
 14 15  1  0
 15 16  2  0
 16 17  1  0
 17 18  2  0
 18 19  1  0
 18 20  1  0
 20 21  2  0
 21 22  1  0
 22 23  2  0
 22 24  1  0
 24 25  1  0
 25 26  1  0
 26 27  1  0
 27 28  2  0
 28 29  1  0
 29 30  2  0
 30 31  1  0
 30 32  1  0
 32 33  2  0
 26 34  2  0
 34 35  1  0
  7  3  2  0
 13  8  1  0
 21 15  1  0
 35 24  1  0
 24 11  1  0
 33 27  1  0
  4 36  1  0
  5 37  1  0
  7 38  1  0
  9 39  1  0
  9 40  1  0
 10 41  1  0
 10 42  1  0
 12 43  1  0
 12 44  1  0
 13 45  1  0
 13 46  1  0
 16 47  1  0
 17 48  1  0
 20 49  1  0
 25 50  1  0
 25 51  1  0
 28 52  1  0
 29 53  1  0
 32 54  1  0
 33 55  1  0
M  END
$$$$
