
     RDKit          3D

 45 44  0  0  0  0  0  0  0  0999 V2000
    5.9769   -4.1910    1.8195 C   0  0  0  0  0  0  0  0  0  0  0  0
    4.8334   -3.6745    0.9605 C   0  0  0  0  0  0  0  0  0  0  0  0
    5.2179   -2.3820    0.2376 C   0  0  0  0  0  0  0  0  0  0  0  0
    4.0981   -1.8629   -0.6598 C   0  0  0  0  0  0  0  0  0  0  0  0
    2.9556   -1.4117    0.0993 N   0  0  0  0  0  0  0  0  0  0  0  0
    1.7246   -1.2713   -0.4646 C   0  0  0  0  0  0  0  0  0  0  0  0
    1.4104   -1.6365   -1.5863 O   0  0  0  0  0  0  0  0  0  0  0  0
    0.9148   -0.6325    0.4122 O   0  0  0  0  0  0  0  0  0  0  0  0
   -0.4465   -0.4338   -0.0043 C   0  0  0  0  0  0  0  0  0  0  0  0
   -0.7027    1.0327   -0.4105 C   0  0  0  0  0  0  0  0  0  0  0  0
    0.1309    1.4497   -1.6341 C   0  0  0  0  0  0  0  0  0  0  0  0
   -0.0365    2.9227   -1.9892 C   0  0  0  0  0  0  0  0  0  0  0  0
   -2.1215    1.2531   -0.6613 N   0  0  0  0  0  0  0  0  0  0  0  0
   -3.0311    1.3951    0.3412 C   0  0  0  0  0  0  0  0  0  0  0  0
   -2.7646    1.4617    1.5305 O   0  0  0  0  0  0  0  0  0  0  0  0
   -4.2732    1.4317   -0.1963 O   0  0  0  0  0  0  0  0  0  0  0  0
   -5.3606    1.5806    0.7352 C   0  0  0  0  0  0  0  0  0  0  0  0
   -5.5540    3.0565    1.0635 C   0  0  0  0  0  0  0  0  0  0  0  0
   -6.6053    1.0093    0.0668 C   0  0  0  0  0  0  0  0  0  0  0  0
    6.2511   -3.4607    2.5875 H   0  0  0  0  0  0  0  0  0  0  0  0
    5.6844   -5.1185    2.3215 H   0  0  0  0  0  0  0  0  0  0  0  0
    6.8627   -4.3990    1.2106 H   0  0  0  0  0  0  0  0  0  0  0  0
    3.9578   -3.5070    1.5977 H   0  0  0  0  0  0  0  0  0  0  0  0
    4.5596   -4.4421    0.2276 H   0  0  0  0  0  0  0  0  0  0  0  0
    6.1048   -2.5656   -0.3808 H   0  0  0  0  0  0  0  0  0  0  0  0
    5.4908   -1.6152    0.9733 H   0  0  0  0  0  0  0  0  0  0  0  0
    3.7828   -2.6305   -1.3755 H   0  0  0  0  0  0  0  0  0  0  0  0
    4.4556   -1.0029   -1.2369 H   0  0  0  0  0  0  0  0  0  0  0  0
    3.0885   -0.8944    0.9574 H   0  0  0  0  0  0  0  0  0  0  0  0
   -1.0699   -0.6941    0.8591 H   0  0  0  0  0  0  0  0  0  0  0  0
   -0.7432   -1.1211   -0.8066 H   0  0  0  0  0  0  0  0  0  0  0  0
   -0.4077    1.6691    0.4344 H   0  0  0  0  0  0  0  0  0  0  0  0
   -0.1460    0.8410   -2.5034 H   0  0  0  0  0  0  0  0  0  0  0  0
    1.1943    1.2735   -1.4397 H   0  0  0  0  0  0  0  0  0  0  0  0
   -1.0645    3.1501   -2.2871 H   0  0  0  0  0  0  0  0  0  0  0  0
    0.2273    3.5624   -1.1411 H   0  0  0  0  0  0  0  0  0  0  0  0
    0.6185    3.1836   -2.8268 H   0  0  0  0  0  0  0  0  0  0  0  0
   -2.5124    1.0709   -1.5759 H   0  0  0  0  0  0  0  0  0  0  0  0
   -5.1648    1.0073    1.6496 H   0  0  0  0  0  0  0  0  0  0  0  0
   -5.7108    3.6436    0.1522 H   0  0  0  0  0  0  0  0  0  0  0  0
   -6.4097    3.2053    1.7291 H   0  0  0  0  0  0  0  0  0  0  0  0
   -4.6645    3.4679    1.5515 H   0  0  0  0  0  0  0  0  0  0  0  0
   -6.8211    1.5286   -0.8733 H   0  0  0  0  0  0  0  0  0  0  0  0
   -7.4794    1.0864    0.7204 H   0  0  0  0  0  0  0  0  0  0  0  0
   -6.4511   -0.0459   -0.1850 H   0  0  0  0  0  0  0  0  0  0  0  0
  1  2  1  0
  2  3  1  0
  3  4  1  0
  4  5  1  0
  5  6  1  0
  6  7  2  0
  6  8  1  0
  8  9  1  0
  9 10  1  0
 10 11  1  0
 11 12  1  0
 10 13  1  0
 13 14  1  0
 14 15  2  0
 14 16  1  0
 16 17  1  0
 17 18  1  0
 17 19  1  0
  1 20  1  0
  1 21  1  0
  1 22  1  0
  2 23  1  0
  2 24  1  0
  3 25  1  0
  3 26  1  0
  4 27  1  0
  4 28  1  0
  5 29  1  0
  9 30  1  0
  9 31  1  0
 10 32  1  0
 11 33  1  0
 11 34  1  0
 12 35  1  0
 12 36  1  0
 12 37  1  0
 13 38  1  0
 17 39  1  0
 18 40  1  0
 18 41  1  0
 18 42  1  0
 19 43  1  0
 19 44  1  0
 19 45  1  0
M  END
$$$$
