
     RDKit          3D

 46 48  0  0  0  0  0  0  0  0999 V2000
    1.0691    4.5092   -1.5115 C   0  0  0  0  0  0  0  0  0  0  0  0
    0.8444    3.0802   -1.0767 C   0  0  0  0  0  0  0  0  0  0  0  0
    2.0794    2.2798   -0.8334 C   0  0  0  0  0  0  0  0  0  0  0  0
    2.3531    1.2542   -1.6536 C   0  0  0  0  0  0  0  0  0  0  0  0
    3.5077    0.3542   -1.5221 C   0  0  0  0  0  0  0  0  0  0  0  0
    4.6852    0.7125   -0.8528 C   0  0  0  0  0  0  0  0  0  0  0  0
    5.7578   -0.1808   -0.7700 C   0  0  0  0  0  0  0  0  0  0  0  0
    5.6698   -1.4384   -1.3609 C   0  0  0  0  0  0  0  0  0  0  0  0
    4.5141   -1.7999   -2.0459 C   0  0  0  0  0  0  0  0  0  0  0  0
    3.4424   -0.9084   -2.1296 C   0  0  0  0  0  0  0  0  0  0  0  0
   -0.3873    2.6693   -1.0046 N   0  0  0  0  0  0  0  0  0  0  0  0
   -0.6271    1.4225   -0.4839 N   0  0  0  0  0  0  0  0  0  0  0  0
   -0.2825    1.1027    0.8257 C   0  0  0  0  0  0  0  0  0  0  0  0
    0.4294    1.7515    1.5824 O   0  0  0  0  0  0  0  0  0  0  0  0
   -0.8860   -0.1793    1.2776 C   0  0  0  0  0  0  0  0  0  0  0  0
   -1.2934   -0.3742    2.7157 C   0  0  0  0  0  0  0  0  0  0  0  0
   -2.3692   -0.2679    1.6524 C   0  0  0  0  0  0  0  0  0  0  0  0
   -3.2163    0.9856    1.6654 C   0  0  0  0  0  0  0  0  0  0  0  0
   -3.1225   -1.5292    1.2494 C   0  0  0  0  0  0  0  0  0  0  0  0
   -3.1861   -1.9521   -0.0897 C   0  0  0  0  0  0  0  0  0  0  0  0
   -3.8792   -3.1085   -0.4562 C   0  0  0  0  0  0  0  0  0  0  0  0
   -4.5341   -3.8644    0.5104 C   0  0  0  0  0  0  0  0  0  0  0  0
   -4.5010   -3.4613    1.8421 C   0  0  0  0  0  0  0  0  0  0  0  0
   -3.8014   -2.3073    2.2039 C   0  0  0  0  0  0  0  0  0  0  0  0
    0.9217    4.5813   -2.5946 H   0  0  0  0  0  0  0  0  0  0  0  0
    2.0814    4.8419   -1.2636 H   0  0  0  0  0  0  0  0  0  0  0  0
    0.3503    5.1641   -1.0082 H   0  0  0  0  0  0  0  0  0  0  0  0
    2.6829    2.5734    0.0158 H   0  0  0  0  0  0  0  0  0  0  0  0
    1.6689    1.0301   -2.4689 H   0  0  0  0  0  0  0  0  0  0  0  0
    4.7912    1.6893   -0.3869 H   0  0  0  0  0  0  0  0  0  0  0  0
    6.6624    0.1094   -0.2435 H   0  0  0  0  0  0  0  0  0  0  0  0
    6.5033   -2.1320   -1.2912 H   0  0  0  0  0  0  0  0  0  0  0  0
    4.4431   -2.7779   -2.5122 H   0  0  0  0  0  0  0  0  0  0  0  0
    2.5484   -1.2164   -2.6680 H   0  0  0  0  0  0  0  0  0  0  0  0
   -1.4912    1.0066   -0.8149 H   0  0  0  0  0  0  0  0  0  0  0  0
   -0.4179   -1.0453    0.8165 H   0  0  0  0  0  0  0  0  0  0  0  0
   -1.1484    0.4534    3.4035 H   0  0  0  0  0  0  0  0  0  0  0  0
   -1.0814   -1.3402    3.1624 H   0  0  0  0  0  0  0  0  0  0  0  0
   -4.0821    0.8562    2.3245 H   0  0  0  0  0  0  0  0  0  0  0  0
   -2.6591    1.8582    2.0266 H   0  0  0  0  0  0  0  0  0  0  0  0
   -3.5838    1.2129    0.6582 H   0  0  0  0  0  0  0  0  0  0  0  0
   -2.6850   -1.3758   -0.8623 H   0  0  0  0  0  0  0  0  0  0  0  0
   -3.9062   -3.4178   -1.4974 H   0  0  0  0  0  0  0  0  0  0  0  0
   -5.0729   -4.7649    0.2286 H   0  0  0  0  0  0  0  0  0  0  0  0
   -5.0101   -4.0485    2.6020 H   0  0  0  0  0  0  0  0  0  0  0  0
   -3.7822   -2.0083    3.2493 H   0  0  0  0  0  0  0  0  0  0  0  0
  1  2  1  0
  2  3  1  0
  3  4  2  3
  4  5  1  0
  5  6  2  0
  6  7  1  0
  7  8  2  0
  8  9  1  0
  9 10  2  0
  2 11  2  3
 11 12  1  0
 12 13  1  0
 13 14  2  0
 13 15  1  0
 15 16  1  0
 16 17  1  0
 17 18  1  0
 17 19  1  0
 19 20  2  0
 20 21  1  0
 21 22  2  0
 22 23  1  0
 23 24  2  0
 10  5  1  0
 17 15  1  0
 24 19  1  0
  1 25  1  0
  1 26  1  0
  1 27  1  0
  3 28  1  0
  4 29  1  0
  6 30  1  0
  7 31  1  0
  8 32  1  0
  9 33  1  0
 10 34  1  0
 12 35  1  0
 15 36  1  0
 16 37  1  0
 16 38  1  0
 18 39  1  0
 18 40  1  0
 18 41  1  0
 20 42  1  0
 21 43  1  0
 22 44  1  0
 23 45  1  0
 24 46  1  0
M  END
$$$$
