
     RDKit          3D

 54 58  0  0  0  0  0  0  0  0999 V2000
    1.5579   -0.8245    3.2940 O   0  0  0  0  0  0  0  0  0  0  0  0
    1.6985   -1.0951    2.1036 C   0  0  0  0  0  0  0  0  0  0  0  0
    0.7655   -2.0718    1.4078 C   0  0  0  0  0  0  0  0  0  0  0  0
    0.4030   -1.6513   -0.3203 S   0  0  0  0  0  0  0  0  0  0  0  0
   -0.4289   -0.1262   -0.0511 C   0  0  0  0  0  0  0  0  0  0  0  0
    0.3495    0.9098   -0.0084 N   0  0  0  0  0  0  0  0  0  0  0  0
   -0.3063    2.1279    0.1919 C   0  0  0  0  0  0  0  0  0  0  0  0
   -1.6584    2.2111    0.3127 C   0  0  0  0  0  0  0  0  0  0  0  0
   -2.1874    3.7957    0.5608 S   0  0  0  0  0  0  0  0  0  0  0  0
   -0.5711    4.4122    0.4795 C   0  0  0  0  0  0  0  0  0  0  0  0
   -0.1688    5.7568    0.6013 C   0  0  0  0  0  0  0  0  0  0  0  0
    1.1894    6.0672    0.4952 C   0  0  0  0  0  0  0  0  0  0  0  0
    2.1286    5.0680    0.2749 C   0  0  0  0  0  0  0  0  0  0  0  0
    1.7267    3.7347    0.1599 C   0  0  0  0  0  0  0  0  0  0  0  0
    0.3589    3.3861    0.2654 C   0  0  0  0  0  0  0  0  0  0  0  0
   -2.5176    1.0695    0.2311 C   0  0  0  0  0  0  0  0  0  0  0  0
   -3.7445    1.1255    0.2737 O   0  0  0  0  0  0  0  0  0  0  0  0
   -1.8177   -0.1359    0.0740 N   0  0  0  0  0  0  0  0  0  0  0  0
   -2.6438   -1.3437   -0.0510 C   0  0  0  0  0  0  0  0  0  0  0  0
   -3.0454   -1.6118   -1.5068 C   0  0  0  0  0  0  0  0  0  0  0  0
   -3.7934   -2.9133   -1.6406 C   0  0  0  0  0  0  0  0  0  0  0  0
   -3.0986   -4.1125   -1.8483 C   0  0  0  0  0  0  0  0  0  0  0  0
   -3.7903   -5.3206   -1.9452 C   0  0  0  0  0  0  0  0  0  0  0  0
   -5.1794   -5.3416   -1.8327 C   0  0  0  0  0  0  0  0  0  0  0  0
   -5.8781   -4.1550   -1.6218 C   0  0  0  0  0  0  0  0  0  0  0  0
   -5.1889   -2.9450   -1.5246 C   0  0  0  0  0  0  0  0  0  0  0  0
    2.7492   -0.6273    1.3523 N   0  0  0  0  0  0  0  0  0  0  0  0
    3.6165    0.3959    1.8863 C   0  0  0  0  0  0  0  0  0  0  0  0
    4.7719    0.5494    0.9704 C   0  0  0  0  0  0  0  0  0  0  0  0
    6.0973    0.1670    1.0444 C   0  0  0  0  0  0  0  0  0  0  0  0
    6.6966    0.5713   -0.1739 C   0  0  0  0  0  0  0  0  0  0  0  0
    5.7027    1.1724   -0.9099 C   0  0  0  0  0  0  0  0  0  0  0  0
    4.5328    1.1762   -0.2199 O   0  0  0  0  0  0  0  0  0  0  0  0
    1.2241   -3.0642    1.4440 H   0  0  0  0  0  0  0  0  0  0  0  0
   -0.1743   -2.1124    1.9668 H   0  0  0  0  0  0  0  0  0  0  0  0
   -0.9016    6.5409    0.7717 H   0  0  0  0  0  0  0  0  0  0  0  0
    1.5120    7.1017    0.5854 H   0  0  0  0  0  0  0  0  0  0  0  0
    3.1833    5.3207    0.1901 H   0  0  0  0  0  0  0  0  0  0  0  0
    2.4670    2.9584   -0.0162 H   0  0  0  0  0  0  0  0  0  0  0  0
   -2.1162   -2.2044    0.3709 H   0  0  0  0  0  0  0  0  0  0  0  0
   -3.5458   -1.2296    0.5654 H   0  0  0  0  0  0  0  0  0  0  0  0
   -2.1606   -1.6355   -2.1543 H   0  0  0  0  0  0  0  0  0  0  0  0
   -3.6614   -0.7898   -1.8913 H   0  0  0  0  0  0  0  0  0  0  0  0
   -2.0145   -4.1137   -1.9373 H   0  0  0  0  0  0  0  0  0  0  0  0
   -3.2453   -6.2478   -2.1083 H   0  0  0  0  0  0  0  0  0  0  0  0
   -5.7171   -6.2832   -1.9121 H   0  0  0  0  0  0  0  0  0  0  0  0
   -6.9613   -4.1712   -1.5338 H   0  0  0  0  0  0  0  0  0  0  0  0
   -5.7492   -2.0242   -1.3602 H   0  0  0  0  0  0  0  0  0  0  0  0
    2.5956   -0.5947    0.3500 H   0  0  0  0  0  0  0  0  0  0  0  0
    3.0480    1.3274    1.9613 H   0  0  0  0  0  0  0  0  0  0  0  0
    3.9393    0.1110    2.8935 H   0  0  0  0  0  0  0  0  0  0  0  0
    6.5636   -0.3510    1.8685 H   0  0  0  0  0  0  0  0  0  0  0  0
    7.7226    0.4262   -0.4841 H   0  0  0  0  0  0  0  0  0  0  0  0
    5.6655    1.6144   -1.8943 H   0  0  0  0  0  0  0  0  0  0  0  0
  1  2  2  0
  2  3  1  0
  3  4  1  0
  4  5  1  0
  5  6  2  0
  6  7  1  0
  7  8  2  0
  8  9  1  0
  9 10  1  0
 10 11  2  0
 11 12  1  0
 12 13  2  0
 13 14  1  0
 14 15  2  0
  8 16  1  0
 16 17  2  0
 16 18  1  0
 18 19  1  0
 19 20  1  0
 20 21  1  0
 21 22  2  0
 22 23  1  0
 23 24  2  0
 24 25  1  0
 25 26  2  0
  2 27  1  0
 27 28  1  0
 28 29  1  0
 29 30  2  0
 30 31  1  0
 31 32  2  0
 32 33  1  0
 18  5  1  0
 26 21  1  0
 33 29  1  0
 15  7  1  0
 15 10  1  0
  3 34  1  0
  3 35  1  0
 11 36  1  0
 12 37  1  0
 13 38  1  0
 14 39  1  0
 19 40  1  0
 19 41  1  0
 20 42  1  0
 20 43  1  0
 22 44  1  0
 23 45  1  0
 24 46  1  0
 25 47  1  0
 26 48  1  0
 27 49  1  0
 28 50  1  0
 28 51  1  0
 30 52  1  0
 31 53  1  0
 32 54  1  0
M  END
$$$$
