
     RDKit          3D

 52 54  0  0  0  0  0  0  0  0999 V2000
   -4.8199   -1.1305   -2.6545 C   0  0  0  0  0  0  0  0  0  0  0  0
   -4.1881   -0.2501   -1.6800 N   0  0  0  0  0  0  0  0  0  0  0  0
   -4.9179   -0.0275   -0.4290 C   0  0  0  0  0  0  0  0  0  0  0  0
   -5.0651   -1.2739    0.4133 C   0  0  0  0  0  0  0  0  0  0  0  0
   -6.3326   -1.6714    0.8634 C   0  0  0  0  0  0  0  0  0  0  0  0
   -6.4811   -2.8094    1.6585 C   0  0  0  0  0  0  0  0  0  0  0  0
   -5.3652   -3.5601    2.0181 C   0  0  0  0  0  0  0  0  0  0  0  0
   -4.0999   -3.1728    1.5855 C   0  0  0  0  0  0  0  0  0  0  0  0
   -3.9490   -2.0353    0.7900 C   0  0  0  0  0  0  0  0  0  0  0  0
   -2.8925    0.1946   -1.9332 C   0  0  0  0  0  0  0  0  0  0  0  0
   -2.2768   -0.1338   -2.9507 O   0  0  0  0  0  0  0  0  0  0  0  0
   -2.2531    1.1292   -0.9019 C   0  0  0  0  0  0  0  0  0  0  0  0
   -0.9472    1.5184   -1.3342 O   0  0  0  0  0  0  0  0  0  0  0  0
   -0.2824    2.3202   -0.4584 C   0  0  0  0  0  0  0  0  0  0  0  0
   -0.7493    2.7277    0.5986 O   0  0  0  0  0  0  0  0  0  0  0  0
    1.0871    2.6956   -0.9875 C   0  0  0  0  0  0  0  0  0  0  0  0
    1.6098    1.7015   -1.9343 N   0  0  0  0  0  0  0  0  0  0  0  0
    3.1920    1.8444   -2.4431 S   0  0  0  0  0  6  0  0  0  0  0  0
    3.5477    3.2450   -2.4012 O   0  0  0  0  0  0  0  0  0  0  0  0
    3.3151    1.0588   -3.6493 O   0  0  0  0  0  0  0  0  0  0  0  0
    4.0608    0.9907   -1.1552 C   0  0  0  0  0  0  0  0  0  0  0  0
    4.0092   -0.4032   -1.1093 C   0  0  0  0  0  0  0  0  0  0  0  0
    4.6921   -1.0816   -0.0997 C   0  0  0  0  0  0  0  0  0  0  0  0
    5.4338   -0.3768    0.8633 C   0  0  0  0  0  0  0  0  0  0  0  0
    6.1236   -1.0472    1.8853 C   0  0  0  0  0  0  0  0  0  0  0  0
    6.8615   -0.3367    2.8332 C   0  0  0  0  0  0  0  0  0  0  0  0
    6.9203    1.0522    2.7713 C   0  0  0  0  0  0  0  0  0  0  0  0
    6.2403    1.7356    1.7622 C   0  0  0  0  0  0  0  0  0  0  0  0
    5.4919    1.0369    0.8019 C   0  0  0  0  0  0  0  0  0  0  0  0
    4.8031    1.7123   -0.2166 C   0  0  0  0  0  0  0  0  0  0  0  0
   -4.3447   -1.0546   -3.6364 H   0  0  0  0  0  0  0  0  0  0  0  0
   -4.7400   -2.1645   -2.3073 H   0  0  0  0  0  0  0  0  0  0  0  0
   -5.8738   -0.8566   -2.7589 H   0  0  0  0  0  0  0  0  0  0  0  0
   -5.9032    0.3665   -0.7072 H   0  0  0  0  0  0  0  0  0  0  0  0
   -4.4437    0.7434    0.1835 H   0  0  0  0  0  0  0  0  0  0  0  0
   -7.2184   -1.0988    0.5970 H   0  0  0  0  0  0  0  0  0  0  0  0
   -7.4688   -3.1101    1.9988 H   0  0  0  0  0  0  0  0  0  0  0  0
   -5.4812   -4.4464    2.6366 H   0  0  0  0  0  0  0  0  0  0  0  0
   -3.2280   -3.7586    1.8657 H   0  0  0  0  0  0  0  0  0  0  0  0
   -2.9513   -1.7570    0.4605 H   0  0  0  0  0  0  0  0  0  0  0  0
   -2.1709    0.5968    0.0511 H   0  0  0  0  0  0  0  0  0  0  0  0
   -2.8787    2.0237   -0.8097 H   0  0  0  0  0  0  0  0  0  0  0  0
    0.9849    3.6627   -1.4887 H   0  0  0  0  0  0  0  0  0  0  0  0
    1.7623    2.7820   -0.1314 H   0  0  0  0  0  0  0  0  0  0  0  0
    0.9651    1.3269   -2.6352 H   0  0  0  0  0  0  0  0  0  0  0  0
    3.4444   -0.9624   -1.8521 H   0  0  0  0  0  0  0  0  0  0  0  0
    4.6464   -2.1688   -0.0719 H   0  0  0  0  0  0  0  0  0  0  0  0
    6.0932   -2.1326    1.9500 H   0  0  0  0  0  0  0  0  0  0  0  0
    7.3922   -0.8692    3.6183 H   0  0  0  0  0  0  0  0  0  0  0  0
    7.4973    1.6056    3.5077 H   0  0  0  0  0  0  0  0  0  0  0  0
    6.3012    2.8214    1.7311 H   0  0  0  0  0  0  0  0  0  0  0  0
    4.8475    2.7978   -0.2771 H   0  0  0  0  0  0  0  0  0  0  0  0
  1  2  1  0
  2  3  1  0
  3  4  1  0
  4  5  2  0
  5  6  1  0
  6  7  2  0
  7  8  1  0
  8  9  2  0
  2 10  1  0
 10 11  2  0
 10 12  1  0
 12 13  1  0
 13 14  1  0
 14 15  2  0
 14 16  1  0
 16 17  1  0
 17 18  1  0
 18 19  2  0
 18 20  2  0
 18 21  1  0
 21 22  2  0
 22 23  1  0
 23 24  2  0
 24 25  1  0
 25 26  2  0
 26 27  1  0
 27 28  2  0
 28 29  1  0
 29 30  2  0
  9  4  1  0
 30 21  1  0
 29 24  1  0
  1 31  1  0
  1 32  1  0
  1 33  1  0
  3 34  1  0
  3 35  1  0
  5 36  1  0
  6 37  1  0
  7 38  1  0
  8 39  1  0
  9 40  1  0
 12 41  1  0
 12 42  1  0
 16 43  1  0
 16 44  1  0
 17 45  1  0
 22 46  1  0
 23 47  1  0
 25 48  1  0
 26 49  1  0
 27 50  1  0
 28 51  1  0
 30 52  1  0
M  END
$$$$
