
     RDKit          3D

 26 27  0  0  0  0  0  0  0  0999 V2000
   -1.0843   -0.9238   -2.4248 O   0  0  0  0  0  0  0  0  0  0  0  0
   -1.3151   -0.4709   -1.3047 C   0  0  0  0  0  0  0  0  0  0  0  0
   -0.2146   -0.2184   -0.2685 C   0  0  0  0  0  0  0  0  0  0  0  0
    1.0665   -0.5710   -0.7716 O   0  0  0  0  0  0  0  0  0  0  0  0
    2.1497   -0.3987    0.0501 C   0  0  0  0  0  0  0  0  0  0  0  0
    2.0856    0.1036    1.3552 C   0  0  0  0  0  0  0  0  0  0  0  0
    3.2490    0.2442    2.1202 C   0  0  0  0  0  0  0  0  0  0  0  0
    4.4867   -0.1142    1.5917 C   0  0  0  0  0  0  0  0  0  0  0  0
    4.5650   -0.6152    0.2943 C   0  0  0  0  0  0  0  0  0  0  0  0
    3.4042   -0.7568   -0.4722 C   0  0  0  0  0  0  0  0  0  0  0  0
    3.5688   -1.3847   -2.0756 Cl  0  0  0  0  0  0  0  0  0  0  0  0
   -2.6744   -0.1462   -0.9012 C   0  0  0  0  0  0  0  0  0  0  0  0
   -3.1879    0.3654    0.2789 C   0  0  0  0  0  0  0  0  0  0  0  0
   -4.5916    0.4859    0.1279 C   0  0  0  0  0  0  0  0  0  0  0  0
   -4.9060    0.0471   -1.1368 C   0  0  0  0  0  0  0  0  0  0  0  0
   -3.7440   -0.3325   -1.7514 N   0  0  0  0  0  0  0  0  0  0  0  0
   -0.4460   -0.8298    0.6119 H   0  0  0  0  0  0  0  0  0  0  0  0
   -0.2331    0.8503   -0.0237 H   0  0  0  0  0  0  0  0  0  0  0  0
    1.1472    0.3972    1.8135 H   0  0  0  0  0  0  0  0  0  0  0  0
    3.1871    0.6356    3.1334 H   0  0  0  0  0  0  0  0  0  0  0  0
    5.3888   -0.0039    2.1883 H   0  0  0  0  0  0  0  0  0  0  0  0
    5.5313   -0.8947   -0.1175 H   0  0  0  0  0  0  0  0  0  0  0  0
   -2.6245    0.6293    1.1648 H   0  0  0  0  0  0  0  0  0  0  0  0
   -5.2971    0.8532    0.8627 H   0  0  0  0  0  0  0  0  0  0  0  0
   -5.8545   -0.0279   -1.6523 H   0  0  0  0  0  0  0  0  0  0  0  0
   -3.6567   -0.6997   -2.6926 H   0  0  0  0  0  0  0  0  0  0  0  0
  1  2  2  0
  2  3  1  0
  3  4  1  0
  4  5  1  0
  5  6  2  0
  6  7  1  0
  7  8  2  0
  8  9  1  0
  9 10  2  0
 10 11  1  0
  2 12  1  0
 12 13  2  0
 13 14  1  0
 14 15  2  0
 15 16  1  0
 10  5  1  0
 16 12  1  0
  3 17  1  0
  3 18  1  0
  6 19  1  0
  7 20  1  0
  8 21  1  0
  9 22  1  0
 13 23  1  0
 14 24  1  0
 15 25  1  0
 16 26  1  0
M  END
$$$$
