
     RDKit          3D

 49 52  0  0  0  0  0  0  0  0999 V2000
   -5.3979    1.2680   -1.6589 C   0  0  0  0  0  0  0  0  0  0  0  0
   -4.3489    0.3607   -1.0559 C   0  0  0  0  0  0  0  0  0  0  0  0
   -3.6602   -0.3791   -1.8790 N   0  0  0  0  0  0  0  0  0  0  0  0
   -2.5992   -1.1021   -1.3955 N   0  0  0  0  0  0  0  0  0  0  0  0
   -1.4594   -0.4751   -0.8864 C   0  0  0  0  0  0  0  0  0  0  0  0
   -1.3821    0.7110   -0.5797 O   0  0  0  0  0  0  0  0  0  0  0  0
   -0.3324   -1.3948   -0.7487 C   0  0  0  0  0  0  0  0  0  0  0  0
   -0.4301   -2.7183   -1.0847 N   0  0  0  0  0  0  0  0  0  0  0  0
    0.7393   -3.2898   -0.8633 N   0  0  0  0  0  0  0  0  0  0  0  0
    1.6121   -2.3585   -0.3738 N   0  0  0  0  0  0  0  0  0  0  0  0
    2.9449   -2.7085   -0.0353 C   0  0  0  0  0  0  0  0  0  0  0  0
    3.7950   -1.8087    0.4598 N   0  0  0  0  0  0  0  0  0  0  0  0
    4.9784   -2.5210    0.6429 O   0  0  0  0  0  0  0  0  0  0  0  0
    4.8286   -3.8522    0.2708 N   0  0  0  0  0  0  0  0  0  0  0  0
    3.5665   -3.9678   -0.1406 C   0  0  0  0  0  0  0  0  0  0  0  0
    3.0137   -5.1160   -0.5757 N   0  0  0  0  0  0  0  0  0  0  0  0
    0.9529   -1.1339   -0.2987 C   0  0  0  0  0  0  0  0  0  0  0  0
    1.5802    0.1366    0.1424 C   0  0  0  0  0  0  0  0  0  0  0  0
    2.3971    0.5559   -0.9461 O   0  0  0  0  0  0  0  0  0  0  0  0
    3.1475    1.6846   -0.7655 C   0  0  0  0  0  0  0  0  0  0  0  0
    3.1077    2.5299    0.3466 C   0  0  0  0  0  0  0  0  0  0  0  0
    3.9346    3.6564    0.3980 C   0  0  0  0  0  0  0  0  0  0  0  0
    4.7930    3.9323   -0.6598 C   0  0  0  0  0  0  0  0  0  0  0  0
    5.5833    5.0118   -0.6039 F   0  0  0  0  0  0  0  0  0  0  0  0
    4.8407    3.1040   -1.7726 C   0  0  0  0  0  0  0  0  0  0  0  0
    4.0149    1.9802   -1.8238 C   0  0  0  0  0  0  0  0  0  0  0  0
   -4.2409    0.3711    0.4258 C   0  0  0  0  0  0  0  0  0  0  0  0
   -4.3644   -0.8274    1.1375 C   0  0  0  0  0  0  0  0  0  0  0  0
   -4.2732   -0.8180    2.5309 C   0  0  0  0  0  0  0  0  0  0  0  0
   -4.0646    0.3869    3.2032 C   0  0  0  0  0  0  0  0  0  0  0  0
   -3.9461    0.3956    4.9195 Cl  0  0  0  0  0  0  0  0  0  0  0  0
   -3.9488    1.5842    2.4959 C   0  0  0  0  0  0  0  0  0  0  0  0
   -4.0407    1.5790    1.1021 C   0  0  0  0  0  0  0  0  0  0  0  0
   -5.9651    0.7168   -2.4155 H   0  0  0  0  0  0  0  0  0  0  0  0
   -6.0980    1.6360   -0.9039 H   0  0  0  0  0  0  0  0  0  0  0  0
   -4.9026    2.1188   -2.1362 H   0  0  0  0  0  0  0  0  0  0  0  0
   -2.4079   -1.9554   -1.9177 H   0  0  0  0  0  0  0  0  0  0  0  0
    3.6165   -5.9018   -0.7965 H   0  0  0  0  0  0  0  0  0  0  0  0
    2.1135   -5.1238   -1.0524 H   0  0  0  0  0  0  0  0  0  0  0  0
    2.1631   -0.0101    1.0582 H   0  0  0  0  0  0  0  0  0  0  0  0
    0.8209    0.8960    0.3506 H   0  0  0  0  0  0  0  0  0  0  0  0
    2.4454    2.3477    1.1864 H   0  0  0  0  0  0  0  0  0  0  0  0
    3.9128    4.3205    1.2565 H   0  0  0  0  0  0  0  0  0  0  0  0
    5.5165    3.3345   -2.5893 H   0  0  0  0  0  0  0  0  0  0  0  0
    4.0481    1.3272   -2.6928 H   0  0  0  0  0  0  0  0  0  0  0  0
   -4.5328   -1.7644    0.6121 H   0  0  0  0  0  0  0  0  0  0  0  0
   -4.3663   -1.7488    3.0845 H   0  0  0  0  0  0  0  0  0  0  0  0
   -3.7796    2.5206    3.0213 H   0  0  0  0  0  0  0  0  0  0  0  0
   -3.9261    2.5092    0.5511 H   0  0  0  0  0  0  0  0  0  0  0  0
  1  2  1  0
  2  3  2  3
  3  4  1  0
  4  5  1  0
  5  6  2  0
  5  7  1  0
  7  8  1  0
  8  9  2  0
  9 10  1  0
 10 11  1  0
 11 12  2  0
 12 13  1  0
 13 14  1  0
 14 15  2  0
 15 16  1  0
 10 17  1  0
 17 18  1  0
 18 19  1  0
 19 20  1  0
 20 21  2  0
 21 22  1  0
 22 23  2  0
 23 24  1  0
 23 25  1  0
 25 26  2  0
  2 27  1  0
 27 28  2  0
 28 29  1  0
 29 30  2  0
 30 31  1  0
 30 32  1  0
 32 33  2  0
 17  7  2  0
 26 20  1  0
 33 27  1  0
 15 11  1  0
  1 34  1  0
  1 35  1  0
  1 36  1  0
  4 37  1  0
 16 38  1  0
 16 39  1  0
 18 40  1  0
 18 41  1  0
 21 42  1  0
 22 43  1  0
 25 44  1  0
 26 45  1  0
 28 46  1  0
 29 47  1  0
 32 48  1  0
 33 49  1  0
M  END
$$$$
