
     RDKit          3D

 38 40  0  0  0  0  0  0  0  0999 V2000
    0.6217   -1.7378    1.8382 O   0  0  0  0  0  0  0  0  0  0  0  0
    0.3679   -1.2447    0.7426 C   0  0  0  0  0  0  0  0  0  0  0  0
    1.3018   -1.1628   -0.2593 N   0  0  0  0  0  0  0  0  0  0  0  0
    2.6574   -1.6231   -0.0440 C   0  0  0  0  0  0  0  0  0  0  0  0
    3.5627   -0.4865    0.3636 C   0  0  0  0  0  0  0  0  0  0  0  0
    4.3363    0.1903   -0.5912 C   0  0  0  0  0  0  0  0  0  0  0  0
    5.1554    1.2565   -0.2110 C   0  0  0  0  0  0  0  0  0  0  0  0
    5.1997    1.6555    1.1234 C   0  0  0  0  0  0  0  0  0  0  0  0
    6.2075    2.9703    1.5885 Cl  0  0  0  0  0  0  0  0  0  0  0  0
    4.4310    0.9992    2.0814 C   0  0  0  0  0  0  0  0  0  0  0  0
    3.6131   -0.0671    1.7016 C   0  0  0  0  0  0  0  0  0  0  0  0
   -0.8810   -0.7309    0.4119 N   0  0  0  0  0  0  0  0  0  0  0  0
   -1.9213   -0.8276    1.4319 C   0  0  0  0  0  0  0  0  0  0  0  0
   -2.9353    0.3052    1.3052 C   0  0  0  0  0  0  0  0  0  0  0  0
   -3.4707    0.4115   -0.0979 C   0  0  0  0  0  0  0  0  0  0  0  0
   -4.7091    1.0236   -0.3338 C   0  0  0  0  0  0  0  0  0  0  0  0
   -5.1979    1.1477   -1.6335 C   0  0  0  0  0  0  0  0  0  0  0  0
   -4.4506    0.6698   -2.7067 C   0  0  0  0  0  0  0  0  0  0  0  0
   -3.2102    0.0722   -2.4816 C   0  0  0  0  0  0  0  0  0  0  0  0
   -2.7035   -0.0556   -1.1786 C   0  0  0  0  0  0  0  0  0  0  0  0
   -1.3550   -0.7084   -0.9733 C   0  0  0  0  0  0  0  0  0  0  0  0
    1.2265   -0.3333   -0.8262 H   0  0  0  0  0  0  0  0  0  0  0  0
    3.0013   -2.0539   -0.9910 H   0  0  0  0  0  0  0  0  0  0  0  0
    2.6872   -2.4247    0.7027 H   0  0  0  0  0  0  0  0  0  0  0  0
    4.3086   -0.1095   -1.6366 H   0  0  0  0  0  0  0  0  0  0  0  0
    5.7538    1.7708   -0.9581 H   0  0  0  0  0  0  0  0  0  0  0  0
    4.4590    1.3113    3.1218 H   0  0  0  0  0  0  0  0  0  0  0  0
    3.0066   -0.5702    2.4544 H   0  0  0  0  0  0  0  0  0  0  0  0
   -2.4056   -1.8060    1.3170 H   0  0  0  0  0  0  0  0  0  0  0  0
   -1.4808   -0.7981    2.4348 H   0  0  0  0  0  0  0  0  0  0  0  0
   -2.4601    1.2599    1.5623 H   0  0  0  0  0  0  0  0  0  0  0  0
   -3.7537    0.1323    2.0135 H   0  0  0  0  0  0  0  0  0  0  0  0
   -5.2996    1.4062    0.4957 H   0  0  0  0  0  0  0  0  0  0  0  0
   -6.1615    1.6190   -1.8086 H   0  0  0  0  0  0  0  0  0  0  0  0
   -4.8327    0.7657   -3.7197 H   0  0  0  0  0  0  0  0  0  0  0  0
   -2.6376   -0.2930   -3.3315 H   0  0  0  0  0  0  0  0  0  0  0  0
   -0.6234   -0.1832   -1.5954 H   0  0  0  0  0  0  0  0  0  0  0  0
   -1.4080   -1.7506   -1.3123 H   0  0  0  0  0  0  0  0  0  0  0  0
  1  2  2  0
  2  3  1  0
  3  4  1  0
  4  5  1  0
  5  6  2  0
  6  7  1  0
  7  8  2  0
  8  9  1  0
  8 10  1  0
 10 11  2  0
  2 12  1  0
 12 13  1  0
 13 14  1  0
 14 15  1  0
 15 16  2  0
 16 17  1  0
 17 18  2  0
 18 19  1  0
 19 20  2  0
 20 21  1  0
 11  5  1  0
 21 12  1  0
 20 15  1  0
  3 22  1  0
  4 23  1  0
  4 24  1  0
  6 25  1  0
  7 26  1  0
 10 27  1  0
 11 28  1  0
 13 29  1  0
 13 30  1  0
 14 31  1  0
 14 32  1  0
 16 33  1  0
 17 34  1  0
 18 35  1  0
 19 36  1  0
 21 37  1  0
 21 38  1  0
M  END
$$$$
