
     RDKit          3D

 53 52  0  0  0  0  0  0  0  0999 V2000
   -5.9030    3.6761    0.9366 C   0  0  0  0  0  0  0  0  0  0  0  0
   -6.2097    2.2123    0.6107 C   0  0  0  0  0  0  0  0  0  0  0  0
   -6.9542    1.5680    1.7808 C   0  0  0  0  0  0  0  0  0  0  0  0
   -4.9065    1.4704    0.2644 C   0  0  0  0  0  0  0  0  0  0  0  0
   -5.1326    0.0353   -0.2123 C   0  0  0  0  0  0  0  0  0  0  0  0
   -3.8883   -0.5900   -0.6157 N   0  0  0  0  0  0  0  0  0  0  0  0
   -3.3639   -0.4171   -1.8800 C   0  0  0  0  0  0  0  0  0  0  0  0
   -3.9218    0.2249   -2.7619 O   0  0  0  0  0  0  0  0  0  0  0  0
   -2.0241   -1.1007   -2.0590 C   0  0  0  0  0  0  0  0  0  0  0  0
   -1.5014   -0.9139   -3.4768 C   0  0  0  0  0  0  0  0  0  0  0  0
    0.0732   -1.8015   -3.7577 S   0  0  0  0  0  0  0  0  0  0  0  0
    1.2006   -0.7918   -2.7337 C   0  0  0  0  0  0  0  0  0  0  0  0
    1.6554   -1.5876   -1.5176 C   0  0  0  0  0  0  0  0  0  0  0  0
    2.5536   -0.7551   -0.6276 C   0  0  0  0  0  0  0  0  0  0  0  0
    2.7601    0.4402   -0.8019 O   0  0  0  0  0  0  0  0  0  0  0  0
    3.0915   -1.4774    0.4174 N   0  0  0  0  0  0  0  0  0  0  0  0
    4.0260   -0.8837    1.3539 C   0  0  0  0  0  0  0  0  0  0  0  0
    5.4549   -0.9099    0.8104 C   0  0  0  0  0  0  0  0  0  0  0  0
    6.4690   -0.1974    1.7229 C   0  0  0  0  0  0  0  0  0  0  0  0
    6.5993   -0.8722    3.0890 C   0  0  0  0  0  0  0  0  0  0  0  0
    7.8374   -0.1470    1.0389 C   0  0  0  0  0  0  0  0  0  0  0  0
   -6.8243    4.2293    1.1480 H   0  0  0  0  0  0  0  0  0  0  0  0
   -5.2487    3.7601    1.8111 H   0  0  0  0  0  0  0  0  0  0  0  0
   -5.4068    4.1673    0.0929 H   0  0  0  0  0  0  0  0  0  0  0  0
   -6.8683    2.1948   -0.2670 H   0  0  0  0  0  0  0  0  0  0  0  0
   -7.8406    2.1542    2.0467 H   0  0  0  0  0  0  0  0  0  0  0  0
   -7.2974    0.5602    1.5284 H   0  0  0  0  0  0  0  0  0  0  0  0
   -6.3160    1.4997    2.6682 H   0  0  0  0  0  0  0  0  0  0  0  0
   -4.3786    2.0278   -0.5205 H   0  0  0  0  0  0  0  0  0  0  0  0
   -4.2363    1.4629    1.1339 H   0  0  0  0  0  0  0  0  0  0  0  0
   -5.5454   -0.5850    0.5886 H   0  0  0  0  0  0  0  0  0  0  0  0
   -5.8300    0.0178   -1.0569 H   0  0  0  0  0  0  0  0  0  0  0  0
   -3.3260   -1.0395    0.0952 H   0  0  0  0  0  0  0  0  0  0  0  0
   -2.1531   -2.1662   -1.8344 H   0  0  0  0  0  0  0  0  0  0  0  0
   -1.3324   -0.6694   -1.3271 H   0  0  0  0  0  0  0  0  0  0  0  0
   -2.2258   -1.3106   -4.1971 H   0  0  0  0  0  0  0  0  0  0  0  0
   -1.3638    0.1459   -3.7175 H   0  0  0  0  0  0  0  0  0  0  0  0
    0.7187    0.1478   -2.4445 H   0  0  0  0  0  0  0  0  0  0  0  0
    2.0661   -0.5293   -3.3520 H   0  0  0  0  0  0  0  0  0  0  0  0
    0.7973   -1.9080   -0.9151 H   0  0  0  0  0  0  0  0  0  0  0  0
    2.2123   -2.4787   -1.8321 H   0  0  0  0  0  0  0  0  0  0  0  0
    2.9853   -2.4839    0.4233 H   0  0  0  0  0  0  0  0  0  0  0  0
    3.7146    0.1457    1.5623 H   0  0  0  0  0  0  0  0  0  0  0  0
    3.9463   -1.4622    2.2790 H   0  0  0  0  0  0  0  0  0  0  0  0
    5.7627   -1.9513    0.6482 H   0  0  0  0  0  0  0  0  0  0  0  0
    5.4698   -0.4318   -0.1778 H   0  0  0  0  0  0  0  0  0  0  0  0
    6.1346    0.8358    1.8808 H   0  0  0  0  0  0  0  0  0  0  0  0
    6.8682   -1.9289    2.9859 H   0  0  0  0  0  0  0  0  0  0  0  0
    7.3738   -0.3841    3.6908 H   0  0  0  0  0  0  0  0  0  0  0  0
    5.6646   -0.8112    3.6545 H   0  0  0  0  0  0  0  0  0  0  0  0
    8.2277   -1.1539    0.8557 H   0  0  0  0  0  0  0  0  0  0  0  0
    7.7730    0.3722    0.0769 H   0  0  0  0  0  0  0  0  0  0  0  0
    8.5631    0.3905    1.6585 H   0  0  0  0  0  0  0  0  0  0  0  0
  1  2  1  0
  2  3  1  0
  2  4  1  0
  4  5  1  0
  5  6  1  0
  6  7  1  0
  7  8  2  0
  7  9  1  0
  9 10  1  0
 10 11  1  0
 11 12  1  0
 12 13  1  0
 13 14  1  0
 14 15  2  0
 14 16  1  0
 16 17  1  0
 17 18  1  0
 18 19  1  0
 19 20  1  0
 19 21  1  0
  1 22  1  0
  1 23  1  0
  1 24  1  0
  2 25  1  0
  3 26  1  0
  3 27  1  0
  3 28  1  0
  4 29  1  0
  4 30  1  0
  5 31  1  0
  5 32  1  0
  6 33  1  0
  9 34  1  0
  9 35  1  0
 10 36  1  0
 10 37  1  0
 12 38  1  0
 12 39  1  0
 13 40  1  0
 13 41  1  0
 16 42  1  0
 17 43  1  0
 17 44  1  0
 18 45  1  0
 18 46  1  0
 19 47  1  0
 20 48  1  0
 20 49  1  0
 20 50  1  0
 21 51  1  0
 21 52  1  0
 21 53  1  0
M  END
$$$$
