
     RDKit          3D

 53 55  0  0  0  0  0  0  0  0999 V2000
    8.6365    0.0168    1.0571 C   0  0  0  0  0  0  0  0  0  0  0  0
    7.6463    0.1944    2.0627 O   0  0  0  0  0  0  0  0  0  0  0  0
    6.3535   -0.0832    1.7179 C   0  0  0  0  0  0  0  0  0  0  0  0
    5.4351    0.0321    2.7663 C   0  0  0  0  0  0  0  0  0  0  0  0
    4.0784   -0.2227    2.5587 C   0  0  0  0  0  0  0  0  0  0  0  0
    3.6340   -0.5728    1.2828 C   0  0  0  0  0  0  0  0  0  0  0  0
    1.9093   -0.9366    1.0158 S   0  0  0  0  0  6  0  0  0  0  0  0
    1.8266   -1.7802   -0.1565 O   0  0  0  0  0  0  0  0  0  0  0  0
    1.3588   -1.3575    2.2852 O   0  0  0  0  0  0  0  0  0  0  0  0
    1.2366    0.5454    0.6286 N   0  0  0  0  0  0  0  0  0  0  0  0
    1.1835    1.6223    1.6201 C   0  0  0  0  0  0  0  0  0  0  0  0
    1.8587    2.7723    0.9053 C   0  0  0  0  0  0  0  0  0  0  0  0
    1.5203    2.5687   -0.4706 O   0  0  0  0  0  0  0  0  0  0  0  0
    1.5586    1.1420   -0.6765 C   0  0  0  0  0  0  0  0  0  0  0  0
    0.5270    0.7540   -1.7529 C   0  0  0  0  0  0  0  0  0  0  0  0
   -0.8453    0.9965   -1.3398 N   0  0  0  0  0  0  0  0  0  0  0  0
   -1.9275    0.5379   -2.0438 C   0  0  0  0  0  0  0  0  0  0  0  0
   -1.8944   -0.1179   -3.0752 O   0  0  0  0  0  0  0  0  0  0  0  0
   -3.2839    0.9163   -1.4074 C   0  0  0  0  0  0  0  0  0  0  0  0
   -3.3180    1.6440   -0.4251 O   0  0  0  0  0  0  0  0  0  0  0  0
   -4.3602    0.3478   -2.0422 N   0  0  0  0  0  0  0  0  0  0  0  0
   -5.7236    0.5245   -1.6000 C   0  0  0  0  0  0  0  0  0  0  0  0
   -6.3328   -0.7126   -0.9776 C   0  0  0  0  0  0  0  0  0  0  0  0
   -5.5305   -1.7317   -0.4316 C   0  0  0  0  0  0  0  0  0  0  0  0
   -6.0983   -2.8576    0.1704 C   0  0  0  0  0  0  0  0  0  0  0  0
   -7.4794   -2.9815    0.2547 C   0  0  0  0  0  0  0  0  0  0  0  0
   -8.2940   -1.9754   -0.2576 C   0  0  0  0  0  0  0  0  0  0  0  0
   -7.7277   -0.8469   -0.8610 C   0  0  0  0  0  0  0  0  0  0  0  0
   -8.8125    0.3724   -1.4365 Cl  0  0  0  0  0  0  0  0  0  0  0  0
    4.5470   -0.7183    0.2344 C   0  0  0  0  0  0  0  0  0  0  0  0
    5.9054   -0.4638    0.4520 C   0  0  0  0  0  0  0  0  0  0  0  0
    8.4768    0.7063    0.2214 H   0  0  0  0  0  0  0  0  0  0  0  0
    8.6698   -1.0224    0.7139 H   0  0  0  0  0  0  0  0  0  0  0  0
    9.6086    0.2518    1.5004 H   0  0  0  0  0  0  0  0  0  0  0  0
    5.7867    0.3076    3.7583 H   0  0  0  0  0  0  0  0  0  0  0  0
    3.3872   -0.1587    3.3962 H   0  0  0  0  0  0  0  0  0  0  0  0
    0.1289    1.8504    1.8120 H   0  0  0  0  0  0  0  0  0  0  0  0
    1.6605    1.3950    2.5742 H   0  0  0  0  0  0  0  0  0  0  0  0
    1.5065    3.7513    1.2426 H   0  0  0  0  0  0  0  0  0  0  0  0
    2.9499    2.7279    1.0043 H   0  0  0  0  0  0  0  0  0  0  0  0
    2.5690    0.8953   -1.0138 H   0  0  0  0  0  0  0  0  0  0  0  0
    0.6911    1.3466   -2.6596 H   0  0  0  0  0  0  0  0  0  0  0  0
    0.6150   -0.3045   -2.0197 H   0  0  0  0  0  0  0  0  0  0  0  0
   -1.0282    1.5648   -0.5171 H   0  0  0  0  0  0  0  0  0  0  0  0
   -4.1608   -0.2489   -2.8402 H   0  0  0  0  0  0  0  0  0  0  0  0
   -5.7791    1.3522   -0.8843 H   0  0  0  0  0  0  0  0  0  0  0  0
   -6.2770    0.8031   -2.5027 H   0  0  0  0  0  0  0  0  0  0  0  0
   -4.4457   -1.6641   -0.4669 H   0  0  0  0  0  0  0  0  0  0  0  0
   -5.4567   -3.6353    0.5796 H   0  0  0  0  0  0  0  0  0  0  0  0
   -7.9207   -3.8556    0.7261 H   0  0  0  0  0  0  0  0  0  0  0  0
   -9.3742   -2.0701   -0.1751 H   0  0  0  0  0  0  0  0  0  0  0  0
    4.2171   -1.0395   -0.7511 H   0  0  0  0  0  0  0  0  0  0  0  0
    6.5879   -0.5819   -0.3838 H   0  0  0  0  0  0  0  0  0  0  0  0
  1  2  1  0
  2  3  1  0
  3  4  2  0
  4  5  1  0
  5  6  2  0
  6  7  1  0
  7  8  2  0
  7  9  2  0
  7 10  1  0
 10 11  1  0
 11 12  1  0
 12 13  1  0
 13 14  1  0
 14 15  1  0
 15 16  1  0
 16 17  1  0
 17 18  2  0
 17 19  1  0
 19 20  2  0
 19 21  1  0
 21 22  1  0
 22 23  1  0
 23 24  2  0
 24 25  1  0
 25 26  2  0
 26 27  1  0
 27 28  2  0
 28 29  1  0
  6 30  1  0
 30 31  2  0
 31  3  1  0
 14 10  1  0
 28 23  1  0
  1 32  1  0
  1 33  1  0
  1 34  1  0
  4 35  1  0
  5 36  1  0
 11 37  1  0
 11 38  1  0
 12 39  1  0
 12 40  1  0
 14 41  1  0
 15 42  1  0
 15 43  1  0
 16 44  1  0
 21 45  1  0
 22 46  1  0
 22 47  1  0
 24 48  1  0
 25 49  1  0
 26 50  1  0
 27 51  1  0
 30 52  1  0
 31 53  1  0
M  END
$$$$
