
     RDKit          3D

 32 34  0  0  0  0  0  0  0  0999 V2000
   -0.4827   -1.7816   -0.2065 O   0  0  0  0  0  0  0  0  0  0  0  0
   -0.3775   -0.5693   -0.1087 C   0  0  0  0  0  0  0  0  0  0  0  0
   -1.5375    0.3756    0.0287 C   0  0  0  0  0  0  0  0  0  0  0  0
   -2.9664    0.0592    0.0146 C   0  0  0  0  0  0  0  0  0  0  0  0
   -3.4523   -1.0752   -0.6505 C   0  0  0  0  0  0  0  0  0  0  0  0
   -4.8184   -1.3733   -0.6616 C   0  0  0  0  0  0  0  0  0  0  0  0
   -5.7206   -0.5423   -0.0037 C   0  0  0  0  0  0  0  0  0  0  0  0
   -5.2574    0.5851    0.6681 C   0  0  0  0  0  0  0  0  0  0  0  0
   -3.8912    0.8824    0.6784 C   0  0  0  0  0  0  0  0  0  0  0  0
   -0.9588    1.5845    0.0943 C   0  0  0  0  0  0  0  0  0  0  0  0
    0.4172    1.5699    0.0674 N   0  0  0  0  0  0  0  0  0  0  0  0
    0.7796    0.2240   -0.0972 N   0  0  0  0  0  0  0  0  0  0  0  0
    2.1383   -0.1619   -0.1086 C   0  0  0  0  0  0  0  0  0  0  0  0
    2.5138   -1.5005   -0.2958 C   0  0  0  0  0  0  0  0  0  0  0  0
    3.8601   -1.8852   -0.3101 C   0  0  0  0  0  0  0  0  0  0  0  0
    4.8618   -0.9349   -0.1365 C   0  0  0  0  0  0  0  0  0  0  0  0
    4.5023    0.4026    0.0534 C   0  0  0  0  0  0  0  0  0  0  0  0
    5.5485    1.4153    0.2363 N   0  0  0  0  0  4  0  0  0  0  0  0
    6.7163    1.0221    0.3655 O   0  0  0  0  0  0  0  0  0  0  0  0
    5.2022    2.6055    0.2437 O   0  0  0  0  0  1  0  0  0  0  0  0
    3.1531    0.7913    0.0695 C   0  0  0  0  0  0  0  0  0  0  0  0
   -2.7754   -1.7470   -1.1750 H   0  0  0  0  0  0  0  0  0  0  0  0
   -5.1735   -2.2588   -1.1828 H   0  0  0  0  0  0  0  0  0  0  0  0
   -6.7818   -0.7768   -0.0102 H   0  0  0  0  0  0  0  0  0  0  0  0
   -5.9578    1.2317    1.1906 H   0  0  0  0  0  0  0  0  0  0  0  0
   -3.5610    1.7613    1.2274 H   0  0  0  0  0  0  0  0  0  0  0  0
   -1.4543    2.5459    0.1297 H   0  0  0  0  0  0  0  0  0  0  0  0
    0.7831    2.1770   -0.6691 H   0  0  0  0  0  0  0  0  0  0  0  0
    1.7684   -2.2797   -0.4386 H   0  0  0  0  0  0  0  0  0  0  0  0
    4.1193   -2.9319   -0.4571 H   0  0  0  0  0  0  0  0  0  0  0  0
    5.9034   -1.2488   -0.1502 H   0  0  0  0  0  0  0  0  0  0  0  0
    2.8994    1.8340    0.2423 H   0  0  0  0  0  0  0  0  0  0  0  0
  1  2  2  0
  2  3  1  0
  3  4  1  0
  4  5  2  0
  5  6  1  0
  6  7  2  0
  7  8  1  0
  8  9  2  0
  3 10  2  0
 10 11  1  0
 11 12  1  0
 12 13  1  0
 13 14  2  0
 14 15  1  0
 15 16  2  0
 16 17  1  0
 17 18  1  0
 18 19  2  0
 18 20  1  0
 17 21  2  0
 12  2  1  0
 21 13  1  0
  9  4  1  0
  5 22  1  0
  6 23  1  0
  7 24  1  0
  8 25  1  0
  9 26  1  0
 10 27  1  0
 11 28  1  0
 14 29  1  0
 15 30  1  0
 16 31  1  0
 21 32  1  0
M  CHG  2  18   1  20  -1
M  END
$$$$
