
     RDKit          3D

 65 66  0  0  0  0  0  0  0  0999 V2000
   -3.2495    6.9570   -0.5197 C   0  0  0  0  0  0  0  0  0  0  0  0
   -3.8437    5.8601    0.1666 O   0  0  0  0  0  0  0  0  0  0  0  0
   -3.3696    4.6139   -0.1331 C   0  0  0  0  0  0  0  0  0  0  0  0
   -2.3519    4.3173   -1.0371 C   0  0  0  0  0  0  0  0  0  0  0  0
   -1.9614    2.9893   -1.2438 C   0  0  0  0  0  0  0  0  0  0  0  0
   -2.5834    1.9295   -0.5578 C   0  0  0  0  0  0  0  0  0  0  0  0
   -2.0782    0.5066   -0.7847 C   0  0  0  0  0  0  0  0  0  0  0  0
   -3.1415   -0.6329   -0.6839 C   0  0  0  0  0  0  0  0  0  0  0  0
   -4.3535   -0.4417   -0.7418 O   0  0  0  0  0  0  0  0  0  0  0  0
   -2.5903   -1.9067   -0.6533 N   0  0  0  0  0  0  0  0  0  0  0  0
   -3.3581   -3.1591   -0.7247 C   0  0  0  0  0  0  0  0  0  0  0  0
   -4.4073   -3.2472    0.3969 C   0  0  0  0  0  0  0  0  0  0  0  0
   -2.3682   -4.3253   -0.5380 C   0  0  0  0  0  0  0  0  0  0  0  0
   -4.0358   -3.2976   -2.0954 C   0  0  0  0  0  0  0  0  0  0  0  0
   -0.8636    0.2216    0.0313 N   0  0  0  0  0  0  0  0  0  0  0  0
   -0.9403    0.4415    1.4878 C   0  0  0  0  0  0  0  0  0  0  0  0
   -0.3835    1.8010    1.9352 C   0  0  0  0  0  0  0  0  0  0  0  0
    0.5694    1.6345    2.9821 O   0  0  0  0  0  0  0  0  0  0  0  0
    0.2104   -0.4032   -0.5834 C   0  0  0  0  0  0  0  0  0  0  0  0
    0.1174   -0.8634   -1.7216 O   0  0  0  0  0  0  0  0  0  0  0  0
    1.5009   -0.5134    0.2027 C   0  0  0  0  0  0  0  0  0  0  0  0
    2.6423   -1.0623   -0.6505 C   0  0  0  0  0  0  0  0  0  0  0  0
    3.9575   -1.0176    0.1010 C   0  0  0  0  0  0  0  0  0  0  0  0
    4.0397   -0.5771    1.2436 O   0  0  0  0  0  0  0  0  0  0  0  0
    4.9962   -1.5166   -0.6502 N   0  0  0  0  0  0  0  0  0  0  0  0
    6.3080   -1.5997   -0.2390 C   0  0  0  0  0  0  0  0  0  0  0  0
    6.8918   -1.2215    0.9889 C   0  0  0  0  0  0  0  0  0  0  0  0
    8.2226   -1.5286    0.8473 C   0  0  0  0  0  0  0  0  0  0  0  0
    9.4044   -1.4095    1.7182 C   0  0  0  0  0  0  0  0  0  0  0  0
    8.4284   -2.0582   -0.3863 O   0  0  0  0  0  0  0  0  0  0  0  0
    7.2283   -2.1012   -1.0713 N   0  0  0  0  0  0  0  0  0  0  0  0
   -3.6019    2.2430    0.3520 C   0  0  0  0  0  0  0  0  0  0  0  0
   -3.9892    3.5705    0.5573 C   0  0  0  0  0  0  0  0  0  0  0  0
   -3.7386    7.8724   -0.1737 H   0  0  0  0  0  0  0  0  0  0  0  0
   -3.4125    6.8797   -1.6007 H   0  0  0  0  0  0  0  0  0  0  0  0
   -2.1842    7.0387   -0.2827 H   0  0  0  0  0  0  0  0  0  0  0  0
   -1.8404    5.0917   -1.5999 H   0  0  0  0  0  0  0  0  0  0  0  0
   -1.1584    2.7857   -1.9511 H   0  0  0  0  0  0  0  0  0  0  0  0
   -1.7892    0.4677   -1.8450 H   0  0  0  0  0  0  0  0  0  0  0  0
   -1.6440   -1.9480   -1.0218 H   0  0  0  0  0  0  0  0  0  0  0  0
   -5.2109   -2.5134    0.2724 H   0  0  0  0  0  0  0  0  0  0  0  0
   -3.9514   -3.0701    1.3768 H   0  0  0  0  0  0  0  0  0  0  0  0
   -4.8788   -4.2376    0.4190 H   0  0  0  0  0  0  0  0  0  0  0  0
   -2.8741   -5.2981   -0.5842 H   0  0  0  0  0  0  0  0  0  0  0  0
   -1.8625   -4.2579    0.4314 H   0  0  0  0  0  0  0  0  0  0  0  0
   -1.5909   -4.3140   -1.3112 H   0  0  0  0  0  0  0  0  0  0  0  0
   -3.2982   -3.2413   -2.9044 H   0  0  0  0  0  0  0  0  0  0  0  0
   -4.5605   -4.2556   -2.1843 H   0  0  0  0  0  0  0  0  0  0  0  0
   -4.7682   -2.5021   -2.2699 H   0  0  0  0  0  0  0  0  0  0  0  0
   -0.4093   -0.3711    1.9946 H   0  0  0  0  0  0  0  0  0  0  0  0
   -1.9853    0.3400    1.8016 H   0  0  0  0  0  0  0  0  0  0  0  0
   -1.1899    2.4238    2.3313 H   0  0  0  0  0  0  0  0  0  0  0  0
    0.0955    2.3495    1.1189 H   0  0  0  0  0  0  0  0  0  0  0  0
    1.4088    1.3448    2.5852 H   0  0  0  0  0  0  0  0  0  0  0  0
    1.7685    0.4853    0.5625 H   0  0  0  0  0  0  0  0  0  0  0  0
    1.3474   -1.1734    1.0625 H   0  0  0  0  0  0  0  0  0  0  0  0
    2.4328   -2.0986   -0.9361 H   0  0  0  0  0  0  0  0  0  0  0  0
    2.7495   -0.4711   -1.5669 H   0  0  0  0  0  0  0  0  0  0  0  0
    4.8393   -1.8613   -1.5882 H   0  0  0  0  0  0  0  0  0  0  0  0
    6.4159   -0.7873    1.8575 H   0  0  0  0  0  0  0  0  0  0  0  0
    9.1391   -0.9618    2.6806 H   0  0  0  0  0  0  0  0  0  0  0  0
    9.8400   -2.3955    1.9074 H   0  0  0  0  0  0  0  0  0  0  0  0
   10.1668   -0.7796    1.2486 H   0  0  0  0  0  0  0  0  0  0  0  0
   -4.1157    1.4635    0.9120 H   0  0  0  0  0  0  0  0  0  0  0  0
   -4.7874    3.7919    1.2628 H   0  0  0  0  0  0  0  0  0  0  0  0
  1  2  1  0
  2  3  1  0
  3  4  2  0
  4  5  1  0
  5  6  2  0
  6  7  1  0
  7  8  1  0
  8  9  2  0
  8 10  1  0
 10 11  1  0
 11 12  1  0
 11 13  1  0
 11 14  1  0
  7 15  1  0
 15 16  1  0
 16 17  1  0
 17 18  1  0
 15 19  1  0
 19 20  2  0
 19 21  1  0
 21 22  1  0
 22 23  1  0
 23 24  2  0
 23 25  1  0
 25 26  1  0
 26 27  1  0
 27 28  2  0
 28 29  1  0
 28 30  1  0
 30 31  1  0
  6 32  1  0
 32 33  2  0
 33  3  1  0
 31 26  2  0
  1 34  1  0
  1 35  1  0
  1 36  1  0
  4 37  1  0
  5 38  1  0
  7 39  1  0
 10 40  1  0
 12 41  1  0
 12 42  1  0
 12 43  1  0
 13 44  1  0
 13 45  1  0
 13 46  1  0
 14 47  1  0
 14 48  1  0
 14 49  1  0
 16 50  1  0
 16 51  1  0
 17 52  1  0
 17 53  1  0
 18 54  1  0
 21 55  1  0
 21 56  1  0
 22 57  1  0
 22 58  1  0
 25 59  1  0
 27 60  1  0
 29 61  1  0
 29 62  1  0
 29 63  1  0
 32 64  1  0
 33 65  1  0
M  END
$$$$
