
     RDKit          3D

 55 60  0  0  0  0  0  0  0  0999 V2000
   -5.1186   -1.2763    0.6938 O   0  0  0  0  0  0  0  0  0  0  0  0
   -4.3931   -0.2836    0.7383 C   0  0  0  0  0  0  0  0  0  0  0  0
   -4.9397    1.0020    1.1499 C   0  0  0  0  0  0  0  0  0  0  0  0
   -4.3665    2.0853    1.8806 C   0  0  0  0  0  0  0  0  0  0  0  0
   -5.3512    3.0357    2.0171 C   0  0  0  0  0  0  0  0  0  0  0  0
   -6.5024    2.6082    1.4425 O   0  0  0  0  0  0  0  0  0  0  0  0
   -6.2545    1.3728    0.9397 C   0  0  0  0  0  0  0  0  0  0  0  0
   -3.0328   -0.3667    0.4177 N   0  0  0  0  0  0  0  0  0  0  0  0
   -2.4838   -1.6995    0.2016 C   0  0  0  0  0  0  0  0  0  0  0  0
   -0.9616   -1.6905    0.2675 C   0  0  0  0  0  0  0  0  0  0  0  0
   -0.3667   -0.8302   -0.8754 C   0  0  0  0  0  0  0  0  0  0  0  0
   -1.2505    0.4315   -1.1225 C   0  0  0  0  0  0  0  0  0  0  0  0
   -2.2049    0.7693    0.0222 C   0  0  0  0  0  0  0  0  0  0  0  0
   -0.5133   -1.5811   -2.1175 O   0  0  0  0  0  0  0  0  0  0  0  0
    0.4212   -2.5301   -2.4107 C   0  0  0  0  0  0  0  0  0  0  0  0
    0.1142   -3.3873   -3.4686 C   0  0  0  0  0  0  0  0  0  0  0  0
    1.0004   -4.4072   -3.8204 C   0  0  0  0  0  0  0  0  0  0  0  0
    2.1883   -4.5615   -3.1123 C   0  0  0  0  0  0  0  0  0  0  0  0
    3.0321   -5.5447   -3.4498 F   0  0  0  0  0  0  0  0  0  0  0  0
    2.5129   -3.7107   -2.0643 C   0  0  0  0  0  0  0  0  0  0  0  0
    1.6247   -2.6867   -1.7281 C   0  0  0  0  0  0  0  0  0  0  0  0
    1.9375   -1.7518   -0.6403 C   0  0  0  0  0  0  0  0  0  0  0  0
    2.7944   -2.0420    0.1897 O   0  0  0  0  0  0  0  0  0  0  0  0
    1.1245   -0.4629   -0.6252 C   0  0  0  0  0  0  0  0  0  0  0  0
    1.3962    0.3503    0.6303 C   0  0  0  0  0  0  0  0  0  0  0  0
    2.4707    1.2387    0.1004 C   0  0  0  0  0  0  0  0  0  0  0  0
    3.3238    2.0624    0.9893 C   0  0  0  0  0  0  0  0  0  0  0  0
    4.3431    2.8371    0.4211 C   0  0  0  0  0  0  0  0  0  0  0  0
    5.1605    3.6287    1.2300 C   0  0  0  0  0  0  0  0  0  0  0  0
    4.9636    3.6511    2.6093 C   0  0  0  0  0  0  0  0  0  0  0  0
    3.9502    2.8833    3.1813 C   0  0  0  0  0  0  0  0  0  0  0  0
    3.1293    2.0897    2.3750 C   0  0  0  0  0  0  0  0  0  0  0  0
    2.5639    1.2605   -1.1913 N   0  0  0  0  0  0  0  0  0  0  0  0
    1.6107    0.3544   -1.7042 O   0  0  0  0  0  0  0  0  0  0  0  0
   -3.3652    2.1604    2.2782 H   0  0  0  0  0  0  0  0  0  0  0  0
   -5.3961    4.0098    2.4845 H   0  0  0  0  0  0  0  0  0  0  0  0
   -7.0939    0.8832    0.4639 H   0  0  0  0  0  0  0  0  0  0  0  0
   -2.8381   -2.0590   -0.7719 H   0  0  0  0  0  0  0  0  0  0  0  0
   -2.8836   -2.3766    0.9655 H   0  0  0  0  0  0  0  0  0  0  0  0
   -0.6537   -1.3024    1.2458 H   0  0  0  0  0  0  0  0  0  0  0  0
   -0.6108   -2.7267    0.2057 H   0  0  0  0  0  0  0  0  0  0  0  0
   -1.8592    0.2824   -2.0258 H   0  0  0  0  0  0  0  0  0  0  0  0
   -0.6369    1.3144   -1.3340 H   0  0  0  0  0  0  0  0  0  0  0  0
   -2.8343    1.6071   -0.2920 H   0  0  0  0  0  0  0  0  0  0  0  0
   -1.6464    1.0823    0.9094 H   0  0  0  0  0  0  0  0  0  0  0  0
   -0.8178   -3.2663   -4.0158 H   0  0  0  0  0  0  0  0  0  0  0  0
    0.7714   -5.0826   -4.6393 H   0  0  0  0  0  0  0  0  0  0  0  0
    3.4495   -3.8434   -1.5309 H   0  0  0  0  0  0  0  0  0  0  0  0
    0.5600    0.9884    0.9228 H   0  0  0  0  0  0  0  0  0  0  0  0
    1.7168   -0.2443    1.4883 H   0  0  0  0  0  0  0  0  0  0  0  0
    4.5101    2.8279   -0.6544 H   0  0  0  0  0  0  0  0  0  0  0  0
    5.9515    4.2252    0.7820 H   0  0  0  0  0  0  0  0  0  0  0  0
    5.6024    4.2660    3.2388 H   0  0  0  0  0  0  0  0  0  0  0  0
    3.8013    2.9013    4.2584 H   0  0  0  0  0  0  0  0  0  0  0  0
    2.3505    1.5049    2.8538 H   0  0  0  0  0  0  0  0  0  0  0  0
  1  2  2  0
  2  3  1  0
  3  4  1  0
  4  5  2  0
  5  6  1  0
  6  7  1  0
  2  8  1  0
  8  9  1  0
  9 10  1  0
 10 11  1  0
 11 12  1  0
 12 13  1  0
 11 14  1  0
 14 15  1  0
 15 16  2  0
 16 17  1  0
 17 18  2  0
 18 19  1  0
 18 20  1  0
 20 21  2  0
 21 22  1  0
 22 23  2  0
 22 24  1  0
 24 25  1  0
 25 26  1  0
 26 27  1  0
 27 28  2  0
 28 29  1  0
 29 30  2  0
 30 31  1  0
 31 32  2  0
 26 33  2  0
 33 34  1  0
  7  3  2  0
 13  8  1  0
 21 15  1  0
 34 24  1  0
 24 11  1  0
 32 27  1  0
  4 35  1  0
  5 36  1  0
  7 37  1  0
  9 38  1  0
  9 39  1  0
 10 40  1  0
 10 41  1  0
 12 42  1  0
 12 43  1  0
 13 44  1  0
 13 45  1  0
 16 46  1  0
 17 47  1  0
 20 48  1  0
 25 49  1  0
 25 50  1  0
 28 51  1  0
 29 52  1  0
 30 53  1  0
 31 54  1  0
 32 55  1  0
M  END
$$$$
