
     RDKit          3D

 54 58  0  0  0  0  0  0  0  0999 V2000
    1.4032    0.4785    1.1993 O   0  0  0  0  0  0  0  0  0  0  0  0
    2.1385    0.1393    0.2738 C   0  0  0  0  0  0  0  0  0  0  0  0
    2.0708    0.7730   -1.1061 C   0  0  0  0  0  0  0  0  0  0  0  0
    0.4956    0.3387   -1.9016 S   0  0  0  0  0  0  0  0  0  0  0  0
   -0.5601    1.3498   -0.9180 C   0  0  0  0  0  0  0  0  0  0  0  0
   -0.3756    2.6282   -1.0545 N   0  0  0  0  0  0  0  0  0  0  0  0
   -1.2231    3.4277   -0.2811 C   0  0  0  0  0  0  0  0  0  0  0  0
   -2.1863    2.8982    0.5213 C   0  0  0  0  0  0  0  0  0  0  0  0
   -3.0716    4.0865    1.3341 S   0  0  0  0  0  0  0  0  0  0  0  0
   -2.1538    5.3590    0.6011 C   0  0  0  0  0  0  0  0  0  0  0  0
   -2.3151    6.7446    0.7987 C   0  0  0  0  0  0  0  0  0  0  0  0
   -1.4775    7.6273    0.1117 C   0  0  0  0  0  0  0  0  0  0  0  0
   -0.5014    7.1491   -0.7524 C   0  0  0  0  0  0  0  0  0  0  0  0
   -0.3428    5.7736   -0.9457 C   0  0  0  0  0  0  0  0  0  0  0  0
   -1.1747    4.8526   -0.2638 C   0  0  0  0  0  0  0  0  0  0  0  0
   -2.4098    1.4885    0.6418 C   0  0  0  0  0  0  0  0  0  0  0  0
   -3.3136    0.9887    1.3114 O   0  0  0  0  0  0  0  0  0  0  0  0
   -1.5084    0.7230   -0.1098 N   0  0  0  0  0  0  0  0  0  0  0  0
   -1.6693   -0.7327   -0.0115 C   0  0  0  0  0  0  0  0  0  0  0  0
   -2.6852   -1.2589   -1.0323 C   0  0  0  0  0  0  0  0  0  0  0  0
   -2.7845   -2.7628   -0.9903 C   0  0  0  0  0  0  0  0  0  0  0  0
   -2.0249   -3.5499   -1.8663 C   0  0  0  0  0  0  0  0  0  0  0  0
   -2.1016   -4.9424   -1.8102 C   0  0  0  0  0  0  0  0  0  0  0  0
   -2.9333   -5.5591   -0.8770 C   0  0  0  0  0  0  0  0  0  0  0  0
   -3.6890   -4.7844    0.0016 C   0  0  0  0  0  0  0  0  0  0  0  0
   -3.6146   -3.3919   -0.0528 C   0  0  0  0  0  0  0  0  0  0  0  0
    3.0768   -0.8622    0.3969 N   0  0  0  0  0  0  0  0  0  0  0  0
    3.1511   -1.6534    1.6044 C   0  0  0  0  0  0  0  0  0  0  0  0
    4.3729   -2.4930    1.5452 C   0  0  0  0  0  0  0  0  0  0  0  0
    5.4591   -2.6486    2.3821 C   0  0  0  0  0  0  0  0  0  0  0  0
    6.3071   -3.6022    1.7661 C   0  0  0  0  0  0  0  0  0  0  0  0
    5.6864   -3.9681    0.5949 C   0  0  0  0  0  0  0  0  0  0  0  0
    4.5132   -3.2980    0.4488 O   0  0  0  0  0  0  0  0  0  0  0  0
    2.8858    0.4044   -1.7368 H   0  0  0  0  0  0  0  0  0  0  0  0
    2.1981    1.8558   -1.0105 H   0  0  0  0  0  0  0  0  0  0  0  0
   -3.0784    7.1227    1.4730 H   0  0  0  0  0  0  0  0  0  0  0  0
   -1.5938    8.6992    0.2561 H   0  0  0  0  0  0  0  0  0  0  0  0
    0.1440    7.8451   -1.2829 H   0  0  0  0  0  0  0  0  0  0  0  0
    0.4222    5.4032   -1.6241 H   0  0  0  0  0  0  0  0  0  0  0  0
   -0.7034   -1.2335   -0.1306 H   0  0  0  0  0  0  0  0  0  0  0  0
   -2.0008   -0.9885    1.0032 H   0  0  0  0  0  0  0  0  0  0  0  0
   -2.4150   -0.9376   -2.0460 H   0  0  0  0  0  0  0  0  0  0  0  0
   -3.6756   -0.8236   -0.8456 H   0  0  0  0  0  0  0  0  0  0  0  0
   -1.3699   -3.0839   -2.5995 H   0  0  0  0  0  0  0  0  0  0  0  0
   -1.5127   -5.5468   -2.4954 H   0  0  0  0  0  0  0  0  0  0  0  0
   -2.9930   -6.6435   -0.8345 H   0  0  0  0  0  0  0  0  0  0  0  0
   -4.3373   -5.2645    0.7300 H   0  0  0  0  0  0  0  0  0  0  0  0
   -4.2088   -2.7997    0.6411 H   0  0  0  0  0  0  0  0  0  0  0  0
    3.4526   -1.2954   -0.4396 H   0  0  0  0  0  0  0  0  0  0  0  0
    2.2533   -2.2798    1.6611 H   0  0  0  0  0  0  0  0  0  0  0  0
    3.1640   -0.9861    2.4734 H   0  0  0  0  0  0  0  0  0  0  0  0
    5.6192   -2.1331    3.3200 H   0  0  0  0  0  0  0  0  0  0  0  0
    7.2543   -3.9776    2.1300 H   0  0  0  0  0  0  0  0  0  0  0  0
    5.9371   -4.6556   -0.2023 H   0  0  0  0  0  0  0  0  0  0  0  0
  1  2  2  0
  2  3  1  0
  3  4  1  0
  4  5  1  0
  5  6  2  0
  6  7  1  0
  7  8  2  0
  8  9  1  0
  9 10  1  0
 10 11  2  0
 11 12  1  0
 12 13  2  0
 13 14  1  0
 14 15  2  0
  8 16  1  0
 16 17  2  0
 16 18  1  0
 18 19  1  0
 19 20  1  0
 20 21  1  0
 21 22  2  0
 22 23  1  0
 23 24  2  0
 24 25  1  0
 25 26  2  0
  2 27  1  0
 27 28  1  0
 28 29  1  0
 29 30  2  0
 30 31  1  0
 31 32  2  0
 32 33  1  0
 18  5  1  0
 26 21  1  0
 33 29  1  0
 15  7  1  0
 15 10  1  0
  3 34  1  0
  3 35  1  0
 11 36  1  0
 12 37  1  0
 13 38  1  0
 14 39  1  0
 19 40  1  0
 19 41  1  0
 20 42  1  0
 20 43  1  0
 22 44  1  0
 23 45  1  0
 24 46  1  0
 25 47  1  0
 26 48  1  0
 27 49  1  0
 28 50  1  0
 28 51  1  0
 30 52  1  0
 31 53  1  0
 32 54  1  0
M  END
$$$$
