
     RDKit          3D

 48 52  0  0  0  0  0  0  0  0999 V2000
   -3.4731   -0.0206    2.7172 C   0  0  0  0  0  0  0  0  0  0  0  0
   -2.8046   -0.1272    1.4406 N   0  0  0  0  0  0  0  0  0  0  0  0
   -1.4699    0.0906    1.2438 C   0  0  0  0  0  0  0  0  0  0  0  0
   -1.1821   -0.0812   -0.1008 C   0  0  0  0  0  0  0  0  0  0  0  0
    0.1528    0.0343   -0.7918 C   0  0  0  0  0  0  0  0  0  0  0  0
    0.2203    1.3868   -1.5063 C   0  0  0  0  0  0  0  0  0  0  0  0
    0.8381    1.4486   -2.7611 C   0  0  0  0  0  0  0  0  0  0  0  0
    0.9207    2.6696   -3.4263 C   0  0  0  0  0  0  0  0  0  0  0  0
    0.3920    3.8060   -2.8304 C   0  0  0  0  0  0  0  0  0  0  0  0
   -0.1934    3.6756   -1.5844 C   0  0  0  0  0  0  0  0  0  0  0  0
   -0.2818    2.5079   -0.9132 N   0  0  0  0  0  0  0  0  0  0  0  0
    1.3691   -0.0833    0.0968 C   0  0  0  0  0  0  0  0  0  0  0  0
    1.9642    0.8887    0.8866 C   0  0  0  0  0  0  0  0  0  0  0  0
    3.0468    0.3456    1.5177 N   0  0  0  0  0  0  0  0  0  0  0  0
    3.9172    1.0652    2.4196 C   0  0  0  0  0  0  0  0  0  0  0  0
    3.1829   -0.9815    1.1771 C   0  0  0  0  0  0  0  0  0  0  0  0
    4.1288   -1.9414    1.5726 C   0  0  0  0  0  0  0  0  0  0  0  0
    4.0053   -3.2365    1.0627 C   0  0  0  0  0  0  0  0  0  0  0  0
    2.9730   -3.5650    0.1907 C   0  0  0  0  0  0  0  0  0  0  0  0
    2.0370   -2.6007   -0.1983 C   0  0  0  0  0  0  0  0  0  0  0  0
    2.1399   -1.2817    0.2957 C   0  0  0  0  0  0  0  0  0  0  0  0
   -2.4256   -0.4376   -0.7322 C   0  0  0  0  0  0  0  0  0  0  0  0
   -2.7927   -0.7412   -2.0617 C   0  0  0  0  0  0  0  0  0  0  0  0
   -4.1214   -1.0612   -2.3613 C   0  0  0  0  0  0  0  0  0  0  0  0
   -5.0862   -1.0823   -1.3598 C   0  0  0  0  0  0  0  0  0  0  0  0
   -4.7528   -0.7833   -0.0361 C   0  0  0  0  0  0  0  0  0  0  0  0
   -3.4163   -0.4635    0.2536 C   0  0  0  0  0  0  0  0  0  0  0  0
   -3.9062   -0.9935    2.9634 H   0  0  0  0  0  0  0  0  0  0  0  0
   -4.2524    0.7416    2.6375 H   0  0  0  0  0  0  0  0  0  0  0  0
   -2.7526    0.2680    3.4869 H   0  0  0  0  0  0  0  0  0  0  0  0
   -0.8193    0.3602    2.0657 H   0  0  0  0  0  0  0  0  0  0  0  0
    0.1975   -0.7574   -1.5522 H   0  0  0  0  0  0  0  0  0  0  0  0
    1.2577    0.5565   -3.2159 H   0  0  0  0  0  0  0  0  0  0  0  0
    1.3961    2.7308   -4.4008 H   0  0  0  0  0  0  0  0  0  0  0  0
    0.4370    4.7705   -3.3223 H   0  0  0  0  0  0  0  0  0  0  0  0
   -0.6212    4.5329   -1.0734 H   0  0  0  0  0  0  0  0  0  0  0  0
    1.6871    1.9256    1.0355 H   0  0  0  0  0  0  0  0  0  0  0  0
    3.5794    2.1009    2.5085 H   0  0  0  0  0  0  0  0  0  0  0  0
    4.9318    1.0418    2.0137 H   0  0  0  0  0  0  0  0  0  0  0  0
    3.8798    0.5794    3.3980 H   0  0  0  0  0  0  0  0  0  0  0  0
    4.9335   -1.6947    2.2573 H   0  0  0  0  0  0  0  0  0  0  0  0
    4.7239   -3.9978    1.3566 H   0  0  0  0  0  0  0  0  0  0  0  0
    2.8880   -4.5794   -0.1903 H   0  0  0  0  0  0  0  0  0  0  0  0
    1.2311   -2.8758   -0.8723 H   0  0  0  0  0  0  0  0  0  0  0  0
   -2.0524   -0.7206   -2.8552 H   0  0  0  0  0  0  0  0  0  0  0  0
   -4.4000   -1.2910   -3.3864 H   0  0  0  0  0  0  0  0  0  0  0  0
   -6.1149   -1.3309   -1.6089 H   0  0  0  0  0  0  0  0  0  0  0  0
   -5.5118   -0.7979    0.7390 H   0  0  0  0  0  0  0  0  0  0  0  0
  1  2  1  0
  2  3  1  0
  3  4  2  0
  4  5  1  0
  5  6  1  0
  6  7  2  0
  7  8  1  0
  8  9  2  0
  9 10  1  0
 10 11  2  0
  5 12  1  0
 12 13  2  0
 13 14  1  0
 14 15  1  0
 14 16  1  0
 16 17  2  0
 17 18  1  0
 18 19  2  0
 19 20  1  0
 20 21  2  0
  4 22  1  0
 22 23  2  0
 23 24  1  0
 24 25  2  0
 25 26  1  0
 26 27  2  0
 27  2  1  0
 11  6  1  0
 21 12  1  0
 27 22  1  0
 21 16  1  0
  1 28  1  0
  1 29  1  0
  1 30  1  0
  3 31  1  0
  5 32  1  0
  7 33  1  0
  8 34  1  0
  9 35  1  0
 10 36  1  0
 13 37  1  0
 15 38  1  0
 15 39  1  0
 15 40  1  0
 17 41  1  0
 18 42  1  0
 19 43  1  0
 20 44  1  0
 23 45  1  0
 24 46  1  0
 25 47  1  0
 26 48  1  0
M  END
$$$$
