
     RDKit          3D

 34 35  0  0  0  0  0  0  0  0999 V2000
   -2.9665   -0.8433    1.8776 C   0  0  0  0  0  0  0  0  0  0  0  0
   -3.4521   -0.1946    0.6088 C   0  0  0  0  0  0  0  0  0  0  0  0
   -4.8088    0.1688    0.5259 C   0  0  0  0  0  0  0  0  0  0  0  0
   -5.3191    0.7702   -0.6219 C   0  0  0  0  0  0  0  0  0  0  0  0
   -4.4767    1.0275   -1.6957 C   0  0  0  0  0  0  0  0  0  0  0  0
   -3.1264    0.6749   -1.6270 C   0  0  0  0  0  0  0  0  0  0  0  0
   -2.6007    0.0445   -0.4932 C   0  0  0  0  0  0  0  0  0  0  0  0
   -1.2276   -0.2875   -0.3831 N   0  0  0  0  0  0  0  0  0  0  0  0
   -0.2865   -0.5573   -1.3465 C   0  0  0  0  0  0  0  0  0  0  0  0
   -0.5151   -0.9839   -2.9446 S   0  0  0  0  0  0  0  0  0  0  0  0
    1.0115   -0.5060   -0.9096 N   0  0  0  0  0  0  0  0  0  0  0  0
    1.5024    0.1383    0.2936 C   0  0  0  0  0  0  0  0  0  0  0  0
    3.0048    0.1027    0.3495 C   0  0  0  0  0  0  0  0  0  0  0  0
    3.6724   -1.0527    0.7806 C   0  0  0  0  0  0  0  0  0  0  0  0
    5.0671   -1.0949    0.8098 C   0  0  0  0  0  0  0  0  0  0  0  0
    5.8072    0.0130    0.4016 C   0  0  0  0  0  0  0  0  0  0  0  0
    5.1545    1.1623   -0.0404 C   0  0  0  0  0  0  0  0  0  0  0  0
    3.7597    1.2066   -0.0707 C   0  0  0  0  0  0  0  0  0  0  0  0
   -2.2270   -0.2044    2.3709 H   0  0  0  0  0  0  0  0  0  0  0  0
   -3.7848   -1.0082    2.5869 H   0  0  0  0  0  0  0  0  0  0  0  0
   -2.5234   -1.8207    1.6607 H   0  0  0  0  0  0  0  0  0  0  0  0
   -5.4810   -0.0181    1.3609 H   0  0  0  0  0  0  0  0  0  0  0  0
   -6.3692    1.0447   -0.6742 H   0  0  0  0  0  0  0  0  0  0  0  0
   -4.8628    1.5126   -2.5885 H   0  0  0  0  0  0  0  0  0  0  0  0
   -2.4975    0.9431   -2.4692 H   0  0  0  0  0  0  0  0  0  0  0  0
   -0.9337   -0.5674    0.5397 H   0  0  0  0  0  0  0  0  0  0  0  0
    1.6907   -0.6552   -1.6490 H   0  0  0  0  0  0  0  0  0  0  0  0
    1.1303    1.1693    0.3122 H   0  0  0  0  0  0  0  0  0  0  0  0
    1.0831   -0.3711    1.1686 H   0  0  0  0  0  0  0  0  0  0  0  0
    3.1072   -1.9293    1.0907 H   0  0  0  0  0  0  0  0  0  0  0  0
    5.5766   -1.9942    1.1465 H   0  0  0  0  0  0  0  0  0  0  0  0
    6.8934   -0.0212    0.4224 H   0  0  0  0  0  0  0  0  0  0  0  0
    5.7325    2.0235   -0.3659 H   0  0  0  0  0  0  0  0  0  0  0  0
    3.2656    2.1080   -0.4276 H   0  0  0  0  0  0  0  0  0  0  0  0
  1  2  1  0
  2  3  2  0
  3  4  1  0
  4  5  2  0
  5  6  1  0
  6  7  2  0
  7  8  1  0
  8  9  1  0
  9 10  2  0
  9 11  1  0
 11 12  1  0
 12 13  1  0
 13 14  2  0
 14 15  1  0
 15 16  2  0
 16 17  1  0
 17 18  2  0
  7  2  1  0
 18 13  1  0
  1 19  1  0
  1 20  1  0
  1 21  1  0
  3 22  1  0
  4 23  1  0
  5 24  1  0
  6 25  1  0
  8 26  1  0
 11 27  1  0
 12 28  1  0
 12 29  1  0
 14 30  1  0
 15 31  1  0
 16 32  1  0
 17 33  1  0
 18 34  1  0
M  END
$$$$
