
     RDKit          3D

 37 38  0  0  0  0  0  0  0  0999 V2000
   -0.1980    0.8909   -0.1463 O   0  0  0  0  0  0  0  0  0  0  0  0
    0.2800   -0.1636    0.2804 C   0  0  0  0  0  0  0  0  0  0  0  0
   -0.4869   -1.4831    0.2179 C   0  0  0  0  0  0  0  0  0  0  0  0
   -1.8647   -1.1895   -0.0302 O   0  0  0  0  0  0  0  0  0  0  0  0
   -2.5339   -0.7381    1.0549 C   0  0  0  0  0  0  0  0  0  0  0  0
   -2.1735   -0.8148    2.2163 O   0  0  0  0  0  0  0  0  0  0  0  0
   -3.8031   -0.1290    0.6200 C   0  0  0  0  0  0  0  0  0  0  0  0
   -4.9495   -0.4320    1.3689 C   0  0  0  0  0  0  0  0  0  0  0  0
   -6.1858    0.1019    1.0013 C   0  0  0  0  0  0  0  0  0  0  0  0
   -6.2733    0.9406   -0.1086 C   0  0  0  0  0  0  0  0  0  0  0  0
   -7.7996    1.5910   -0.5627 Cl  0  0  0  0  0  0  0  0  0  0  0  0
   -5.1344    1.2655   -0.8426 C   0  0  0  0  0  0  0  0  0  0  0  0
   -3.8948    0.7448   -0.4698 C   0  0  0  0  0  0  0  0  0  0  0  0
   -2.8321    1.1723   -1.2158 O   0  0  0  0  0  0  0  0  0  0  0  0
    1.5277   -0.2511    0.8599 N   0  0  0  0  0  0  0  0  0  0  0  0
    2.4407    0.8792    0.8287 C   0  0  0  0  0  0  0  0  0  0  0  0
    3.1591    1.0195   -0.5201 C   0  0  0  0  0  0  0  0  0  0  0  0
    4.1237   -0.0489   -0.7440 N   0  0  0  0  0  0  0  0  0  0  0  0
    5.4423    0.0352   -0.3693 C   0  0  0  0  0  0  0  0  0  0  0  0
    5.8887    1.1729    0.2357 O   0  0  0  0  0  0  0  0  0  0  0  0
    6.1672   -1.0576   -0.6374 C   0  0  0  0  0  0  0  0  0  0  0  0
    5.1936   -2.2931   -1.3738 S   0  0  0  0  0  0  0  0  0  0  0  0
    3.7490   -1.2685   -1.2877 C   0  0  0  0  0  0  0  0  0  0  0  0
    2.6378   -1.6460   -1.6208 O   0  0  0  0  0  0  0  0  0  0  0  0
   -0.1092   -2.0643   -0.6278 H   0  0  0  0  0  0  0  0  0  0  0  0
   -0.3542   -2.0675    1.1332 H   0  0  0  0  0  0  0  0  0  0  0  0
   -4.8822   -1.0894    2.2321 H   0  0  0  0  0  0  0  0  0  0  0  0
   -7.0723   -0.1365    1.5839 H   0  0  0  0  0  0  0  0  0  0  0  0
   -5.2011    1.9361   -1.6952 H   0  0  0  0  0  0  0  0  0  0  0  0
   -1.9783    0.9357   -0.7963 H   0  0  0  0  0  0  0  0  0  0  0  0
    1.9259   -1.1764    0.9741 H   0  0  0  0  0  0  0  0  0  0  0  0
    1.8714    1.7911    1.0355 H   0  0  0  0  0  0  0  0  0  0  0  0
    3.1612    0.7307    1.6407 H   0  0  0  0  0  0  0  0  0  0  0  0
    2.4331    0.9945   -1.3396 H   0  0  0  0  0  0  0  0  0  0  0  0
    3.6737    1.9854   -0.5729 H   0  0  0  0  0  0  0  0  0  0  0  0
    6.8362    1.0608    0.4335 H   0  0  0  0  0  0  0  0  0  0  0  0
    7.2157   -1.1986   -0.4215 H   0  0  0  0  0  0  0  0  0  0  0  0
  1  2  2  0
  2  3  1  0
  3  4  1  0
  4  5  1  0
  5  6  2  0
  5  7  1  0
  7  8  2  0
  8  9  1  0
  9 10  2  0
 10 11  1  0
 10 12  1  0
 12 13  2  0
 13 14  1  0
  2 15  1  0
 15 16  1  0
 16 17  1  0
 17 18  1  0
 18 19  1  0
 19 20  1  0
 19 21  2  0
 21 22  1  0
 22 23  1  0
 23 24  2  0
 13  7  1  0
 23 18  1  0
  3 25  1  0
  3 26  1  0
  8 27  1  0
  9 28  1  0
 12 29  1  0
 14 30  1  0
 15 31  1  0
 16 32  1  0
 16 33  1  0
 17 34  1  0
 17 35  1  0
 20 36  1  0
 21 37  1  0
M  END
$$$$
