
     RDKit          3D

 23 23  0  0  0  0  0  0  0  0999 V2000
   -2.0687    2.5544   -1.7805 O   0  0  0  0  0  0  0  0  0  0  0  0
   -1.3176    1.8786   -1.1001 C   0  0  0  0  0  0  0  0  0  0  0  0
   -0.2549    2.4336   -0.4872 O   0  0  0  0  0  0  0  0  0  0  0  0
   -1.5282    0.4598   -0.7506 C   0  0  0  0  0  0  0  0  0  0  0  0
   -2.8560    0.0649   -0.5157 C   0  0  0  0  0  0  0  0  0  0  0  0
   -3.1512   -1.2589   -0.1915 C   0  0  0  0  0  0  0  0  0  0  0  0
   -2.1257   -2.1970   -0.1162 C   0  0  0  0  0  0  0  0  0  0  0  0
   -0.8069   -1.8112   -0.3678 C   0  0  0  0  0  0  0  0  0  0  0  0
   -0.4868   -0.4814   -0.6802 C   0  0  0  0  0  0  0  0  0  0  0  0
    0.8560   -0.1854   -0.9810 N   0  0  0  0  0  0  0  0  0  0  0  0
    1.5817    0.2091    0.0175 C   0  0  0  0  0  0  0  0  0  0  0  0
    3.0130    0.5816   -0.1827 C   0  0  0  0  0  0  0  0  0  0  0  0
    3.7882   -0.2495    0.7747 N   0  0  0  0  0  4  0  0  0  0  0  0
    3.8209    0.1337    1.9520 O   0  0  0  0  0  0  0  0  0  0  0  0
    4.3437   -1.2625    0.3330 O   0  0  0  0  0  1  0  0  0  0  0  0
   -0.2970    3.3669   -0.7860 H   0  0  0  0  0  0  0  0  0  0  0  0
   -3.6633    0.7916   -0.5885 H   0  0  0  0  0  0  0  0  0  0  0  0
   -4.1804   -1.5591   -0.0094 H   0  0  0  0  0  0  0  0  0  0  0  0
   -2.3511   -3.2337    0.1227 H   0  0  0  0  0  0  0  0  0  0  0  0
   -0.0173   -2.5590   -0.3360 H   0  0  0  0  0  0  0  0  0  0  0  0
    1.1653    0.3206    1.0374 H   0  0  0  0  0  0  0  0  0  0  0  0
    3.1758    1.6302    0.0773 H   0  0  0  0  0  0  0  0  0  0  0  0
    3.3605    0.3728   -1.1971 H   0  0  0  0  0  0  0  0  0  0  0  0
  1  2  2  0
  2  3  1  0
  2  4  1  0
  4  5  2  0
  5  6  1  0
  6  7  2  0
  7  8  1  0
  8  9  2  0
  9 10  1  0
 10 11  2  3
 11 12  1  0
 12 13  1  0
 13 14  2  0
 13 15  1  0
  9  4  1  0
  3 16  1  0
  5 17  1  0
  6 18  1  0
  7 19  1  0
  8 20  1  0
 11 21  1  0
 12 22  1  0
 12 23  1  0
M  CHG  2  13   1  15  -1
M  END
$$$$
