
     RDKit          3D

 41 43  0  0  0  0  0  0  0  0999 V2000
    7.9407    0.1404    2.1908 C   0  0  0  0  0  0  0  0  0  0  0  0
    6.6451    0.1789    1.8439 C   0  0  0  0  0  0  0  0  0  0  0  0
    6.1295    1.2908    1.0554 C   0  0  0  0  0  0  0  0  0  0  0  0
    4.8312    1.3319    0.7065 C   0  0  0  0  0  0  0  0  0  0  0  0
    3.8917    0.2608    1.1073 C   0  0  0  0  0  0  0  0  0  0  0  0
    2.5807    0.2954    0.7596 C   0  0  0  0  0  0  0  0  0  0  0  0
    1.6570   -0.6578    1.0946 N   0  0  0  0  0  0  0  0  0  0  0  0
    0.3630   -0.4950    0.6733 C   0  0  0  0  0  0  0  0  0  0  0  0
   -0.5311   -1.2866    0.9182 O   0  0  0  0  0  0  0  0  0  0  0  0
    0.2635    0.7719   -0.1007 C   0  0  0  0  0  0  0  0  0  0  0  0
   -0.8195    1.2921   -0.6972 C   0  0  0  0  0  0  0  0  0  0  0  0
   -2.1743    0.7314   -0.7084 C   0  0  0  0  0  0  0  0  0  0  0  0
   -2.9163    0.6019    0.4669 C   0  0  0  0  0  0  0  0  0  0  0  0
   -4.2214    0.1033    0.4285 C   0  0  0  0  0  0  0  0  0  0  0  0
   -4.8036   -0.2639   -0.7886 C   0  0  0  0  0  0  0  0  0  0  0  0
   -6.0786   -0.7564   -0.9211 O   0  0  0  0  0  0  0  0  0  0  0  0
   -6.8072   -1.0185    0.2693 C   0  0  0  0  0  0  0  0  0  0  0  0
   -4.0647   -0.1254   -1.9807 C   0  0  0  0  0  0  0  0  0  0  0  0
   -4.7095   -0.4960   -3.1360 O   0  0  0  0  0  0  0  0  0  0  0  0
   -3.9545   -0.5021   -4.3385 C   0  0  0  0  0  0  0  0  0  0  0  0
   -2.7575    0.3764   -1.9316 C   0  0  0  0  0  0  0  0  0  0  0  0
    1.8156    1.5559   -0.1795 S   0  0  0  0  0  0  0  0  0  0  0  0
    4.4437   -0.8555    1.9071 C   0  0  0  0  0  0  0  0  0  0  0  0
    5.7435   -0.8909    2.2529 C   0  0  0  0  0  0  0  0  0  0  0  0
    8.6344    0.9232    1.8999 H   0  0  0  0  0  0  0  0  0  0  0  0
    8.3527   -0.6749    2.7774 H   0  0  0  0  0  0  0  0  0  0  0  0
    6.8036    2.0857    0.7522 H   0  0  0  0  0  0  0  0  0  0  0  0
    4.4800    2.1735    0.1193 H   0  0  0  0  0  0  0  0  0  0  0  0
    1.8705   -1.4822    1.6326 H   0  0  0  0  0  0  0  0  0  0  0  0
   -0.7286    2.2214   -1.2569 H   0  0  0  0  0  0  0  0  0  0  0  0
   -2.4854    0.8784    1.4264 H   0  0  0  0  0  0  0  0  0  0  0  0
   -4.7548    0.0148    1.3686 H   0  0  0  0  0  0  0  0  0  0  0  0
   -7.7689   -1.4555   -0.0167 H   0  0  0  0  0  0  0  0  0  0  0  0
   -7.0134   -0.0928    0.8163 H   0  0  0  0  0  0  0  0  0  0  0  0
   -6.2873   -1.7458    0.9017 H   0  0  0  0  0  0  0  0  0  0  0  0
   -4.5984   -0.8857   -5.1358 H   0  0  0  0  0  0  0  0  0  0  0  0
   -3.0888   -1.1684   -4.2615 H   0  0  0  0  0  0  0  0  0  0  0  0
   -3.6509    0.5123   -4.6169 H   0  0  0  0  0  0  0  0  0  0  0  0
   -2.1727    0.4991   -2.8370 H   0  0  0  0  0  0  0  0  0  0  0  0
    3.8075   -1.6696    2.2305 H   0  0  0  0  0  0  0  0  0  0  0  0
    6.1334   -1.7167    2.8398 H   0  0  0  0  0  0  0  0  0  0  0  0
  1  2  2  0
  2  3  1  0
  3  4  2  0
  4  5  1  0
  5  6  2  3
  6  7  1  0
  7  8  1  0
  8  9  2  0
  8 10  1  0
 10 11  2  3
 11 12  1  0
 12 13  2  0
 13 14  1  0
 14 15  2  0
 15 16  1  0
 16 17  1  0
 15 18  1  0
 18 19  1  0
 19 20  1  0
 18 21  2  0
 10 22  1  0
  5 23  1  0
 23 24  2  0
 24  2  1  0
 22  6  1  0
 21 12  1  0
  1 25  1  0
  1 26  1  0
  3 27  1  0
  4 28  1  0
  7 29  1  0
 11 30  1  0
 13 31  1  0
 14 32  1  0
 17 33  1  0
 17 34  1  0
 17 35  1  0
 20 36  1  0
 20 37  1  0
 20 38  1  0
 21 39  1  0
 23 40  1  0
 24 41  1  0
M  END
$$$$
