
     RDKit          3D

 57 60  0  0  0  0  0  0  0  0999 V2000
   -0.8697   -3.3440    3.5542 C   0  0  0  0  0  0  0  0  0  0  0  0
   -1.7362   -2.6104    2.6841 O   0  0  0  0  0  0  0  0  0  0  0  0
   -1.0739   -2.2016    1.5612 C   0  0  0  0  0  0  0  0  0  0  0  0
   -0.7972   -3.1477    0.5694 C   0  0  0  0  0  0  0  0  0  0  0  0
   -0.1646   -2.7613   -0.6138 C   0  0  0  0  0  0  0  0  0  0  0  0
    0.1934   -1.4238   -0.8197 C   0  0  0  0  0  0  0  0  0  0  0  0
    0.8753   -1.0631   -2.0943 C   0  0  0  0  0  0  0  0  0  0  0  0
    0.7162   -1.7633   -3.0873 O   0  0  0  0  0  0  0  0  0  0  0  0
    1.6876    0.0489   -2.0628 N   0  0  0  0  0  0  0  0  0  0  0  0
    2.5118    0.4110   -3.1951 C   0  0  0  0  0  0  0  0  0  0  0  0
    3.9262   -0.0756   -3.0010 C   0  0  0  0  0  0  0  0  0  0  0  0
    4.2568   -1.4215   -3.2865 C   0  0  0  0  0  0  0  0  0  0  0  0
    5.5548   -1.9031   -3.0900 C   0  0  0  0  0  0  0  0  0  0  0  0
    6.4967   -1.0230   -2.6055 C   0  0  0  0  0  0  0  0  0  0  0  0
    6.1850    0.2849   -2.3187 C   0  0  0  0  0  0  0  0  0  0  0  0
    4.9140    0.7885   -2.5008 C   0  0  0  0  0  0  0  0  0  0  0  0
    7.2536    0.9826   -1.8486 O   0  0  0  0  0  0  0  0  0  0  0  0
    8.2754   -0.0362   -1.8772 C   0  0  0  0  0  0  0  0  0  0  0  0
    7.8008   -1.3128   -2.3523 O   0  0  0  0  0  0  0  0  0  0  0  0
   -0.1202   -0.4686    0.1540 C   0  0  0  0  0  0  0  0  0  0  0  0
   -0.7669   -0.8573    1.3403 C   0  0  0  0  0  0  0  0  0  0  0  0
   -1.0840    0.3937    2.5686 S   0  0  0  0  0  6  0  0  0  0  0  0
   -0.3201    1.5615    2.1716 O   0  0  0  0  0  0  0  0  0  0  0  0
   -0.8766   -0.1830    3.8791 O   0  0  0  0  0  0  0  0  0  0  0  0
   -2.7251    0.7706    2.3669 N   0  0  0  0  0  0  0  0  0  0  0  0
   -3.7044   -0.2260    2.8415 C   0  0  0  0  0  0  0  0  0  0  0  0
   -3.0987    1.4040    1.0805 C   0  0  0  0  0  0  0  0  0  0  0  0
   -4.2899    2.3291    1.2003 C   0  0  0  0  0  0  0  0  0  0  0  0
   -4.2704    3.3860    2.1235 C   0  0  0  0  0  0  0  0  0  0  0  0
   -5.3600    4.2506    2.2353 C   0  0  0  0  0  0  0  0  0  0  0  0
   -6.4770    4.0717    1.4219 C   0  0  0  0  0  0  0  0  0  0  0  0
   -6.5058    3.0292    0.4964 C   0  0  0  0  0  0  0  0  0  0  0  0
   -5.4171    2.1621    0.3835 C   0  0  0  0  0  0  0  0  0  0  0  0
   -1.3521   -3.4028    4.5344 H   0  0  0  0  0  0  0  0  0  0  0  0
   -0.7275   -4.3639    3.1834 H   0  0  0  0  0  0  0  0  0  0  0  0
    0.0996   -2.8468    3.6795 H   0  0  0  0  0  0  0  0  0  0  0  0
   -1.0809   -4.1885    0.7080 H   0  0  0  0  0  0  0  0  0  0  0  0
    0.0509   -3.5089   -1.3765 H   0  0  0  0  0  0  0  0  0  0  0  0
    1.9521    0.4474   -1.1720 H   0  0  0  0  0  0  0  0  0  0  0  0
    2.4925    1.5040   -3.2726 H   0  0  0  0  0  0  0  0  0  0  0  0
    2.0953    0.0116   -4.1269 H   0  0  0  0  0  0  0  0  0  0  0  0
    3.4888   -2.0979   -3.6615 H   0  0  0  0  0  0  0  0  0  0  0  0
    5.8106   -2.9334   -3.3086 H   0  0  0  0  0  0  0  0  0  0  0  0
    4.6989    1.8244   -2.2613 H   0  0  0  0  0  0  0  0  0  0  0  0
    9.0884    0.3009   -2.5309 H   0  0  0  0  0  0  0  0  0  0  0  0
    8.6705   -0.1642   -0.8633 H   0  0  0  0  0  0  0  0  0  0  0  0
    0.1168    0.5796   -0.0114 H   0  0  0  0  0  0  0  0  0  0  0  0
   -3.8625   -1.0106    2.0963 H   0  0  0  0  0  0  0  0  0  0  0  0
   -4.6653    0.2591    3.0408 H   0  0  0  0  0  0  0  0  0  0  0  0
   -3.3888   -0.6758    3.7867 H   0  0  0  0  0  0  0  0  0  0  0  0
   -3.3003    0.6196    0.3402 H   0  0  0  0  0  0  0  0  0  0  0  0
   -2.2744    2.0062    0.6823 H   0  0  0  0  0  0  0  0  0  0  0  0
   -3.4020    3.5320    2.7643 H   0  0  0  0  0  0  0  0  0  0  0  0
   -5.3373    5.0613    2.9587 H   0  0  0  0  0  0  0  0  0  0  0  0
   -7.3256    4.7459    1.5100 H   0  0  0  0  0  0  0  0  0  0  0  0
   -7.3793    2.8922   -0.1365 H   0  0  0  0  0  0  0  0  0  0  0  0
   -5.4584    1.3565   -0.3460 H   0  0  0  0  0  0  0  0  0  0  0  0
  1  2  1  0
  2  3  1  0
  3  4  2  0
  4  5  1  0
  5  6  2  0
  6  7  1  0
  7  8  2  0
  7  9  1  0
  9 10  1  0
 10 11  1  0
 11 12  2  0
 12 13  1  0
 13 14  2  0
 14 15  1  0
 15 16  2  0
 15 17  1  0
 17 18  1  0
 18 19  1  0
  6 20  1  0
 20 21  2  0
 21 22  1  0
 22 23  2  0
 22 24  2  0
 22 25  1  0
 25 26  1  0
 25 27  1  0
 27 28  1  0
 28 29  2  0
 29 30  1  0
 30 31  2  0
 31 32  1  0
 32 33  2  0
 21  3  1  0
 33 28  1  0
 16 11  1  0
 19 14  1  0
  1 34  1  0
  1 35  1  0
  1 36  1  0
  4 37  1  0
  5 38  1  0
  9 39  1  0
 10 40  1  0
 10 41  1  0
 12 42  1  0
 13 43  1  0
 16 44  1  0
 18 45  1  0
 18 46  1  0
 20 47  1  0
 26 48  1  0
 26 49  1  0
 26 50  1  0
 27 51  1  0
 27 52  1  0
 29 53  1  0
 30 54  1  0
 31 55  1  0
 32 56  1  0
 33 57  1  0
M  END
$$$$
