
     RDKit          3D

 55 60  0  0  0  0  0  0  0  0999 V2000
    3.7045    2.0281    1.8343 O   0  0  0  0  0  0  0  0  0  0  0  0
    3.5547    0.8472    1.5236 C   0  0  0  0  0  0  0  0  0  0  0  0
    4.7171    0.0248    1.2146 C   0  0  0  0  0  0  0  0  0  0  0  0
    4.9892   -1.3582    1.4314 C   0  0  0  0  0  0  0  0  0  0  0  0
    6.2639   -1.5889    0.9688 C   0  0  0  0  0  0  0  0  0  0  0  0
    6.8110   -0.4404    0.5003 O   0  0  0  0  0  0  0  0  0  0  0  0
    5.8820    0.5332    0.6706 C   0  0  0  0  0  0  0  0  0  0  0  0
    2.2806    0.2676    1.4533 N   0  0  0  0  0  0  0  0  0  0  0  0
    1.9817   -0.9192    0.6539 C   0  0  0  0  0  0  0  0  0  0  0  0
    0.5229   -0.9655    0.1877 C   0  0  0  0  0  0  0  0  0  0  0  0
    0.0663    0.3964   -0.3999 C   0  0  0  0  0  0  0  0  0  0  0  0
    0.3771    1.5538    0.6017 C   0  0  0  0  0  0  0  0  0  0  0  0
    1.1373    1.0788    1.8385 C   0  0  0  0  0  0  0  0  0  0  0  0
    0.9237    0.5657   -1.5641 O   0  0  0  0  0  0  0  0  0  0  0  0
    0.5354    1.4737   -2.5050 C   0  0  0  0  0  0  0  0  0  0  0  0
    1.5023    1.8319   -3.4461 C   0  0  0  0  0  0  0  0  0  0  0  0
    1.2021    2.7740   -4.4313 C   0  0  0  0  0  0  0  0  0  0  0  0
   -0.0643    3.3489   -4.4698 C   0  0  0  0  0  0  0  0  0  0  0  0
   -0.3469    4.2550   -5.4140 F   0  0  0  0  0  0  0  0  0  0  0  0
   -1.0402    2.9945   -3.5476 C   0  0  0  0  0  0  0  0  0  0  0  0
   -0.7338    2.0435   -2.5709 C   0  0  0  0  0  0  0  0  0  0  0  0
   -1.7497    1.6227   -1.5945 C   0  0  0  0  0  0  0  0  0  0  0  0
   -2.7677    2.2934   -1.4491 O   0  0  0  0  0  0  0  0  0  0  0  0
   -1.4345    0.3570   -0.8123 C   0  0  0  0  0  0  0  0  0  0  0  0
   -2.4242    0.1233    0.3223 C   0  0  0  0  0  0  0  0  0  0  0  0
   -2.8407   -1.2720    0.0145 C   0  0  0  0  0  0  0  0  0  0  0  0
   -3.6862   -2.0609    0.9420 C   0  0  0  0  0  0  0  0  0  0  0  0
   -3.9373   -3.4088    0.6505 C   0  0  0  0  0  0  0  0  0  0  0  0
   -4.7253   -4.1815    1.5080 C   0  0  0  0  0  0  0  0  0  0  0  0
   -5.2651   -3.6069    2.6562 C   0  0  0  0  0  0  0  0  0  0  0  0
   -6.2337   -4.5554    3.7140 Cl  0  0  0  0  0  0  0  0  0  0  0  0
   -5.0254   -2.2658    2.9525 C   0  0  0  0  0  0  0  0  0  0  0  0
   -4.2366   -1.4902    2.0960 C   0  0  0  0  0  0  0  0  0  0  0  0
   -2.4050   -1.7386   -1.1098 N   0  0  0  0  0  0  0  0  0  0  0  0
   -1.6614   -0.7206   -1.7426 O   0  0  0  0  0  0  0  0  0  0  0  0
    4.3495   -2.0978    1.8896 H   0  0  0  0  0  0  0  0  0  0  0  0
    6.8984   -2.4631    0.9196 H   0  0  0  0  0  0  0  0  0  0  0  0
    6.1816    1.5259    0.3618 H   0  0  0  0  0  0  0  0  0  0  0  0
    2.1807   -1.8004    1.2718 H   0  0  0  0  0  0  0  0  0  0  0  0
    2.6505   -0.9497   -0.2132 H   0  0  0  0  0  0  0  0  0  0  0  0
    0.4392   -1.7622   -0.5614 H   0  0  0  0  0  0  0  0  0  0  0  0
   -0.1109   -1.2538    1.0344 H   0  0  0  0  0  0  0  0  0  0  0  0
   -0.5406    2.0466    0.9420 H   0  0  0  0  0  0  0  0  0  0  0  0
    0.9769    2.3291    0.1083 H   0  0  0  0  0  0  0  0  0  0  0  0
    1.4427    1.9404    2.4416 H   0  0  0  0  0  0  0  0  0  0  0  0
    0.4924    0.4667    2.4803 H   0  0  0  0  0  0  0  0  0  0  0  0
    2.4930    1.3849   -3.4072 H   0  0  0  0  0  0  0  0  0  0  0  0
    1.9472    3.0649   -5.1657 H   0  0  0  0  0  0  0  0  0  0  0  0
   -2.0245    3.4497   -3.6038 H   0  0  0  0  0  0  0  0  0  0  0  0
   -1.9729    0.1921    1.3150 H   0  0  0  0  0  0  0  0  0  0  0  0
   -3.3069    0.7680    0.2912 H   0  0  0  0  0  0  0  0  0  0  0  0
   -3.5238   -3.8672   -0.2465 H   0  0  0  0  0  0  0  0  0  0  0  0
   -4.9141   -5.2256    1.2714 H   0  0  0  0  0  0  0  0  0  0  0  0
   -5.4537   -1.8175    3.8459 H   0  0  0  0  0  0  0  0  0  0  0  0
   -4.0781   -0.4453    2.3471 H   0  0  0  0  0  0  0  0  0  0  0  0
  1  2  2  0
  2  3  1  0
  3  4  1  0
  4  5  2  0
  5  6  1  0
  6  7  1  0
  2  8  1  0
  8  9  1  0
  9 10  1  0
 10 11  1  0
 11 12  1  0
 12 13  1  0
 11 14  1  0
 14 15  1  0
 15 16  2  0
 16 17  1  0
 17 18  2  0
 18 19  1  0
 18 20  1  0
 20 21  2  0
 21 22  1  0
 22 23  2  0
 22 24  1  0
 24 25  1  0
 25 26  1  0
 26 27  1  0
 27 28  2  0
 28 29  1  0
 29 30  2  0
 30 31  1  0
 30 32  1  0
 32 33  2  0
 26 34  2  0
 34 35  1  0
  7  3  2  0
 13  8  1  0
 21 15  1  0
 35 24  1  0
 24 11  1  0
 33 27  1  0
  4 36  1  0
  5 37  1  0
  7 38  1  0
  9 39  1  0
  9 40  1  0
 10 41  1  0
 10 42  1  0
 12 43  1  0
 12 44  1  0
 13 45  1  0
 13 46  1  0
 16 47  1  0
 17 48  1  0
 20 49  1  0
 25 50  1  0
 25 51  1  0
 28 52  1  0
 29 53  1  0
 32 54  1  0
 33 55  1  0
M  END
$$$$
