
     RDKit          3D

 45 47  0  0  0  0  0  0  0  0999 V2000
    6.6694    0.5678    1.6042 C   0  0  0  0  0  0  0  0  0  0  0  0
    7.8290   -0.0014    0.8037 C   0  0  0  0  0  0  0  0  0  0  0  0
    7.6815    0.1343   -0.7158 C   0  0  0  0  0  0  0  0  0  0  0  0
    6.6366   -0.7895   -1.3504 C   0  0  0  0  0  0  0  0  0  0  0  0
    5.2332   -0.2918   -1.2230 C   0  0  0  0  0  0  0  0  0  0  0  0
    4.8514    0.9558   -1.4033 N   0  0  0  0  0  0  0  0  0  0  0  0
    3.4892    1.1168   -1.2281 N   0  0  0  0  0  0  0  0  0  0  0  0
    2.8989   -0.0152   -0.9414 C   0  0  0  0  0  0  0  0  0  0  0  0
    1.5835   -0.3008   -0.6969 N   0  0  0  0  0  0  0  0  0  0  0  0
    0.6047    0.6763   -0.7219 C   0  0  0  0  0  0  0  0  0  0  0  0
    0.7815    1.8664   -0.9547 O   0  0  0  0  0  0  0  0  0  0  0  0
   -0.7801    0.0903   -0.4150 C   0  0  0  0  0  0  0  0  0  0  0  0
   -1.7889    1.0879   -0.4378 O   0  0  0  0  0  0  0  0  0  0  0  0
   -3.0701    0.6930   -0.1791 C   0  0  0  0  0  0  0  0  0  0  0  0
   -4.0153    1.7212   -0.2163 C   0  0  0  0  0  0  0  0  0  0  0  0
   -5.3709    1.4662    0.0293 C   0  0  0  0  0  0  0  0  0  0  0  0
   -5.8086    0.1706    0.3183 C   0  0  0  0  0  0  0  0  0  0  0  0
   -7.2106   -0.1760    0.5866 C   0  0  0  0  0  0  0  0  0  0  0  0
   -8.2690    0.8869    0.5603 C   0  0  0  0  0  0  0  0  0  0  0  0
   -7.5103   -1.4560    0.8524 C   0  0  0  0  0  0  0  0  0  0  0  0
   -6.5095   -2.5332    0.8898 C   0  0  0  0  0  0  0  0  0  0  0  0
   -6.8384   -3.6873    1.1381 O   0  0  0  0  0  0  0  0  0  0  0  0
   -5.1971   -2.1771    0.6331 O   0  0  0  0  0  0  0  0  0  0  0  0
   -4.8470   -0.8413    0.3502 C   0  0  0  0  0  0  0  0  0  0  0  0
   -3.4906   -0.6014    0.1071 C   0  0  0  0  0  0  0  0  0  0  0  0
    3.9384   -1.3681   -0.8585 S   0  0  0  0  0  0  0  0  0  0  0  0
    5.7693   -0.0423    1.4986 H   0  0  0  0  0  0  0  0  0  0  0  0
    6.9245    0.5860    2.6690 H   0  0  0  0  0  0  0  0  0  0  0  0
    6.4390    1.5921    1.2954 H   0  0  0  0  0  0  0  0  0  0  0  0
    8.7397    0.5324    1.1027 H   0  0  0  0  0  0  0  0  0  0  0  0
    7.9809   -1.0526    1.0747 H   0  0  0  0  0  0  0  0  0  0  0  0
    7.4979    1.1820   -0.9830 H   0  0  0  0  0  0  0  0  0  0  0  0
    8.6539   -0.1271   -1.1540 H   0  0  0  0  0  0  0  0  0  0  0  0
    6.7407   -1.8001   -0.9378 H   0  0  0  0  0  0  0  0  0  0  0  0
    6.8540   -0.8675   -2.4235 H   0  0  0  0  0  0  0  0  0  0  0  0
    1.3606   -1.2632   -0.4956 H   0  0  0  0  0  0  0  0  0  0  0  0
   -0.7272   -0.3665    0.5809 H   0  0  0  0  0  0  0  0  0  0  0  0
   -0.9882   -0.6705   -1.1775 H   0  0  0  0  0  0  0  0  0  0  0  0
   -3.6922    2.7367   -0.4398 H   0  0  0  0  0  0  0  0  0  0  0  0
   -6.0631    2.3029   -0.0124 H   0  0  0  0  0  0  0  0  0  0  0  0
   -8.0647    1.6580    1.3107 H   0  0  0  0  0  0  0  0  0  0  0  0
   -9.2620    0.4781    0.7786 H   0  0  0  0  0  0  0  0  0  0  0  0
   -8.3231    1.3578   -0.4270 H   0  0  0  0  0  0  0  0  0  0  0  0
   -8.5252   -1.7771    1.0588 H   0  0  0  0  0  0  0  0  0  0  0  0
   -2.8054   -1.4395    0.1500 H   0  0  0  0  0  0  0  0  0  0  0  0
  1  2  1  0
  2  3  1  0
  3  4  1  0
  4  5  1  0
  5  6  2  0
  6  7  1  0
  7  8  2  0
  8  9  1  0
  9 10  1  0
 10 11  2  0
 10 12  1  0
 12 13  1  0
 13 14  1  0
 14 15  2  0
 15 16  1  0
 16 17  2  0
 17 18  1  0
 18 19  1  0
 18 20  2  0
 20 21  1  0
 21 22  2  0
 21 23  1  0
 23 24  1  0
 24 25  2  0
  8 26  1  0
 26  5  1  0
 25 14  1  0
 24 17  1  0
  1 27  1  0
  1 28  1  0
  1 29  1  0
  2 30  1  0
  2 31  1  0
  3 32  1  0
  3 33  1  0
  4 34  1  0
  4 35  1  0
  9 36  1  0
 12 37  1  0
 12 38  1  0
 15 39  1  0
 16 40  1  0
 19 41  1  0
 19 42  1  0
 19 43  1  0
 20 44  1  0
 25 45  1  0
M  END
$$$$
