
     RDKit          3D

 39 41  0  0  0  0  0  0  0  0999 V2000
   -4.1031   -1.0081   -1.3646 C   0  0  0  0  0  0  0  0  0  0  0  0
   -3.8824   -1.2469    0.1230 C   0  0  0  0  0  0  0  0  0  0  0  0
   -2.6590   -0.6065    0.5991 N   0  0  0  0  0  0  0  0  0  0  0  0
   -2.7549    0.7115    1.0194 C   0  0  0  0  0  0  0  0  0  0  0  0
   -3.7988    1.3606    1.0088 O   0  0  0  0  0  0  0  0  0  0  0  0
   -1.5180    1.3470    1.4946 C   0  0  0  0  0  0  0  0  0  0  0  0
   -1.5691    2.6628    1.9838 C   0  0  0  0  0  0  0  0  0  0  0  0
   -0.4118    3.2832    2.4416 C   0  0  0  0  0  0  0  0  0  0  0  0
    0.7915    2.5893    2.4104 C   0  0  0  0  0  0  0  0  0  0  0  0
    0.8372    1.2782    1.9208 C   0  0  0  0  0  0  0  0  0  0  0  0
   -0.3199    0.6353    1.4516 C   0  0  0  0  0  0  0  0  0  0  0  0
   -0.3115   -0.6926    0.9370 N   0  0  0  0  0  0  0  0  0  0  0  0
    0.9403   -1.4509    0.8331 C   0  0  0  0  0  0  0  0  0  0  0  0
    1.8119   -1.0414   -0.3412 C   0  0  0  0  0  0  0  0  0  0  0  0
    1.2862   -0.9693   -1.6421 C   0  0  0  0  0  0  0  0  0  0  0  0
    2.0959   -0.6101   -2.7231 C   0  0  0  0  0  0  0  0  0  0  0  0
    3.4499   -0.3319   -2.5072 C   0  0  0  0  0  0  0  0  0  0  0  0
    4.3058    0.0471   -3.6379 N   0  0  0  0  0  4  0  0  0  0  0  0
    5.4981    0.2904   -3.4015 O   0  0  0  0  0  0  0  0  0  0  0  0
    3.7871    0.1036   -4.7620 O   0  0  0  0  0  1  0  0  0  0  0  0
    3.9967   -0.4191   -1.2213 C   0  0  0  0  0  0  0  0  0  0  0  0
    3.1784   -0.7795   -0.1470 C   0  0  0  0  0  0  0  0  0  0  0  0
   -1.4723   -1.3189    0.4895 C   0  0  0  0  0  0  0  0  0  0  0  0
   -1.4472   -2.4527    0.0033 O   0  0  0  0  0  0  0  0  0  0  0  0
   -4.1855    0.0612   -1.5848 H   0  0  0  0  0  0  0  0  0  0  0  0
   -3.2730   -1.4070   -1.9567 H   0  0  0  0  0  0  0  0  0  0  0  0
   -5.0246   -1.4972   -1.6949 H   0  0  0  0  0  0  0  0  0  0  0  0
   -3.8340   -2.3245    0.3169 H   0  0  0  0  0  0  0  0  0  0  0  0
   -4.7412   -0.8614    0.6844 H   0  0  0  0  0  0  0  0  0  0  0  0
   -2.5133    3.2043    2.0076 H   0  0  0  0  0  0  0  0  0  0  0  0
   -0.4501    4.3019    2.8197 H   0  0  0  0  0  0  0  0  0  0  0  0
    1.7019    3.0673    2.7660 H   0  0  0  0  0  0  0  0  0  0  0  0
    1.8063    0.7920    1.9225 H   0  0  0  0  0  0  0  0  0  0  0  0
    1.4810   -1.3638    1.7833 H   0  0  0  0  0  0  0  0  0  0  0  0
    0.7358   -2.5235    0.7286 H   0  0  0  0  0  0  0  0  0  0  0  0
    0.2382   -1.2010   -1.8270 H   0  0  0  0  0  0  0  0  0  0  0  0
    1.6578   -0.5586   -3.7179 H   0  0  0  0  0  0  0  0  0  0  0  0
    5.0504   -0.2158   -1.0408 H   0  0  0  0  0  0  0  0  0  0  0  0
    3.6192   -0.8549    0.8456 H   0  0  0  0  0  0  0  0  0  0  0  0
  1  2  1  0
  2  3  1  0
  3  4  1  0
  4  5  2  0
  4  6  1  0
  6  7  2  0
  7  8  1  0
  8  9  2  0
  9 10  1  0
 10 11  2  0
 11 12  1  0
 12 13  1  0
 13 14  1  0
 14 15  2  0
 15 16  1  0
 16 17  2  0
 17 18  1  0
 18 19  2  0
 18 20  1  0
 17 21  1  0
 21 22  2  0
 12 23  1  0
 23 24  2  0
 23  3  1  0
 11  6  1  0
 22 14  1  0
  1 25  1  0
  1 26  1  0
  1 27  1  0
  2 28  1  0
  2 29  1  0
  7 30  1  0
  8 31  1  0
  9 32  1  0
 10 33  1  0
 13 34  1  0
 13 35  1  0
 15 36  1  0
 16 37  1  0
 21 38  1  0
 22 39  1  0
M  CHG  2  18   1  20  -1
M  END
$$$$
