
     RDKit          3D

 60 63  0  0  0  0  0  0  0  0999 V2000
    5.0358    4.1717   -1.1021 C   0  0  0  0  0  0  0  0  0  0  0  0
    4.1808    3.2128   -1.7101 O   0  0  0  0  0  0  0  0  0  0  0  0
    4.2233    1.9441   -1.2018 C   0  0  0  0  0  0  0  0  0  0  0  0
    4.8507    1.5584   -0.0173 C   0  0  0  0  0  0  0  0  0  0  0  0
    4.8110    0.2227    0.3975 C   0  0  0  0  0  0  0  0  0  0  0  0
    4.1481   -0.7451   -0.3682 C   0  0  0  0  0  0  0  0  0  0  0  0
    4.0600   -2.1709    0.1055 C   0  0  0  0  0  0  0  0  0  0  0  0
    2.7921   -2.3956    0.7495 N   0  0  0  0  0  0  0  0  0  0  0  0
    2.4248   -3.6223    1.2534 C   0  0  0  0  0  0  0  0  0  0  0  0
    3.1303   -4.6220    1.1447 O   0  0  0  0  0  0  0  0  0  0  0  0
    1.1490   -3.6045    2.1168 C   0  0  0  0  0  0  0  0  0  0  0  0
    1.5375   -3.5850    3.5932 C   0  0  0  0  0  0  0  0  0  0  0  0
    0.2767   -2.4686    1.7555 N   0  0  0  0  0  0  0  0  0  0  0  0
    0.6384   -1.2020    2.2553 N   0  0  0  0  0  0  0  0  0  0  0  0
   -0.0446   -0.1329    1.9490 C   0  0  0  0  0  0  0  0  0  0  0  0
    0.4020    1.1833    2.5184 C   0  0  0  0  0  0  0  0  0  0  0  0
   -1.1860   -0.2488    1.0785 C   0  0  0  0  0  0  0  0  0  0  0  0
   -2.1540    0.6372    0.6342 C   0  0  0  0  0  0  0  0  0  0  0  0
   -2.4126    2.0452    1.0340 C   0  0  0  0  0  0  0  0  0  0  0  0
   -2.9412   -0.0919   -0.2668 N   0  0  0  0  0  0  0  0  0  0  0  0
   -3.9745    0.3357   -1.1581 C   0  0  0  0  0  0  0  0  0  0  0  0
   -4.8578   -0.6239   -1.6798 C   0  0  0  0  0  0  0  0  0  0  0  0
   -5.8908   -0.2497   -2.5448 C   0  0  0  0  0  0  0  0  0  0  0  0
   -6.0539    1.0879   -2.9162 C   0  0  0  0  0  0  0  0  0  0  0  0
   -7.1452    1.4784   -3.8683 C   0  0  0  0  0  0  0  0  0  0  0  0
   -5.1491    2.0381   -2.4324 C   0  0  0  0  0  0  0  0  0  0  0  0
   -4.1151    1.6670   -1.5624 C   0  0  0  0  0  0  0  0  0  0  0  0
   -2.6206   -1.4135   -0.2303 N   0  0  0  0  0  0  0  0  0  0  0  0
   -1.5268   -1.4887    0.5305 C   0  0  0  0  0  0  0  0  0  0  0  0
   -0.7650   -2.6946    0.8282 C   0  0  0  0  0  0  0  0  0  0  0  0
   -1.0087   -3.7921    0.3337 O   0  0  0  0  0  0  0  0  0  0  0  0
    3.5124   -0.3504   -1.5527 C   0  0  0  0  0  0  0  0  0  0  0  0
    3.5495    0.9846   -1.9611 C   0  0  0  0  0  0  0  0  0  0  0  0
    4.6887    4.4184   -0.0930 H   0  0  0  0  0  0  0  0  0  0  0  0
    4.9938    5.0852   -1.7049 H   0  0  0  0  0  0  0  0  0  0  0  0
    6.0776    3.8314   -1.0877 H   0  0  0  0  0  0  0  0  0  0  0  0
    5.3717    2.2717    0.6120 H   0  0  0  0  0  0  0  0  0  0  0  0
    5.2980   -0.0578    1.3296 H   0  0  0  0  0  0  0  0  0  0  0  0
    4.8561   -2.3950    0.8266 H   0  0  0  0  0  0  0  0  0  0  0  0
    4.1757   -2.8748   -0.7287 H   0  0  0  0  0  0  0  0  0  0  0  0
    2.2736   -1.5985    1.1107 H   0  0  0  0  0  0  0  0  0  0  0  0
    0.6142   -4.5380    1.9091 H   0  0  0  0  0  0  0  0  0  0  0  0
    2.1417   -4.4635    3.8462 H   0  0  0  0  0  0  0  0  0  0  0  0
    2.1286   -2.6986    3.8523 H   0  0  0  0  0  0  0  0  0  0  0  0
    0.6459   -3.5911    4.2284 H   0  0  0  0  0  0  0  0  0  0  0  0
    1.3963    1.0875    2.9630 H   0  0  0  0  0  0  0  0  0  0  0  0
    0.4433    1.9416    1.7322 H   0  0  0  0  0  0  0  0  0  0  0  0
   -0.2957    1.4979    3.2984 H   0  0  0  0  0  0  0  0  0  0  0  0
   -2.0795    2.2300    2.0596 H   0  0  0  0  0  0  0  0  0  0  0  0
   -1.8775    2.7394    0.3783 H   0  0  0  0  0  0  0  0  0  0  0  0
   -3.4809    2.2818    1.0279 H   0  0  0  0  0  0  0  0  0  0  0  0
   -4.7673   -1.6753   -1.4078 H   0  0  0  0  0  0  0  0  0  0  0  0
   -6.5677   -1.0144   -2.9222 H   0  0  0  0  0  0  0  0  0  0  0  0
   -7.3593    2.5506   -3.8082 H   0  0  0  0  0  0  0  0  0  0  0  0
   -8.0731    0.9474   -3.6281 H   0  0  0  0  0  0  0  0  0  0  0  0
   -6.8513    1.2380   -4.8951 H   0  0  0  0  0  0  0  0  0  0  0  0
   -5.2332    3.0789   -2.7397 H   0  0  0  0  0  0  0  0  0  0  0  0
   -3.4187    2.4418   -1.2664 H   0  0  0  0  0  0  0  0  0  0  0  0
    2.9741   -1.0790   -2.1560 H   0  0  0  0  0  0  0  0  0  0  0  0
    3.0481    1.2801   -2.8791 H   0  0  0  0  0  0  0  0  0  0  0  0
  1  2  1  0
  2  3  1  0
  3  4  2  0
  4  5  1  0
  5  6  2  0
  6  7  1  0
  7  8  1  0
  8  9  1  0
  9 10  2  0
  9 11  1  0
 11 12  1  0
 11 13  1  0
 13 14  1  0
 14 15  2  0
 15 16  1  0
 15 17  1  0
 17 18  2  0
 18 19  1  0
 18 20  1  0
 20 21  1  0
 21 22  2  0
 22 23  1  0
 23 24  2  0
 24 25  1  0
 24 26  1  0
 26 27  2  0
 20 28  1  0
 28 29  2  0
 29 30  1  0
 30 31  2  0
  6 32  1  0
 32 33  2  0
 33  3  1  0
 30 13  1  0
 29 17  1  0
 27 21  1  0
  1 34  1  0
  1 35  1  0
  1 36  1  0
  4 37  1  0
  5 38  1  0
  7 39  1  0
  7 40  1  0
  8 41  1  0
 11 42  1  0
 12 43  1  0
 12 44  1  0
 12 45  1  0
 16 46  1  0
 16 47  1  0
 16 48  1  0
 19 49  1  0
 19 50  1  0
 19 51  1  0
 22 52  1  0
 23 53  1  0
 25 54  1  0
 25 55  1  0
 25 56  1  0
 26 57  1  0
 27 58  1  0
 32 59  1  0
 33 60  1  0
M  END
$$$$
