
     RDKit          3D

 35 36  0  0  0  0  0  0  0  0999 V2000
   -5.4677   -1.7194   -2.2268 C   0  0  0  0  0  0  0  0  0  0  0  0
   -4.3017   -1.0313   -1.5810 C   0  0  0  0  0  0  0  0  0  0  0  0
   -4.4557    0.2366   -1.0109 C   0  0  0  0  0  0  0  0  0  0  0  0
   -3.3669    0.9012   -0.4331 C   0  0  0  0  0  0  0  0  0  0  0  0
   -2.1005    0.3148   -0.4230 C   0  0  0  0  0  0  0  0  0  0  0  0
   -0.9691    0.9367    0.1441 N   0  0  0  0  0  0  0  0  0  0  0  0
   -0.8662    2.1704    0.7573 C   0  0  0  0  0  0  0  0  0  0  0  0
   -1.7745    2.9761    0.9337 O   0  0  0  0  0  0  0  0  0  0  0  0
    0.5596    2.4757    1.2262 C   0  0  0  0  0  0  0  0  0  0  0  0
    1.4519    1.4057    0.8867 O   0  0  0  0  0  0  0  0  0  0  0  0
    2.7391    1.6344    1.2434 C   0  0  0  0  0  0  0  0  0  0  0  0
    3.1791    2.6293    1.7865 O   0  0  0  0  0  0  0  0  0  0  0  0
    3.5340    0.4547    0.8566 C   0  0  0  0  0  0  0  0  0  0  0  0
    3.4694    0.0116   -0.4741 C   0  0  0  0  0  0  0  0  0  0  0  0
    4.2166   -1.0953   -0.8687 C   0  0  0  0  0  0  0  0  0  0  0  0
    4.1321   -1.6438   -2.4957 Cl  0  0  0  0  0  0  0  0  0  0  0  0
    5.0314   -1.7602    0.0455 C   0  0  0  0  0  0  0  0  0  0  0  0
    5.0974   -1.3167    1.3694 C   0  0  0  0  0  0  0  0  0  0  0  0
    4.3488   -0.2083    1.7806 C   0  0  0  0  0  0  0  0  0  0  0  0
    4.4393    0.2448    3.4428 Cl  0  0  0  0  0  0  0  0  0  0  0  0
   -1.9460   -0.9542   -1.0108 C   0  0  0  0  0  0  0  0  0  0  0  0
   -0.2506   -1.8233   -1.0556 Br  0  0  0  0  0  0  0  0  0  0  0  0
   -3.0330   -1.6190   -1.5889 C   0  0  0  0  0  0  0  0  0  0  0  0
   -5.5636   -1.3955   -3.2677 H   0  0  0  0  0  0  0  0  0  0  0  0
   -5.3420   -2.8071   -2.2059 H   0  0  0  0  0  0  0  0  0  0  0  0
   -6.3975   -1.4899   -1.6956 H   0  0  0  0  0  0  0  0  0  0  0  0
   -5.4295    0.7233   -1.0087 H   0  0  0  0  0  0  0  0  0  0  0  0
   -3.5459    1.8807    0.0001 H   0  0  0  0  0  0  0  0  0  0  0  0
   -0.1047    0.4036    0.0956 H   0  0  0  0  0  0  0  0  0  0  0  0
    0.8826    3.3978    0.7304 H   0  0  0  0  0  0  0  0  0  0  0  0
    0.5353    2.6025    2.3140 H   0  0  0  0  0  0  0  0  0  0  0  0
    2.8455    0.5307   -1.1980 H   0  0  0  0  0  0  0  0  0  0  0  0
    5.6155   -2.6244   -0.2631 H   0  0  0  0  0  0  0  0  0  0  0  0
    5.7315   -1.8456    2.0784 H   0  0  0  0  0  0  0  0  0  0  0  0
   -2.8941   -2.5963   -2.0457 H   0  0  0  0  0  0  0  0  0  0  0  0
  1  2  1  0
  2  3  2  0
  3  4  1  0
  4  5  2  0
  5  6  1  0
  6  7  1  0
  7  8  2  0
  7  9  1  0
  9 10  1  0
 10 11  1  0
 11 12  2  0
 11 13  1  0
 13 14  2  0
 14 15  1  0
 15 16  1  0
 15 17  2  0
 17 18  1  0
 18 19  2  0
 19 20  1  0
  5 21  1  0
 21 22  1  0
 21 23  2  0
 23  2  1  0
 19 13  1  0
  1 24  1  0
  1 25  1  0
  1 26  1  0
  3 27  1  0
  4 28  1  0
  6 29  1  0
  9 30  1  0
  9 31  1  0
 14 32  1  0
 17 33  1  0
 18 34  1  0
 23 35  1  0
M  END
$$$$
