
     RDKit          3D

 44 46  0  0  0  0  0  0  0  0999 V2000
   -3.0047    2.5416   -2.3602 C   0  0  0  0  0  0  0  0  0  0  0  0
   -4.0158    1.5321   -1.8087 C   0  0  0  0  0  0  0  0  0  0  0  0
   -5.1238    2.2407   -1.0255 C   0  0  0  0  0  0  0  0  0  0  0  0
   -3.3331    0.4611   -0.9739 C   0  0  0  0  0  0  0  0  0  0  0  0
   -2.6237    0.7829    0.1957 C   0  0  0  0  0  0  0  0  0  0  0  0
   -1.9897   -0.2119    0.9424 C   0  0  0  0  0  0  0  0  0  0  0  0
   -2.0535   -1.5384    0.5120 C   0  0  0  0  0  0  0  0  0  0  0  0
   -1.2190   -2.8102    1.4316 S   0  0  0  0  0  6  0  0  0  0  0  0
   -0.9543   -2.3078    2.7634 O   0  0  0  0  0  0  0  0  0  0  0  0
   -1.9490   -4.0449    1.2264 O   0  0  0  0  0  0  0  0  0  0  0  0
    0.2409   -2.9806    0.5922 N   0  0  0  0  0  0  0  0  0  0  0  0
    1.0671   -1.8360    0.4193 C   0  0  0  0  0  0  0  0  0  0  0  0
    1.1346   -1.2251   -0.8317 C   0  0  0  0  0  0  0  0  0  0  0  0
    1.9036   -0.0741   -0.9929 C   0  0  0  0  0  0  0  0  0  0  0  0
    2.6078    0.4535    0.0898 C   0  0  0  0  0  0  0  0  0  0  0  0
    3.3441    1.5757   -0.1709 O   0  0  0  0  0  0  0  0  0  0  0  0
    2.5448   -0.1485    1.3538 C   0  0  0  0  0  0  0  0  0  0  0  0
    3.3538    0.4995    2.8091 S   0  0  0  0  0  0  0  0  0  0  0  0
    5.0321    0.3436    2.3805 C   0  0  0  0  0  0  0  0  0  0  0  0
    5.5854    1.0519    1.3431 N   0  0  0  0  0  0  0  0  0  0  0  0
    6.8378    0.6565    1.3589 C   0  0  0  0  0  0  0  0  0  0  0  0
    7.0220   -0.2358    2.3696 N   0  0  0  0  0  0  0  0  0  0  0  0
    5.8802   -0.4490    3.0397 N   0  0  0  0  0  0  0  0  0  0  0  0
    1.7563   -1.2959    1.5078 C   0  0  0  0  0  0  0  0  0  0  0  0
   -2.7769   -1.8839   -0.6325 C   0  0  0  0  0  0  0  0  0  0  0  0
   -3.4092   -0.8840   -1.3731 C   0  0  0  0  0  0  0  0  0  0  0  0
   -2.2210    2.0361   -2.9343 H   0  0  0  0  0  0  0  0  0  0  0  0
   -3.4991    3.2569   -3.0258 H   0  0  0  0  0  0  0  0  0  0  0  0
   -2.5165    3.1127   -1.5621 H   0  0  0  0  0  0  0  0  0  0  0  0
   -4.4917    1.0494   -2.6734 H   0  0  0  0  0  0  0  0  0  0  0  0
   -5.6500    2.9545   -1.6684 H   0  0  0  0  0  0  0  0  0  0  0  0
   -5.8610    1.5218   -0.6483 H   0  0  0  0  0  0  0  0  0  0  0  0
   -4.7306    2.7950   -0.1665 H   0  0  0  0  0  0  0  0  0  0  0  0
   -2.5562    1.8151    0.5346 H   0  0  0  0  0  0  0  0  0  0  0  0
   -1.4410    0.0578    1.8434 H   0  0  0  0  0  0  0  0  0  0  0  0
    0.1488   -3.6242   -0.1919 H   0  0  0  0  0  0  0  0  0  0  0  0
    0.5820   -1.6174   -1.6815 H   0  0  0  0  0  0  0  0  0  0  0  0
    1.9577    0.4148   -1.9626 H   0  0  0  0  0  0  0  0  0  0  0  0
    4.0664    1.6323    0.4897 H   0  0  0  0  0  0  0  0  0  0  0  0
    7.6285    0.9692    0.6916 H   0  0  0  0  0  0  0  0  0  0  0  0
    7.8655   -0.7246    2.6519 H   0  0  0  0  0  0  0  0  0  0  0  0
    1.6793   -1.7786    2.4795 H   0  0  0  0  0  0  0  0  0  0  0  0
   -2.8524   -2.9209   -0.9533 H   0  0  0  0  0  0  0  0  0  0  0  0
   -3.9664   -1.1629   -2.2662 H   0  0  0  0  0  0  0  0  0  0  0  0
  1  2  1  0
  2  3  1  0
  2  4  1  0
  4  5  2  0
  5  6  1  0
  6  7  2  0
  7  8  1  0
  8  9  2  0
  8 10  2  0
  8 11  1  0
 11 12  1  0
 12 13  2  0
 13 14  1  0
 14 15  2  0
 15 16  1  0
 15 17  1  0
 17 18  1  0
 18 19  1  0
 19 20  1  0
 20 21  2  0
 21 22  1  0
 22 23  1  0
 17 24  2  0
  7 25  1  0
 25 26  2  0
 26  4  1  0
 24 12  1  0
 23 19  2  0
  1 27  1  0
  1 28  1  0
  1 29  1  0
  2 30  1  0
  3 31  1  0
  3 32  1  0
  3 33  1  0
  5 34  1  0
  6 35  1  0
 11 36  1  0
 13 37  1  0
 14 38  1  0
 16 39  1  0
 21 40  1  0
 22 41  1  0
 24 42  1  0
 25 43  1  0
 26 44  1  0
M  END
$$$$
