
     RDKit          3D

 58 62  0  0  0  0  0  0  0  0999 V2000
    6.2756    4.4149    1.5277 C   0  0  0  0  0  0  0  0  0  0  0  0
    6.1672    3.0130    1.7510 O   0  0  0  0  0  0  0  0  0  0  0  0
    5.0788    2.3843    1.2122 C   0  0  0  0  0  0  0  0  0  0  0  0
    5.0390    1.0050    1.4245 C   0  0  0  0  0  0  0  0  0  0  0  0
    3.9848    0.2364    0.9263 C   0  0  0  0  0  0  0  0  0  0  0  0
    2.9512    0.8413    0.2028 C   0  0  0  0  0  0  0  0  0  0  0  0
    1.8042    0.0197   -0.3283 C   0  0  0  0  0  0  0  0  0  0  0  0
    0.7703   -0.2911    0.7592 C   0  0  0  0  0  0  0  0  0  0  0  0
   -0.4256   -0.9211    0.1669 N   0  0  0  0  0  0  0  0  0  0  0  0
   -1.4830   -0.1418   -0.3332 C   0  0  0  0  0  0  0  0  0  0  0  0
   -1.4645    1.1637   -0.3870 N   0  0  0  0  0  0  0  0  0  0  0  0
   -2.7253   -0.8176   -0.8644 C   0  0  0  0  0  0  0  0  0  0  0  0
   -3.9585   -0.1305   -1.3622 C   0  0  0  0  0  0  0  0  0  0  0  0
   -4.8589   -0.7384   -1.9342 O   0  0  0  0  0  0  0  0  0  0  0  0
   -3.9968    1.2180   -1.1456 N   0  0  0  0  0  0  0  0  0  0  0  0
   -5.0307    2.0480   -1.7066 C   0  0  0  0  0  0  0  0  0  0  0  0
   -4.9116    3.4162   -1.1487 C   0  0  0  0  0  0  0  0  0  0  0  0
   -3.9491    4.4012   -1.2507 C   0  0  0  0  0  0  0  0  0  0  0  0
   -4.4096    5.4950   -0.4801 C   0  0  0  0  0  0  0  0  0  0  0  0
   -5.6200    5.1087    0.0456 C   0  0  0  0  0  0  0  0  0  0  0  0
   -5.9327    3.8499   -0.3545 O   0  0  0  0  0  0  0  0  0  0  0  0
   -2.6950   -2.1602   -0.8967 C   0  0  0  0  0  0  0  0  0  0  0  0
   -1.5456   -2.9352   -0.4594 C   0  0  0  0  0  0  0  0  0  0  0  0
   -1.5762   -4.4216   -0.5776 C   0  0  0  0  0  0  0  0  0  0  0  0
   -2.5809   -4.9854   -1.0161 O   0  0  0  0  0  0  0  0  0  0  0  0
   -0.4331   -5.0859   -0.1713 N   0  0  0  0  0  0  0  0  0  0  0  0
   -0.3783   -6.4728   -0.2636 C   0  0  0  0  0  0  0  0  0  0  0  0
    0.7012   -7.1622    0.1243 C   0  0  0  0  0  0  0  0  0  0  0  0
    1.8426   -6.4660    0.6545 C   0  0  0  0  0  0  0  0  0  0  0  0
    1.8315   -5.1320    0.7639 C   0  0  0  0  0  0  0  0  0  0  0  0
    0.6300   -4.3621    0.3334 C   0  0  0  0  0  0  0  0  0  0  0  0
    0.6463   -3.0742    0.4556 N   0  0  0  0  0  0  0  0  0  0  0  0
   -0.4468   -2.3382    0.0554 C   0  0  0  0  0  0  0  0  0  0  0  0
    2.9897    2.2251   -0.0048 C   0  0  0  0  0  0  0  0  0  0  0  0
    4.0479    2.9919    0.4956 C   0  0  0  0  0  0  0  0  0  0  0  0
    7.2027    4.7556    1.9954 H   0  0  0  0  0  0  0  0  0  0  0  0
    5.4478    4.9544    1.9989 H   0  0  0  0  0  0  0  0  0  0  0  0
    6.3379    4.6410    0.4565 H   0  0  0  0  0  0  0  0  0  0  0  0
    5.8407    0.5242    1.9807 H   0  0  0  0  0  0  0  0  0  0  0  0
    3.9825   -0.8366    1.1033 H   0  0  0  0  0  0  0  0  0  0  0  0
    1.3342    0.5521   -1.1648 H   0  0  0  0  0  0  0  0  0  0  0  0
    2.1964   -0.9103   -0.7597 H   0  0  0  0  0  0  0  0  0  0  0  0
    1.2141   -0.9343    1.5303 H   0  0  0  0  0  0  0  0  0  0  0  0
    0.4917    0.6155    1.3106 H   0  0  0  0  0  0  0  0  0  0  0  0
   -0.5864    1.5409   -0.0302 H   0  0  0  0  0  0  0  0  0  0  0  0
   -3.1355    1.6468   -0.7980 H   0  0  0  0  0  0  0  0  0  0  0  0
   -6.0066    1.6038   -1.4877 H   0  0  0  0  0  0  0  0  0  0  0  0
   -4.9000    2.0654   -2.7935 H   0  0  0  0  0  0  0  0  0  0  0  0
   -3.0318    4.3303   -1.8171 H   0  0  0  0  0  0  0  0  0  0  0  0
   -3.9214    6.4461   -0.3242 H   0  0  0  0  0  0  0  0  0  0  0  0
   -6.3440    5.5865    0.6892 H   0  0  0  0  0  0  0  0  0  0  0  0
   -3.5528   -2.7185   -1.2709 H   0  0  0  0  0  0  0  0  0  0  0  0
   -1.2539   -6.9775   -0.6658 H   0  0  0  0  0  0  0  0  0  0  0  0
    0.7359   -8.2449    0.0484 H   0  0  0  0  0  0  0  0  0  0  0  0
    2.7060   -7.0461    0.9627 H   0  0  0  0  0  0  0  0  0  0  0  0
    2.6698   -4.5707    1.1593 H   0  0  0  0  0  0  0  0  0  0  0  0
    2.1991    2.7209   -0.5651 H   0  0  0  0  0  0  0  0  0  0  0  0
    4.0356    4.0595    0.3069 H   0  0  0  0  0  0  0  0  0  0  0  0
  1  2  1  0
  2  3  1  0
  3  4  2  0
  4  5  1  0
  5  6  2  0
  6  7  1  0
  7  8  1  0
  8  9  1  0
  9 10  1  0
 10 11  2  3
 10 12  1  0
 12 13  1  0
 13 14  2  0
 13 15  1  0
 15 16  1  0
 16 17  1  0
 17 18  2  0
 18 19  1  0
 19 20  2  0
 20 21  1  0
 12 22  2  0
 22 23  1  0
 23 24  1  0
 24 25  2  0
 24 26  1  0
 26 27  1  0
 27 28  2  0
 28 29  1  0
 29 30  2  0
 30 31  1  0
 31 32  2  0
 32 33  1  0
  6 34  1  0
 34 35  2  0
 35  3  1  0
 33  9  1  0
 21 17  1  0
 33 23  2  0
 31 26  1  0
  1 36  1  0
  1 37  1  0
  1 38  1  0
  4 39  1  0
  5 40  1  0
  7 41  1  0
  7 42  1  0
  8 43  1  0
  8 44  1  0
 11 45  1  0
 15 46  1  0
 16 47  1  0
 16 48  1  0
 18 49  1  0
 19 50  1  0
 20 51  1  0
 22 52  1  0
 27 53  1  0
 28 54  1  0
 29 55  1  0
 30 56  1  0
 34 57  1  0
 35 58  1  0
M  END
$$$$
