
     RDKit          3D

 32 32  0  0  0  0  0  0  0  0999 V2000
   -0.3226    3.4982   -3.7864 C   0  0  0  0  0  0  0  0  0  0  0  0
   -0.5005    2.3203   -3.6311 C   0  0  0  0  0  0  0  0  0  0  0  0
   -0.7110    0.8743   -3.4461 C   0  0  0  0  0  0  0  0  0  0  0  0
   -1.6723    0.5257   -2.3872 N   0  0  0  0  0  0  0  0  0  0  0  0
   -3.0313    0.9380   -2.7433 C   0  0  0  0  0  0  0  0  0  0  0  0
   -1.3134    1.0162   -1.0483 C   0  0  0  0  0  0  0  0  0  0  0  0
    0.0140    0.4566   -0.5283 C   0  0  0  0  0  0  0  0  0  0  0  0
    0.2485    0.8684    0.9239 C   0  0  0  0  0  0  0  0  0  0  0  0
    1.5113    0.3870    1.3838 O   0  0  0  0  0  0  0  0  0  0  0  0
    1.5827   -0.8252    2.0172 C   0  0  0  0  0  0  0  0  0  0  0  0
    0.5496   -1.7674    2.0542 C   0  0  0  0  0  0  0  0  0  0  0  0
    0.7305   -2.9821    2.7219 C   0  0  0  0  0  0  0  0  0  0  0  0
   -0.5517   -4.1303    2.7607 Cl  0  0  0  0  0  0  0  0  0  0  0  0
    1.9355   -3.2777    3.3541 C   0  0  0  0  0  0  0  0  0  0  0  0
    2.9753   -2.3505    3.3162 C   0  0  0  0  0  0  0  0  0  0  0  0
    2.8007   -1.1333    2.6498 C   0  0  0  0  0  0  0  0  0  0  0  0
    4.1284   -0.0243    2.6385 Cl  0  0  0  0  0  0  0  0  0  0  0  0
   -0.1637    4.5429   -3.9241 H   0  0  0  0  0  0  0  0  0  0  0  0
   -1.0503    0.4365   -4.3938 H   0  0  0  0  0  0  0  0  0  0  0  0
    0.2499    0.3860   -3.2483 H   0  0  0  0  0  0  0  0  0  0  0  0
   -3.1473    2.0270   -2.7748 H   0  0  0  0  0  0  0  0  0  0  0  0
   -3.7521    0.5416   -2.0191 H   0  0  0  0  0  0  0  0  0  0  0  0
   -3.3192    0.5297   -3.7186 H   0  0  0  0  0  0  0  0  0  0  0  0
   -1.2936    2.1129   -1.0167 H   0  0  0  0  0  0  0  0  0  0  0  0
   -2.0976    0.7012   -0.3469 H   0  0  0  0  0  0  0  0  0  0  0  0
    0.0245   -0.6360   -0.6166 H   0  0  0  0  0  0  0  0  0  0  0  0
    0.8575    0.8162   -1.1293 H   0  0  0  0  0  0  0  0  0  0  0  0
   -0.5739    0.5796    1.5886 H   0  0  0  0  0  0  0  0  0  0  0  0
    0.3020    1.9625    0.9757 H   0  0  0  0  0  0  0  0  0  0  0  0
   -0.4008   -1.5910    1.5625 H   0  0  0  0  0  0  0  0  0  0  0  0
    2.0721   -4.2238    3.8713 H   0  0  0  0  0  0  0  0  0  0  0  0
    3.9189   -2.5791    3.8052 H   0  0  0  0  0  0  0  0  0  0  0  0
  1  2  3  0
  2  3  1  0
  3  4  1  0
  4  5  1  0
  4  6  1  0
  6  7  1  0
  7  8  1  0
  8  9  1  0
  9 10  1  0
 10 11  2  0
 11 12  1  0
 12 13  1  0
 12 14  2  0
 14 15  1  0
 15 16  2  0
 16 17  1  0
 16 10  1  0
  1 18  1  0
  3 19  1  0
  3 20  1  0
  5 21  1  0
  5 22  1  0
  5 23  1  0
  6 24  1  0
  6 25  1  0
  7 26  1  0
  7 27  1  0
  8 28  1  0
  8 29  1  0
 11 30  1  0
 14 31  1  0
 15 32  1  0
M  END
$$$$
