
     RDKit          3D

 49 52  0  0  0  0  0  0  0  0999 V2000
   -2.9025   -0.2018    2.9733 O   0  0  0  0  0  0  0  0  0  0  0  0
   -2.7251    0.9863    2.7850 C   0  0  0  0  0  0  0  0  0  0  0  0
   -2.4728    1.8130    3.8189 O   0  0  0  0  0  0  0  0  0  0  0  0
   -2.7227    1.7084    1.4832 C   0  0  0  0  0  0  0  0  0  0  0  0
   -3.1945    3.0392    1.4922 C   0  0  0  0  0  0  0  0  0  0  0  0
   -3.3986    3.7362    0.3053 C   0  0  0  0  0  0  0  0  0  0  0  0
   -3.1769    3.0952   -0.9046 C   0  0  0  0  0  0  0  0  0  0  0  0
   -2.7095    1.7726   -0.9213 C   0  0  0  0  0  0  0  0  0  0  0  0
   -2.5586    1.1002   -2.2327 C   0  0  0  0  0  0  0  0  0  0  0  0
   -2.6844    1.7288   -3.2784 O   0  0  0  0  0  0  0  0  0  0  0  0
   -2.2759   -0.3480   -2.2552 C   0  0  0  0  0  0  0  0  0  0  0  0
   -2.3385   -1.0492   -3.4664 C   0  0  0  0  0  0  0  0  0  0  0  0
   -2.0700   -2.4147   -3.4885 C   0  0  0  0  0  0  0  0  0  0  0  0
   -1.7467   -3.0726   -2.3049 C   0  0  0  0  0  0  0  0  0  0  0  0
   -1.6778   -2.3644   -1.0998 C   0  0  0  0  0  0  0  0  0  0  0  0
   -1.9224   -0.9825   -1.0551 C   0  0  0  0  0  0  0  0  0  0  0  0
   -1.8444   -0.2358    0.1475 N   0  0  0  0  0  0  0  0  0  0  0  0
   -0.6587   -0.5432    1.0071 C   0  0  0  0  0  0  0  0  0  0  0  0
    0.6973   -0.3272    0.2862 C   0  0  0  0  0  0  0  0  0  0  0  0
    0.8448    1.0667   -0.0325 O   0  0  0  0  0  0  0  0  0  0  0  0
    1.8551   -0.7661    1.2174 C   0  0  0  0  0  0  0  0  0  0  0  0
    3.1318   -0.9921    0.5185 N   0  0  0  0  0  0  0  0  0  0  0  0
    3.6870    0.2178   -0.0954 C   0  0  0  0  0  0  0  0  0  0  0  0
    5.1512   -0.1345   -0.3295 C   0  0  0  0  0  0  0  0  0  0  0  0
    5.4391   -1.3057    0.6015 C   0  0  0  0  0  0  0  0  0  0  0  0
    4.1768   -1.4614    1.4313 C   0  0  0  0  0  0  0  0  0  0  0  0
   -2.4028    1.0655    0.2632 C   0  0  0  0  0  0  0  0  0  0  0  0
   -2.5033    1.2265    4.6039 H   0  0  0  0  0  0  0  0  0  0  0  0
   -3.4373    3.5325    2.4321 H   0  0  0  0  0  0  0  0  0  0  0  0
   -3.7672    4.7589    0.3244 H   0  0  0  0  0  0  0  0  0  0  0  0
   -3.3805    3.6178   -1.8377 H   0  0  0  0  0  0  0  0  0  0  0  0
   -2.5997   -0.5321   -4.3871 H   0  0  0  0  0  0  0  0  0  0  0  0
   -2.1218   -2.9652   -4.4246 H   0  0  0  0  0  0  0  0  0  0  0  0
   -1.5528   -4.1429   -2.3150 H   0  0  0  0  0  0  0  0  0  0  0  0
   -1.4523   -2.9204   -0.1940 H   0  0  0  0  0  0  0  0  0  0  0  0
   -0.7378   -1.5717    1.3780 H   0  0  0  0  0  0  0  0  0  0  0  0
   -0.6346    0.0912    1.8970 H   0  0  0  0  0  0  0  0  0  0  0  0
    0.7498   -0.8966   -0.6478 H   0  0  0  0  0  0  0  0  0  0  0  0
    0.2268    1.2442   -0.7635 H   0  0  0  0  0  0  0  0  0  0  0  0
    1.9853   -0.0220    2.0144 H   0  0  0  0  0  0  0  0  0  0  0  0
    1.5742   -1.7149    1.6916 H   0  0  0  0  0  0  0  0  0  0  0  0
    3.1940    0.4688   -1.0396 H   0  0  0  0  0  0  0  0  0  0  0  0
    3.6225    1.0815    0.5786 H   0  0  0  0  0  0  0  0  0  0  0  0
    5.3252   -0.4319   -1.3699 H   0  0  0  0  0  0  0  0  0  0  0  0
    5.8009    0.7196   -0.1111 H   0  0  0  0  0  0  0  0  0  0  0  0
    5.6250   -2.2105    0.0103 H   0  0  0  0  0  0  0  0  0  0  0  0
    6.3196   -1.1261    1.2260 H   0  0  0  0  0  0  0  0  0  0  0  0
    4.2413   -0.8363    2.3312 H   0  0  0  0  0  0  0  0  0  0  0  0
    4.0225   -2.5011    1.7365 H   0  0  0  0  0  0  0  0  0  0  0  0
  1  2  2  0
  2  3  1  0
  2  4  1  0
  4  5  2  0
  5  6  1  0
  6  7  2  0
  7  8  1  0
  8  9  1  0
  9 10  2  0
  9 11  1  0
 11 12  2  0
 12 13  1  0
 13 14  2  0
 14 15  1  0
 15 16  2  0
 16 17  1  0
 17 18  1  0
 18 19  1  0
 19 20  1  0
 19 21  1  0
 21 22  1  0
 22 23  1  0
 23 24  1  0
 24 25  1  0
 25 26  1  0
 17 27  1  0
 27  4  1  0
 27  8  2  0
 16 11  1  0
 26 22  1  0
  3 28  1  0
  5 29  1  0
  6 30  1  0
  7 31  1  0
 12 32  1  0
 13 33  1  0
 14 34  1  0
 15 35  1  0
 18 36  1  0
 18 37  1  0
 19 38  1  0
 20 39  1  0
 21 40  1  0
 21 41  1  0
 23 42  1  0
 23 43  1  0
 24 44  1  0
 24 45  1  0
 25 46  1  0
 25 47  1  0
 26 48  1  0
 26 49  1  0
M  END
$$$$
