
     RDKit          3D

 44 46  0  0  0  0  0  0  0  0999 V2000
   -7.1092    2.4608   -0.2362 C   0  0  0  0  0  0  0  0  0  0  0  0
   -6.2449    1.6904   -1.0586 O   0  0  0  0  0  0  0  0  0  0  0  0
   -5.0920    1.2048   -0.4940 C   0  0  0  0  0  0  0  0  0  0  0  0
   -4.7058    1.4265    0.8311 C   0  0  0  0  0  0  0  0  0  0  0  0
   -3.5094    0.8922    1.3179 C   0  0  0  0  0  0  0  0  0  0  0  0
   -2.6827    0.1330    0.4868 C   0  0  0  0  0  0  0  0  0  0  0  0
   -1.4454   -0.4328    1.0422 C   0  0  0  0  0  0  0  0  0  0  0  0
   -0.1950   -0.2006    0.5929 C   0  0  0  0  0  0  0  0  0  0  0  0
    0.0779    0.6501   -0.5115 C   0  0  0  0  0  0  0  0  0  0  0  0
    0.3929    1.3132   -1.4102 N   0  0  0  0  0  0  0  0  0  0  0  0
    0.9421   -0.8736    1.3241 C   0  0  0  0  0  0  0  0  0  0  0  0
    0.6969   -1.6041    2.2801 O   0  0  0  0  0  0  0  0  0  0  0  0
    2.2062   -0.5918    0.8284 N   0  0  0  0  0  0  0  0  0  0  0  0
    3.4637   -1.0732    1.2957 C   0  0  0  0  0  0  0  0  0  0  0  0
    3.5557   -1.9545    2.3780 C   0  0  0  0  0  0  0  0  0  0  0  0
    4.7931   -2.4133    2.8164 C   0  0  0  0  0  0  0  0  0  0  0  0
    5.9536   -1.9948    2.1752 C   0  0  0  0  0  0  0  0  0  0  0  0
    5.9170   -1.1247    1.1007 C   0  0  0  0  0  0  0  0  0  0  0  0
    7.0959   -0.7827    0.5525 N   0  0  0  0  0  0  0  0  0  0  0  0
    7.0965    0.0634   -0.4951 C   0  0  0  0  0  0  0  0  0  0  0  0
    5.9509    0.5993   -1.0373 C   0  0  0  0  0  0  0  0  0  0  0  0
    4.7317    0.2431   -0.4675 C   0  0  0  0  0  0  0  0  0  0  0  0
    4.6665   -0.6445    0.6377 C   0  0  0  0  0  0  0  0  0  0  0  0
   -3.0731   -0.1052   -0.8373 C   0  0  0  0  0  0  0  0  0  0  0  0
   -4.2641    0.4376   -1.3375 C   0  0  0  0  0  0  0  0  0  0  0  0
   -4.7144    0.2529   -2.6221 O   0  0  0  0  0  0  0  0  0  0  0  0
   -3.7865   -0.2486   -3.5740 C   0  0  0  0  0  0  0  0  0  0  0  0
   -7.9709    2.7574   -0.8420 H   0  0  0  0  0  0  0  0  0  0  0  0
   -7.4833    1.8702    0.6065 H   0  0  0  0  0  0  0  0  0  0  0  0
   -6.6152    3.3751    0.1085 H   0  0  0  0  0  0  0  0  0  0  0  0
   -5.3139    2.0109    1.5135 H   0  0  0  0  0  0  0  0  0  0  0  0
   -3.2333    1.0780    2.3543 H   0  0  0  0  0  0  0  0  0  0  0  0
   -1.6061   -1.0722    1.9107 H   0  0  0  0  0  0  0  0  0  0  0  0
    2.2677    0.0330    0.0382 H   0  0  0  0  0  0  0  0  0  0  0  0
    2.6825   -2.3130    2.9124 H   0  0  0  0  0  0  0  0  0  0  0  0
    4.8533   -3.0982    3.6585 H   0  0  0  0  0  0  0  0  0  0  0  0
    6.9172   -2.3591    2.5250 H   0  0  0  0  0  0  0  0  0  0  0  0
    8.0764    0.3042   -0.8967 H   0  0  0  0  0  0  0  0  0  0  0  0
    6.0000    1.2777   -1.8816 H   0  0  0  0  0  0  0  0  0  0  0  0
    3.8424    0.6784   -0.9109 H   0  0  0  0  0  0  0  0  0  0  0  0
   -2.4480   -0.7314   -1.4652 H   0  0  0  0  0  0  0  0  0  0  0  0
   -3.5597   -1.3017   -3.3798 H   0  0  0  0  0  0  0  0  0  0  0  0
   -4.2542   -0.1869   -4.5614 H   0  0  0  0  0  0  0  0  0  0  0  0
   -2.8729    0.3549   -3.6002 H   0  0  0  0  0  0  0  0  0  0  0  0
  1  2  1  0
  2  3  1  0
  3  4  2  0
  4  5  1  0
  5  6  2  0
  6  7  1  0
  7  8  2  3
  8  9  1  0
  9 10  3  0
  8 11  1  0
 11 12  2  0
 11 13  1  0
 13 14  1  0
 14 15  2  0
 15 16  1  0
 16 17  2  0
 17 18  1  0
 18 19  2  0
 19 20  1  0
 20 21  2  0
 21 22  1  0
 22 23  2  0
  6 24  1  0
 24 25  2  0
 25 26  1  0
 26 27  1  0
 25  3  1  0
 23 14  1  0
 23 18  1  0
  1 28  1  0
  1 29  1  0
  1 30  1  0
  4 31  1  0
  5 32  1  0
  7 33  1  0
 13 34  1  0
 15 35  1  0
 16 36  1  0
 17 37  1  0
 20 38  1  0
 21 39  1  0
 22 40  1  0
 24 41  1  0
 27 42  1  0
 27 43  1  0
 27 44  1  0
M  END
$$$$
