
     RDKit          3D

 36 37  0  0  0  0  0  0  0  0999 V2000
   -0.5244    2.5919    1.8779 O   0  0  0  0  0  0  0  0  0  0  0  0
   -1.2147    1.5818    1.8637 C   0  0  0  0  0  0  0  0  0  0  0  0
   -2.6870    1.6745    1.9916 C   0  0  0  0  0  0  0  0  0  0  0  0
   -3.5780    1.1305    1.1471 C   0  0  0  0  0  0  0  0  0  0  0  0
   -3.2634    0.3758   -0.0761 C   0  0  0  0  0  0  0  0  0  0  0  0
   -2.5929    1.0263   -1.1238 C   0  0  0  0  0  0  0  0  0  0  0  0
   -2.2810    0.3448   -2.3024 C   0  0  0  0  0  0  0  0  0  0  0  0
   -2.6407   -0.9924   -2.4518 C   0  0  0  0  0  0  0  0  0  0  0  0
   -3.3138   -1.6505   -1.4227 C   0  0  0  0  0  0  0  0  0  0  0  0
   -3.6265   -0.9711   -0.2411 C   0  0  0  0  0  0  0  0  0  0  0  0
   -4.4386   -1.8531    1.0055 Cl  0  0  0  0  0  0  0  0  0  0  0  0
   -0.7374    0.3003    1.7861 N   0  0  0  0  0  0  0  0  0  0  0  0
    0.6676    0.0210    1.5684 C   0  0  0  0  0  0  0  0  0  0  0  0
    1.0511    0.1527    0.0931 C   0  0  0  0  0  0  0  0  0  0  0  0
    2.5036   -0.1772   -0.1403 C   0  0  0  0  0  0  0  0  0  0  0  0
    2.8900   -1.4681   -0.5239 C   0  0  0  0  0  0  0  0  0  0  0  0
    4.2380   -1.7723   -0.7200 C   0  0  0  0  0  0  0  0  0  0  0  0
    5.2102   -0.7916   -0.5312 C   0  0  0  0  0  0  0  0  0  0  0  0
    4.8361    0.4941   -0.1451 C   0  0  0  0  0  0  0  0  0  0  0  0
    3.4890    0.8005    0.0516 C   0  0  0  0  0  0  0  0  0  0  0  0
   -3.0202    2.2831    2.8256 H   0  0  0  0  0  0  0  0  0  0  0  0
   -4.6402    1.2632    1.3430 H   0  0  0  0  0  0  0  0  0  0  0  0
   -2.3038    2.0722   -1.0287 H   0  0  0  0  0  0  0  0  0  0  0  0
   -1.7565    0.8612   -3.1034 H   0  0  0  0  0  0  0  0  0  0  0  0
   -2.3982   -1.5216   -3.3704 H   0  0  0  0  0  0  0  0  0  0  0  0
   -3.5919   -2.6942   -1.5472 H   0  0  0  0  0  0  0  0  0  0  0  0
   -1.3937   -0.4696    1.7667 H   0  0  0  0  0  0  0  0  0  0  0  0
    1.2615    0.7062    2.1847 H   0  0  0  0  0  0  0  0  0  0  0  0
    0.8516   -0.9974    1.9282 H   0  0  0  0  0  0  0  0  0  0  0  0
    0.8464    1.1684   -0.2690 H   0  0  0  0  0  0  0  0  0  0  0  0
    0.4207   -0.5073   -0.5166 H   0  0  0  0  0  0  0  0  0  0  0  0
    2.1437   -2.2447   -0.6735 H   0  0  0  0  0  0  0  0  0  0  0  0
    4.5304   -2.7753   -1.0195 H   0  0  0  0  0  0  0  0  0  0  0  0
    6.2596   -1.0291   -0.6841 H   0  0  0  0  0  0  0  0  0  0  0  0
    5.5932    1.2595    0.0043 H   0  0  0  0  0  0  0  0  0  0  0  0
    3.2102    1.8077    0.3564 H   0  0  0  0  0  0  0  0  0  0  0  0
  1  2  2  0
  2  3  1  0
  3  4  2  3
  4  5  1  0
  5  6  2  0
  6  7  1  0
  7  8  2  0
  8  9  1  0
  9 10  2  0
 10 11  1  0
  2 12  1  0
 12 13  1  0
 13 14  1  0
 14 15  1  0
 15 16  2  0
 16 17  1  0
 17 18  2  0
 18 19  1  0
 19 20  2  0
 10  5  1  0
 20 15  1  0
  3 21  1  0
  4 22  1  0
  6 23  1  0
  7 24  1  0
  8 25  1  0
  9 26  1  0
 12 27  1  0
 13 28  1  0
 13 29  1  0
 14 30  1  0
 14 31  1  0
 16 32  1  0
 17 33  1  0
 18 34  1  0
 19 35  1  0
 20 36  1  0
M  END
$$$$
