
     RDKit          3D

 39 41  0  0  0  0  0  0  0  0999 V2000
    2.8090   -2.1772   -0.0221 O   0  0  0  0  0  0  0  0  0  0  0  0
    2.9012   -1.0715   -0.5323 C   0  0  0  0  0  0  0  0  0  0  0  0
    2.1578   -0.5971   -1.5593 O   0  0  0  0  0  0  0  0  0  0  0  0
    1.1377   -1.4760   -2.0479 C   0  0  0  0  0  0  0  0  0  0  0  0
   -0.1849   -1.0877   -1.4410 C   0  0  0  0  0  0  0  0  0  0  0  0
   -0.9482   -0.0536   -1.9943 C   0  0  0  0  0  0  0  0  0  0  0  0
   -2.1654    0.3184   -1.4141 C   0  0  0  0  0  0  0  0  0  0  0  0
   -2.6470   -0.3242   -0.2625 C   0  0  0  0  0  0  0  0  0  0  0  0
   -3.9269    0.0714    0.3482 C   0  0  0  0  0  0  0  0  0  0  0  0
   -4.0038    0.4203    1.7070 C   0  0  0  0  0  0  0  0  0  0  0  0
   -5.2182    0.7968    2.2874 C   0  0  0  0  0  0  0  0  0  0  0  0
   -6.3781    0.8297    1.5178 C   0  0  0  0  0  0  0  0  0  0  0  0
   -6.3247    0.4871    0.1692 C   0  0  0  0  0  0  0  0  0  0  0  0
   -5.1092    0.1119   -0.4098 C   0  0  0  0  0  0  0  0  0  0  0  0
   -1.8668   -1.3511    0.2917 C   0  0  0  0  0  0  0  0  0  0  0  0
   -0.6502   -1.7269   -0.2865 C   0  0  0  0  0  0  0  0  0  0  0  0
    3.8881   -0.0508   -0.0872 C   0  0  0  0  0  0  0  0  0  0  0  0
    3.9286    1.2432   -0.6281 C   0  0  0  0  0  0  0  0  0  0  0  0
    4.8757    2.1640   -0.1733 C   0  0  0  0  0  0  0  0  0  0  0  0
    5.7820    1.7978    0.8208 C   0  0  0  0  0  0  0  0  0  0  0  0
    5.7376    0.5160    1.3572 C   0  0  0  0  0  0  0  0  0  0  0  0
    6.6420    0.2040    2.3287 O   0  0  0  0  0  0  0  0  0  0  0  0
    4.8004   -0.4123    0.9148 C   0  0  0  0  0  0  0  0  0  0  0  0
    1.0948   -1.3560   -3.1368 H   0  0  0  0  0  0  0  0  0  0  0  0
    1.3664   -2.5342   -1.8714 H   0  0  0  0  0  0  0  0  0  0  0  0
   -0.5982    0.4754   -2.8780 H   0  0  0  0  0  0  0  0  0  0  0  0
   -2.7332    1.1320   -1.8612 H   0  0  0  0  0  0  0  0  0  0  0  0
   -3.1071    0.4121    2.3236 H   0  0  0  0  0  0  0  0  0  0  0  0
   -5.2551    1.0662    3.3397 H   0  0  0  0  0  0  0  0  0  0  0  0
   -7.3228    1.1216    1.9687 H   0  0  0  0  0  0  0  0  0  0  0  0
   -7.2285    0.5081   -0.4339 H   0  0  0  0  0  0  0  0  0  0  0  0
   -5.0917   -0.1634   -1.4624 H   0  0  0  0  0  0  0  0  0  0  0  0
   -2.2077   -1.8761    1.1820 H   0  0  0  0  0  0  0  0  0  0  0  0
   -0.0651   -2.5212    0.1745 H   0  0  0  0  0  0  0  0  0  0  0  0
    3.2272    1.5498   -1.4002 H   0  0  0  0  0  0  0  0  0  0  0  0
    4.9061    3.1669   -0.5919 H   0  0  0  0  0  0  0  0  0  0  0  0
    6.5202    2.5107    1.1786 H   0  0  0  0  0  0  0  0  0  0  0  0
    6.4898   -0.7113    2.6179 H   0  0  0  0  0  0  0  0  0  0  0  0
    4.7684   -1.4129    1.3373 H   0  0  0  0  0  0  0  0  0  0  0  0
  1  2  2  0
  2  3  1  0
  3  4  1  0
  4  5  1  0
  5  6  2  0
  6  7  1  0
  7  8  2  0
  8  9  1  0
  9 10  2  0
 10 11  1  0
 11 12  2  0
 12 13  1  0
 13 14  2  0
  8 15  1  0
 15 16  2  0
  2 17  1  0
 17 18  2  0
 18 19  1  0
 19 20  2  0
 20 21  1  0
 21 22  1  0
 21 23  2  0
 16  5  1  0
 23 17  1  0
 14  9  1  0
  4 24  1  0
  4 25  1  0
  6 26  1  0
  7 27  1  0
 10 28  1  0
 11 29  1  0
 12 30  1  0
 13 31  1  0
 14 32  1  0
 15 33  1  0
 16 34  1  0
 18 35  1  0
 19 36  1  0
 20 37  1  0
 22 38  1  0
 23 39  1  0
M  END
$$$$
