
     RDKit          3D

 38 40  0  0  0  0  0  0  0  0999 V2000
   -0.7030    0.8225   -2.7063 C   0  0  0  0  0  0  0  0  0  0  0  0
   -0.7989    0.3243   -1.2920 C   0  0  0  0  0  0  0  0  0  0  0  0
   -1.6381    0.9941   -0.3904 C   0  0  0  0  0  0  0  0  0  0  0  0
   -1.7656    0.5542    0.9268 C   0  0  0  0  0  0  0  0  0  0  0  0
   -2.6119    1.2815    1.7184 O   0  0  0  0  0  0  0  0  0  0  0  0
   -1.0594   -0.5636    1.3837 C   0  0  0  0  0  0  0  0  0  0  0  0
   -1.0958   -1.1365    3.0748 S   0  0  0  0  0  0  0  0  0  0  0  0
   -2.7511   -1.6396    3.2575 C   0  0  0  0  0  0  0  0  0  0  0  0
   -3.1337   -2.9396    3.4236 N   0  0  0  0  0  0  0  0  0  0  0  0
   -4.4373   -2.8522    3.5416 C   0  0  0  0  0  0  0  0  0  0  0  0
   -4.8144   -1.5496    3.4564 N   0  0  0  0  0  0  0  0  0  0  0  0
   -3.7498   -0.7463    3.2777 N   0  0  0  0  0  0  0  0  0  0  0  0
   -0.2169   -1.2311    0.4852 C   0  0  0  0  0  0  0  0  0  0  0  0
   -0.0797   -0.7930   -0.8380 C   0  0  0  0  0  0  0  0  0  0  0  0
    0.8102   -1.4760   -1.7175 N   0  0  0  0  0  0  0  0  0  0  0  0
    2.4635   -1.5327   -1.3855 S   0  0  0  0  0  6  0  0  0  0  0  0
    2.6863   -2.1972   -0.1203 O   0  0  0  0  0  0  0  0  0  0  0  0
    3.0954   -2.0047   -2.6003 O   0  0  0  0  0  0  0  0  0  0  0  0
    2.9034    0.1818   -1.1887 C   0  0  0  0  0  0  0  0  0  0  0  0
    2.8839    0.7612    0.0849 C   0  0  0  0  0  0  0  0  0  0  0  0
    3.2394    2.1030    0.2361 C   0  0  0  0  0  0  0  0  0  0  0  0
    3.6277    2.8479   -0.8780 C   0  0  0  0  0  0  0  0  0  0  0  0
    4.0645    4.5011   -0.6892 Cl  0  0  0  0  0  0  0  0  0  0  0  0
    3.6708    2.2623   -2.1445 C   0  0  0  0  0  0  0  0  0  0  0  0
    3.3137    0.9216   -2.3033 C   0  0  0  0  0  0  0  0  0  0  0  0
   -1.3048    1.7250   -2.8577 H   0  0  0  0  0  0  0  0  0  0  0  0
   -1.0703    0.0605   -3.4011 H   0  0  0  0  0  0  0  0  0  0  0  0
    0.3312    1.0751   -2.9564 H   0  0  0  0  0  0  0  0  0  0  0  0
   -2.2056    1.8675   -0.7057 H   0  0  0  0  0  0  0  0  0  0  0  0
   -2.8846    0.7135    2.4718 H   0  0  0  0  0  0  0  0  0  0  0  0
   -5.1321   -3.6671    3.6872 H   0  0  0  0  0  0  0  0  0  0  0  0
   -5.7439   -1.1469    3.5113 H   0  0  0  0  0  0  0  0  0  0  0  0
    0.3354   -2.1074    0.8208 H   0  0  0  0  0  0  0  0  0  0  0  0
    0.6166   -1.4619   -2.7165 H   0  0  0  0  0  0  0  0  0  0  0  0
    2.5921    0.1806    0.9579 H   0  0  0  0  0  0  0  0  0  0  0  0
    3.2154    2.5589    1.2230 H   0  0  0  0  0  0  0  0  0  0  0  0
    3.9869    2.8432   -3.0075 H   0  0  0  0  0  0  0  0  0  0  0  0
    3.3605    0.4657   -3.2899 H   0  0  0  0  0  0  0  0  0  0  0  0
  1  2  1  0
  2  3  2  0
  3  4  1  0
  4  5  1  0
  4  6  2  0
  6  7  1  0
  7  8  1  0
  8  9  1  0
  9 10  2  0
 10 11  1  0
 11 12  1  0
  6 13  1  0
 13 14  2  0
 14 15  1  0
 15 16  1  0
 16 17  2  0
 16 18  2  0
 16 19  1  0
 19 20  2  0
 20 21  1  0
 21 22  2  0
 22 23  1  0
 22 24  1  0
 24 25  2  0
 14  2  1  0
 25 19  1  0
 12  8  2  0
  1 26  1  0
  1 27  1  0
  1 28  1  0
  3 29  1  0
  5 30  1  0
 10 31  1  0
 11 32  1  0
 13 33  1  0
 15 34  1  0
 20 35  1  0
 21 36  1  0
 24 37  1  0
 25 38  1  0
M  END
$$$$
