
     RDKit          3D

 43 46  0  0  0  0  0  0  0  0999 V2000
    6.3994    1.9145   -1.2322 C   0  0  0  0  0  0  0  0  0  0  0  0
    5.0204    1.3767   -0.9816 C   0  0  0  0  0  0  0  0  0  0  0  0
    4.2885    0.7928   -2.0193 C   0  0  0  0  0  0  0  0  0  0  0  0
    3.0161    0.2642   -1.7814 C   0  0  0  0  0  0  0  0  0  0  0  0
    2.4661    0.3018   -0.4948 C   0  0  0  0  0  0  0  0  0  0  0  0
    1.0344   -0.2916   -0.2384 C   0  0  0  0  0  0  0  0  0  0  0  0
    0.1778   -0.8212   -1.1969 C   0  0  0  0  0  0  0  0  0  0  0  0
   -1.0143   -1.2049   -0.5804 N   0  0  0  0  0  4  0  0  0  0  0  0
   -2.1804   -1.8020   -1.2271 C   0  0  0  0  0  0  0  0  0  0  0  0
   -3.3866   -0.9285   -0.9980 C   0  0  0  0  0  0  0  0  0  0  0  0
   -4.5632   -1.4667   -0.4532 C   0  0  0  0  0  0  0  0  0  0  0  0
   -5.6820   -0.6576   -0.2397 C   0  0  0  0  0  0  0  0  0  0  0  0
   -5.6414    0.6960   -0.5714 C   0  0  0  0  0  0  0  0  0  0  0  0
   -4.4838    1.2356   -1.1237 C   0  0  0  0  0  0  0  0  0  0  0  0
   -4.4237    2.9041   -1.5328 Cl  0  0  0  0  0  0  0  0  0  0  0  0
   -3.3639    0.4330   -1.3436 C   0  0  0  0  0  0  0  0  0  0  0  0
   -0.8889   -0.9425    0.7167 C   0  0  0  0  0  0  0  0  0  0  0  0
    0.3148   -0.4218    0.9359 N   0  0  0  0  0  0  0  0  0  0  0  0
    0.5293   -0.1250    2.3451 C   0  0  0  0  0  0  0  0  0  0  0  0
   -0.6464   -0.8543    3.0521 C   0  0  0  0  0  0  0  0  0  0  0  0
   -1.6996   -1.0790    1.9492 C   0  0  0  0  0  0  0  0  0  0  0  0
    3.1981    0.8745    0.5455 C   0  0  0  0  0  0  0  0  0  0  0  0
    4.4705    1.4027    0.3034 C   0  0  0  0  0  0  0  0  0  0  0  0
    6.4802    2.3224   -2.2454 H   0  0  0  0  0  0  0  0  0  0  0  0
    6.6356    2.7258   -0.5356 H   0  0  0  0  0  0  0  0  0  0  0  0
    7.1393    1.1172   -1.1105 H   0  0  0  0  0  0  0  0  0  0  0  0
    4.7083    0.7479   -3.0233 H   0  0  0  0  0  0  0  0  0  0  0  0
    2.4899   -0.1751   -2.6233 H   0  0  0  0  0  0  0  0  0  0  0  0
    0.2597   -0.9597   -2.2617 H   0  0  0  0  0  0  0  0  0  0  0  0
   -1.9986   -1.9112   -2.3017 H   0  0  0  0  0  0  0  0  0  0  0  0
   -2.3183   -2.8019   -0.8005 H   0  0  0  0  0  0  0  0  0  0  0  0
   -4.6293   -2.5226   -0.1935 H   0  0  0  0  0  0  0  0  0  0  0  0
   -6.5926   -1.0829    0.1791 H   0  0  0  0  0  0  0  0  0  0  0  0
   -6.5167    1.3202   -0.4053 H   0  0  0  0  0  0  0  0  0  0  0  0
   -2.4731    0.8751   -1.7848 H   0  0  0  0  0  0  0  0  0  0  0  0
    1.4916   -0.5128    2.6864 H   0  0  0  0  0  0  0  0  0  0  0  0
    0.4681    0.9573    2.4908 H   0  0  0  0  0  0  0  0  0  0  0  0
   -1.0371   -0.2980    3.9083 H   0  0  0  0  0  0  0  0  0  0  0  0
   -0.2945   -1.8273    3.4148 H   0  0  0  0  0  0  0  0  0  0  0  0
   -2.4493   -0.2857    1.9234 H   0  0  0  0  0  0  0  0  0  0  0  0
   -2.1498   -2.0719    1.9728 H   0  0  0  0  0  0  0  0  0  0  0  0
    2.8131    0.9404    1.5544 H   0  0  0  0  0  0  0  0  0  0  0  0
    5.0324    1.8421    1.1264 H   0  0  0  0  0  0  0  0  0  0  0  0
  1  2  1  0
  2  3  2  0
  3  4  1  0
  4  5  2  0
  5  6  1  0
  6  7  2  0
  7  8  1  0
  8  9  1  0
  9 10  1  0
 10 11  2  0
 11 12  1  0
 12 13  2  0
 13 14  1  0
 14 15  1  0
 14 16  2  0
  8 17  2  0
 17 18  1  0
 18 19  1  0
 19 20  1  0
 20 21  1  0
  5 22  1  0
 22 23  2  0
 23  2  1  0
 18  6  1  0
 16 10  1  0
 21 17  1  0
  1 24  1  0
  1 25  1  0
  1 26  1  0
  3 27  1  0
  4 28  1  0
  7 29  1  0
  9 30  1  0
  9 31  1  0
 11 32  1  0
 12 33  1  0
 13 34  1  0
 16 35  1  0
 19 36  1  0
 19 37  1  0
 20 38  1  0
 20 39  1  0
 21 40  1  0
 21 41  1  0
 22 42  1  0
 23 43  1  0
M  CHG  1   8   1
M  END
$$$$
