
     RDKit          3D

 36 35  0  0  0  0  0  0  0  0999 V2000
    3.1883    0.8555   -1.2189 C   0  0  0  0  0  0  0  0  0  0  0  0
    2.7472   -0.3167   -2.0840 C   0  0  0  0  0  0  0  0  0  0  0  0
    1.7605   -1.1825   -1.4081 N   0  0  0  0  0  0  0  0  0  0  0  0
    2.3429   -2.1482   -0.4565 C   0  0  0  0  0  0  0  0  0  0  0  0
    2.8011   -3.4326   -1.1348 C   0  0  0  0  0  0  0  0  0  0  0  0
    0.3798   -1.1932   -1.7110 C   0  0  0  0  0  0  0  0  0  0  0  0
   -0.7340   -2.3209   -1.1243 S   0  0  0  0  0  0  0  0  0  0  0  0
   -0.2233    0.0431   -2.8318 S   0  0  0  0  0  0  0  0  0  0  0  0
   -0.5728    1.6442   -1.5756 S   0  0  0  0  0  0  0  0  0  0  0  0
   -2.1663    1.2482   -0.8960 C   0  0  0  0  0  0  0  0  0  0  0  0
   -3.5297    1.4798   -1.8659 S   0  0  0  0  0  0  0  0  0  0  0  0
   -2.1847    0.7959    0.4420 N   0  0  0  0  0  0  0  0  0  0  0  0
   -1.0197    0.8727    1.3442 C   0  0  0  0  0  0  0  0  0  0  0  0
   -0.7863    2.2712    1.8998 C   0  0  0  0  0  0  0  0  0  0  0  0
   -3.4185    0.2640    1.0508 C   0  0  0  0  0  0  0  0  0  0  0  0
   -4.2010    1.3065    1.8337 C   0  0  0  0  0  0  0  0  0  0  0  0
    3.8899    1.4880   -1.7718 H   0  0  0  0  0  0  0  0  0  0  0  0
    2.3419    1.4733   -0.9116 H   0  0  0  0  0  0  0  0  0  0  0  0
    3.6923    0.5145   -0.3096 H   0  0  0  0  0  0  0  0  0  0  0  0
    3.6199   -0.9294   -2.3375 H   0  0  0  0  0  0  0  0  0  0  0  0
    2.3665    0.0559   -3.0369 H   0  0  0  0  0  0  0  0  0  0  0  0
    3.1941   -1.6772    0.0467 H   0  0  0  0  0  0  0  0  0  0  0  0
    1.6227   -2.3832    0.3328 H   0  0  0  0  0  0  0  0  0  0  0  0
    1.9771   -3.9354   -1.6492 H   0  0  0  0  0  0  0  0  0  0  0  0
    3.5801   -3.2329   -1.8771 H   0  0  0  0  0  0  0  0  0  0  0  0
    3.2120   -4.1245   -0.3929 H   0  0  0  0  0  0  0  0  0  0  0  0
   -0.1213    0.5323    0.8219 H   0  0  0  0  0  0  0  0  0  0  0  0
   -1.1635    0.1716    2.1742 H   0  0  0  0  0  0  0  0  0  0  0  0
   -1.6343    2.6102    2.5004 H   0  0  0  0  0  0  0  0  0  0  0  0
   -0.6331    3.0075    1.1059 H   0  0  0  0  0  0  0  0  0  0  0  0
    0.1009    2.2762    2.5409 H   0  0  0  0  0  0  0  0  0  0  0  0
   -3.1495   -0.5725    1.7064 H   0  0  0  0  0  0  0  0  0  0  0  0
   -4.0624   -0.1684    0.2792 H   0  0  0  0  0  0  0  0  0  0  0  0
   -3.6518    1.6259    2.7235 H   0  0  0  0  0  0  0  0  0  0  0  0
   -4.4102    2.1942    1.2296 H   0  0  0  0  0  0  0  0  0  0  0  0
   -5.1547    0.8869    2.1693 H   0  0  0  0  0  0  0  0  0  0  0  0
  1  2  1  0
  2  3  1  0
  3  4  1  0
  4  5  1  0
  3  6  1  0
  6  7  2  0
  6  8  1  0
  8  9  1  0
  9 10  1  0
 10 11  2  0
 10 12  1  0
 12 13  1  0
 13 14  1  0
 12 15  1  0
 15 16  1  0
  1 17  1  0
  1 18  1  0
  1 19  1  0
  2 20  1  0
  2 21  1  0
  4 22  1  0
  4 23  1  0
  5 24  1  0
  5 25  1  0
  5 26  1  0
 13 27  1  0
 13 28  1  0
 14 29  1  0
 14 30  1  0
 14 31  1  0
 15 32  1  0
 15 33  1  0
 16 34  1  0
 16 35  1  0
 16 36  1  0
M  END
$$$$
