
     RDKit          3D

 44 47  0  0  0  0  0  0  0  0999 V2000
   -5.7338   -2.7482    0.7145 C   0  0  0  0  0  0  0  0  0  0  0  0
   -4.7002   -2.0669    1.5965 C   0  0  0  0  0  0  0  0  0  0  0  0
   -4.8366   -0.6474    1.4493 O   0  0  0  0  0  0  0  0  0  0  0  0
   -3.6048   -0.0551    1.3499 C   0  0  0  0  0  0  0  0  0  0  0  0
   -2.9814    0.3920    2.5087 C   0  0  0  0  0  0  0  0  0  0  0  0
   -1.7370    1.0189    2.4257 C   0  0  0  0  0  0  0  0  0  0  0  0
   -1.1174    1.1941    1.1833 C   0  0  0  0  0  0  0  0  0  0  0  0
    0.1928    1.8497    1.1206 C   0  0  0  0  0  0  0  0  0  0  0  0
    1.3459    1.2544    0.7800 C   0  0  0  0  0  0  0  0  0  0  0  0
    1.5857   -0.4342    0.3498 S   0  0  0  0  0  0  0  0  0  0  0  0
    3.2611   -0.1280    0.1375 C   0  0  0  0  0  0  0  0  0  0  0  0
    4.2970   -0.8365   -0.2023 N   0  0  0  0  0  0  0  0  0  0  0  0
    5.3088    0.1151   -0.1663 C   0  0  0  0  0  0  0  0  0  0  0  0
    6.7947   -0.2341   -0.5063 C   0  0  0  0  0  0  0  0  0  0  0  0
    7.8530    0.6559   -0.5167 C   0  0  0  0  0  0  0  0  0  0  0  0
    9.0069   -0.0849   -0.8714 C   0  0  0  0  0  0  0  0  0  0  0  0
    8.5852   -1.3804   -1.0534 C   0  0  0  0  0  0  0  0  0  0  0  0
    7.2491   -1.4839   -0.8303 O   0  0  0  0  0  0  0  0  0  0  0  0
    4.9175    1.3608    0.1819 N   0  0  0  0  0  0  0  0  0  0  0  0
    3.6025    1.1566    0.3742 N   0  0  0  0  0  0  0  0  0  0  0  0
    2.6178    2.0438    0.7503 C   0  0  0  0  0  0  0  0  0  0  0  0
    2.8108    3.2219    0.9886 O   0  0  0  0  0  0  0  0  0  0  0  0
   -1.7671    0.7700    0.0172 C   0  0  0  0  0  0  0  0  0  0  0  0
   -3.0225    0.1618    0.0943 C   0  0  0  0  0  0  0  0  0  0  0  0
   -3.6950   -0.2985   -1.0051 O   0  0  0  0  0  0  0  0  0  0  0  0
   -3.7108    0.6221   -2.1062 C   0  0  0  0  0  0  0  0  0  0  0  0
   -4.8836    0.2680   -3.0048 C   0  0  0  0  0  0  0  0  0  0  0  0
   -6.7362   -2.3227    0.8625 H   0  0  0  0  0  0  0  0  0  0  0  0
   -5.7621   -3.8237    0.9191 H   0  0  0  0  0  0  0  0  0  0  0  0
   -5.4789   -2.5996   -0.3422 H   0  0  0  0  0  0  0  0  0  0  0  0
   -3.6970   -2.4337    1.3202 H   0  0  0  0  0  0  0  0  0  0  0  0
   -4.8788   -2.3136    2.6491 H   0  0  0  0  0  0  0  0  0  0  0  0
   -3.4635    0.2539    3.4713 H   0  0  0  0  0  0  0  0  0  0  0  0
   -1.2527    1.3545    3.3369 H   0  0  0  0  0  0  0  0  0  0  0  0
    0.1847    2.9081    1.3970 H   0  0  0  0  0  0  0  0  0  0  0  0
    7.7891    1.7110   -0.2912 H   0  0  0  0  0  0  0  0  0  0  0  0
   10.0189    0.2790   -0.9724 H   0  0  0  0  0  0  0  0  0  0  0  0
    9.0853   -2.3010   -1.3192 H   0  0  0  0  0  0  0  0  0  0  0  0
   -1.2843    0.9005   -0.9451 H   0  0  0  0  0  0  0  0  0  0  0  0
   -2.7762    0.5291   -2.6768 H   0  0  0  0  0  0  0  0  0  0  0  0
   -3.8309    1.6567   -1.7564 H   0  0  0  0  0  0  0  0  0  0  0  0
   -5.8270    0.3142   -2.4436 H   0  0  0  0  0  0  0  0  0  0  0  0
   -4.7845   -0.7586   -3.3839 H   0  0  0  0  0  0  0  0  0  0  0  0
   -4.9445    0.9589   -3.8545 H   0  0  0  0  0  0  0  0  0  0  0  0
  1  2  1  0
  2  3  1  0
  3  4  1  0
  4  5  2  0
  5  6  1  0
  6  7  2  0
  7  8  1  0
  8  9  2  3
  9 10  1  0
 10 11  1  0
 11 12  2  0
 12 13  1  0
 13 14  1  0
 14 15  2  0
 15 16  1  0
 16 17  2  0
 17 18  1  0
 13 19  2  0
 19 20  1  0
 20 21  1  0
 21 22  2  0
  7 23  1  0
 23 24  2  0
 24 25  1  0
 25 26  1  0
 26 27  1  0
 24  4  1  0
 21  9  1  0
 20 11  1  0
 18 14  1  0
  1 28  1  0
  1 29  1  0
  1 30  1  0
  2 31  1  0
  2 32  1  0
  5 33  1  0
  6 34  1  0
  8 35  1  0
 15 36  1  0
 16 37  1  0
 17 38  1  0
 23 39  1  0
 26 40  1  0
 26 41  1  0
 27 42  1  0
 27 43  1  0
 27 44  1  0
M  END
$$$$
