
     RDKit          3D

 35 36  0  0  0  0  0  0  0  0999 V2000
    3.9724   -2.4589    0.0936 C   0  0  0  0  0  0  0  0  0  0  0  0
    3.5892   -1.0524    0.4433 C   0  0  0  0  0  0  0  0  0  0  0  0
    4.4031   -0.2944    1.2756 C   0  0  0  0  0  0  0  0  0  0  0  0
    4.0150    1.0047    1.5773 C   0  0  0  0  0  0  0  0  0  0  0  0
    2.8309    1.5078    1.0437 C   0  0  0  0  0  0  0  0  0  0  0  0
    2.0705    0.6900    0.2224 C   0  0  0  0  0  0  0  0  0  0  0  0
    0.8717    1.0757   -0.3711 N   0  0  0  0  0  0  0  0  0  0  0  0
    0.1895    2.2622   -0.2492 C   0  0  0  0  0  0  0  0  0  0  0  0
    0.5314    3.2356    0.4174 O   0  0  0  0  0  0  0  0  0  0  0  0
   -1.0880    2.3033   -1.0959 C   0  0  0  0  0  0  0  0  0  0  0  0
   -1.6371    1.0335   -1.4194 O   0  0  0  0  0  0  0  0  0  0  0  0
   -2.4002    0.3915   -0.4783 C   0  0  0  0  0  0  0  0  0  0  0  0
   -2.6005    0.8333    0.8334 C   0  0  0  0  0  0  0  0  0  0  0  0
   -3.3887    0.0906    1.7164 C   0  0  0  0  0  0  0  0  0  0  0  0
   -3.9796   -1.0974    1.2983 C   0  0  0  0  0  0  0  0  0  0  0  0
   -3.7822   -1.5485   -0.0050 C   0  0  0  0  0  0  0  0  0  0  0  0
   -2.9926   -0.8130   -0.9018 C   0  0  0  0  0  0  0  0  0  0  0  0
   -2.7888   -1.3219   -2.3025 C   0  0  0  0  0  0  0  0  0  0  0  0
    2.4362   -0.5741   -0.0831 N   0  0  0  0  0  0  0  0  0  0  0  0
    4.0406   -3.0687    0.9998 H   0  0  0  0  0  0  0  0  0  0  0  0
    3.2271   -2.9130   -0.5674 H   0  0  0  0  0  0  0  0  0  0  0  0
    4.9376   -2.4708   -0.4221 H   0  0  0  0  0  0  0  0  0  0  0  0
    5.3219   -0.7031    1.6830 H   0  0  0  0  0  0  0  0  0  0  0  0
    4.6276    1.6261    2.2243 H   0  0  0  0  0  0  0  0  0  0  0  0
    2.5363    2.5219    1.2832 H   0  0  0  0  0  0  0  0  0  0  0  0
    0.4444    0.3351   -0.9163 H   0  0  0  0  0  0  0  0  0  0  0  0
   -1.8334    2.9573   -0.6286 H   0  0  0  0  0  0  0  0  0  0  0  0
   -0.8106    2.7775   -2.0447 H   0  0  0  0  0  0  0  0  0  0  0  0
   -2.1556    1.7471    1.2134 H   0  0  0  0  0  0  0  0  0  0  0  0
   -3.5374    0.4411    2.7348 H   0  0  0  0  0  0  0  0  0  0  0  0
   -4.5911   -1.6742    1.9872 H   0  0  0  0  0  0  0  0  0  0  0  0
   -4.2471   -2.4807   -0.3179 H   0  0  0  0  0  0  0  0  0  0  0  0
   -1.7252   -1.5031   -2.4884 H   0  0  0  0  0  0  0  0  0  0  0  0
   -3.3202   -2.2648   -2.4695 H   0  0  0  0  0  0  0  0  0  0  0  0
   -3.1672   -0.5952   -3.0287 H   0  0  0  0  0  0  0  0  0  0  0  0
  1  2  1  0
  2  3  2  0
  3  4  1  0
  4  5  2  0
  5  6  1  0
  6  7  1  0
  7  8  1  0
  8  9  2  0
  8 10  1  0
 10 11  1  0
 11 12  1  0
 12 13  2  0
 13 14  1  0
 14 15  2  0
 15 16  1  0
 16 17  2  0
 17 18  1  0
  6 19  2  0
 19  2  1  0
 17 12  1  0
  1 20  1  0
  1 21  1  0
  1 22  1  0
  3 23  1  0
  4 24  1  0
  5 25  1  0
  7 26  1  0
 10 27  1  0
 10 28  1  0
 13 29  1  0
 14 30  1  0
 15 31  1  0
 16 32  1  0
 18 33  1  0
 18 34  1  0
 18 35  1  0
M  END
$$$$
