
     RDKit          3D

 49 51  0  0  0  0  0  0  0  0999 V2000
   -0.6669    5.8223    1.2448 C   0  0  0  0  0  0  0  0  0  0  0  0
    0.5306    5.4382    0.5848 O   0  0  0  0  0  0  0  0  0  0  0  0
    0.9163    4.1235    0.6749 C   0  0  0  0  0  0  0  0  0  0  0  0
    0.1706    3.1246    1.3135 C   0  0  0  0  0  0  0  0  0  0  0  0
    0.6381    1.8100    1.3500 C   0  0  0  0  0  0  0  0  0  0  0  0
    1.8500    1.4952    0.7353 C   0  0  0  0  0  0  0  0  0  0  0  0
    2.4491   -0.1741    0.7742 S   0  0  0  0  0  6  0  0  0  0  0  0
    3.8945   -0.1157    0.8353 O   0  0  0  0  0  0  0  0  0  0  0  0
    1.6922   -0.9240    1.7534 O   0  0  0  0  0  0  0  0  0  0  0  0
    2.0687   -0.7307   -0.7759 N   0  0  0  0  0  0  0  0  0  0  0  0
    0.7191   -1.0885   -1.0406 C   0  0  0  0  0  0  0  0  0  0  0  0
   -0.1074   -0.1732   -1.6779 C   0  0  0  0  0  0  0  0  0  0  0  0
   -1.4247   -0.5230   -1.9558 C   0  0  0  0  0  0  0  0  0  0  0  0
   -1.9315   -1.7755   -1.5644 C   0  0  0  0  0  0  0  0  0  0  0  0
   -1.1076   -2.6890   -0.8696 C   0  0  0  0  0  0  0  0  0  0  0  0
    0.2313   -2.3384   -0.6522 C   0  0  0  0  0  0  0  0  0  0  0  0
   -1.6418   -3.9569   -0.4697 N   0  0  0  0  0  0  0  0  0  0  0  0
   -1.1261   -4.8253    0.4912 C   0  0  0  0  0  0  0  0  0  0  0  0
   -0.3070   -4.2607    1.6278 C   0  0  0  0  0  0  0  0  0  0  0  0
   -1.3867   -6.0329    0.4934 O   0  0  0  0  0  0  0  0  0  0  0  0
   -2.8211   -4.4168   -1.2065 C   0  0  0  0  0  0  0  0  0  0  0  0
   -3.8847   -3.3337   -1.2323 C   0  0  0  0  0  0  0  0  0  0  0  0
   -3.3485   -2.1135   -1.9602 C   0  0  0  0  0  0  0  0  0  0  0  0
    2.6153    2.4812    0.1053 C   0  0  0  0  0  0  0  0  0  0  0  0
    2.1513    3.7990    0.0708 C   0  0  0  0  0  0  0  0  0  0  0  0
    2.8176    4.8364   -0.5337 O   0  0  0  0  0  0  0  0  0  0  0  0
    4.1356    4.5890   -1.0033 C   0  0  0  0  0  0  0  0  0  0  0  0
   -0.7992    6.8986    1.0982 H   0  0  0  0  0  0  0  0  0  0  0  0
   -0.6017    5.6395    2.3225 H   0  0  0  0  0  0  0  0  0  0  0  0
   -1.5358    5.3187    0.8088 H   0  0  0  0  0  0  0  0  0  0  0  0
   -0.7797    3.3378    1.7922 H   0  0  0  0  0  0  0  0  0  0  0  0
    0.0501    1.0428    1.8497 H   0  0  0  0  0  0  0  0  0  0  0  0
    2.8019   -1.3378   -1.1414 H   0  0  0  0  0  0  0  0  0  0  0  0
    0.2705    0.7980   -1.9858 H   0  0  0  0  0  0  0  0  0  0  0  0
   -2.0596    0.1833   -2.4878 H   0  0  0  0  0  0  0  0  0  0  0  0
    0.9301   -3.0357   -0.2066 H   0  0  0  0  0  0  0  0  0  0  0  0
   -0.5907   -4.7835    2.5477 H   0  0  0  0  0  0  0  0  0  0  0  0
    0.7561   -4.4357    1.4491 H   0  0  0  0  0  0  0  0  0  0  0  0
   -0.5099   -3.2013    1.7982 H   0  0  0  0  0  0  0  0  0  0  0  0
   -2.5035   -4.6970   -2.2187 H   0  0  0  0  0  0  0  0  0  0  0  0
   -3.2465   -5.3119   -0.7398 H   0  0  0  0  0  0  0  0  0  0  0  0
   -4.1574   -3.0617   -0.2044 H   0  0  0  0  0  0  0  0  0  0  0  0
   -4.7936   -3.6948   -1.7257 H   0  0  0  0  0  0  0  0  0  0  0  0
   -3.3621   -2.3014   -3.0414 H   0  0  0  0  0  0  0  0  0  0  0  0
   -4.0091   -1.2608   -1.7629 H   0  0  0  0  0  0  0  0  0  0  0  0
    3.5571    2.1977   -0.3534 H   0  0  0  0  0  0  0  0  0  0  0  0
    4.5412    5.5349   -1.3750 H   0  0  0  0  0  0  0  0  0  0  0  0
    4.7878    4.2423   -0.1948 H   0  0  0  0  0  0  0  0  0  0  0  0
    4.1278    3.8804   -1.8379 H   0  0  0  0  0  0  0  0  0  0  0  0
  1  2  1  0
  2  3  1  0
  3  4  2  0
  4  5  1  0
  5  6  2  0
  6  7  1  0
  7  8  2  0
  7  9  2  0
  7 10  1  0
 10 11  1  0
 11 12  2  0
 12 13  1  0
 13 14  2  0
 14 15  1  0
 15 16  2  0
 15 17  1  0
 17 18  1  0
 18 19  1  0
 18 20  2  0
 17 21  1  0
 21 22  1  0
 22 23  1  0
  6 24  1  0
 24 25  2  0
 25 26  1  0
 26 27  1  0
 25  3  1  0
 16 11  1  0
 23 14  1  0
  1 28  1  0
  1 29  1  0
  1 30  1  0
  4 31  1  0
  5 32  1  0
 10 33  1  0
 12 34  1  0
 13 35  1  0
 16 36  1  0
 19 37  1  0
 19 38  1  0
 19 39  1  0
 21 40  1  0
 21 41  1  0
 22 42  1  0
 22 43  1  0
 23 44  1  0
 23 45  1  0
 24 46  1  0
 27 47  1  0
 27 48  1  0
 27 49  1  0
M  END
$$$$
