
     RDKit          3D

 68 69  0  0  0  0  0  0  0  0999 V2000
    1.8100    2.9476   -0.5126 C   0  0  0  0  0  0  0  0  0  0  0  0
    1.3072    1.6788   -0.9128 O   0  0  0  0  0  0  0  0  0  0  0  0
   -0.1011    1.7179   -1.1319 C   0  0  0  0  0  0  0  0  0  0  0  0
   -0.6286    0.3258   -1.5121 C   0  0  0  0  0  0  0  0  0  0  0  0
   -0.4137   -0.7057   -0.4732 N   0  0  0  0  0  0  0  0  0  0  0  0
    0.7878   -1.4047   -0.4884 C   0  0  0  0  0  0  0  0  0  0  0  0
    1.5404   -1.4012   -1.4650 O   0  0  0  0  0  0  0  0  0  0  0  0
    1.1469   -2.2206    0.7435 C   0  0  0  0  0  0  0  0  0  0  0  0
    2.6385   -2.5290    0.7949 C   0  0  0  0  0  0  0  0  0  0  0  0
    3.4177   -1.2517    1.0449 C   0  0  0  0  0  0  0  0  0  0  0  0
    3.4554   -0.7509    2.1690 O   0  0  0  0  0  0  0  0  0  0  0  0
    3.9927   -0.7391   -0.0915 N   0  0  0  0  0  0  0  0  0  0  0  0
    4.7977    0.3762   -0.1392 C   0  0  0  0  0  0  0  0  0  0  0  0
    5.2783    1.1768    0.9238 C   0  0  0  0  0  0  0  0  0  0  0  0
    6.0305    2.1464    0.3115 C   0  0  0  0  0  0  0  0  0  0  0  0
    6.8013    3.3056    0.7887 C   0  0  0  0  0  0  0  0  0  0  0  0
    6.0208    1.9351   -1.0304 O   0  0  0  0  0  0  0  0  0  0  0  0
    5.2542    0.8212   -1.3147 N   0  0  0  0  0  0  0  0  0  0  0  0
   -1.5413   -1.0251    0.4484 C   0  0  0  0  0  0  0  0  0  0  0  0
   -2.6665   -1.8315   -0.2822 C   0  0  0  0  0  0  0  0  0  0  0  0
   -3.7625   -2.0569    0.2272 O   0  0  0  0  0  0  0  0  0  0  0  0
   -2.2982   -2.3397   -1.5167 N   0  0  0  0  0  0  0  0  0  0  0  0
   -3.1704   -3.0713   -2.4435 C   0  0  0  0  0  0  0  0  0  0  0  0
   -3.6418   -4.3959   -1.8281 C   0  0  0  0  0  0  0  0  0  0  0  0
   -2.3523   -3.3878   -3.7108 C   0  0  0  0  0  0  0  0  0  0  0  0
   -4.3768   -2.2107   -2.8478 C   0  0  0  0  0  0  0  0  0  0  0  0
   -1.9958    0.2010    1.2328 C   0  0  0  0  0  0  0  0  0  0  0  0
   -1.1497    0.7218    2.2285 C   0  0  0  0  0  0  0  0  0  0  0  0
   -1.5015    1.8643    2.9571 C   0  0  0  0  0  0  0  0  0  0  0  0
   -2.7075    2.5113    2.7048 C   0  0  0  0  0  0  0  0  0  0  0  0
   -3.1725    3.6283    3.3418 O   0  0  0  0  0  0  0  0  0  0  0  0
   -2.2909    4.2546    4.2649 C   0  0  0  0  0  0  0  0  0  0  0  0
   -3.5555    2.0027    1.7204 C   0  0  0  0  0  0  0  0  0  0  0  0
   -3.2048    0.8650    0.9855 C   0  0  0  0  0  0  0  0  0  0  0  0
    2.8999    2.8884   -0.4522 H   0  0  0  0  0  0  0  0  0  0  0  0
    1.5439    3.7193   -1.2447 H   0  0  0  0  0  0  0  0  0  0  0  0
    1.4177    3.2142    0.4747 H   0  0  0  0  0  0  0  0  0  0  0  0
   -0.3126    2.4082   -1.9565 H   0  0  0  0  0  0  0  0  0  0  0  0
   -0.5976    2.0984   -0.2380 H   0  0  0  0  0  0  0  0  0  0  0  0
   -0.1213    0.0025   -2.4283 H   0  0  0  0  0  0  0  0  0  0  0  0
   -1.6972    0.3860   -1.7425 H   0  0  0  0  0  0  0  0  0  0  0  0
    0.5843   -3.1596    0.7033 H   0  0  0  0  0  0  0  0  0  0  0  0
    0.8700   -1.6708    1.6475 H   0  0  0  0  0  0  0  0  0  0  0  0
    2.8552   -3.2147    1.6218 H   0  0  0  0  0  0  0  0  0  0  0  0
    2.9853   -3.0205   -0.1204 H   0  0  0  0  0  0  0  0  0  0  0  0
    3.7008   -1.0809   -1.0023 H   0  0  0  0  0  0  0  0  0  0  0  0
    5.0922    1.0743    1.9805 H   0  0  0  0  0  0  0  0  0  0  0  0
    6.8548    3.3176    1.8807 H   0  0  0  0  0  0  0  0  0  0  0  0
    7.8232    3.2771    0.3992 H   0  0  0  0  0  0  0  0  0  0  0  0
    6.3324    4.2373    0.4597 H   0  0  0  0  0  0  0  0  0  0  0  0
   -1.2010   -1.7499    1.1962 H   0  0  0  0  0  0  0  0  0  0  0  0
   -1.3653   -2.1016   -1.8411 H   0  0  0  0  0  0  0  0  0  0  0  0
   -4.2253   -4.9796   -2.5493 H   0  0  0  0  0  0  0  0  0  0  0  0
   -4.2741   -4.2392   -0.9484 H   0  0  0  0  0  0  0  0  0  0  0  0
   -2.7872   -5.0081   -1.5139 H   0  0  0  0  0  0  0  0  0  0  0  0
   -1.9978   -2.4665   -4.1892 H   0  0  0  0  0  0  0  0  0  0  0  0
   -1.4659   -3.9891   -3.4730 H   0  0  0  0  0  0  0  0  0  0  0  0
   -2.9479   -3.9398   -4.4465 H   0  0  0  0  0  0  0  0  0  0  0  0
   -4.0492   -1.2568   -3.2767 H   0  0  0  0  0  0  0  0  0  0  0  0
   -5.0191   -1.9779   -1.9926 H   0  0  0  0  0  0  0  0  0  0  0  0
   -4.9977   -2.7221   -3.5941 H   0  0  0  0  0  0  0  0  0  0  0  0
   -0.1929    0.2491    2.4432 H   0  0  0  0  0  0  0  0  0  0  0  0
   -0.8111    2.2172    3.7156 H   0  0  0  0  0  0  0  0  0  0  0  0
   -2.0884    3.6080    5.1237 H   0  0  0  0  0  0  0  0  0  0  0  0
   -2.7856    5.1561    4.6409 H   0  0  0  0  0  0  0  0  0  0  0  0
   -1.3611    4.5633    3.7746 H   0  0  0  0  0  0  0  0  0  0  0  0
   -4.5063    2.4944    1.5283 H   0  0  0  0  0  0  0  0  0  0  0  0
   -3.9037    0.5066    0.2331 H   0  0  0  0  0  0  0  0  0  0  0  0
  1  2  1  0
  2  3  1  0
  3  4  1  0
  4  5  1  0
  5  6  1  0
  6  7  2  0
  6  8  1  0
  8  9  1  0
  9 10  1  0
 10 11  2  0
 10 12  1  0
 12 13  1  0
 13 14  1  0
 14 15  2  0
 15 16  1  0
 15 17  1  0
 17 18  1  0
  5 19  1  0
 19 20  1  0
 20 21  2  0
 20 22  1  0
 22 23  1  0
 23 24  1  0
 23 25  1  0
 23 26  1  0
 19 27  1  0
 27 28  2  0
 28 29  1  0
 29 30  2  0
 30 31  1  0
 31 32  1  0
 30 33  1  0
 33 34  2  0
 18 13  2  0
 34 27  1  0
  1 35  1  0
  1 36  1  0
  1 37  1  0
  3 38  1  0
  3 39  1  0
  4 40  1  0
  4 41  1  0
  8 42  1  0
  8 43  1  0
  9 44  1  0
  9 45  1  0
 12 46  1  0
 14 47  1  0
 16 48  1  0
 16 49  1  0
 16 50  1  0
 19 51  1  0
 22 52  1  0
 24 53  1  0
 24 54  1  0
 24 55  1  0
 25 56  1  0
 25 57  1  0
 25 58  1  0
 26 59  1  0
 26 60  1  0
 26 61  1  0
 28 62  1  0
 29 63  1  0
 32 64  1  0
 32 65  1  0
 32 66  1  0
 33 67  1  0
 34 68  1  0
M  END
$$$$
