
     RDKit          3D

 61 66  0  0  0  0  0  0  0  0999 V2000
   -4.2045   -0.7837    1.9872 C   0  0  0  0  0  0  0  0  0  0  0  0
   -4.2174   -0.6195    0.4632 C   0  0  0  0  0  0  0  0  0  0  0  0
   -5.6257   -0.8640   -0.0907 C   0  0  0  0  0  0  0  0  0  0  0  0
   -3.6524    0.7418    0.0679 C   0  0  0  0  0  0  0  0  0  0  0  0
   -4.3966    1.9016    0.3621 C   0  0  0  0  0  0  0  0  0  0  0  0
   -3.8840    3.1805    0.1291 C   0  0  0  0  0  0  0  0  0  0  0  0
   -2.6050    3.3372   -0.3911 C   0  0  0  0  0  0  0  0  0  0  0  0
   -1.8401    2.2146   -0.6926 C   0  0  0  0  0  0  0  0  0  0  0  0
   -2.3633    0.9261   -0.4790 C   0  0  0  0  0  0  0  0  0  0  0  0
   -1.5522   -0.1672   -0.8681 N   0  0  0  0  0  0  0  0  0  0  0  0
   -0.3087   -0.5135   -0.3764 C   0  0  0  0  0  0  0  0  0  0  0  0
    0.4941    0.3022    0.9271 S   0  0  0  0  0  0  0  0  0  0  0  0
    2.1394   -0.4879    0.9067 C   0  0  0  0  0  0  0  0  0  0  0  0
    3.1886    0.2669    0.1138 C   0  0  0  0  0  0  0  0  0  0  0  0
    2.8930    0.8923   -1.0396 C   0  0  0  0  0  0  0  0  0  0  0  0
    3.7806    1.8517   -1.7024 C   0  0  0  0  0  0  0  0  0  0  0  0
    3.4962    2.3261   -2.7950 O   0  0  0  0  0  0  0  0  0  0  0  0
    4.8740    2.2608   -0.9719 O   0  0  0  0  0  0  0  0  0  0  0  0
    5.3000    1.5174    0.1460 C   0  0  0  0  0  0  0  0  0  0  0  0
    6.5226    1.9186    0.6717 C   0  0  0  0  0  0  0  0  0  0  0  0
    7.0826    1.1918    1.7091 C   0  0  0  0  0  0  0  0  0  0  0  0
    6.4665    0.0245    2.1717 C   0  0  0  0  0  0  0  0  0  0  0  0
    7.1146   -0.7233    3.1687 C   0  0  0  0  0  0  0  0  0  0  0  0
    6.5934   -1.9319    3.6166 C   0  0  0  0  0  0  0  0  0  0  0  0
    5.4264   -2.4176    3.0529 C   0  0  0  0  0  0  0  0  0  0  0  0
    4.7648   -1.6755    2.0687 C   0  0  0  0  0  0  0  0  0  0  0  0
    5.2239   -0.4081    1.6213 C   0  0  0  0  0  0  0  0  0  0  0  0
    4.5755    0.4227    0.6450 C   0  0  0  0  0  0  0  0  0  0  0  0
    0.1313   -1.5920   -0.9783 N   0  0  0  0  0  0  0  0  0  0  0  0
   -0.8089   -1.9702   -1.8969 N   0  0  0  0  0  0  0  0  0  0  0  0
   -1.8028   -1.0971   -1.8752 C   0  0  0  0  0  0  0  0  0  0  0  0
   -2.9434   -1.1339   -2.7878 C   0  0  0  0  0  0  0  0  0  0  0  0
   -3.4759    0.0029   -3.4018 C   0  0  0  0  0  0  0  0  0  0  0  0
   -4.5640   -0.1180   -4.2653 C   0  0  0  0  0  0  0  0  0  0  0  0
   -5.0852   -1.3794   -4.4970 C   0  0  0  0  0  0  0  0  0  0  0  0
   -4.5927   -2.5040   -3.9391 N   0  0  0  0  0  0  0  0  0  0  0  0
   -3.5281   -2.3561   -3.1124 C   0  0  0  0  0  0  0  0  0  0  0  0
   -4.5412   -1.7871    2.2692 H   0  0  0  0  0  0  0  0  0  0  0  0
   -4.8618   -0.0606    2.4822 H   0  0  0  0  0  0  0  0  0  0  0  0
   -3.1939   -0.6451    2.3872 H   0  0  0  0  0  0  0  0  0  0  0  0
   -3.5875   -1.4191    0.0648 H   0  0  0  0  0  0  0  0  0  0  0  0
   -5.6570   -0.7144   -1.1737 H   0  0  0  0  0  0  0  0  0  0  0  0
   -6.3707   -0.2000    0.3591 H   0  0  0  0  0  0  0  0  0  0  0  0
   -5.9414   -1.8929    0.1138 H   0  0  0  0  0  0  0  0  0  0  0  0
   -5.3873    1.8238    0.8066 H   0  0  0  0  0  0  0  0  0  0  0  0
   -4.4825    4.0555    0.3718 H   0  0  0  0  0  0  0  0  0  0  0  0
   -2.2045    4.3333   -0.5632 H   0  0  0  0  0  0  0  0  0  0  0  0
   -0.8490    2.3607   -1.1187 H   0  0  0  0  0  0  0  0  0  0  0  0
    2.0777   -1.5307    0.5829 H   0  0  0  0  0  0  0  0  0  0  0  0
    2.4073   -0.4841    1.9672 H   0  0  0  0  0  0  0  0  0  0  0  0
    1.9331    0.7956   -1.5311 H   0  0  0  0  0  0  0  0  0  0  0  0
    7.0374    2.7857    0.2679 H   0  0  0  0  0  0  0  0  0  0  0  0
    8.0357    1.5184    2.1199 H   0  0  0  0  0  0  0  0  0  0  0  0
    8.0526   -0.3751    3.5973 H   0  0  0  0  0  0  0  0  0  0  0  0
    7.1134   -2.5028    4.3809 H   0  0  0  0  0  0  0  0  0  0  0  0
    5.0308   -3.3814    3.3637 H   0  0  0  0  0  0  0  0  0  0  0  0
    3.8957   -2.1475    1.6244 H   0  0  0  0  0  0  0  0  0  0  0  0
   -3.0515    0.9885   -3.2337 H   0  0  0  0  0  0  0  0  0  0  0  0
   -4.9911    0.7531   -4.7497 H   0  0  0  0  0  0  0  0  0  0  0  0
   -5.9327   -1.5233   -5.1608 H   0  0  0  0  0  0  0  0  0  0  0  0
   -3.1484   -3.2870   -2.6965 H   0  0  0  0  0  0  0  0  0  0  0  0
  1  2  1  0
  2  3  1  0
  2  4  1  0
  4  5  2  0
  5  6  1  0
  6  7  2  0
  7  8  1  0
  8  9  2  0
  9 10  1  0
 10 11  1  0
 11 12  1  0
 12 13  1  0
 13 14  1  0
 14 15  2  0
 15 16  1  0
 16 17  2  0
 16 18  1  0
 18 19  1  0
 19 20  2  0
 20 21  1  0
 21 22  2  0
 22 23  1  0
 23 24  2  0
 24 25  1  0
 25 26  2  0
 26 27  1  0
 27 28  2  0
 11 29  2  0
 29 30  1  0
 30 31  2  0
 31 32  1  0
 32 33  2  0
 33 34  1  0
 34 35  2  0
 35 36  1  0
 36 37  2  0
  9  4  1  0
 31 10  1  0
 37 32  1  0
 28 14  1  0
 28 19  1  0
 27 22  1  0
  1 38  1  0
  1 39  1  0
  1 40  1  0
  2 41  1  0
  3 42  1  0
  3 43  1  0
  3 44  1  0
  5 45  1  0
  6 46  1  0
  7 47  1  0
  8 48  1  0
 13 49  1  0
 13 50  1  0
 15 51  1  0
 20 52  1  0
 21 53  1  0
 23 54  1  0
 24 55  1  0
 25 56  1  0
 26 57  1  0
 33 58  1  0
 34 59  1  0
 35 60  1  0
 37 61  1  0
M  END
$$$$
