
     RDKit          3D

 42 44  0  0  0  0  0  0  0  0999 V2000
   -5.7945   -2.4080    0.9454 C   0  0  0  0  0  0  0  0  0  0  0  0
   -5.3507   -1.0784    0.7102 O   0  0  0  0  0  0  0  0  0  0  0  0
   -4.4212   -0.5625    1.5799 C   0  0  0  0  0  0  0  0  0  0  0  0
   -4.0200   -1.1828    2.7690 C   0  0  0  0  0  0  0  0  0  0  0  0
   -3.0777   -0.5746    3.6029 C   0  0  0  0  0  0  0  0  0  0  0  0
   -2.5340    0.6602    3.2620 C   0  0  0  0  0  0  0  0  0  0  0  0
   -2.9287    1.2901    2.0826 C   0  0  0  0  0  0  0  0  0  0  0  0
   -3.8619    0.6826    1.2282 C   0  0  0  0  0  0  0  0  0  0  0  0
   -4.2806    1.3742   -0.0017 C   0  0  0  0  0  0  0  0  0  0  0  0
   -3.4999    1.7299   -1.0330 C   0  0  0  0  0  0  0  0  0  0  0  0
   -2.0643    1.4481   -1.1272 C   0  0  0  0  0  0  0  0  0  0  0  0
   -1.3850    0.4201   -0.7564 N   0  0  0  0  0  0  0  0  0  0  0  0
   -0.1024    0.7453   -1.1189 C   0  0  0  0  0  0  0  0  0  0  0  0
    0.9452   -0.0596   -0.8933 C   0  0  0  0  0  0  0  0  0  0  0  0
    2.3322    0.1894   -1.2248 C   0  0  0  0  0  0  0  0  0  0  0  0
    3.3051   -0.7007   -0.9695 C   0  0  0  0  0  0  0  0  0  0  0  0
    4.7268   -0.4862   -1.2812 C   0  0  0  0  0  0  0  0  0  0  0  0
    5.6951   -1.0474   -0.4374 C   0  0  0  0  0  0  0  0  0  0  0  0
    7.0566   -0.8926   -0.7114 C   0  0  0  0  0  0  0  0  0  0  0  0
    7.4649   -0.1840   -1.8389 C   0  0  0  0  0  0  0  0  0  0  0  0
    6.5129    0.3654   -2.6946 C   0  0  0  0  0  0  0  0  0  0  0  0
    5.1511    0.2108   -2.4205 C   0  0  0  0  0  0  0  0  0  0  0  0
   -0.0890    2.0862   -1.7732 C   0  0  0  0  0  0  0  0  0  0  0  0
    0.8298    2.7262   -2.2423 O   0  0  0  0  0  0  0  0  0  0  0  0
   -1.3990    2.4581   -1.7348 O   0  0  0  0  0  0  0  0  0  0  0  0
   -6.4565   -2.6896    0.1209 H   0  0  0  0  0  0  0  0  0  0  0  0
   -6.3743   -2.4698    1.8720 H   0  0  0  0  0  0  0  0  0  0  0  0
   -4.9560   -3.1124    0.9536 H   0  0  0  0  0  0  0  0  0  0  0  0
   -4.4257   -2.1394    3.0801 H   0  0  0  0  0  0  0  0  0  0  0  0
   -2.7716   -1.0659    4.5232 H   0  0  0  0  0  0  0  0  0  0  0  0
   -1.8046    1.1341    3.9137 H   0  0  0  0  0  0  0  0  0  0  0  0
   -2.5025    2.2592    1.8354 H   0  0  0  0  0  0  0  0  0  0  0  0
   -5.3472    1.5843   -0.0513 H   0  0  0  0  0  0  0  0  0  0  0  0
   -3.9333    2.2480   -1.8818 H   0  0  0  0  0  0  0  0  0  0  0  0
    0.7329   -1.0086   -0.4022 H   0  0  0  0  0  0  0  0  0  0  0  0
    2.5812    1.1431   -1.6839 H   0  0  0  0  0  0  0  0  0  0  0  0
    3.0724   -1.6473   -0.4865 H   0  0  0  0  0  0  0  0  0  0  0  0
    5.3978   -1.6037    0.4486 H   0  0  0  0  0  0  0  0  0  0  0  0
    7.7968   -1.3260   -0.0440 H   0  0  0  0  0  0  0  0  0  0  0  0
    8.5234   -0.0633   -2.0530 H   0  0  0  0  0  0  0  0  0  0  0  0
    6.8276    0.9123   -3.5797 H   0  0  0  0  0  0  0  0  0  0  0  0
    4.4288    0.6348   -3.1140 H   0  0  0  0  0  0  0  0  0  0  0  0
  1  2  1  0
  2  3  1  0
  3  4  2  0
  4  5  1  0
  5  6  2  0
  6  7  1  0
  7  8  2  0
  8  9  1  0
  9 10  2  3
 10 11  1  0
 11 12  2  0
 12 13  1  0
 13 14  2  3
 14 15  1  0
 15 16  2  3
 16 17  1  0
 17 18  2  0
 18 19  1  0
 19 20  2  0
 20 21  1  0
 21 22  2  0
 13 23  1  0
 23 24  2  0
 23 25  1  0
  8  3  1  0
 25 11  1  0
 22 17  1  0
  1 26  1  0
  1 27  1  0
  1 28  1  0
  4 29  1  0
  5 30  1  0
  6 31  1  0
  7 32  1  0
  9 33  1  0
 10 34  1  0
 14 35  1  0
 15 36  1  0
 16 37  1  0
 18 38  1  0
 19 39  1  0
 20 40  1  0
 21 41  1  0
 22 42  1  0
M  END
$$$$
