
     RDKit          3D

 59 62  0  0  0  0  0  0  0  0999 V2000
    8.7592   -2.0748    2.0778 C   0  0  0  0  0  0  0  0  0  0  0  0
    7.4179   -1.4726    1.7821 C   0  0  0  0  0  0  0  0  0  0  0  0
    7.1603   -0.8759    0.5439 C   0  0  0  0  0  0  0  0  0  0  0  0
    5.8998   -0.3367    0.2562 C   0  0  0  0  0  0  0  0  0  0  0  0
    4.8677   -0.4076    1.1976 C   0  0  0  0  0  0  0  0  0  0  0  0
    3.5682    0.1374    0.9554 N   0  0  0  0  0  0  0  0  0  0  0  0
    2.7548    0.3758    2.0198 N   0  0  0  0  0  0  0  0  0  0  0  0
    1.7316    1.0764    1.5269 C   0  0  0  0  0  0  0  0  0  0  0  0
    0.6212    1.6371    2.2863 C   0  0  0  0  0  0  0  0  0  0  0  0
    0.5118    1.5424    3.5069 O   0  0  0  0  0  0  0  0  0  0  0  0
   -0.3179    2.2990    1.4659 N   0  0  0  0  0  0  0  0  0  0  0  0
   -1.4986    2.8965    2.0796 C   0  0  0  0  0  0  0  0  0  0  0  0
   -2.6328    1.8942    2.2937 C   0  0  0  0  0  0  0  0  0  0  0  0
   -3.1867    1.3428    0.9807 C   0  0  0  0  0  0  0  0  0  0  0  0
   -4.4179    0.4843    1.1927 C   0  0  0  0  0  0  0  0  0  0  0  0
   -4.9499    0.3058    2.2820 O   0  0  0  0  0  0  0  0  0  0  0  0
   -4.8937   -0.0630    0.0239 N   0  0  0  0  0  0  0  0  0  0  0  0
   -5.9732   -1.0213    0.0519 C   0  0  0  0  0  0  0  0  0  0  0  0
   -6.4195   -1.2747   -1.3385 C   0  0  0  0  0  0  0  0  0  0  0  0
   -7.6240   -1.1163   -1.9908 C   0  0  0  0  0  0  0  0  0  0  0  0
   -7.4156   -1.5382   -3.3259 C   0  0  0  0  0  0  0  0  0  0  0  0
   -6.0970   -1.9281   -3.4087 C   0  0  0  0  0  0  0  0  0  0  0  0
   -5.2607   -2.4594   -4.5025 C   0  0  0  0  0  0  0  0  0  0  0  0
   -5.4830   -1.7656   -2.2038 O   0  0  0  0  0  0  0  0  0  0  0  0
   -0.2326    2.4131    0.0728 N   0  0  0  0  0  0  0  0  0  0  0  0
    0.7742    1.9066   -0.5831 C   0  0  0  0  0  0  0  0  0  0  0  0
    0.8106    2.0775   -2.0750 C   0  0  0  0  0  0  0  0  0  0  0  0
    1.8056    1.2001    0.1356 C   0  0  0  0  0  0  0  0  0  0  0  0
    2.9389    0.4992   -0.2428 C   0  0  0  0  0  0  0  0  0  0  0  0
    3.4128    0.1135   -1.5966 C   0  0  0  0  0  0  0  0  0  0  0  0
    5.1331   -0.9966    2.4453 C   0  0  0  0  0  0  0  0  0  0  0  0
    6.3919   -1.5349    2.7284 C   0  0  0  0  0  0  0  0  0  0  0  0
    9.5463   -1.5904    1.4903 H   0  0  0  0  0  0  0  0  0  0  0  0
    9.0180   -1.9462    3.1341 H   0  0  0  0  0  0  0  0  0  0  0  0
    8.7504   -3.1432    1.8414 H   0  0  0  0  0  0  0  0  0  0  0  0
    7.9483   -0.8103   -0.2041 H   0  0  0  0  0  0  0  0  0  0  0  0
    5.7861    0.1697   -0.6945 H   0  0  0  0  0  0  0  0  0  0  0  0
   -1.8347    3.7313    1.4531 H   0  0  0  0  0  0  0  0  0  0  0  0
   -1.2092    3.3196    3.0487 H   0  0  0  0  0  0  0  0  0  0  0  0
   -3.4354    2.3970    2.8474 H   0  0  0  0  0  0  0  0  0  0  0  0
   -2.2910    1.0632    2.9232 H   0  0  0  0  0  0  0  0  0  0  0  0
   -3.4620    2.1677    0.3129 H   0  0  0  0  0  0  0  0  0  0  0  0
   -2.4295    0.7289    0.4800 H   0  0  0  0  0  0  0  0  0  0  0  0
   -4.2899   -0.0831   -0.7883 H   0  0  0  0  0  0  0  0  0  0  0  0
   -6.7888   -0.6301    0.6691 H   0  0  0  0  0  0  0  0  0  0  0  0
   -5.6036   -1.9429    0.5137 H   0  0  0  0  0  0  0  0  0  0  0  0
   -8.5400   -0.7422   -1.5536 H   0  0  0  0  0  0  0  0  0  0  0  0
   -8.1380   -1.5569   -4.1300 H   0  0  0  0  0  0  0  0  0  0  0  0
   -4.7048   -3.3413   -4.1693 H   0  0  0  0  0  0  0  0  0  0  0  0
   -5.8749   -2.7493   -5.3607 H   0  0  0  0  0  0  0  0  0  0  0  0
   -4.5423   -1.7029   -4.8336 H   0  0  0  0  0  0  0  0  0  0  0  0
    0.5649    1.1275   -2.5562 H   0  0  0  0  0  0  0  0  0  0  0  0
    0.0760    2.8249   -2.3893 H   0  0  0  0  0  0  0  0  0  0  0  0
    1.8012    2.4089   -2.3954 H   0  0  0  0  0  0  0  0  0  0  0  0
    2.5712   -0.0157   -2.2827 H   0  0  0  0  0  0  0  0  0  0  0  0
    4.0688    0.8827   -2.0131 H   0  0  0  0  0  0  0  0  0  0  0  0
    3.9324   -0.8488   -1.5894 H   0  0  0  0  0  0  0  0  0  0  0  0
    4.3612   -1.0563    3.2117 H   0  0  0  0  0  0  0  0  0  0  0  0
    6.5631   -1.9978    3.6980 H   0  0  0  0  0  0  0  0  0  0  0  0
  1  2  1  0
  2  3  2  0
  3  4  1  0
  4  5  2  0
  5  6  1  0
  6  7  1  0
  7  8  2  0
  8  9  1  0
  9 10  2  0
  9 11  1  0
 11 12  1  0
 12 13  1  0
 13 14  1  0
 14 15  1  0
 15 16  2  0
 15 17  1  0
 17 18  1  0
 18 19  1  0
 19 20  2  0
 20 21  1  0
 21 22  2  0
 22 23  1  0
 22 24  1  0
 11 25  1  0
 25 26  2  0
 26 27  1  0
 26 28  1  0
 28 29  2  0
 29 30  1  0
  5 31  1  0
 31 32  2  0
 32  2  1  0
 29  6  1  0
 28  8  1  0
 24 19  1  0
  1 33  1  0
  1 34  1  0
  1 35  1  0
  3 36  1  0
  4 37  1  0
 12 38  1  0
 12 39  1  0
 13 40  1  0
 13 41  1  0
 14 42  1  0
 14 43  1  0
 17 44  1  0
 18 45  1  0
 18 46  1  0
 20 47  1  0
 21 48  1  0
 23 49  1  0
 23 50  1  0
 23 51  1  0
 27 52  1  0
 27 53  1  0
 27 54  1  0
 30 55  1  0
 30 56  1  0
 30 57  1  0
 31 58  1  0
 32 59  1  0
M  END
$$$$
