
     RDKit          3D

 47 49  0  0  0  0  0  0  0  0999 V2000
    6.3197   -2.2627   -1.2170 C   0  0  0  0  0  0  0  0  0  0  0  0
    6.8837   -1.1877   -0.2989 C   0  0  0  0  0  0  0  0  0  0  0  0
    5.7900   -0.3566    0.3246 C   0  0  0  0  0  0  0  0  0  0  0  0
    5.3312    0.8048   -0.3120 C   0  0  0  0  0  0  0  0  0  0  0  0
    4.3036    1.5623    0.2555 C   0  0  0  0  0  0  0  0  0  0  0  0
    3.7079    1.1614    1.4540 C   0  0  0  0  0  0  0  0  0  0  0  0
    2.6610    1.9083    2.0096 N   0  0  0  0  0  0  0  0  0  0  0  0
    1.4540    1.6579    1.6345 C   0  0  0  0  0  0  0  0  0  0  0  0
    1.0421    0.7211    0.7409 N   0  0  0  0  0  0  0  0  0  0  0  0
   -0.2959    0.6231    0.4873 C   0  0  0  0  0  0  0  0  0  0  0  0
   -0.7790   -0.1916   -0.2829 O   0  0  0  0  0  0  0  0  0  0  0  0
   -1.0386    1.6407    1.2906 C   0  0  0  0  0  0  0  0  0  0  0  0
   -2.3566    1.8846    1.2987 C   0  0  0  0  0  0  0  0  0  0  0  0
   -3.3594    1.1732    0.5010 C   0  0  0  0  0  0  0  0  0  0  0  0
   -3.7219   -0.1492    0.8138 C   0  0  0  0  0  0  0  0  0  0  0  0
   -4.6855   -0.8127    0.0510 C   0  0  0  0  0  0  0  0  0  0  0  0
   -5.1359   -2.0937    0.2584 O   0  0  0  0  0  0  0  0  0  0  0  0
   -4.5006   -2.8319    1.2967 C   0  0  0  0  0  0  0  0  0  0  0  0
   -5.2840   -0.1447   -1.0276 C   0  0  0  0  0  0  0  0  0  0  0  0
   -6.2466   -0.7969   -1.7569 O   0  0  0  0  0  0  0  0  0  0  0  0
   -4.9226    1.1653   -1.3470 C   0  0  0  0  0  0  0  0  0  0  0  0
   -5.4965    1.8789   -2.3672 O   0  0  0  0  0  0  0  0  0  0  0  0
   -5.1448    1.3271   -3.6389 C   0  0  0  0  0  0  0  0  0  0  0  0
   -3.9771    1.8316   -0.5678 C   0  0  0  0  0  0  0  0  0  0  0  0
    0.0856    2.5428    2.2578 S   0  0  0  0  0  0  0  0  0  0  0  0
    4.1741    0.0141    2.0996 C   0  0  0  0  0  0  0  0  0  0  0  0
    5.2032   -0.7455    1.5366 C   0  0  0  0  0  0  0  0  0  0  0  0
    5.6888   -2.9641   -0.6612 H   0  0  0  0  0  0  0  0  0  0  0  0
    5.7133   -1.8198   -2.0171 H   0  0  0  0  0  0  0  0  0  0  0  0
    7.1319   -2.8353   -1.6835 H   0  0  0  0  0  0  0  0  0  0  0  0
    7.5611   -0.5391   -0.8672 H   0  0  0  0  0  0  0  0  0  0  0  0
    7.4929   -1.6514    0.4873 H   0  0  0  0  0  0  0  0  0  0  0  0
    5.7756    1.1297   -1.2504 H   0  0  0  0  0  0  0  0  0  0  0  0
    3.9659    2.4697   -0.2400 H   0  0  0  0  0  0  0  0  0  0  0  0
    1.6863    0.1029    0.2733 H   0  0  0  0  0  0  0  0  0  0  0  0
   -2.7623    2.6818    1.9192 H   0  0  0  0  0  0  0  0  0  0  0  0
   -3.2362   -0.6373    1.6535 H   0  0  0  0  0  0  0  0  0  0  0  0
   -4.6723   -2.3639    2.2723 H   0  0  0  0  0  0  0  0  0  0  0  0
   -3.4299   -2.9525    1.0962 H   0  0  0  0  0  0  0  0  0  0  0  0
   -4.9511   -3.8307    1.3220 H   0  0  0  0  0  0  0  0  0  0  0  0
   -6.3534   -1.6632   -1.3180 H   0  0  0  0  0  0  0  0  0  0  0  0
   -4.0772    1.0791   -3.6941 H   0  0  0  0  0  0  0  0  0  0  0  0
   -5.7600    0.4517   -3.8797 H   0  0  0  0  0  0  0  0  0  0  0  0
   -5.3485    2.0908   -4.3959 H   0  0  0  0  0  0  0  0  0  0  0  0
   -3.7183    2.8575   -0.8132 H   0  0  0  0  0  0  0  0  0  0  0  0
    3.7343   -0.2900    3.0462 H   0  0  0  0  0  0  0  0  0  0  0  0
    5.5482   -1.6402    2.0539 H   0  0  0  0  0  0  0  0  0  0  0  0
  1  2  1  0
  2  3  1  0
  3  4  2  0
  4  5  1  0
  5  6  2  0
  6  7  1  0
  7  8  2  3
  8  9  1  0
  9 10  1  0
 10 11  2  0
 10 12  1  0
 12 13  2  3
 13 14  1  0
 14 15  2  0
 15 16  1  0
 16 17  1  0
 17 18  1  0
 16 19  2  0
 19 20  1  0
 19 21  1  0
 21 22  1  0
 22 23  1  0
 21 24  2  0
 12 25  1  0
  6 26  1  0
 26 27  2  0
 27  3  1  0
 25  8  1  0
 24 14  1  0
  1 28  1  0
  1 29  1  0
  1 30  1  0
  2 31  1  0
  2 32  1  0
  4 33  1  0
  5 34  1  0
  9 35  1  0
 13 36  1  0
 15 37  1  0
 18 38  1  0
 18 39  1  0
 18 40  1  0
 20 41  1  0
 23 42  1  0
 23 43  1  0
 23 44  1  0
 24 45  1  0
 26 46  1  0
 27 47  1  0
M  END
$$$$
