
     RDKit          3D

 55 60  0  0  0  0  0  0  0  0999 V2000
   -3.5281    3.2370   -0.4306 O   0  0  0  0  0  0  0  0  0  0  0  0
   -3.6827    2.0208   -0.3357 C   0  0  0  0  0  0  0  0  0  0  0  0
   -5.0274    1.4851   -0.1952 C   0  0  0  0  0  0  0  0  0  0  0  0
   -6.0782    1.9919    0.6247 C   0  0  0  0  0  0  0  0  0  0  0  0
   -7.1767    1.1990    0.3933 C   0  0  0  0  0  0  0  0  0  0  0  0
   -6.8892    0.2556   -0.5390 O   0  0  0  0  0  0  0  0  0  0  0  0
   -5.5976    0.4501   -0.9099 C   0  0  0  0  0  0  0  0  0  0  0  0
   -2.5959    1.1370   -0.3494 N   0  0  0  0  0  0  0  0  0  0  0  0
   -2.6781   -0.3036   -0.1283 C   0  0  0  0  0  0  0  0  0  0  0  0
   -1.4848   -0.8344    0.6648 C   0  0  0  0  0  0  0  0  0  0  0  0
   -0.1224   -0.4303    0.0401 C   0  0  0  0  0  0  0  0  0  0  0  0
   -0.1317    1.1156   -0.0588 C   0  0  0  0  0  0  0  0  0  0  0  0
   -1.3241    1.6364   -0.8577 C   0  0  0  0  0  0  0  0  0  0  0  0
   -0.0336   -0.9108   -1.3234 O   0  0  0  0  0  0  0  0  0  0  0  0
    0.2114   -2.2461   -1.4770 C   0  0  0  0  0  0  0  0  0  0  0  0
   -0.0715   -2.7809   -2.7347 C   0  0  0  0  0  0  0  0  0  0  0  0
    0.1307   -4.1410   -2.9738 C   0  0  0  0  0  0  0  0  0  0  0  0
    0.6189   -4.9544   -1.9557 C   0  0  0  0  0  0  0  0  0  0  0  0
    0.8095   -6.2583   -2.1909 F   0  0  0  0  0  0  0  0  0  0  0  0
    0.9190   -4.4335   -0.7037 C   0  0  0  0  0  0  0  0  0  0  0  0
    0.7221   -3.0698   -0.4731 C   0  0  0  0  0  0  0  0  0  0  0  0
    1.0709   -2.4744    0.8305 C   0  0  0  0  0  0  0  0  0  0  0  0
    1.3694   -3.2059    1.7684 O   0  0  0  0  0  0  0  0  0  0  0  0
    1.0827   -0.9504    0.8753 C   0  0  0  0  0  0  0  0  0  0  0  0
    2.4611   -0.4896    0.4150 C   0  0  0  0  0  0  0  0  0  0  0  0
    2.7266    0.5443    1.4529 C   0  0  0  0  0  0  0  0  0  0  0  0
    3.8502    1.5024    1.3371 C   0  0  0  0  0  0  0  0  0  0  0  0
    3.9639    2.5307    2.2809 C   0  0  0  0  0  0  0  0  0  0  0  0
    5.0082    3.4529    2.1940 C   0  0  0  0  0  0  0  0  0  0  0  0
    5.9441    3.3509    1.1664 C   0  0  0  0  0  0  0  0  0  0  0  0
    5.8389    2.3265    0.2263 C   0  0  0  0  0  0  0  0  0  0  0  0
    4.7948    1.4013    0.3093 C   0  0  0  0  0  0  0  0  0  0  0  0
    1.9020    0.5344    2.4503 N   0  0  0  0  0  0  0  0  0  0  0  0
    0.9812   -0.5160    2.2348 O   0  0  0  0  0  0  0  0  0  0  0  0
   -6.0258    2.8353    1.2997 H   0  0  0  0  0  0  0  0  0  0  0  0
   -8.1868    1.1853    0.7786 H   0  0  0  0  0  0  0  0  0  0  0  0
   -5.2375   -0.2105   -1.6859 H   0  0  0  0  0  0  0  0  0  0  0  0
   -2.7386   -0.7862   -1.1104 H   0  0  0  0  0  0  0  0  0  0  0  0
   -3.5838   -0.5571    0.4284 H   0  0  0  0  0  0  0  0  0  0  0  0
   -1.5901   -1.9229    0.7295 H   0  0  0  0  0  0  0  0  0  0  0  0
   -1.5475   -0.4488    1.6907 H   0  0  0  0  0  0  0  0  0  0  0  0
    0.7746    1.4786   -0.5560 H   0  0  0  0  0  0  0  0  0  0  0  0
   -0.1632    1.5597    0.9434 H   0  0  0  0  0  0  0  0  0  0  0  0
   -1.3010    2.7312   -0.8563 H   0  0  0  0  0  0  0  0  0  0  0  0
   -1.2535    1.3243   -1.9067 H   0  0  0  0  0  0  0  0  0  0  0  0
   -0.4588   -2.1436   -3.5264 H   0  0  0  0  0  0  0  0  0  0  0  0
   -0.0915   -4.5729   -3.9454 H   0  0  0  0  0  0  0  0  0  0  0  0
    1.3086   -5.0874    0.0718 H   0  0  0  0  0  0  0  0  0  0  0  0
    2.4715   -0.0833   -0.5989 H   0  0  0  0  0  0  0  0  0  0  0  0
    3.2262   -1.2698    0.4979 H   0  0  0  0  0  0  0  0  0  0  0  0
    3.2416    2.6209    3.0903 H   0  0  0  0  0  0  0  0  0  0  0  0
    5.0909    4.2487    2.9303 H   0  0  0  0  0  0  0  0  0  0  0  0
    6.7583    4.0688    1.1010 H   0  0  0  0  0  0  0  0  0  0  0  0
    6.5748    2.2471   -0.5705 H   0  0  0  0  0  0  0  0  0  0  0  0
    4.7479    0.6102   -0.4326 H   0  0  0  0  0  0  0  0  0  0  0  0
  1  2  2  0
  2  3  1  0
  3  4  1  0
  4  5  2  0
  5  6  1  0
  6  7  1  0
  2  8  1  0
  8  9  1  0
  9 10  1  0
 10 11  1  0
 11 12  1  0
 12 13  1  0
 11 14  1  0
 14 15  1  0
 15 16  2  0
 16 17  1  0
 17 18  2  0
 18 19  1  0
 18 20  1  0
 20 21  2  0
 21 22  1  0
 22 23  2  0
 22 24  1  0
 24 25  1  0
 25 26  1  0
 26 27  1  0
 27 28  2  0
 28 29  1  0
 29 30  2  0
 30 31  1  0
 31 32  2  0
 26 33  2  0
 33 34  1  0
  7  3  2  0
 13  8  1  0
 21 15  1  0
 34 24  1  0
 24 11  1  0
 32 27  1  0
  4 35  1  0
  5 36  1  0
  7 37  1  0
  9 38  1  0
  9 39  1  0
 10 40  1  0
 10 41  1  0
 12 42  1  0
 12 43  1  0
 13 44  1  0
 13 45  1  0
 16 46  1  0
 17 47  1  0
 20 48  1  0
 25 49  1  0
 25 50  1  0
 28 51  1  0
 29 52  1  0
 30 53  1  0
 31 54  1  0
 32 55  1  0
M  END
$$$$
