
     RDKit          3D

 36 37  0  0  0  0  0  0  0  0999 V2000
    0.1178   -1.9722   -1.0323 O   0  0  0  0  0  0  0  0  0  0  0  0
   -0.4458   -1.0583   -0.4423 C   0  0  0  0  0  0  0  0  0  0  0  0
   -1.8826   -0.7900   -0.6975 C   0  0  0  0  0  0  0  0  0  0  0  0
   -2.7180   -0.2228    0.1871 C   0  0  0  0  0  0  0  0  0  0  0  0
   -4.1529   -0.0135   -0.0816 C   0  0  0  0  0  0  0  0  0  0  0  0
   -4.5575    0.5471   -1.3057 C   0  0  0  0  0  0  0  0  0  0  0  0
   -5.9081    0.7835   -1.5768 C   0  0  0  0  0  0  0  0  0  0  0  0
   -6.8760    0.4727   -0.6260 C   0  0  0  0  0  0  0  0  0  0  0  0
   -6.4941   -0.0706    0.5996 C   0  0  0  0  0  0  0  0  0  0  0  0
   -5.1425   -0.3087    0.8746 C   0  0  0  0  0  0  0  0  0  0  0  0
   -4.7548   -0.9884    2.4193 Cl  0  0  0  0  0  0  0  0  0  0  0  0
    0.1800   -0.1896    0.4133 N   0  0  0  0  0  0  0  0  0  0  0  0
    1.6010   -0.2926    0.6891 C   0  0  0  0  0  0  0  0  0  0  0  0
    2.4525    0.3129   -0.4291 C   0  0  0  0  0  0  0  0  0  0  0  0
    3.9241    0.2515   -0.1057 C   0  0  0  0  0  0  0  0  0  0  0  0
    4.5756    1.3488    0.4727 C   0  0  0  0  0  0  0  0  0  0  0  0
    5.9337    1.2780    0.7873 C   0  0  0  0  0  0  0  0  0  0  0  0
    6.6505    0.1104    0.5307 C   0  0  0  0  0  0  0  0  0  0  0  0
    6.0103   -0.9880   -0.0402 C   0  0  0  0  0  0  0  0  0  0  0  0
    4.6528   -0.9192   -0.3560 C   0  0  0  0  0  0  0  0  0  0  0  0
   -2.2308   -1.1697   -1.6532 H   0  0  0  0  0  0  0  0  0  0  0  0
   -2.3785    0.0701    1.1766 H   0  0  0  0  0  0  0  0  0  0  0  0
   -3.8227    0.8155   -2.0625 H   0  0  0  0  0  0  0  0  0  0  0  0
   -6.2022    1.2139   -2.5314 H   0  0  0  0  0  0  0  0  0  0  0  0
   -7.9268    0.6557   -0.8368 H   0  0  0  0  0  0  0  0  0  0  0  0
   -7.2549   -0.3087    1.3390 H   0  0  0  0  0  0  0  0  0  0  0  0
   -0.3081    0.6333    0.7366 H   0  0  0  0  0  0  0  0  0  0  0  0
    1.7798    0.2264    1.6375 H   0  0  0  0  0  0  0  0  0  0  0  0
    1.8520   -1.3499    0.8356 H   0  0  0  0  0  0  0  0  0  0  0  0
    2.2684   -0.2049   -1.3789 H   0  0  0  0  0  0  0  0  0  0  0  0
    2.1542    1.3551   -0.6027 H   0  0  0  0  0  0  0  0  0  0  0  0
    4.0309    2.2668    0.6804 H   0  0  0  0  0  0  0  0  0  0  0  0
    6.4333    2.1340    1.2330 H   0  0  0  0  0  0  0  0  0  0  0  0
    7.7078    0.0561    0.7756 H   0  0  0  0  0  0  0  0  0  0  0  0
    6.5675   -1.8996   -0.2397 H   0  0  0  0  0  0  0  0  0  0  0  0
    4.1641   -1.7850   -0.7996 H   0  0  0  0  0  0  0  0  0  0  0  0
  1  2  2  0
  2  3  1  0
  3  4  2  3
  4  5  1  0
  5  6  2  0
  6  7  1  0
  7  8  2  0
  8  9  1  0
  9 10  2  0
 10 11  1  0
  2 12  1  0
 12 13  1  0
 13 14  1  0
 14 15  1  0
 15 16  2  0
 16 17  1  0
 17 18  2  0
 18 19  1  0
 19 20  2  0
 10  5  1  0
 20 15  1  0
  3 21  1  0
  4 22  1  0
  6 23  1  0
  7 24  1  0
  8 25  1  0
  9 26  1  0
 12 27  1  0
 13 28  1  0
 13 29  1  0
 14 30  1  0
 14 31  1  0
 16 32  1  0
 17 33  1  0
 18 34  1  0
 19 35  1  0
 20 36  1  0
M  END
$$$$
