
     RDKit          3D

 57 60  0  0  0  0  0  0  0  0999 V2000
    7.3499   -2.5403    1.4553 C   0  0  0  0  0  0  0  0  0  0  0  0
    6.0370   -2.3165    2.1840 C   0  0  0  0  0  0  0  0  0  0  0  0
    4.9415   -2.8006    1.4091 O   0  0  0  0  0  0  0  0  0  0  0  0
    4.3183   -1.9467    0.5451 C   0  0  0  0  0  0  0  0  0  0  0  0
    4.7361   -0.6632    0.2010 C   0  0  0  0  0  0  0  0  0  0  0  0
    3.9937    0.1052   -0.7077 C   0  0  0  0  0  0  0  0  0  0  0  0
    2.8297   -0.4007   -1.2839 C   0  0  0  0  0  0  0  0  0  0  0  0
    2.0350    0.3068   -2.2050 N   0  0  0  0  0  0  0  0  0  0  0  0
    2.1147    1.6490   -2.5374 C   0  0  0  0  0  0  0  0  0  0  0  0
    2.8881    2.4715   -2.0518 O   0  0  0  0  0  0  0  0  0  0  0  0
    1.1068    2.0651   -3.5997 C   0  0  0  0  0  0  0  0  0  0  0  0
   -0.4624    2.5806   -2.8405 S   0  0  0  0  0  0  0  0  0  0  0  0
   -1.1125    1.0509   -2.3483 C   0  0  0  0  0  0  0  0  0  0  0  0
   -0.6717   -0.1045   -2.7947 N   0  0  0  0  0  0  0  0  0  0  0  0
   -1.4192   -1.0901   -2.2237 N   0  0  0  0  0  0  0  0  0  0  0  0
   -2.3189   -0.5233   -1.4397 C   0  0  0  0  0  0  0  0  0  0  0  0
   -3.1783   -1.2602   -0.4607 C   0  0  0  0  0  0  0  0  0  0  0  0
   -2.7194   -1.0675    0.9579 C   0  0  0  0  0  0  0  0  0  0  0  0
   -1.4325   -1.1368    1.4716 C   0  0  0  0  0  0  0  0  0  0  0  0
   -1.4994   -0.8609    2.8522 C   0  0  0  0  0  0  0  0  0  0  0  0
   -2.8203   -0.6472    3.1630 C   0  0  0  0  0  0  0  0  0  0  0  0
   -3.5594   -0.7965    2.0179 N   0  0  0  0  0  0  0  0  0  0  0  0
   -5.0013   -0.6762    1.9796 C   0  0  0  0  0  0  0  0  0  0  0  0
   -2.2162    0.8602   -1.5382 N   0  0  0  0  0  0  0  0  0  0  0  0
   -3.0618    1.8270   -0.9398 C   0  0  0  0  0  0  0  0  0  0  0  0
   -2.5170    2.9038   -0.2289 C   0  0  0  0  0  0  0  0  0  0  0  0
   -3.3653    3.8452    0.3579 C   0  0  0  0  0  0  0  0  0  0  0  0
   -4.7416    3.7129    0.2212 C   0  0  0  0  0  0  0  0  0  0  0  0
   -5.5521    4.6184    0.7834 F   0  0  0  0  0  0  0  0  0  0  0  0
   -5.2917    2.6536   -0.4910 C   0  0  0  0  0  0  0  0  0  0  0  0
   -4.4524    1.7017   -1.0723 C   0  0  0  0  0  0  0  0  0  0  0  0
    2.4204   -1.6950   -0.9504 C   0  0  0  0  0  0  0  0  0  0  0  0
    3.1577   -2.4574   -0.0398 C   0  0  0  0  0  0  0  0  0  0  0  0
    7.4551   -3.5877    1.1538 H   0  0  0  0  0  0  0  0  0  0  0  0
    7.4044   -1.9407    0.5414 H   0  0  0  0  0  0  0  0  0  0  0  0
    8.1962   -2.2715    2.0919 H   0  0  0  0  0  0  0  0  0  0  0  0
    5.9081   -1.2723    2.4951 H   0  0  0  0  0  0  0  0  0  0  0  0
    6.0482   -2.9070    3.1061 H   0  0  0  0  0  0  0  0  0  0  0  0
    5.6387   -0.2226    0.6101 H   0  0  0  0  0  0  0  0  0  0  0  0
    4.3613    1.0982   -0.9482 H   0  0  0  0  0  0  0  0  0  0  0  0
    1.2083   -0.1926   -2.5425 H   0  0  0  0  0  0  0  0  0  0  0  0
    1.5265    2.9140   -4.1488 H   0  0  0  0  0  0  0  0  0  0  0  0
    0.9551    1.2620   -4.3283 H   0  0  0  0  0  0  0  0  0  0  0  0
   -3.1222   -2.3326   -0.6889 H   0  0  0  0  0  0  0  0  0  0  0  0
   -4.2261   -0.9850   -0.5932 H   0  0  0  0  0  0  0  0  0  0  0  0
   -0.5360   -1.3520    0.9013 H   0  0  0  0  0  0  0  0  0  0  0  0
   -0.6710   -0.8206    3.5460 H   0  0  0  0  0  0  0  0  0  0  0  0
   -3.2909   -0.4079    4.1087 H   0  0  0  0  0  0  0  0  0  0  0  0
   -5.2489    0.3122    1.5855 H   0  0  0  0  0  0  0  0  0  0  0  0
   -5.4130   -1.4647    1.3465 H   0  0  0  0  0  0  0  0  0  0  0  0
   -5.4014   -0.7852    2.9916 H   0  0  0  0  0  0  0  0  0  0  0  0
   -1.4439    3.0099   -0.0839 H   0  0  0  0  0  0  0  0  0  0  0  0
   -2.9600    4.6769    0.9251 H   0  0  0  0  0  0  0  0  0  0  0  0
   -6.3698    2.5828   -0.5953 H   0  0  0  0  0  0  0  0  0  0  0  0
   -4.8985    0.9050   -1.6620 H   0  0  0  0  0  0  0  0  0  0  0  0
    1.5233   -2.1268   -1.3885 H   0  0  0  0  0  0  0  0  0  0  0  0
    2.8210   -3.4602    0.2170 H   0  0  0  0  0  0  0  0  0  0  0  0
  1  2  1  0
  2  3  1  0
  3  4  1  0
  4  5  2  0
  5  6  1  0
  6  7  2  0
  7  8  1  0
  8  9  1  0
  9 10  2  0
  9 11  1  0
 11 12  1  0
 12 13  1  0
 13 14  2  0
 14 15  1  0
 15 16  2  0
 16 17  1  0
 17 18  1  0
 18 19  2  0
 19 20  1  0
 20 21  2  0
 21 22  1  0
 22 23  1  0
 16 24  1  0
 24 25  1  0
 25 26  2  0
 26 27  1  0
 27 28  2  0
 28 29  1  0
 28 30  1  0
 30 31  2  0
  7 32  1  0
 32 33  2  0
 33  4  1  0
 24 13  1  0
 31 25  1  0
 22 18  1  0
  1 34  1  0
  1 35  1  0
  1 36  1  0
  2 37  1  0
  2 38  1  0
  5 39  1  0
  6 40  1  0
  8 41  1  0
 11 42  1  0
 11 43  1  0
 17 44  1  0
 17 45  1  0
 19 46  1  0
 20 47  1  0
 21 48  1  0
 23 49  1  0
 23 50  1  0
 23 51  1  0
 26 52  1  0
 27 53  1  0
 30 54  1  0
 31 55  1  0
 32 56  1  0
 33 57  1  0
M  END
$$$$
