
     RDKit          3D

 40 42  0  0  0  0  0  0  0  0999 V2000
   -3.7245    4.4462   -0.6888 C   0  0  0  0  0  0  0  0  0  0  0  0
   -2.9430    3.1826   -0.3737 C   0  0  0  0  0  0  0  0  0  0  0  0
   -1.3602    3.1949   -1.2770 S   0  0  0  0  0  0  0  0  0  0  0  0
   -0.6673    1.6313   -0.7536 C   0  0  0  0  0  0  0  0  0  0  0  0
    0.5488    1.2450   -1.2745 C   0  0  0  0  0  0  0  0  0  0  0  0
    1.0692    0.0385   -0.8528 C   0  0  0  0  0  0  0  0  0  0  0  0
    2.2822   -0.4314   -1.3452 N   0  0  0  0  0  0  0  0  0  0  0  0
    2.6691   -1.7948   -0.9441 C   0  0  0  0  0  0  0  0  0  0  0  0
    3.9844   -2.1757   -1.6412 C   0  0  0  0  0  0  0  0  0  0  0  0
    5.0872   -1.3132   -1.3182 O   0  0  0  0  0  0  0  0  0  0  0  0
    4.6794   -0.0194   -0.8540 C   0  0  0  0  0  0  0  0  0  0  0  0
    3.4030    0.5081   -1.5324 C   0  0  0  0  0  0  0  0  0  0  0  0
    0.3828   -0.7287    0.0100 N   0  0  0  0  0  0  0  0  0  0  0  0
   -0.7981   -0.2793    0.4751 C   0  0  0  0  0  0  0  0  0  0  0  0
   -1.5302   -1.1318    1.4354 C   0  0  0  0  0  0  0  0  0  0  0  0
   -1.0180   -2.3754    1.8551 C   0  0  0  0  0  0  0  0  0  0  0  0
   -1.7087   -3.1840    2.7640 C   0  0  0  0  0  0  0  0  0  0  0  0
   -2.9328   -2.7667    3.2769 C   0  0  0  0  0  0  0  0  0  0  0  0
   -3.4656   -1.5437    2.8822 C   0  0  0  0  0  0  0  0  0  0  0  0
   -2.7717   -0.7381    1.9730 C   0  0  0  0  0  0  0  0  0  0  0  0
   -1.3527    0.8909    0.1267 N   0  0  0  0  0  0  0  0  0  0  0  0
   -3.1775    5.3446   -0.3829 H   0  0  0  0  0  0  0  0  0  0  0  0
   -4.6767    4.4390   -0.1479 H   0  0  0  0  0  0  0  0  0  0  0  0
   -3.9522    4.5229   -1.7575 H   0  0  0  0  0  0  0  0  0  0  0  0
   -3.5298    2.3073   -0.6705 H   0  0  0  0  0  0  0  0  0  0  0  0
   -2.7524    3.1307    0.7031 H   0  0  0  0  0  0  0  0  0  0  0  0
    1.0586    1.8575   -2.0058 H   0  0  0  0  0  0  0  0  0  0  0  0
    2.8066   -1.8435    0.1437 H   0  0  0  0  0  0  0  0  0  0  0  0
    1.8946   -2.5143   -1.2352 H   0  0  0  0  0  0  0  0  0  0  0  0
    3.8579   -2.1494   -2.7299 H   0  0  0  0  0  0  0  0  0  0  0  0
    4.2750   -3.1955   -1.3697 H   0  0  0  0  0  0  0  0  0  0  0  0
    4.5382   -0.0806    0.2317 H   0  0  0  0  0  0  0  0  0  0  0  0
    5.5105    0.6701   -1.0338 H   0  0  0  0  0  0  0  0  0  0  0  0
    3.5782    0.6100   -2.6096 H   0  0  0  0  0  0  0  0  0  0  0  0
    3.1902    1.5034   -1.1263 H   0  0  0  0  0  0  0  0  0  0  0  0
   -0.0621   -2.7269    1.4696 H   0  0  0  0  0  0  0  0  0  0  0  0
   -1.2871   -4.1385    3.0683 H   0  0  0  0  0  0  0  0  0  0  0  0
   -3.4706   -3.3938    3.9830 H   0  0  0  0  0  0  0  0  0  0  0  0
   -4.4215   -1.2122    3.2793 H   0  0  0  0  0  0  0  0  0  0  0  0
   -3.2129    0.2139    1.6819 H   0  0  0  0  0  0  0  0  0  0  0  0
  1  2  1  0
  2  3  1  0
  3  4  1  0
  4  5  2  0
  5  6  1  0
  6  7  1  0
  7  8  1  0
  8  9  1  0
  9 10  1  0
 10 11  1  0
 11 12  1  0
  6 13  2  0
 13 14  1  0
 14 15  1  0
 15 16  2  0
 16 17  1  0
 17 18  2  0
 18 19  1  0
 19 20  2  0
 14 21  2  0
 21  4  1  0
 12  7  1  0
 20 15  1  0
  1 22  1  0
  1 23  1  0
  1 24  1  0
  2 25  1  0
  2 26  1  0
  5 27  1  0
  8 28  1  0
  8 29  1  0
  9 30  1  0
  9 31  1  0
 11 32  1  0
 11 33  1  0
 12 34  1  0
 12 35  1  0
 16 36  1  0
 17 37  1  0
 18 38  1  0
 19 39  1  0
 20 40  1  0
M  END
$$$$
