
     RDKit          3D

 33 35  0  0  0  0  0  0  0  0999 V2000
   -3.4175   -1.6118   -0.3667 O   0  0  0  0  0  0  0  0  0  0  0  0
   -3.7917   -0.4759    0.3015 C   0  0  0  0  0  0  0  0  0  0  0  0
   -5.1400   -0.2889    0.6195 C   0  0  0  0  0  0  0  0  0  0  0  0
   -5.5445    0.8721    1.2777 C   0  0  0  0  0  0  0  0  0  0  0  0
   -4.6055    1.8445    1.6125 C   0  0  0  0  0  0  0  0  0  0  0  0
   -3.2584    1.6545    1.2938 C   0  0  0  0  0  0  0  0  0  0  0  0
   -2.8288    0.4865    0.6453 C   0  0  0  0  0  0  0  0  0  0  0  0
   -1.3964    0.3793    0.3230 C   0  0  0  0  0  0  0  0  0  0  0  0
   -0.6641   -0.7272    0.5304 C   0  0  0  0  0  0  0  0  0  0  0  0
    0.7700   -0.8389    0.2294 C   0  0  0  0  0  0  0  0  0  0  0  0
    1.4264   -2.0465    0.4349 C   0  0  0  0  0  0  0  0  0  0  0  0
    2.7866   -2.1299    0.1486 C   0  0  0  0  0  0  0  0  0  0  0  0
    3.4632   -1.0062   -0.3365 C   0  0  0  0  0  0  0  0  0  0  0  0
    4.8374   -1.0300   -0.6436 C   0  0  0  0  0  0  0  0  0  0  0  0
    5.4751    0.1145   -1.1260 C   0  0  0  0  0  0  0  0  0  0  0  0
    4.7475    1.2864   -1.3049 C   0  0  0  0  0  0  0  0  0  0  0  0
    3.3903    1.2954   -0.9977 C   0  0  0  0  0  0  0  0  0  0  0  0
    2.6918    2.4649   -1.1840 O   0  0  0  0  0  0  0  0  0  0  0  0
    2.7197    0.1755   -0.5142 C   0  0  0  0  0  0  0  0  0  0  0  0
    1.4014    0.2649   -0.2379 N   0  0  0  0  0  0  0  0  0  0  0  0
   -4.2155   -2.0972   -0.6295 H   0  0  0  0  0  0  0  0  0  0  0  0
   -5.8863   -1.0340    0.3615 H   0  0  0  0  0  0  0  0  0  0  0  0
   -6.5922    1.0208    1.5262 H   0  0  0  0  0  0  0  0  0  0  0  0
   -4.9185    2.7526    2.1214 H   0  0  0  0  0  0  0  0  0  0  0  0
   -2.5400    2.4258    1.5646 H   0  0  0  0  0  0  0  0  0  0  0  0
   -0.9372    1.2785   -0.0795 H   0  0  0  0  0  0  0  0  0  0  0  0
   -1.1341   -1.6139    0.9458 H   0  0  0  0  0  0  0  0  0  0  0  0
    0.8968   -2.9161    0.8100 H   0  0  0  0  0  0  0  0  0  0  0  0
    3.3089   -3.0700    0.3050 H   0  0  0  0  0  0  0  0  0  0  0  0
    5.4165   -1.9408   -0.5081 H   0  0  0  0  0  0  0  0  0  0  0  0
    6.5359    0.0914   -1.3618 H   0  0  0  0  0  0  0  0  0  0  0  0
    5.2262    2.1861   -1.6796 H   0  0  0  0  0  0  0  0  0  0  0  0
    1.7767    2.2337   -0.9153 H   0  0  0  0  0  0  0  0  0  0  0  0
  1  2  1  0
  2  3  2  0
  3  4  1  0
  4  5  2  0
  5  6  1  0
  6  7  2  0
  7  8  1  0
  8  9  2  0
  9 10  1  0
 10 11  2  0
 11 12  1  0
 12 13  2  0
 13 14  1  0
 14 15  2  0
 15 16  1  0
 16 17  2  0
 17 18  1  0
 17 19  1  0
 19 20  2  0
  7  2  1  0
 20 10  1  0
 19 13  1  0
  1 21  1  0
  3 22  1  0
  4 23  1  0
  5 24  1  0
  6 25  1  0
  8 26  1  0
  9 27  1  0
 11 28  1  0
 12 29  1  0
 14 30  1  0
 15 31  1  0
 16 32  1  0
 18 33  1  0
M  END
$$$$
