
     RDKit          3D

 33 35  0  0  0  0  0  0  0  0999 V2000
   -2.2960   -1.9058    1.7278 O   0  0  0  0  0  0  0  0  0  0  0  0
   -2.1800   -0.9286    0.9968 C   0  0  0  0  0  0  0  0  0  0  0  0
   -1.0035   -0.4110    0.5128 N   0  0  0  0  0  0  0  0  0  0  0  0
    0.3007   -0.8404    0.7755 C   0  0  0  0  0  0  0  0  0  0  0  0
    0.6118   -1.8999    1.5944 C   0  0  0  0  0  0  0  0  0  0  0  0
    1.9498   -2.1763    1.7344 C   0  0  0  0  0  0  0  0  0  0  0  0
    2.9215   -1.4771    1.1240 N   0  0  0  0  0  0  0  0  0  0  0  0
    2.5243   -0.4561    0.3426 C   0  0  0  0  0  0  0  0  0  0  0  0
    3.5610    0.3296   -0.3399 C   0  0  0  0  0  0  0  0  0  0  0  0
    4.9308    0.0479   -0.2132 C   0  0  0  0  0  0  0  0  0  0  0  0
    5.8842    0.8182   -0.8797 C   0  0  0  0  0  0  0  0  0  0  0  0
    5.4452    1.8657   -1.6684 C   0  0  0  0  0  0  0  0  0  0  0  0
    4.1450    2.1827   -1.8277 N   0  0  0  0  0  0  0  0  0  0  0  0
    3.2443    1.4118   -1.1625 C   0  0  0  0  0  0  0  0  0  0  0  0
    1.2376   -0.1111    0.1438 N   0  0  0  0  0  0  0  0  0  0  0  0
   -3.4237   -0.2697    0.5131 C   0  0  0  0  0  0  0  0  0  0  0  0
   -4.4548   -1.1352    0.1044 C   0  0  0  0  0  0  0  0  0  0  0  0
   -5.6609   -0.6281   -0.3735 C   0  0  0  0  0  0  0  0  0  0  0  0
   -5.8501    0.7491   -0.4396 C   0  0  0  0  0  0  0  0  0  0  0  0
   -4.8390    1.6208   -0.0186 C   0  0  0  0  0  0  0  0  0  0  0  0
   -5.1733    3.3162   -0.1263 Cl  0  0  0  0  0  0  0  0  0  0  0  0
   -3.6182    1.1208    0.4676 C   0  0  0  0  0  0  0  0  0  0  0  0
   -2.4009    2.2179    1.0393 Cl  0  0  0  0  0  0  0  0  0  0  0  0
   -1.0244    0.4015   -0.0907 H   0  0  0  0  0  0  0  0  0  0  0  0
   -0.1229   -2.4975    2.1129 H   0  0  0  0  0  0  0  0  0  0  0  0
    2.2884   -2.9950    2.3629 H   0  0  0  0  0  0  0  0  0  0  0  0
    5.2636   -0.7796    0.4108 H   0  0  0  0  0  0  0  0  0  0  0  0
    6.9422    0.6025   -0.7826 H   0  0  0  0  0  0  0  0  0  0  0  0
    6.1469    2.4952   -2.2077 H   0  0  0  0  0  0  0  0  0  0  0  0
    2.2104    1.7105   -1.3225 H   0  0  0  0  0  0  0  0  0  0  0  0
   -4.3145   -2.2148    0.1588 H   0  0  0  0  0  0  0  0  0  0  0  0
   -6.4512   -1.3056   -0.6902 H   0  0  0  0  0  0  0  0  0  0  0  0
   -6.7941    1.1414   -0.8130 H   0  0  0  0  0  0  0  0  0  0  0  0
  1  2  2  0
  2  3  1  0
  3  4  1  0
  4  5  2  0
  5  6  1  0
  6  7  2  0
  7  8  1  0
  8  9  1  0
  9 10  2  0
 10 11  1  0
 11 12  2  0
 12 13  1  0
 13 14  2  0
  8 15  2  0
  2 16  1  0
 16 17  2  0
 17 18  1  0
 18 19  2  0
 19 20  1  0
 20 21  1  0
 20 22  2  0
 22 23  1  0
 15  4  1  0
 22 16  1  0
 14  9  1  0
  3 24  1  0
  5 25  1  0
  6 26  1  0
 10 27  1  0
 11 28  1  0
 12 29  1  0
 14 30  1  0
 17 31  1  0
 18 32  1  0
 19 33  1  0
M  END
$$$$
