
     RDKit          3D

 45 46  0  0  0  0  0  0  0  0999 V2000
    7.3859    0.7670    1.8678 C   0  0  0  0  0  0  0  0  0  0  0  0
    7.0954    0.5629    0.4910 O   0  0  0  0  0  0  0  0  0  0  0  0
    5.8259    0.1699    0.1698 C   0  0  0  0  0  0  0  0  0  0  0  0
    5.6039   -0.0098   -1.1970 C   0  0  0  0  0  0  0  0  0  0  0  0
    4.3504   -0.4065   -1.6676 C   0  0  0  0  0  0  0  0  0  0  0  0
    3.2939   -0.6186   -0.7728 C   0  0  0  0  0  0  0  0  0  0  0  0
    1.9948   -1.0420   -1.3552 C   0  0  0  0  0  0  0  0  0  0  0  0
    1.9785   -1.7897   -2.3291 O   0  0  0  0  0  0  0  0  0  0  0  0
    0.7460   -0.4763   -0.7778 C   0  0  0  0  0  0  0  0  0  0  0  0
   -0.4450   -0.8957   -1.2317 C   0  0  0  0  0  0  0  0  0  0  0  0
   -1.7277   -0.3798   -0.7354 C   0  0  0  0  0  0  0  0  0  0  0  0
   -1.9661   -0.1946    0.6352 C   0  0  0  0  0  0  0  0  0  0  0  0
   -3.2027    0.2742    1.0855 C   0  0  0  0  0  0  0  0  0  0  0  0
   -3.5277    0.4911    2.4000 O   0  0  0  0  0  0  0  0  0  0  0  0
   -2.4898    0.3622    3.3610 C   0  0  0  0  0  0  0  0  0  0  0  0
   -4.2133    0.5323    0.1438 C   0  0  0  0  0  0  0  0  0  0  0  0
   -5.4221    1.0351    0.5752 O   0  0  0  0  0  0  0  0  0  0  0  0
   -6.3274   -0.0378    0.8284 C   0  0  0  0  0  0  0  0  0  0  0  0
   -3.9920    0.3578   -1.2328 C   0  0  0  0  0  0  0  0  0  0  0  0
   -5.0437    0.6567   -2.0606 O   0  0  0  0  0  0  0  0  0  0  0  0
   -4.8005    0.6353   -3.4604 C   0  0  0  0  0  0  0  0  0  0  0  0
   -2.7486   -0.1140   -1.6601 C   0  0  0  0  0  0  0  0  0  0  0  0
    3.5252   -0.4614    0.5994 C   0  0  0  0  0  0  0  0  0  0  0  0
    2.5340   -0.7238    1.5068 O   0  0  0  0  0  0  0  0  0  0  0  0
    4.7836   -0.0615    1.0700 C   0  0  0  0  0  0  0  0  0  0  0  0
    7.2727   -0.1619    2.4362 H   0  0  0  0  0  0  0  0  0  0  0  0
    8.4313    1.0806    1.9464 H   0  0  0  0  0  0  0  0  0  0  0  0
    6.7656    1.5658    2.2876 H   0  0  0  0  0  0  0  0  0  0  0  0
    6.4144    0.1574   -1.9032 H   0  0  0  0  0  0  0  0  0  0  0  0
    4.2002   -0.5481   -2.7365 H   0  0  0  0  0  0  0  0  0  0  0  0
    0.8357    0.2870   -0.0156 H   0  0  0  0  0  0  0  0  0  0  0  0
   -0.5017   -1.6400   -2.0245 H   0  0  0  0  0  0  0  0  0  0  0  0
   -1.1748   -0.4370    1.3368 H   0  0  0  0  0  0  0  0  0  0  0  0
   -2.9013    0.6379    4.3367 H   0  0  0  0  0  0  0  0  0  0  0  0
   -1.6605    1.0442    3.1452 H   0  0  0  0  0  0  0  0  0  0  0  0
   -2.1434   -0.6742    3.4279 H   0  0  0  0  0  0  0  0  0  0  0  0
   -5.9523   -0.7005    1.6160 H   0  0  0  0  0  0  0  0  0  0  0  0
   -6.5339   -0.6111   -0.0819 H   0  0  0  0  0  0  0  0  0  0  0  0
   -7.2707    0.3955    1.1743 H   0  0  0  0  0  0  0  0  0  0  0  0
   -4.5860   -0.3812   -3.8057 H   0  0  0  0  0  0  0  0  0  0  0  0
   -5.7127    0.9709   -3.9631 H   0  0  0  0  0  0  0  0  0  0  0  0
   -3.9961    1.3258   -3.7353 H   0  0  0  0  0  0  0  0  0  0  0  0
   -2.5451   -0.2772   -2.7139 H   0  0  0  0  0  0  0  0  0  0  0  0
    2.9107   -0.7288    2.4032 H   0  0  0  0  0  0  0  0  0  0  0  0
    4.9369    0.0618    2.1357 H   0  0  0  0  0  0  0  0  0  0  0  0
  1  2  1  0
  2  3  1  0
  3  4  2  0
  4  5  1  0
  5  6  2  0
  6  7  1  0
  7  8  2  0
  7  9  1  0
  9 10  2  0
 10 11  1  0
 11 12  2  0
 12 13  1  0
 13 14  1  0
 14 15  1  0
 13 16  2  0
 16 17  1  0
 17 18  1  0
 16 19  1  0
 19 20  1  0
 20 21  1  0
 19 22  2  0
  6 23  1  0
 23 24  1  0
 23 25  2  0
 25  3  1  0
 22 11  1  0
  1 26  1  0
  1 27  1  0
  1 28  1  0
  4 29  1  0
  5 30  1  0
  9 31  1  0
 10 32  1  0
 12 33  1  0
 15 34  1  0
 15 35  1  0
 15 36  1  0
 18 37  1  0
 18 38  1  0
 18 39  1  0
 21 40  1  0
 21 41  1  0
 21 42  1  0
 22 43  1  0
 24 44  1  0
 25 45  1  0
M  END
$$$$
