
     RDKit          3D

 57 59  0  0  0  0  0  0  0  0999 V2000
   -2.8147    1.4874    3.6770 C   0  0  0  0  0  0  0  0  0  0  0  0
   -3.5638    1.0227    2.4336 C   0  0  0  0  0  0  0  0  0  0  0  0
   -2.6308    0.5972    1.3703 N   0  0  0  0  0  0  0  0  0  0  0  0
   -2.4285    1.6540    0.3560 C   0  0  0  0  0  0  0  0  0  0  0  0
   -1.8117    2.9435    0.8860 C   0  0  0  0  0  0  0  0  0  0  0  0
   -3.1457   -0.6426    0.7275 C   0  0  0  0  0  0  0  0  0  0  0  0
   -2.1637   -1.3535   -0.2262 C   0  0  0  0  0  0  0  0  0  0  0  0
   -2.2597   -0.7947   -1.5431 O   0  0  0  0  0  0  0  0  0  0  0  0
   -1.4893   -1.4794   -2.4531 C   0  0  0  0  0  0  0  0  0  0  0  0
   -1.9256   -2.6065   -3.0552 C   0  0  0  0  0  0  0  0  0  0  0  0
   -1.0831   -3.1924   -4.1505 C   0  0  2  0  0  0  0  0  0  0  0  0
   -1.2645   -4.5828   -4.3707 O   0  0  0  0  0  0  0  0  0  0  0  0
   -0.2010   -4.9756   -5.1550 C   0  0  0  0  0  0  0  0  0  0  0  0
   -0.1468   -6.0531   -5.7253 O   0  0  0  0  0  0  0  0  0  0  0  0
    1.1322   -3.7967   -5.2255 S   0  0  0  0  0  0  0  0  0  0  0  0
    0.3989   -2.9956   -3.8130 C   0  0  1  0  0  0  0  0  0  0  0  0
    0.7043   -1.5615   -3.5449 C   0  0  0  0  0  0  0  0  0  0  0  0
   -0.2237   -0.8528   -2.8612 C   0  0  0  0  0  0  0  0  0  0  0  0
    0.0638    0.5765   -2.5678 C   0  0  0  0  0  0  0  0  0  0  0  0
   -0.4860    1.4805   -3.1917 O   0  0  0  0  0  0  0  0  0  0  0  0
    1.0497    0.9069   -1.4996 C   0  0  0  0  0  0  0  0  0  0  0  0
    1.5577    0.0377   -0.6113 C   0  0  0  0  0  0  0  0  0  0  0  0
    2.4869    0.4157    0.4651 C   0  0  0  0  0  0  0  0  0  0  0  0
    3.4589   -0.5018    0.8750 C   0  0  0  0  0  0  0  0  0  0  0  0
    4.3269   -0.1931    1.9274 C   0  0  0  0  0  0  0  0  0  0  0  0
    4.2378    1.0332    2.5883 C   0  0  0  0  0  0  0  0  0  0  0  0
    5.1410    1.2060    3.5991 O   0  0  0  0  0  0  0  0  0  0  0  0
    5.1762    2.4868    4.2178 C   0  0  0  0  0  0  0  0  0  0  0  0
    3.2613    1.9454    2.1974 C   0  0  0  0  0  0  0  0  0  0  0  0
    2.3876    1.6358    1.1466 C   0  0  0  0  0  0  0  0  0  0  0  0
   -2.1330    0.7093    4.0385 H   0  0  0  0  0  0  0  0  0  0  0  0
   -3.5289    1.7008    4.4790 H   0  0  0  0  0  0  0  0  0  0  0  0
   -2.2343    2.3969    3.5038 H   0  0  0  0  0  0  0  0  0  0  0  0
   -4.1916    0.1821    2.7583 H   0  0  0  0  0  0  0  0  0  0  0  0
   -4.2636    1.7931    2.0826 H   0  0  0  0  0  0  0  0  0  0  0  0
   -3.3699    1.8881   -0.1569 H   0  0  0  0  0  0  0  0  0  0  0  0
   -1.7322    1.2911   -0.4024 H   0  0  0  0  0  0  0  0  0  0  0  0
   -0.9004    2.7419    1.4564 H   0  0  0  0  0  0  0  0  0  0  0  0
   -2.5103    3.5009    1.5177 H   0  0  0  0  0  0  0  0  0  0  0  0
   -1.5399    3.5947    0.0486 H   0  0  0  0  0  0  0  0  0  0  0  0
   -4.0935   -0.4395    0.2111 H   0  0  0  0  0  0  0  0  0  0  0  0
   -3.3490   -1.3668    1.5273 H   0  0  0  0  0  0  0  0  0  0  0  0
   -1.1364   -1.2759    0.1506 H   0  0  0  0  0  0  0  0  0  0  0  0
   -2.4355   -2.4155   -0.2634 H   0  0  0  0  0  0  0  0  0  0  0  0
   -2.8992   -3.0296   -2.8379 H   0  0  0  0  0  0  0  0  0  0  0  0
   -1.3880   -2.6716   -5.0736 H   0  0  0  0  0  0  0  0  0  0  0  0
    0.6934   -3.5890   -2.9356 H   0  0  0  0  0  0  0  0  0  0  0  0
    1.6484   -1.1272   -3.8593 H   0  0  0  0  0  0  0  0  0  0  0  0
    1.3047    1.9622   -1.4733 H   0  0  0  0  0  0  0  0  0  0  0  0
    1.2943   -1.0157   -0.6353 H   0  0  0  0  0  0  0  0  0  0  0  0
    3.5569   -1.4668    0.3839 H   0  0  0  0  0  0  0  0  0  0  0  0
    5.0774   -0.9154    2.2358 H   0  0  0  0  0  0  0  0  0  0  0  0
    4.2513    2.6806    4.7712 H   0  0  0  0  0  0  0  0  0  0  0  0
    5.3755    3.2772    3.4846 H   0  0  0  0  0  0  0  0  0  0  0  0
    6.0018    2.4870    4.9347 H   0  0  0  0  0  0  0  0  0  0  0  0
    3.1387    2.9017    2.6948 H   0  0  0  0  0  0  0  0  0  0  0  0
    1.6186    2.3581    0.8853 H   0  0  0  0  0  0  0  0  0  0  0  0
  1  2  1  0
  2  3  1  0
  3  4  1  0
  4  5  1  0
  3  6  1  0
  6  7  1  0
  7  8  1  0
  8  9  1  0
  9 10  2  0
 10 11  1  0
 11 12  1  0
 12 13  1  0
 13 14  2  0
 13 15  1  0
 15 16  1  0
 16 17  1  0
 17 18  2  0
 18 19  1  0
 19 20  2  0
 19 21  1  0
 21 22  2  0
 22 23  1  0
 23 24  2  0
 24 25  1  0
 25 26  2  0
 26 27  1  0
 27 28  1  0
 26 29  1  0
 29 30  2  0
 18  9  1  0
 30 23  1  0
 16 11  1  0
  1 31  1  0
  1 32  1  0
  1 33  1  0
  2 34  1  0
  2 35  1  0
  4 36  1  0
  4 37  1  0
  5 38  1  0
  5 39  1  0
  5 40  1  0
  6 41  1  0
  6 42  1  0
  7 43  1  0
  7 44  1  0
 10 45  1  0
 11 46  1  6
 16 47  1  1
 17 48  1  0
 21 49  1  0
 22 50  1  0
 24 51  1  0
 25 52  1  0
 28 53  1  0
 28 54  1  0
 28 55  1  0
 29 56  1  0
 30 57  1  0
M  END
$$$$
