
     RDKit          3D

 56 58  0  0  0  0  0  0  0  0999 V2000
   -0.3368    1.8147    3.8881 C   0  0  0  0  0  0  0  0  0  0  0  0
   -1.3567    1.6934    2.9080 O   0  0  0  0  0  0  0  0  0  0  0  0
   -1.0175    1.1470    1.6935 C   0  0  0  0  0  0  0  0  0  0  0  0
    0.2820    0.7643    1.3346 C   0  0  0  0  0  0  0  0  0  0  0  0
    0.5440    0.2022    0.0779 C   0  0  0  0  0  0  0  0  0  0  0  0
    1.9264   -0.1632   -0.2639 C   0  0  0  0  0  0  0  0  0  0  0  0
    2.2437   -1.2758   -0.9436 C   0  0  0  0  0  0  0  0  0  0  0  0
    3.6222   -1.6923   -1.3140 C   0  0  0  0  0  0  0  0  0  0  0  0
    3.8056   -2.6618   -2.0426 O   0  0  0  0  0  0  0  0  0  0  0  0
    4.7778   -0.9260   -0.8247 C   0  0  0  0  0  0  0  0  0  0  0  0
    5.2294   -1.0854    0.4998 C   0  0  0  0  0  0  0  0  0  0  0  0
    4.5061   -1.9335    1.2958 O   0  0  0  0  0  0  0  0  0  0  0  0
    5.0751   -2.3113    2.5433 C   0  0  0  0  0  0  0  0  0  0  0  0
    6.3569   -0.3662    0.9296 C   0  0  0  0  0  0  0  0  0  0  0  0
    7.0354    0.4872    0.0534 C   0  0  0  0  0  0  0  0  0  0  0  0
    6.5727    0.6154   -1.2474 C   0  0  0  0  0  0  0  0  0  0  0  0
    7.2249    1.4601   -2.1421 O   0  0  0  0  0  0  0  0  0  0  0  0
    6.5371    1.3969   -3.3507 C   0  0  0  0  0  0  0  0  0  0  0  0
    6.8755    2.0427   -4.3333 O   0  0  0  0  0  0  0  0  0  0  0  0
    5.1291    0.3320   -3.3719 S   0  0  0  0  0  0  0  0  0  0  0  0
    5.4557   -0.0796   -1.6953 C   0  0  0  0  0  0  0  0  0  0  0  0
   -0.5080    0.0562   -0.8303 C   0  0  0  0  0  0  0  0  0  0  0  0
   -1.8078    0.4377   -0.4829 C   0  0  0  0  0  0  0  0  0  0  0  0
   -2.0750    0.9783    0.7768 C   0  0  0  0  0  0  0  0  0  0  0  0
   -3.3118    1.3785    1.2123 O   0  0  0  0  0  0  0  0  0  0  0  0
   -4.4675    1.1377    0.4075 C   0  0  0  0  0  0  0  0  0  0  0  0
   -4.9640   -0.2920    0.5896 C   0  0  0  0  0  0  0  0  0  0  0  0
   -6.3863   -0.5508    0.0754 C   0  0  0  0  0  0  0  0  0  0  0  0
   -6.6692   -0.4658   -1.3597 N   0  0  0  0  0  0  0  0  0  0  0  0
   -6.9554    0.8777   -1.8412 C   0  0  0  0  0  0  0  0  0  0  0  0
   -5.7051   -1.1595   -2.2016 C   0  0  0  0  0  0  0  0  0  0  0  0
   -0.7909    2.2272    4.7941 H   0  0  0  0  0  0  0  0  0  0  0  0
    0.0857    0.8374    4.1449 H   0  0  0  0  0  0  0  0  0  0  0  0
    0.4430    2.5105    3.5613 H   0  0  0  0  0  0  0  0  0  0  0  0
    1.1080    0.8876    2.0273 H   0  0  0  0  0  0  0  0  0  0  0  0
    2.6863    0.5249    0.0939 H   0  0  0  0  0  0  0  0  0  0  0  0
    1.4831   -1.9718   -1.2858 H   0  0  0  0  0  0  0  0  0  0  0  0
    5.0999   -1.4622    3.2339 H   0  0  0  0  0  0  0  0  0  0  0  0
    4.4332   -3.0800    2.9838 H   0  0  0  0  0  0  0  0  0  0  0  0
    6.0726   -2.7439    2.4120 H   0  0  0  0  0  0  0  0  0  0  0  0
    6.7316   -0.4488    1.9460 H   0  0  0  0  0  0  0  0  0  0  0  0
    7.9095    1.0401    0.3873 H   0  0  0  0  0  0  0  0  0  0  0  0
   -0.3317   -0.3467   -1.8254 H   0  0  0  0  0  0  0  0  0  0  0  0
   -2.5849    0.2993   -1.2256 H   0  0  0  0  0  0  0  0  0  0  0  0
   -5.2353    1.8300    0.7720 H   0  0  0  0  0  0  0  0  0  0  0  0
   -4.2872    1.4072   -0.6363 H   0  0  0  0  0  0  0  0  0  0  0  0
   -4.2602   -1.0007    0.1392 H   0  0  0  0  0  0  0  0  0  0  0  0
   -4.9452   -0.5291    1.6622 H   0  0  0  0  0  0  0  0  0  0  0  0
   -6.6472   -1.5730    0.3814 H   0  0  0  0  0  0  0  0  0  0  0  0
   -7.0895    0.0854    0.6288 H   0  0  0  0  0  0  0  0  0  0  0  0
   -7.3681    0.8350   -2.8556 H   0  0  0  0  0  0  0  0  0  0  0  0
   -6.0718    1.5200   -1.8710 H   0  0  0  0  0  0  0  0  0  0  0  0
   -7.7159    1.3636   -1.2201 H   0  0  0  0  0  0  0  0  0  0  0  0
   -4.7353   -0.6523   -2.2302 H   0  0  0  0  0  0  0  0  0  0  0  0
   -5.5509   -2.1868   -1.8533 H   0  0  0  0  0  0  0  0  0  0  0  0
   -6.0776   -1.2316   -3.2297 H   0  0  0  0  0  0  0  0  0  0  0  0
  1  2  1  0
  2  3  1  0
  3  4  2  0
  4  5  1  0
  5  6  1  0
  6  7  2  0
  7  8  1  0
  8  9  2  0
  8 10  1  0
 10 11  2  0
 11 12  1  0
 12 13  1  0
 11 14  1  0
 14 15  2  0
 15 16  1  0
 16 17  1  0
 17 18  1  0
 18 19  2  0
 18 20  1  0
 20 21  1  0
  5 22  2  0
 22 23  1  0
 23 24  2  0
 24 25  1  0
 25 26  1  0
 26 27  1  0
 27 28  1  0
 28 29  1  0
 29 30  1  0
 29 31  1  0
 24  3  1  0
 21 10  1  0
 21 16  2  0
  1 32  1  0
  1 33  1  0
  1 34  1  0
  4 35  1  0
  6 36  1  0
  7 37  1  0
 13 38  1  0
 13 39  1  0
 13 40  1  0
 14 41  1  0
 15 42  1  0
 22 43  1  0
 23 44  1  0
 26 45  1  0
 26 46  1  0
 27 47  1  0
 27 48  1  0
 28 49  1  0
 28 50  1  0
 30 51  1  0
 30 52  1  0
 30 53  1  0
 31 54  1  0
 31 55  1  0
 31 56  1  0
M  END
$$$$
