
     RDKit          3D

 57 59  0  0  0  0  0  0  0  0999 V2000
   -5.9084   -0.1181    0.7056 C   0  0  0  0  0  0  0  0  0  0  0  0
   -5.1147    0.1362    1.9850 C   0  0  0  0  0  0  0  0  0  0  0  0
   -3.8623    0.8883    1.8693 N   0  0  0  0  0  0  0  0  0  0  0  0
   -3.9056    2.0994    1.0454 C   0  0  0  0  0  0  0  0  0  0  0  0
   -4.8600    3.1527    1.5988 C   0  0  0  0  0  0  0  0  0  0  0  0
   -2.6736    0.0633    1.6090 C   0  0  0  0  0  0  0  0  0  0  0  0
   -2.5711   -0.6511    0.2542 C   0  0  0  0  0  0  0  0  0  0  0  0
   -1.2475   -1.2025    0.1411 O   0  0  0  0  0  0  0  0  0  0  0  0
   -0.9573   -1.5777   -1.1480 C   0  0  0  0  0  0  0  0  0  0  0  0
   -1.5066   -2.6547   -1.7479 C   0  0  0  0  0  0  0  0  0  0  0  0
   -1.0845   -2.9567   -3.1569 C   0  0  2  0  0  0  0  0  0  0  0  0
   -1.2816   -4.3009   -3.5667 O   0  0  0  0  0  0  0  0  0  0  0  0
   -0.5317   -4.4571   -4.7122 C   0  0  0  0  0  0  0  0  0  0  0  0
   -0.6283   -5.4212   -5.4538 O   0  0  0  0  0  0  0  0  0  0  0  0
    0.6449   -3.1523   -5.0025 S   0  0  0  0  0  0  0  0  0  0  0  0
    0.4155   -2.6681   -3.3033 C   0  0  1  0  0  0  0  0  0  0  0  0
    0.7340   -1.2691   -2.8965 C   0  0  0  0  0  0  0  0  0  0  0  0
    0.0669   -0.7750   -1.8278 C   0  0  0  0  0  0  0  0  0  0  0  0
    0.3435    0.6193   -1.3857 C   0  0  0  0  0  0  0  0  0  0  0  0
   -0.4927    1.5062   -1.5419 O   0  0  0  0  0  0  0  0  0  0  0  0
    1.6573    0.9356   -0.7648 C   0  0  0  0  0  0  0  0  0  0  0  0
    2.5380    0.0287   -0.3142 C   0  0  0  0  0  0  0  0  0  0  0  0
    3.8206    0.3898    0.3048 C   0  0  0  0  0  0  0  0  0  0  0  0
    4.9474   -0.3939    0.0355 C   0  0  0  0  0  0  0  0  0  0  0  0
    6.1774   -0.0929    0.6284 C   0  0  0  0  0  0  0  0  0  0  0  0
    6.3018    0.9852    1.5063 C   0  0  0  0  0  0  0  0  0  0  0  0
    7.5582    1.1682    2.0134 O   0  0  0  0  0  0  0  0  0  0  0  0
    7.7368    2.2564    2.9114 C   0  0  0  0  0  0  0  0  0  0  0  0
    5.1793    1.7605    1.7915 C   0  0  0  0  0  0  0  0  0  0  0  0
    3.9456    1.4606    1.1984 C   0  0  0  0  0  0  0  0  0  0  0  0
   -6.7802   -0.7397    0.9347 H   0  0  0  0  0  0  0  0  0  0  0  0
   -6.2806    0.8116    0.2650 H   0  0  0  0  0  0  0  0  0  0  0  0
   -5.3231   -0.6436   -0.0517 H   0  0  0  0  0  0  0  0  0  0  0  0
   -5.7688    0.6761    2.6810 H   0  0  0  0  0  0  0  0  0  0  0  0
   -4.9227   -0.8253    2.4779 H   0  0  0  0  0  0  0  0  0  0  0  0
   -4.1636    1.8737    0.0045 H   0  0  0  0  0  0  0  0  0  0  0  0
   -2.9092    2.5590    1.0250 H   0  0  0  0  0  0  0  0  0  0  0  0
   -4.6120    3.4015    2.6366 H   0  0  0  0  0  0  0  0  0  0  0  0
   -4.7830    4.0715    1.0073 H   0  0  0  0  0  0  0  0  0  0  0  0
   -5.9032    2.8239    1.5633 H   0  0  0  0  0  0  0  0  0  0  0  0
   -1.7782    0.6860    1.7439 H   0  0  0  0  0  0  0  0  0  0  0  0
   -2.5793   -0.6885    2.4043 H   0  0  0  0  0  0  0  0  0  0  0  0
   -2.7546    0.0553   -0.5639 H   0  0  0  0  0  0  0  0  0  0  0  0
   -3.2969   -1.4691    0.2027 H   0  0  0  0  0  0  0  0  0  0  0  0
   -2.2537   -3.2691   -1.2604 H   0  0  0  0  0  0  0  0  0  0  0  0
   -1.7120   -2.3209   -3.8040 H   0  0  0  0  0  0  0  0  0  0  0  0
    1.0186   -3.3599   -2.6985 H   0  0  0  0  0  0  0  0  0  0  0  0
    1.4937   -0.6987   -3.4218 H   0  0  0  0  0  0  0  0  0  0  0  0
    1.8426    2.0020   -0.6796 H   0  0  0  0  0  0  0  0  0  0  0  0
    2.3470   -1.0383   -0.3882 H   0  0  0  0  0  0  0  0  0  0  0  0
    4.8866   -1.2416   -0.6428 H   0  0  0  0  0  0  0  0  0  0  0  0
    7.0470   -0.7062    0.4047 H   0  0  0  0  0  0  0  0  0  0  0  0
    7.5254    3.2121    2.4202 H   0  0  0  0  0  0  0  0  0  0  0  0
    8.7865    2.2660    3.2205 H   0  0  0  0  0  0  0  0  0  0  0  0
    7.1259    2.1300    3.8113 H   0  0  0  0  0  0  0  0  0  0  0  0
    5.2234    2.6019    2.4748 H   0  0  0  0  0  0  0  0  0  0  0  0
    3.0835    2.0713    1.4569 H   0  0  0  0  0  0  0  0  0  0  0  0
  1  2  1  0
  2  3  1  0
  3  4  1  0
  4  5  1  0
  3  6  1  0
  6  7  1  0
  7  8  1  0
  8  9  1  0
  9 10  2  0
 10 11  1  0
 11 12  1  0
 12 13  1  0
 13 14  2  0
 13 15  1  0
 15 16  1  0
 16 17  1  0
 17 18  2  0
 18 19  1  0
 19 20  2  0
 19 21  1  0
 21 22  2  0
 22 23  1  0
 23 24  2  0
 24 25  1  0
 25 26  2  0
 26 27  1  0
 27 28  1  0
 26 29  1  0
 29 30  2  0
 18  9  1  0
 30 23  1  0
 16 11  1  0
  1 31  1  0
  1 32  1  0
  1 33  1  0
  2 34  1  0
  2 35  1  0
  4 36  1  0
  4 37  1  0
  5 38  1  0
  5 39  1  0
  5 40  1  0
  6 41  1  0
  6 42  1  0
  7 43  1  0
  7 44  1  0
 10 45  1  0
 11 46  1  6
 16 47  1  1
 17 48  1  0
 21 49  1  0
 22 50  1  0
 24 51  1  0
 25 52  1  0
 28 53  1  0
 28 54  1  0
 28 55  1  0
 29 56  1  0
 30 57  1  0
M  END
$$$$
