
     RDKit          3D

 45 46  0  0  0  0  0  0  0  0999 V2000
    7.1194   -0.5501   -1.8205 C   0  0  0  0  0  0  0  0  0  0  0  0
    6.0268    0.3603   -1.8661 O   0  0  0  0  0  0  0  0  0  0  0  0
    5.1136    0.2834   -0.8507 C   0  0  0  0  0  0  0  0  0  0  0  0
    5.1467   -0.6169    0.2150 C   0  0  0  0  0  0  0  0  0  0  0  0
    4.1416   -0.5877    1.1875 C   0  0  0  0  0  0  0  0  0  0  0  0
    3.0902    0.3322    1.0920 C   0  0  0  0  0  0  0  0  0  0  0  0
    2.0734    0.3185    2.1650 C   0  0  0  0  0  0  0  0  0  0  0  0
    2.4338    0.3021    3.3399 O   0  0  0  0  0  0  0  0  0  0  0  0
    0.6218    0.2654    1.8475 C   0  0  0  0  0  0  0  0  0  0  0  0
    0.1078   -0.1847    0.6928 C   0  0  0  0  0  0  0  0  0  0  0  0
   -1.3365   -0.2475    0.4242 C   0  0  0  0  0  0  0  0  0  0  0  0
   -2.2450   -0.7291    1.3795 C   0  0  0  0  0  0  0  0  0  0  0  0
   -3.6100   -0.8024    1.0907 C   0  0  0  0  0  0  0  0  0  0  0  0
   -4.5722   -1.2537    1.9573 O   0  0  0  0  0  0  0  0  0  0  0  0
   -4.1373   -1.7931    3.1977 C   0  0  0  0  0  0  0  0  0  0  0  0
   -4.0588   -0.3806   -0.1723 C   0  0  0  0  0  0  0  0  0  0  0  0
   -5.3975   -0.4871   -0.4834 O   0  0  0  0  0  0  0  0  0  0  0  0
   -6.0703    0.7211   -0.1340 C   0  0  0  0  0  0  0  0  0  0  0  0
   -3.1606    0.0699   -1.1543 C   0  0  0  0  0  0  0  0  0  0  0  0
   -3.7077    0.4309   -2.3587 O   0  0  0  0  0  0  0  0  0  0  0  0
   -2.8130    0.7289   -3.4209 C   0  0  0  0  0  0  0  0  0  0  0  0
   -1.8004    0.1360   -0.8431 C   0  0  0  0  0  0  0  0  0  0  0  0
    3.0737    1.2509    0.0397 C   0  0  0  0  0  0  0  0  0  0  0  0
    2.0927    2.1993   -0.0373 O   0  0  0  0  0  0  0  0  0  0  0  0
    4.0760    1.2190   -0.9317 C   0  0  0  0  0  0  0  0  0  0  0  0
    7.7269   -0.3928   -0.9232 H   0  0  0  0  0  0  0  0  0  0  0  0
    6.7720   -1.5864   -1.8874 H   0  0  0  0  0  0  0  0  0  0  0  0
    7.7535   -0.3546   -2.6906 H   0  0  0  0  0  0  0  0  0  0  0  0
    5.9399   -1.3495    0.3244 H   0  0  0  0  0  0  0  0  0  0  0  0
    4.1806   -1.2832    2.0241 H   0  0  0  0  0  0  0  0  0  0  0  0
   -0.0102    0.5851    2.6701 H   0  0  0  0  0  0  0  0  0  0  0  0
    0.7473   -0.5156   -0.1209 H   0  0  0  0  0  0  0  0  0  0  0  0
   -1.8645   -1.0523    2.3429 H   0  0  0  0  0  0  0  0  0  0  0  0
   -3.4710   -2.6489    3.0467 H   0  0  0  0  0  0  0  0  0  0  0  0
   -3.6620   -1.0244    3.8156 H   0  0  0  0  0  0  0  0  0  0  0  0
   -5.0211   -2.1508    3.7348 H   0  0  0  0  0  0  0  0  0  0  0  0
   -6.0121    0.9149    0.9426 H   0  0  0  0  0  0  0  0  0  0  0  0
   -7.1256    0.6044   -0.3983 H   0  0  0  0  0  0  0  0  0  0  0  0
   -5.6750    1.5755   -0.6943 H   0  0  0  0  0  0  0  0  0  0  0  0
   -3.4098    0.9097   -4.3201 H   0  0  0  0  0  0  0  0  0  0  0  0
   -2.1460   -0.1145   -3.6285 H   0  0  0  0  0  0  0  0  0  0  0  0
   -2.2449    1.6408   -3.2108 H   0  0  0  0  0  0  0  0  0  0  0  0
   -1.0792    0.4968   -1.5696 H   0  0  0  0  0  0  0  0  0  0  0  0
    2.3207    2.8400   -0.7323 H   0  0  0  0  0  0  0  0  0  0  0  0
    4.0722    1.9211   -1.7610 H   0  0  0  0  0  0  0  0  0  0  0  0
  1  2  1  0
  2  3  1  0
  3  4  2  0
  4  5  1  0
  5  6  2  0
  6  7  1  0
  7  8  2  0
  7  9  1  0
  9 10  2  0
 10 11  1  0
 11 12  2  0
 12 13  1  0
 13 14  1  0
 14 15  1  0
 13 16  2  0
 16 17  1  0
 17 18  1  0
 16 19  1  0
 19 20  1  0
 20 21  1  0
 19 22  2  0
  6 23  1  0
 23 24  1  0
 23 25  2  0
 25  3  1  0
 22 11  1  0
  1 26  1  0
  1 27  1  0
  1 28  1  0
  4 29  1  0
  5 30  1  0
  9 31  1  0
 10 32  1  0
 12 33  1  0
 15 34  1  0
 15 35  1  0
 15 36  1  0
 18 37  1  0
 18 38  1  0
 18 39  1  0
 21 40  1  0
 21 41  1  0
 21 42  1  0
 22 43  1  0
 24 44  1  0
 25 45  1  0
M  END
$$$$
