
     RDKit          3D

 56 58  0  0  0  0  0  0  0  0999 V2000
   -1.9228   -3.5740    1.3625 C   0  0  0  0  0  0  0  0  0  0  0  0
   -2.3644   -2.3640    0.7640 O   0  0  0  0  0  0  0  0  0  0  0  0
   -1.4418   -1.3604    0.5964 C   0  0  0  0  0  0  0  0  0  0  0  0
   -0.0982   -1.4464    0.9837 C   0  0  0  0  0  0  0  0  0  0  0  0
    0.7817   -0.3769    0.7688 C   0  0  0  0  0  0  0  0  0  0  0  0
    2.1765   -0.5070    1.2083 C   0  0  0  0  0  0  0  0  0  0  0  0
    3.2230   -0.0663    0.4946 C   0  0  0  0  0  0  0  0  0  0  0  0
    4.6021   -0.2693    1.0137 C   0  0  0  0  0  0  0  0  0  0  0  0
    4.8458   -0.8072    2.0865 O   0  0  0  0  0  0  0  0  0  0  0  0
    5.7027    0.2466    0.1766 C   0  0  0  0  0  0  0  0  0  0  0  0
    5.9556   -0.2975   -1.0999 C   0  0  0  0  0  0  0  0  0  0  0  0
    5.1129   -1.2920   -1.5213 O   0  0  0  0  0  0  0  0  0  0  0  0
    5.4521   -1.9898   -2.7139 C   0  0  0  0  0  0  0  0  0  0  0  0
    7.0296    0.1984   -1.8583 C   0  0  0  0  0  0  0  0  0  0  0  0
    7.8516    1.2109   -1.3548 C   0  0  0  0  0  0  0  0  0  0  0  0
    7.5852    1.7223   -0.0942 C   0  0  0  0  0  0  0  0  0  0  0  0
    8.3831    2.7370    0.4291 O   0  0  0  0  0  0  0  0  0  0  0  0
    7.8732    3.0627    1.6822 C   0  0  0  0  0  0  0  0  0  0  0  0
    8.3666    3.9345    2.3846 O   0  0  0  0  0  0  0  0  0  0  0  0
    6.4533    2.1464    2.1882 S   0  0  0  0  0  0  0  0  0  0  0  0
    6.5251    1.2541    0.6745 C   0  0  0  0  0  0  0  0  0  0  0  0
    0.2941    0.7960    0.1855 C   0  0  0  0  0  0  0  0  0  0  0  0
   -1.0454    0.8935   -0.2034 C   0  0  0  0  0  0  0  0  0  0  0  0
   -1.9194   -0.1784   -0.0030 C   0  0  0  0  0  0  0  0  0  0  0  0
   -3.2435   -0.1769   -0.3632 O   0  0  0  0  0  0  0  0  0  0  0  0
   -3.8161    1.0544   -0.7930 C   0  0  0  0  0  0  0  0  0  0  0  0
   -5.3137    0.8587   -1.0328 C   0  0  0  0  0  0  0  0  0  0  0  0
   -6.0450    0.4275    0.2461 C   0  0  0  0  0  0  0  0  0  0  0  0
   -7.4950    0.2479    0.0369 N   0  0  0  0  0  0  0  0  0  0  0  0
   -8.1903    1.5264   -0.1245 C   0  0  0  0  0  0  0  0  0  0  0  0
   -8.0724   -0.4845    1.1681 C   0  0  0  0  0  0  0  0  0  0  0  0
   -2.7784   -4.2543    1.4118 H   0  0  0  0  0  0  0  0  0  0  0  0
   -1.5749   -3.4040    2.3867 H   0  0  0  0  0  0  0  0  0  0  0  0
   -1.1500   -4.0566    0.7554 H   0  0  0  0  0  0  0  0  0  0  0  0
    0.2909   -2.3465    1.4493 H   0  0  0  0  0  0  0  0  0  0  0  0
    2.3342   -1.0204    2.1559 H   0  0  0  0  0  0  0  0  0  0  0  0
    3.1081    0.4215   -0.4655 H   0  0  0  0  0  0  0  0  0  0  0  0
    6.4473   -2.4408   -2.6411 H   0  0  0  0  0  0  0  0  0  0  0  0
    4.7278   -2.7995   -2.8441 H   0  0  0  0  0  0  0  0  0  0  0  0
    5.3769   -1.3323   -3.5857 H   0  0  0  0  0  0  0  0  0  0  0  0
    7.2540   -0.1860   -2.8493 H   0  0  0  0  0  0  0  0  0  0  0  0
    8.6837    1.5904   -1.9420 H   0  0  0  0  0  0  0  0  0  0  0  0
    0.9457    1.6534    0.0348 H   0  0  0  0  0  0  0  0  0  0  0  0
   -1.3733    1.8202   -0.6613 H   0  0  0  0  0  0  0  0  0  0  0  0
   -3.3527    1.3696   -1.7353 H   0  0  0  0  0  0  0  0  0  0  0  0
   -3.6696    1.8311   -0.0323 H   0  0  0  0  0  0  0  0  0  0  0  0
   -5.4592    0.0884   -1.8005 H   0  0  0  0  0  0  0  0  0  0  0  0
   -5.7201    1.7979   -1.4215 H   0  0  0  0  0  0  0  0  0  0  0  0
   -5.8559    1.1468    1.0537 H   0  0  0  0  0  0  0  0  0  0  0  0
   -5.6137   -0.5293    0.5679 H   0  0  0  0  0  0  0  0  0  0  0  0
   -8.0456    2.1877    0.7375 H   0  0  0  0  0  0  0  0  0  0  0  0
   -7.8574    2.0516   -1.0244 H   0  0  0  0  0  0  0  0  0  0  0  0
   -9.2667    1.3638   -0.2527 H   0  0  0  0  0  0  0  0  0  0  0  0
   -7.9444    0.0516    2.1156 H   0  0  0  0  0  0  0  0  0  0  0  0
   -7.6104   -1.4734    1.2643 H   0  0  0  0  0  0  0  0  0  0  0  0
   -9.1429   -0.6571    1.0100 H   0  0  0  0  0  0  0  0  0  0  0  0
  1  2  1  0
  2  3  1  0
  3  4  2  0
  4  5  1  0
  5  6  1  0
  6  7  2  0
  7  8  1  0
  8  9  2  0
  8 10  1  0
 10 11  2  0
 11 12  1  0
 12 13  1  0
 11 14  1  0
 14 15  2  0
 15 16  1  0
 16 17  1  0
 17 18  1  0
 18 19  2  0
 18 20  1  0
 20 21  1  0
  5 22  2  0
 22 23  1  0
 23 24  2  0
 24 25  1  0
 25 26  1  0
 26 27  1  0
 27 28  1  0
 28 29  1  0
 29 30  1  0
 29 31  1  0
 24  3  1  0
 21 10  1  0
 21 16  2  0
  1 32  1  0
  1 33  1  0
  1 34  1  0
  4 35  1  0
  6 36  1  0
  7 37  1  0
 13 38  1  0
 13 39  1  0
 13 40  1  0
 14 41  1  0
 15 42  1  0
 22 43  1  0
 23 44  1  0
 26 45  1  0
 26 46  1  0
 27 47  1  0
 27 48  1  0
 28 49  1  0
 28 50  1  0
 30 51  1  0
 30 52  1  0
 30 53  1  0
 31 54  1  0
 31 55  1  0
 31 56  1  0
M  END
$$$$
