
     RDKit          3D

 43 45  0  0  0  0  0  0  0  0999 V2000
   -0.3782    5.2216   -1.6124 C   0  0  0  0  0  0  0  0  0  0  0  0
   -1.3873    4.4281   -0.8364 C   0  0  0  0  0  0  0  0  0  0  0  0
   -1.6005    4.5725    0.3595 O   0  0  0  0  0  0  0  0  0  0  0  0
   -2.0132    3.5403   -1.7031 O   0  0  0  0  0  0  0  0  0  0  0  0
   -2.9417    2.7148   -1.0577 C   0  0  0  0  0  0  0  0  0  0  0  0
   -4.2462    3.1886   -0.8938 C   0  0  0  0  0  0  0  0  0  0  0  0
   -5.1979    2.3735   -0.2857 C   0  0  0  0  0  0  0  0  0  0  0  0
   -4.8475    1.0911    0.1372 C   0  0  0  0  0  0  0  0  0  0  0  0
   -3.5440    0.6178   -0.0481 C   0  0  0  0  0  0  0  0  0  0  0  0
   -2.5680    1.4260   -0.6471 C   0  0  0  0  0  0  0  0  0  0  0  0
   -1.2101    0.9166   -0.8926 C   0  0  0  0  0  0  0  0  0  0  0  0
   -0.4854    0.2872    0.0468 C   0  0  0  0  0  0  0  0  0  0  0  0
    0.8653   -0.2564   -0.1338 C   0  0  0  0  0  0  0  0  0  0  0  0
    1.7723    0.2414   -1.0581 C   0  0  0  0  0  0  0  0  0  0  0  0
    3.0390   -0.3311   -1.1256 C   0  0  0  0  0  0  0  0  0  0  0  0
    3.3765   -1.3833   -0.2678 C   0  0  0  0  0  0  0  0  0  0  0  0
    4.6521   -1.9805   -0.3038 C   0  0  0  0  0  0  0  0  0  0  0  0
    4.9782   -3.0192    0.5685 C   0  0  0  0  0  0  0  0  0  0  0  0
    4.0316   -3.4738    1.4771 C   0  0  0  0  0  0  0  0  0  0  0  0
    2.7637   -2.8857    1.4877 C   0  0  0  0  0  0  0  0  0  0  0  0
    1.8405   -3.3529    2.4348 O   0  0  0  0  0  0  0  0  0  0  0  0
    0.9071   -4.2075    1.8648 C   0  0  0  0  0  0  0  0  0  0  0  0
   -0.1764   -4.4738    2.8670 C   0  0  0  0  0  0  0  0  0  0  0  0
    0.9550   -4.7192    0.7533 O   0  0  0  0  0  0  0  0  0  0  0  0
    2.4014   -1.8284    0.6464 C   0  0  0  0  0  0  0  0  0  0  0  0
    1.1748   -1.2605    0.7174 N   0  0  0  0  0  0  0  0  0  0  0  0
   -0.8807    5.7981   -2.3930 H   0  0  0  0  0  0  0  0  0  0  0  0
    0.3661    4.5496   -2.0471 H   0  0  0  0  0  0  0  0  0  0  0  0
    0.1320    5.9160   -0.9388 H   0  0  0  0  0  0  0  0  0  0  0  0
   -4.5164    4.1856   -1.2278 H   0  0  0  0  0  0  0  0  0  0  0  0
   -6.2127    2.7352   -0.1421 H   0  0  0  0  0  0  0  0  0  0  0  0
   -5.5918    0.4527    0.6071 H   0  0  0  0  0  0  0  0  0  0  0  0
   -3.3029   -0.3944    0.2699 H   0  0  0  0  0  0  0  0  0  0  0  0
   -0.8268    1.0861   -1.8944 H   0  0  0  0  0  0  0  0  0  0  0  0
   -0.8940    0.1218    1.0413 H   0  0  0  0  0  0  0  0  0  0  0  0
    1.5202    1.0663   -1.7139 H   0  0  0  0  0  0  0  0  0  0  0  0
    3.7577    0.0511   -1.8458 H   0  0  0  0  0  0  0  0  0  0  0  0
    5.4013   -1.6342   -1.0129 H   0  0  0  0  0  0  0  0  0  0  0  0
    5.9662   -3.4712    0.5355 H   0  0  0  0  0  0  0  0  0  0  0  0
    4.2682   -4.2817    2.1625 H   0  0  0  0  0  0  0  0  0  0  0  0
   -0.6084   -3.5288    3.2067 H   0  0  0  0  0  0  0  0  0  0  0  0
   -0.9688   -5.0621    2.3954 H   0  0  0  0  0  0  0  0  0  0  0  0
    0.2298   -5.0373    3.7103 H   0  0  0  0  0  0  0  0  0  0  0  0
  1  2  1  0
  2  3  2  0
  2  4  1  0
  4  5  1  0
  5  6  2  0
  6  7  1  0
  7  8  2  0
  8  9  1  0
  9 10  2  0
 10 11  1  0
 11 12  2  0
 12 13  1  0
 13 14  2  0
 14 15  1  0
 15 16  2  0
 16 17  1  0
 17 18  2  0
 18 19  1  0
 19 20  2  0
 20 21  1  0
 21 22  1  0
 22 23  1  0
 22 24  2  0
 20 25  1  0
 25 26  2  0
 10  5  1  0
 26 13  1  0
 25 16  1  0
  1 27  1  0
  1 28  1  0
  1 29  1  0
  6 30  1  0
  7 31  1  0
  8 32  1  0
  9 33  1  0
 11 34  1  0
 12 35  1  0
 14 36  1  0
 15 37  1  0
 17 38  1  0
 18 39  1  0
 19 40  1  0
 23 41  1  0
 23 42  1  0
 23 43  1  0
M  END
$$$$
