
     RDKit          3D

 57 59  0  0  0  0  0  0  0  0999 V2000
   -3.0456    1.5460    3.6644 C   0  0  0  0  0  0  0  0  0  0  0  0
   -1.8333    1.1355    2.8308 C   0  0  0  0  0  0  0  0  0  0  0  0
   -2.0984    0.8080    1.4177 N   0  0  0  0  0  0  0  0  0  0  0  0
   -2.6759    1.9214    0.6386 C   0  0  0  0  0  0  0  0  0  0  0  0
   -1.8265    3.1936    0.6350 C   0  0  0  0  0  0  0  0  0  0  0  0
   -2.9188   -0.4230    1.3016 C   0  0  0  0  0  0  0  0  0  0  0  0
   -2.8389   -1.1246   -0.0690 C   0  0  0  0  0  0  0  0  0  0  0  0
   -1.5087   -1.6314   -0.2721 O   0  0  0  0  0  0  0  0  0  0  0  0
   -1.3399   -2.1064   -1.5505 C   0  0  0  0  0  0  0  0  0  0  0  0
   -1.7753   -3.3245   -1.9342 C   0  0  0  0  0  0  0  0  0  0  0  0
   -1.5800   -3.7143   -3.3705 C   0  0  2  0  0  0  0  0  0  0  0  0
   -1.6032   -5.1124   -3.6234 O   0  0  0  0  0  0  0  0  0  0  0  0
   -1.0767   -5.2700   -4.8874 C   0  0  0  0  0  0  0  0  0  0  0  0
   -1.1256   -6.3191   -5.5090 O   0  0  0  0  0  0  0  0  0  0  0  0
   -0.2399   -3.8303   -5.5165 S   0  0  0  0  0  0  0  0  0  0  0  0
   -0.2180   -3.2007   -3.8515 C   0  0  1  0  0  0  0  0  0  0  0  0
   -0.0849   -1.7344   -3.6263 C   0  0  0  0  0  0  0  0  0  0  0  0
   -0.6091   -1.2392   -2.4805 C   0  0  0  0  0  0  0  0  0  0  0  0
   -0.4482    0.2174   -2.2320 C   0  0  0  0  0  0  0  0  0  0  0  0
   -1.1851    1.0296   -2.7857 O   0  0  0  0  0  0  0  0  0  0  0  0
    0.6568    0.6850   -1.3543 C   0  0  0  0  0  0  0  0  0  0  0  0
    1.4957   -0.1066   -0.6667 C   0  0  0  0  0  0  0  0  0  0  0  0
    2.5968    0.3901    0.1789 C   0  0  0  0  0  0  0  0  0  0  0  0
    2.5311    1.6049    0.8774 C   0  0  0  0  0  0  0  0  0  0  0  0
    3.6015    2.0426    1.6670 C   0  0  0  0  0  0  0  0  0  0  0  0
    4.7511    1.2589    1.7855 C   0  0  0  0  0  0  0  0  0  0  0  0
    5.8633    1.5708    2.5160 O   0  0  0  0  0  0  0  0  0  0  0  0
    5.9310    2.8858    3.0531 C   0  0  0  0  0  0  0  0  0  0  0  0
    4.8083    0.0326    1.1211 C   0  0  0  0  0  0  0  0  0  0  0  0
    3.7404   -0.4003    0.3266 C   0  0  0  0  0  0  0  0  0  0  0  0
   -3.8139    0.7628    3.6865 H   0  0  0  0  0  0  0  0  0  0  0  0
   -3.4986    2.4745    3.2879 H   0  0  0  0  0  0  0  0  0  0  0  0
   -2.7326    1.7248    4.6998 H   0  0  0  0  0  0  0  0  0  0  0  0
   -1.0735    1.9297    2.8831 H   0  0  0  0  0  0  0  0  0  0  0  0
   -1.3496    0.2707    3.3168 H   0  0  0  0  0  0  0  0  0  0  0  0
   -2.7731    1.6210   -0.4115 H   0  0  0  0  0  0  0  0  0  0  0  0
   -3.6914    2.1627    0.9841 H   0  0  0  0  0  0  0  0  0  0  0  0
   -1.7841    3.6660    1.6227 H   0  0  0  0  0  0  0  0  0  0  0  0
   -2.2637    3.9227   -0.0586 H   0  0  0  0  0  0  0  0  0  0  0  0
   -0.8045    2.9903    0.2998 H   0  0  0  0  0  0  0  0  0  0  0  0
   -2.5731   -1.1547    2.0483 H   0  0  0  0  0  0  0  0  0  0  0  0
   -3.9726   -0.2025    1.5222 H   0  0  0  0  0  0  0  0  0  0  0  0
   -3.5433   -1.9659   -0.0706 H   0  0  0  0  0  0  0  0  0  0  0  0
   -3.1291   -0.4437   -0.8785 H   0  0  0  0  0  0  0  0  0  0  0  0
   -2.3162   -3.9799   -1.2602 H   0  0  0  0  0  0  0  0  0  0  0  0
   -2.4258   -3.2691   -3.9219 H   0  0  0  0  0  0  0  0  0  0  0  0
    0.6067   -3.7104   -3.3396 H   0  0  0  0  0  0  0  0  0  0  0  0
    0.4528   -1.1091   -4.3287 H   0  0  0  0  0  0  0  0  0  0  0  0
    0.7359    1.7678   -1.3160 H   0  0  0  0  0  0  0  0  0  0  0  0
    1.4152   -1.1914   -0.7186 H   0  0  0  0  0  0  0  0  0  0  0  0
    1.6429    2.2301    0.8197 H   0  0  0  0  0  0  0  0  0  0  0  0
    3.5013    2.9905    2.1879 H   0  0  0  0  0  0  0  0  0  0  0  0
    5.2136    3.0102    3.8721 H   0  0  0  0  0  0  0  0  0  0  0  0
    5.7837    3.6425    2.2767 H   0  0  0  0  0  0  0  0  0  0  0  0
    6.9378    3.0285    3.4608 H   0  0  0  0  0  0  0  0  0  0  0  0
    5.6892   -0.5910    1.2249 H   0  0  0  0  0  0  0  0  0  0  0  0
    3.8218   -1.3623   -0.1731 H   0  0  0  0  0  0  0  0  0  0  0  0
  1  2  1  0
  2  3  1  0
  3  4  1  0
  4  5  1  0
  3  6  1  0
  6  7  1  0
  7  8  1  0
  8  9  1  0
  9 10  2  0
 10 11  1  0
 11 12  1  0
 12 13  1  0
 13 14  2  0
 13 15  1  0
 15 16  1  0
 16 17  1  0
 17 18  2  0
 18 19  1  0
 19 20  2  0
 19 21  1  0
 21 22  2  0
 22 23  1  0
 23 24  2  0
 24 25  1  0
 25 26  2  0
 26 27  1  0
 27 28  1  0
 26 29  1  0
 29 30  2  0
 18  9  1  0
 30 23  1  0
 16 11  1  0
  1 31  1  0
  1 32  1  0
  1 33  1  0
  2 34  1  0
  2 35  1  0
  4 36  1  0
  4 37  1  0
  5 38  1  0
  5 39  1  0
  5 40  1  0
  6 41  1  0
  6 42  1  0
  7 43  1  0
  7 44  1  0
 10 45  1  0
 11 46  1  6
 16 47  1  1
 17 48  1  0
 21 49  1  0
 22 50  1  0
 24 51  1  0
 25 52  1  0
 28 53  1  0
 28 54  1  0
 28 55  1  0
 29 56  1  0
 30 57  1  0
M  END
$$$$
