
     RDKit          3D

 43 45  0  0  0  0  0  0  0  0999 V2000
   -0.3599    5.3144   -0.8672 C   0  0  0  0  0  0  0  0  0  0  0  0
   -1.4485    4.4019   -0.3852 C   0  0  0  0  0  0  0  0  0  0  0  0
   -1.8322    4.3450    0.7749 O   0  0  0  0  0  0  0  0  0  0  0  0
   -1.9243    3.6707   -1.4670 O   0  0  0  0  0  0  0  0  0  0  0  0
   -2.9118    2.7455   -1.1069 C   0  0  0  0  0  0  0  0  0  0  0  0
   -4.2336    3.1891   -1.0102 C   0  0  0  0  0  0  0  0  0  0  0  0
   -5.2376    2.2798   -0.6857 C   0  0  0  0  0  0  0  0  0  0  0  0
   -4.9200    0.9375   -0.4782 C   0  0  0  0  0  0  0  0  0  0  0  0
   -3.5968    0.4984   -0.5964 C   0  0  0  0  0  0  0  0  0  0  0  0
   -2.5693    1.3987   -0.9103 C   0  0  0  0  0  0  0  0  0  0  0  0
   -1.1845    0.9357   -1.0905 C   0  0  0  0  0  0  0  0  0  0  0  0
   -0.5681    0.1134   -0.2258 C   0  0  0  0  0  0  0  0  0  0  0  0
    0.8018   -0.3950   -0.3581 C   0  0  0  0  0  0  0  0  0  0  0  0
    1.8081    0.2872   -1.0263 C   0  0  0  0  0  0  0  0  0  0  0  0
    3.0792   -0.2771   -1.0740 C   0  0  0  0  0  0  0  0  0  0  0  0
    3.3235   -1.5021   -0.4442 C   0  0  0  0  0  0  0  0  0  0  0  0
    4.5956   -2.1068   -0.4817 C   0  0  0  0  0  0  0  0  0  0  0  0
    4.8214   -3.3325    0.1450 C   0  0  0  0  0  0  0  0  0  0  0  0
    3.7823   -3.9582    0.8210 C   0  0  0  0  0  0  0  0  0  0  0  0
    2.5313   -3.3364    0.8681 C   0  0  0  0  0  0  0  0  0  0  0  0
    1.4988   -4.0062    1.5408 O   0  0  0  0  0  0  0  0  0  0  0  0
    1.2852   -3.4778    2.8065 C   0  0  0  0  0  0  0  0  0  0  0  0
    0.0287   -4.0714    3.3702 C   0  0  0  0  0  0  0  0  0  0  0  0
    2.0077   -2.6967    3.4127 O   0  0  0  0  0  0  0  0  0  0  0  0
    2.2548   -2.1204    0.2341 C   0  0  0  0  0  0  0  0  0  0  0  0
    1.0174   -1.5728    0.2702 N   0  0  0  0  0  0  0  0  0  0  0  0
    0.0354    5.8847   -0.0217 H   0  0  0  0  0  0  0  0  0  0  0  0
   -0.7620    6.0147   -1.6034 H   0  0  0  0  0  0  0  0  0  0  0  0
    0.4533    4.7251   -1.2986 H   0  0  0  0  0  0  0  0  0  0  0  0
   -4.4779    4.2339   -1.1752 H   0  0  0  0  0  0  0  0  0  0  0  0
   -6.2675    2.6155   -0.5951 H   0  0  0  0  0  0  0  0  0  0  0  0
   -5.7044    0.2268   -0.2294 H   0  0  0  0  0  0  0  0  0  0  0  0
   -3.3800   -0.5579   -0.4519 H   0  0  0  0  0  0  0  0  0  0  0  0
   -0.6853    1.3078   -1.9803 H   0  0  0  0  0  0  0  0  0  0  0  0
   -1.0876   -0.2539    0.6564 H   0  0  0  0  0  0  0  0  0  0  0  0
    1.6274    1.2457   -1.4987 H   0  0  0  0  0  0  0  0  0  0  0  0
    3.8742    0.2461   -1.5991 H   0  0  0  0  0  0  0  0  0  0  0  0
    5.4186   -1.6237   -1.0045 H   0  0  0  0  0  0  0  0  0  0  0  0
    5.8054   -3.7927    0.1078 H   0  0  0  0  0  0  0  0  0  0  0  0
    3.9413   -4.9108    1.3167 H   0  0  0  0  0  0  0  0  0  0  0  0
   -0.2046   -3.5871    4.3228 H   0  0  0  0  0  0  0  0  0  0  0  0
   -0.8046   -3.8966    2.6846 H   0  0  0  0  0  0  0  0  0  0  0  0
    0.1691   -5.1413    3.5412 H   0  0  0  0  0  0  0  0  0  0  0  0
  1  2  1  0
  2  3  2  0
  2  4  1  0
  4  5  1  0
  5  6  2  0
  6  7  1  0
  7  8  2  0
  8  9  1  0
  9 10  2  0
 10 11  1  0
 11 12  2  0
 12 13  1  0
 13 14  2  0
 14 15  1  0
 15 16  2  0
 16 17  1  0
 17 18  2  0
 18 19  1  0
 19 20  2  0
 20 21  1  0
 21 22  1  0
 22 23  1  0
 22 24  2  0
 20 25  1  0
 25 26  2  0
 10  5  1  0
 26 13  1  0
 25 16  1  0
  1 27  1  0
  1 28  1  0
  1 29  1  0
  6 30  1  0
  7 31  1  0
  8 32  1  0
  9 33  1  0
 11 34  1  0
 12 35  1  0
 14 36  1  0
 15 37  1  0
 17 38  1  0
 18 39  1  0
 19 40  1  0
 23 41  1  0
 23 42  1  0
 23 43  1  0
M  END
$$$$
