
     RDKit          3D

 56 58  0  0  0  0  0  0  0  0999 V2000
   -0.8982    1.7937    3.5076 C   0  0  0  0  0  0  0  0  0  0  0  0
   -1.6340    1.2064    2.4449 O   0  0  0  0  0  0  0  0  0  0  0  0
   -0.9319    0.5169    1.4858 C   0  0  0  0  0  0  0  0  0  0  0  0
    0.4653    0.4147    1.4484 C   0  0  0  0  0  0  0  0  0  0  0  0
    1.1054   -0.3118    0.4344 C   0  0  0  0  0  0  0  0  0  0  0  0
    2.5695   -0.4074    0.3505 C   0  0  0  0  0  0  0  0  0  0  0  0
    3.3512   -0.6208    1.4203 C   0  0  0  0  0  0  0  0  0  0  0  0
    4.8342   -0.7269    1.3917 C   0  0  0  0  0  0  0  0  0  0  0  0
    5.4549   -1.0554    2.3974 O   0  0  0  0  0  0  0  0  0  0  0  0
    5.5668   -0.4459    0.1477 C   0  0  0  0  0  0  0  0  0  0  0  0
    5.7562    0.8824   -0.2834 C   0  0  0  0  0  0  0  0  0  0  0  0
    5.1890    1.8614    0.4886 O   0  0  0  0  0  0  0  0  0  0  0  0
    5.4454    3.2160    0.1381 C   0  0  0  0  0  0  0  0  0  0  0  0
    6.4896    1.1220   -1.4570 C   0  0  0  0  0  0  0  0  0  0  0  0
    7.0345    0.0606   -2.1875 C   0  0  0  0  0  0  0  0  0  0  0  0
    6.8360   -1.2349   -1.7345 C   0  0  0  0  0  0  0  0  0  0  0  0
    7.3618   -2.3124   -2.4431 O   0  0  0  0  0  0  0  0  0  0  0  0
    6.9933   -3.4729   -1.7692 C   0  0  0  0  0  0  0  0  0  0  0  0
    7.3040   -4.5877   -2.1649 O   0  0  0  0  0  0  0  0  0  0  0  0
    6.0281   -3.2337   -0.3105 S   0  0  0  0  0  0  0  0  0  0  0  0
    6.1119   -1.4994   -0.5783 C   0  0  0  0  0  0  0  0  0  0  0  0
    0.3309   -0.9147   -0.5600 C   0  0  0  0  0  0  0  0  0  0  0  0
   -1.0636   -0.8177   -0.5336 C   0  0  0  0  0  0  0  0  0  0  0  0
   -1.7036   -0.1044    0.4839 C   0  0  0  0  0  0  0  0  0  0  0  0
   -3.0639    0.0444    0.5920 O   0  0  0  0  0  0  0  0  0  0  0  0
   -3.8796   -0.5078   -0.4398 C   0  0  0  0  0  0  0  0  0  0  0  0
   -5.3340   -0.1698   -0.1158 C   0  0  0  0  0  0  0  0  0  0  0  0
   -6.2759   -0.7226   -1.1906 C   0  0  0  0  0  0  0  0  0  0  0  0
   -7.7121   -0.4754   -1.0050 N   0  0  0  0  0  0  0  0  0  0  0  0
   -8.2480   -1.1200    0.1913 C   0  0  0  0  0  0  0  0  0  0  0  0
   -8.0509    0.9451   -1.0282 C   0  0  0  0  0  0  0  0  0  0  0  0
   -0.3464    1.0362    4.0740 H   0  0  0  0  0  0  0  0  0  0  0  0
   -0.2296    2.5777    3.1368 H   0  0  0  0  0  0  0  0  0  0  0  0
   -1.6137    2.2635    4.1903 H   0  0  0  0  0  0  0  0  0  0  0  0
    1.0754    0.9087    2.1972 H   0  0  0  0  0  0  0  0  0  0  0  0
    2.9806   -0.3082   -0.6497 H   0  0  0  0  0  0  0  0  0  0  0  0
    2.9329   -0.7592    2.4135 H   0  0  0  0  0  0  0  0  0  0  0  0
    6.5181    3.4350    0.1613 H   0  0  0  0  0  0  0  0  0  0  0  0
    4.9587    3.8516    0.8841 H   0  0  0  0  0  0  0  0  0  0  0  0
    5.0120    3.4569   -0.8380 H   0  0  0  0  0  0  0  0  0  0  0  0
    6.6574    2.1287   -1.8295 H   0  0  0  0  0  0  0  0  0  0  0  0
    7.6043    0.2489   -3.0936 H   0  0  0  0  0  0  0  0  0  0  0  0
    0.8029   -1.4774   -1.3626 H   0  0  0  0  0  0  0  0  0  0  0  0
   -1.6194   -1.3135   -1.3216 H   0  0  0  0  0  0  0  0  0  0  0  0
   -3.6101   -0.0686   -1.4084 H   0  0  0  0  0  0  0  0  0  0  0  0
   -3.7567   -1.5973   -0.4728 H   0  0  0  0  0  0  0  0  0  0  0  0
   -5.4314    0.9190   -0.0294 H   0  0  0  0  0  0  0  0  0  0  0  0
   -5.5787   -0.5779    0.8719 H   0  0  0  0  0  0  0  0  0  0  0  0
   -5.9816   -0.3145   -2.1669 H   0  0  0  0  0  0  0  0  0  0  0  0
   -6.1223   -1.8067   -1.2787 H   0  0  0  0  0  0  0  0  0  0  0  0
   -8.0117   -2.1896    0.1943 H   0  0  0  0  0  0  0  0  0  0  0  0
   -9.3410   -1.0424    0.2065 H   0  0  0  0  0  0  0  0  0  0  0  0
   -7.8661   -0.6768    1.1173 H   0  0  0  0  0  0  0  0  0  0  0  0
   -7.6621    1.4869   -0.1593 H   0  0  0  0  0  0  0  0  0  0  0  0
   -9.1390    1.0750   -1.0468 H   0  0  0  0  0  0  0  0  0  0  0  0
   -7.6648    1.4218   -1.9360 H   0  0  0  0  0  0  0  0  0  0  0  0
  1  2  1  0
  2  3  1  0
  3  4  2  0
  4  5  1  0
  5  6  1  0
  6  7  2  0
  7  8  1  0
  8  9  2  0
  8 10  1  0
 10 11  2  0
 11 12  1  0
 12 13  1  0
 11 14  1  0
 14 15  2  0
 15 16  1  0
 16 17  1  0
 17 18  1  0
 18 19  2  0
 18 20  1  0
 20 21  1  0
  5 22  2  0
 22 23  1  0
 23 24  2  0
 24 25  1  0
 25 26  1  0
 26 27  1  0
 27 28  1  0
 28 29  1  0
 29 30  1  0
 29 31  1  0
 24  3  1  0
 21 10  1  0
 21 16  2  0
  1 32  1  0
  1 33  1  0
  1 34  1  0
  4 35  1  0
  6 36  1  0
  7 37  1  0
 13 38  1  0
 13 39  1  0
 13 40  1  0
 14 41  1  0
 15 42  1  0
 22 43  1  0
 23 44  1  0
 26 45  1  0
 26 46  1  0
 27 47  1  0
 27 48  1  0
 28 49  1  0
 28 50  1  0
 30 51  1  0
 30 52  1  0
 30 53  1  0
 31 54  1  0
 31 55  1  0
 31 56  1  0
M  END
$$$$
