
     RDKit          3D

 56 58  0  0  0  0  0  0  0  0999 V2000
   -1.0294   -1.4245    2.4799 C   0  0  0  0  0  0  0  0  0  0  0  0
   -1.9263   -1.2323    1.3975 O   0  0  0  0  0  0  0  0  0  0  0  0
   -1.4334   -0.6637    0.2479 C   0  0  0  0  0  0  0  0  0  0  0  0
   -0.1285   -0.1719    0.1077 C   0  0  0  0  0  0  0  0  0  0  0  0
    0.3000    0.3925   -1.1017 C   0  0  0  0  0  0  0  0  0  0  0  0
    1.6535    0.9354   -1.2766 C   0  0  0  0  0  0  0  0  0  0  0  0
    2.7568    0.3543   -0.7825 C   0  0  0  0  0  0  0  0  0  0  0  0
    4.0857    0.9765   -1.0229 C   0  0  0  0  0  0  0  0  0  0  0  0
    4.2449    2.0091   -1.6605 O   0  0  0  0  0  0  0  0  0  0  0  0
    5.2501    0.2612   -0.4689 C   0  0  0  0  0  0  0  0  0  0  0  0
    5.4326    0.1545    0.9252 C   0  0  0  0  0  0  0  0  0  0  0  0
    4.4628    0.7112    1.7172 O   0  0  0  0  0  0  0  0  0  0  0  0
    4.7516    0.8623    3.1035 C   0  0  0  0  0  0  0  0  0  0  0  0
    6.5655   -0.5132    1.4206 C   0  0  0  0  0  0  0  0  0  0  0  0
    7.5115   -1.0581    0.5470 C   0  0  0  0  0  0  0  0  0  0  0  0
    7.3100   -0.9324   -0.8191 C   0  0  0  0  0  0  0  0  0  0  0  0
    8.2302   -1.4751   -1.7127 O   0  0  0  0  0  0  0  0  0  0  0  0
    7.7631   -1.2173   -2.9978 C   0  0  0  0  0  0  0  0  0  0  0  0
    8.3625   -1.5847   -3.9989 O   0  0  0  0  0  0  0  0  0  0  0  0
    6.2372   -0.3372   -3.0919 S   0  0  0  0  0  0  0  0  0  0  0  0
    6.1958   -0.2800   -1.3352 C   0  0  0  0  0  0  0  0  0  0  0  0
   -0.6064    0.4900   -2.1594 C   0  0  0  0  0  0  0  0  0  0  0  0
   -1.9128    0.0085   -2.0281 C   0  0  0  0  0  0  0  0  0  0  0  0
   -2.3359   -0.5728   -0.8314 C   0  0  0  0  0  0  0  0  0  0  0  0
   -3.5928   -1.0726   -0.6028 O   0  0  0  0  0  0  0  0  0  0  0  0
   -4.6042   -0.9432   -1.6004 C   0  0  0  0  0  0  0  0  0  0  0  0
   -5.2537    0.4446   -1.6020 C   0  0  0  0  0  0  0  0  0  0  0  0
   -6.4586    0.5728   -0.6531 C   0  0  0  0  0  0  0  0  0  0  0  0
   -6.2048    0.2542    0.7572 N   0  0  0  0  0  0  0  0  0  0  0  0
   -7.4573    0.2566    1.5152 C   0  0  0  0  0  0  0  0  0  0  0  0
   -5.2496    1.1761    1.3748 C   0  0  0  0  0  0  0  0  0  0  0  0
   -0.1898   -2.0658    2.1912 H   0  0  0  0  0  0  0  0  0  0  0  0
   -1.5751   -1.9338    3.2807 H   0  0  0  0  0  0  0  0  0  0  0  0
   -0.6780   -0.4658    2.8756 H   0  0  0  0  0  0  0  0  0  0  0  0
    0.5651   -0.2044    0.9403 H   0  0  0  0  0  0  0  0  0  0  0  0
    1.7308    1.8491   -1.8641 H   0  0  0  0  0  0  0  0  0  0  0  0
    2.7253   -0.5693   -0.2177 H   0  0  0  0  0  0  0  0  0  0  0  0
    5.6786    1.4262    3.2605 H   0  0  0  0  0  0  0  0  0  0  0  0
    4.7908   -0.1131    3.6015 H   0  0  0  0  0  0  0  0  0  0  0  0
    3.9342    1.4328    3.5535 H   0  0  0  0  0  0  0  0  0  0  0  0
    6.7393   -0.6281    2.4871 H   0  0  0  0  0  0  0  0  0  0  0  0
    8.3873   -1.5735    0.9323 H   0  0  0  0  0  0  0  0  0  0  0  0
   -0.3035    0.9364   -3.1035 H   0  0  0  0  0  0  0  0  0  0  0  0
   -2.5718    0.1092   -2.8824 H   0  0  0  0  0  0  0  0  0  0  0  0
   -5.3612   -1.7076   -1.3891 H   0  0  0  0  0  0  0  0  0  0  0  0
   -4.2099   -1.2011   -2.5898 H   0  0  0  0  0  0  0  0  0  0  0  0
   -4.5210    1.2272   -1.3803 H   0  0  0  0  0  0  0  0  0  0  0  0
   -5.6279    0.6409   -2.6151 H   0  0  0  0  0  0  0  0  0  0  0  0
   -6.8687    1.5880   -0.7469 H   0  0  0  0  0  0  0  0  0  0  0  0
   -7.2344   -0.1078   -1.0308 H   0  0  0  0  0  0  0  0  0  0  0  0
   -7.9351    1.2428    1.5182 H   0  0  0  0  0  0  0  0  0  0  0  0
   -7.2808   -0.0453    2.5537 H   0  0  0  0  0  0  0  0  0  0  0  0
   -8.1650   -0.4671    1.0963 H   0  0  0  0  0  0  0  0  0  0  0  0
   -5.0794    0.9061    2.4238 H   0  0  0  0  0  0  0  0  0  0  0  0
   -5.5992    2.2140    1.3409 H   0  0  0  0  0  0  0  0  0  0  0  0
   -4.2706    1.1288    0.8910 H   0  0  0  0  0  0  0  0  0  0  0  0
  1  2  1  0
  2  3  1  0
  3  4  2  0
  4  5  1  0
  5  6  1  0
  6  7  2  0
  7  8  1  0
  8  9  2  0
  8 10  1  0
 10 11  2  0
 11 12  1  0
 12 13  1  0
 11 14  1  0
 14 15  2  0
 15 16  1  0
 16 17  1  0
 17 18  1  0
 18 19  2  0
 18 20  1  0
 20 21  1  0
  5 22  2  0
 22 23  1  0
 23 24  2  0
 24 25  1  0
 25 26  1  0
 26 27  1  0
 27 28  1  0
 28 29  1  0
 29 30  1  0
 29 31  1  0
 24  3  1  0
 21 10  1  0
 21 16  2  0
  1 32  1  0
  1 33  1  0
  1 34  1  0
  4 35  1  0
  6 36  1  0
  7 37  1  0
 13 38  1  0
 13 39  1  0
 13 40  1  0
 14 41  1  0
 15 42  1  0
 22 43  1  0
 23 44  1  0
 26 45  1  0
 26 46  1  0
 27 47  1  0
 27 48  1  0
 28 49  1  0
 28 50  1  0
 30 51  1  0
 30 52  1  0
 30 53  1  0
 31 54  1  0
 31 55  1  0
 31 56  1  0
M  END
$$$$
