
     RDKit          3D

 42 44  0  0  0  0  0  0  0  0999 V2000
   -6.4297   -1.0152   -1.7759 C   0  0  0  0  0  0  0  0  0  0  0  0
   -5.9076   -0.9721   -0.4540 O   0  0  0  0  0  0  0  0  0  0  0  0
   -4.6595   -0.4363   -0.2899 C   0  0  0  0  0  0  0  0  0  0  0  0
   -3.8450    0.0689   -1.3051 C   0  0  0  0  0  0  0  0  0  0  0  0
   -2.5812    0.5757   -0.9908 C   0  0  0  0  0  0  0  0  0  0  0  0
   -1.7816    1.0643   -1.9877 O   0  0  0  0  0  0  0  0  0  0  0  0
   -2.1275    0.5862    0.3332 C   0  0  0  0  0  0  0  0  0  0  0  0
   -0.8128    1.1674    0.6702 C   0  0  0  0  0  0  0  0  0  0  0  0
   -0.7362    2.1957    1.3328 O   0  0  0  0  0  0  0  0  0  0  0  0
    0.3756    0.4210    0.1754 C   0  0  0  0  0  0  0  0  0  0  0  0
    1.6076    0.8853    0.4330 C   0  0  0  0  0  0  0  0  0  0  0  0
    2.8405    0.2424   -0.0030 C   0  0  0  0  0  0  0  0  0  0  0  0
    3.9602    1.0030   -0.0993 C   0  0  0  0  0  0  0  0  0  0  0  0
    5.2529    0.3251   -0.4169 C   0  0  2  0  0  0  0  0  0  0  0  0
    6.2634    1.0760   -1.0760 O   0  0  0  0  0  0  0  0  0  0  0  0
    7.0796    0.0180   -1.6390 C   0  0  0  0  0  0  0  0  0  0  0  0
    6.3537   -1.2377   -1.6322 O   0  0  0  0  0  0  0  0  0  0  0  0
    5.0234   -0.7870   -1.4257 C   0  0  1  0  0  0  0  0  0  0  0  0
    4.0294   -1.7493   -0.8699 C   0  0  0  0  0  0  0  0  0  0  0  0
    2.9845   -1.2225   -0.1965 C   0  0  0  0  0  0  0  0  0  0  0  0
   -2.9470    0.0948    1.3549 C   0  0  0  0  0  0  0  0  0  0  0  0
   -2.4480    0.0554    2.6304 O   0  0  0  0  0  0  0  0  0  0  0  0
   -3.3670    0.5080    3.6250 C   0  0  0  0  0  0  0  0  0  0  0  0
   -4.2037   -0.4281    1.0337 C   0  0  0  0  0  0  0  0  0  0  0  0
   -7.4262   -1.4646   -1.7279 H   0  0  0  0  0  0  0  0  0  0  0  0
   -5.8105   -1.6452   -2.4228 H   0  0  0  0  0  0  0  0  0  0  0  0
   -6.5378   -0.0075   -2.1900 H   0  0  0  0  0  0  0  0  0  0  0  0
   -4.1748    0.0674   -2.3373 H   0  0  0  0  0  0  0  0  0  0  0  0
   -2.2897    1.1385   -2.8125 H   0  0  0  0  0  0  0  0  0  0  0  0
    0.1991   -0.4826   -0.3942 H   0  0  0  0  0  0  0  0  0  0  0  0
    1.7145    1.8154    0.9925 H   0  0  0  0  0  0  0  0  0  0  0  0
    3.9685    2.0694    0.0967 H   0  0  0  0  0  0  0  0  0  0  0  0
    5.6957   -0.0403    0.5227 H   0  0  0  0  0  0  0  0  0  0  0  0
    7.3420    0.2817   -2.6685 H   0  0  0  0  0  0  0  0  0  0  0  0
    7.9905   -0.0959   -1.0432 H   0  0  0  0  0  0  0  0  0  0  0  0
    4.6591   -0.4154   -2.3958 H   0  0  0  0  0  0  0  0  0  0  0  0
    4.1357   -2.8125   -1.0449 H   0  0  0  0  0  0  0  0  0  0  0  0
    2.2138   -1.8693    0.2144 H   0  0  0  0  0  0  0  0  0  0  0  0
   -3.9277    1.3928    3.2974 H   0  0  0  0  0  0  0  0  0  0  0  0
   -4.0495   -0.3009    3.9113 H   0  0  0  0  0  0  0  0  0  0  0  0
   -2.7884    0.7871    4.5112 H   0  0  0  0  0  0  0  0  0  0  0  0
   -4.8382   -0.8572    1.8043 H   0  0  0  0  0  0  0  0  0  0  0  0
  1  2  1  0
  2  3  1  0
  3  4  2  0
  4  5  1  0
  5  6  1  0
  5  7  2  0
  7  8  1  0
  8  9  2  0
  8 10  1  0
 10 11  2  0
 11 12  1  0
 12 13  2  0
 13 14  1  0
 14 15  1  0
 15 16  1  0
 16 17  1  0
 17 18  1  0
 18 19  1  0
 19 20  2  0
  7 21  1  0
 21 22  1  0
 22 23  1  0
 21 24  2  0
 24  3  1  0
 20 12  1  0
 18 14  1  0
  1 25  1  0
  1 26  1  0
  1 27  1  0
  4 28  1  0
  6 29  1  0
 10 30  1  0
 11 31  1  0
 13 32  1  0
 14 33  1  1
 16 34  1  0
 16 35  1  0
 18 36  1  6
 19 37  1  0
 20 38  1  0
 23 39  1  0
 23 40  1  0
 23 41  1  0
 24 42  1  0
M  END
$$$$
