
     RDKit          3D

 33 35  0  0  0  0  0  0  0  0999 V2000
   -3.3929   -1.9260    1.5452 O   0  0  0  0  0  0  0  0  0  0  0  0
   -3.8888   -0.9088    0.7752 C   0  0  0  0  0  0  0  0  0  0  0  0
   -5.2296   -0.5828    0.9688 C   0  0  0  0  0  0  0  0  0  0  0  0
   -5.8029    0.4597    0.2423 C   0  0  0  0  0  0  0  0  0  0  0  0
   -5.0346    1.1704   -0.6784 C   0  0  0  0  0  0  0  0  0  0  0  0
   -3.6925    0.8352   -0.8781 C   0  0  0  0  0  0  0  0  0  0  0  0
   -3.1035   -0.2108   -0.1533 C   0  0  0  0  0  0  0  0  0  0  0  0
   -1.7066   -0.5799   -0.4154 C   0  0  0  0  0  0  0  0  0  0  0  0
   -0.6905    0.2630   -0.1725 C   0  0  0  0  0  0  0  0  0  0  0  0
    0.7279   -0.0396   -0.3887 C   0  0  0  0  0  0  0  0  0  0  0  0
    1.1779   -0.8845   -1.3958 C   0  0  0  0  0  0  0  0  0  0  0  0
    2.5483   -1.0876   -1.5378 C   0  0  0  0  0  0  0  0  0  0  0  0
    3.4397   -0.4369   -0.6785 C   0  0  0  0  0  0  0  0  0  0  0  0
    4.8345   -0.6052   -0.7749 C   0  0  0  0  0  0  0  0  0  0  0  0
    5.6904    0.0654    0.1006 C   0  0  0  0  0  0  0  0  0  0  0  0
    5.1614    0.9059    1.0744 C   0  0  0  0  0  0  0  0  0  0  0  0
    3.7813    1.0632    1.1579 C   0  0  0  0  0  0  0  0  0  0  0  0
    3.2843    1.8991    2.1297 O   0  0  0  0  0  0  0  0  0  0  0  0
    2.8958    0.4116    0.3037 C   0  0  0  0  0  0  0  0  0  0  0  0
    1.5681    0.6149    0.4459 N   0  0  0  0  0  0  0  0  0  0  0  0
   -2.4223   -1.8829    1.5128 H   0  0  0  0  0  0  0  0  0  0  0  0
   -5.8230   -1.1364    1.6912 H   0  0  0  0  0  0  0  0  0  0  0  0
   -6.8475    0.7174    0.3960 H   0  0  0  0  0  0  0  0  0  0  0  0
   -5.4814    1.9825   -1.2464 H   0  0  0  0  0  0  0  0  0  0  0  0
   -3.1139    1.3912   -1.6126 H   0  0  0  0  0  0  0  0  0  0  0  0
   -1.5537   -1.5863   -0.7949 H   0  0  0  0  0  0  0  0  0  0  0  0
   -0.8782    1.2469    0.2525 H   0  0  0  0  0  0  0  0  0  0  0  0
    0.4888   -1.3745   -2.0749 H   0  0  0  0  0  0  0  0  0  0  0  0
    2.9125   -1.7476   -2.3210 H   0  0  0  0  0  0  0  0  0  0  0  0
    5.2601   -1.2594   -1.5328 H   0  0  0  0  0  0  0  0  0  0  0  0
    6.7666   -0.0675    0.0228 H   0  0  0  0  0  0  0  0  0  0  0  0
    5.8119    1.4357    1.7639 H   0  0  0  0  0  0  0  0  0  0  0  0
    2.3123    1.8548    2.0058 H   0  0  0  0  0  0  0  0  0  0  0  0
  1  2  1  0
  2  3  2  0
  3  4  1  0
  4  5  2  0
  5  6  1  0
  6  7  2  0
  7  8  1  0
  8  9  2  0
  9 10  1  0
 10 11  2  0
 11 12  1  0
 12 13  2  0
 13 14  1  0
 14 15  2  0
 15 16  1  0
 16 17  2  0
 17 18  1  0
 17 19  1  0
 19 20  2  0
  7  2  1  0
 20 10  1  0
 19 13  1  0
  1 21  1  0
  3 22  1  0
  4 23  1  0
  5 24  1  0
  6 25  1  0
  8 26  1  0
  9 27  1  0
 11 28  1  0
 12 29  1  0
 14 30  1  0
 15 31  1  0
 16 32  1  0
 18 33  1  0
M  END
$$$$
