
     RDKit          3D

 42 44  0  0  0  0  0  0  0  0999 V2000
   -6.9482    1.6933   -0.5384 C   0  0  0  0  0  0  0  0  0  0  0  0
   -5.9400    0.9613   -1.2265 O   0  0  0  0  0  0  0  0  0  0  0  0
   -4.7916    0.6906   -0.5333 C   0  0  0  0  0  0  0  0  0  0  0  0
   -4.5280    1.0525    0.7830 C   0  0  0  0  0  0  0  0  0  0  0  0
   -3.3067    0.7091    1.3605 C   0  0  0  0  0  0  0  0  0  0  0  0
   -3.1433    1.0812    2.6721 O   0  0  0  0  0  0  0  0  0  0  0  0
   -2.3185    0.0248    0.6302 C   0  0  0  0  0  0  0  0  0  0  0  0
   -1.0279   -0.2529    1.3144 C   0  0  0  0  0  0  0  0  0  0  0  0
   -1.0347   -0.4568    2.5285 O   0  0  0  0  0  0  0  0  0  0  0  0
    0.2388   -0.1630    0.5421 C   0  0  0  0  0  0  0  0  0  0  0  0
    1.3959   -0.5358    1.1106 C   0  0  0  0  0  0  0  0  0  0  0  0
    2.6935   -0.4802    0.4494 C   0  0  0  0  0  0  0  0  0  0  0  0
    3.8076   -0.4434    1.2235 C   0  0  0  0  0  0  0  0  0  0  0  0
    5.1408   -0.5175    0.5533 C   0  0  2  0  0  0  0  0  0  0  0  0
    6.2546    0.0802    1.2018 O   0  0  0  0  0  0  0  0  0  0  0  0
    7.1693    0.2544    0.0904 C   0  0  0  0  0  0  0  0  0  0  0  0
    6.4621    0.1245   -1.1690 O   0  0  0  0  0  0  0  0  0  0  0  0
    5.1147    0.2679   -0.7456 C   0  0  1  0  0  0  0  0  0  0  0  0
    4.0366   -0.2762   -1.6200 C   0  0  0  0  0  0  0  0  0  0  0  0
    2.8793   -0.6204   -1.0164 C   0  0  0  0  0  0  0  0  0  0  0  0
   -2.5998   -0.3825   -0.6867 C   0  0  0  0  0  0  0  0  0  0  0  0
   -1.6521   -1.1300   -1.3364 O   0  0  0  0  0  0  0  0  0  0  0  0
   -1.9976   -1.6950   -2.5964 C   0  0  0  0  0  0  0  0  0  0  0  0
   -3.8319   -0.0292   -1.2565 C   0  0  0  0  0  0  0  0  0  0  0  0
   -7.3172    1.1360    0.3290 H   0  0  0  0  0  0  0  0  0  0  0  0
   -6.5871    2.6855   -0.2482 H   0  0  0  0  0  0  0  0  0  0  0  0
   -7.7877    1.8325   -1.2264 H   0  0  0  0  0  0  0  0  0  0  0  0
   -5.2465    1.5925    1.3902 H   0  0  0  0  0  0  0  0  0  0  0  0
   -2.3676    0.5924    3.0309 H   0  0  0  0  0  0  0  0  0  0  0  0
    0.1963    0.2306   -0.4653 H   0  0  0  0  0  0  0  0  0  0  0  0
    1.3911   -0.8969    2.1394 H   0  0  0  0  0  0  0  0  0  0  0  0
    3.7745   -0.4148    2.3067 H   0  0  0  0  0  0  0  0  0  0  0  0
    5.3976   -1.5771    0.4023 H   0  0  0  0  0  0  0  0  0  0  0  0
    7.9514   -0.5095    0.1384 H   0  0  0  0  0  0  0  0  0  0  0  0
    7.6202    1.2494    0.1546 H   0  0  0  0  0  0  0  0  0  0  0  0
    4.9420    1.3436   -0.5909 H   0  0  0  0  0  0  0  0  0  0  0  0
    4.1798   -0.3435   -2.6907 H   0  0  0  0  0  0  0  0  0  0  0  0
    2.0474   -1.0022   -1.6017 H   0  0  0  0  0  0  0  0  0  0  0  0
   -1.1582   -2.3162   -2.9235 H   0  0  0  0  0  0  0  0  0  0  0  0
   -2.1447   -0.9134   -3.3486 H   0  0  0  0  0  0  0  0  0  0  0  0
   -2.8778   -2.3411   -2.5146 H   0  0  0  0  0  0  0  0  0  0  0  0
   -4.0864   -0.3045   -2.2759 H   0  0  0  0  0  0  0  0  0  0  0  0
  1  2  1  0
  2  3  1  0
  3  4  2  0
  4  5  1  0
  5  6  1  0
  5  7  2  0
  7  8  1  0
  8  9  2  0
  8 10  1  0
 10 11  2  0
 11 12  1  0
 12 13  2  0
 13 14  1  0
 14 15  1  0
 15 16  1  0
 16 17  1  0
 17 18  1  0
 18 19  1  0
 19 20  2  0
  7 21  1  0
 21 22  1  0
 22 23  1  0
 21 24  2  0
 24  3  1  0
 20 12  1  0
 18 14  1  0
  1 25  1  0
  1 26  1  0
  1 27  1  0
  4 28  1  0
  6 29  1  0
 10 30  1  0
 11 31  1  0
 13 32  1  0
 14 33  1  6
 16 34  1  0
 16 35  1  0
 18 36  1  1
 19 37  1  0
 20 38  1  0
 23 39  1  0
 23 40  1  0
 23 41  1  0
 24 42  1  0
M  END
$$$$
