
     RDKit          3D

 45 46  0  0  0  0  0  0  0  0999 V2000
    7.2743    0.9466    1.9500 C   0  0  0  0  0  0  0  0  0  0  0  0
    6.9914    0.8597    0.5593 O   0  0  0  0  0  0  0  0  0  0  0  0
    5.7526    0.4074    0.1987 C   0  0  0  0  0  0  0  0  0  0  0  0
    5.5383    0.3432   -1.1796 C   0  0  0  0  0  0  0  0  0  0  0  0
    4.3151   -0.0974   -1.6892 C   0  0  0  0  0  0  0  0  0  0  0  0
    3.2808   -0.4705   -0.8215 C   0  0  0  0  0  0  0  0  0  0  0  0
    2.0136   -0.9307   -1.4450 C   0  0  0  0  0  0  0  0  0  0  0  0
    2.0478   -1.5792   -2.4872 O   0  0  0  0  0  0  0  0  0  0  0  0
    0.7292   -0.5180   -0.8181 C   0  0  0  0  0  0  0  0  0  0  0  0
   -0.4294   -0.9857   -1.3075 C   0  0  0  0  0  0  0  0  0  0  0  0
   -1.7460   -0.6194   -0.7679 C   0  0  0  0  0  0  0  0  0  0  0  0
   -1.9848   -0.5528    0.6133 C   0  0  0  0  0  0  0  0  0  0  0  0
   -3.2514   -0.2220    1.1013 C   0  0  0  0  0  0  0  0  0  0  0  0
   -3.5756   -0.1234    2.4303 O   0  0  0  0  0  0  0  0  0  0  0  0
   -2.6470   -0.6529    3.3660 C   0  0  0  0  0  0  0  0  0  0  0  0
   -4.2804    0.0548    0.1857 C   0  0  0  0  0  0  0  0  0  0  0  0
   -5.5414    0.3472    0.6592 O   0  0  0  0  0  0  0  0  0  0  0  0
   -5.6858    1.7588    0.8028 C   0  0  0  0  0  0  0  0  0  0  0  0
   -4.0711   -0.0458   -1.1999 C   0  0  0  0  0  0  0  0  0  0  0  0
   -5.1543    0.2151   -1.9992 O   0  0  0  0  0  0  0  0  0  0  0  0
   -5.0194   -0.0498   -3.3887 C   0  0  0  0  0  0  0  0  0  0  0  0
   -2.7975   -0.3814   -1.6658 C   0  0  0  0  0  0  0  0  0  0  0  0
    3.5060   -0.4282    0.5601 C   0  0  0  0  0  0  0  0  0  0  0  0
    2.5403   -0.8470    1.4357 O   0  0  0  0  0  0  0  0  0  0  0  0
    4.7338    0.0159    1.0700 C   0  0  0  0  0  0  0  0  0  0  0  0
    6.6009    1.6533    2.4460 H   0  0  0  0  0  0  0  0  0  0  0  0
    8.2951    1.3250    2.0609 H   0  0  0  0  0  0  0  0  0  0  0  0
    7.2310   -0.0398    2.4233 H   0  0  0  0  0  0  0  0  0  0  0  0
    6.3314    0.6356   -1.8644 H   0  0  0  0  0  0  0  0  0  0  0  0
    4.1711   -0.1473   -2.7671 H   0  0  0  0  0  0  0  0  0  0  0  0
    0.7663    0.1775    0.0104 H   0  0  0  0  0  0  0  0  0  0  0  0
   -0.4329   -1.6581   -2.1641 H   0  0  0  0  0  0  0  0  0  0  0  0
   -1.1679   -0.7698    1.2935 H   0  0  0  0  0  0  0  0  0  0  0  0
   -3.1107   -0.6130    4.3564 H   0  0  0  0  0  0  0  0  0  0  0  0
   -2.4142   -1.7010    3.1497 H   0  0  0  0  0  0  0  0  0  0  0  0
   -1.7376   -0.0445    3.4010 H   0  0  0  0  0  0  0  0  0  0  0  0
   -6.6923    1.9548    1.1845 H   0  0  0  0  0  0  0  0  0  0  0  0
   -4.9671    2.1630    1.5243 H   0  0  0  0  0  0  0  0  0  0  0  0
   -5.5847    2.2718   -0.1598 H   0  0  0  0  0  0  0  0  0  0  0  0
   -5.9922    0.1253   -3.8583 H   0  0  0  0  0  0  0  0  0  0  0  0
   -4.7456   -1.0945   -3.5705 H   0  0  0  0  0  0  0  0  0  0  0  0
   -4.3003    0.6347   -3.8501 H   0  0  0  0  0  0  0  0  0  0  0  0
   -2.5932   -0.4518   -2.7297 H   0  0  0  0  0  0  0  0  0  0  0  0
    2.9212   -0.9139    2.3279 H   0  0  0  0  0  0  0  0  0  0  0  0
    4.8822    0.0481    2.1430 H   0  0  0  0  0  0  0  0  0  0  0  0
  1  2  1  0
  2  3  1  0
  3  4  2  0
  4  5  1  0
  5  6  2  0
  6  7  1  0
  7  8  2  0
  7  9  1  0
  9 10  2  0
 10 11  1  0
 11 12  2  0
 12 13  1  0
 13 14  1  0
 14 15  1  0
 13 16  2  0
 16 17  1  0
 17 18  1  0
 16 19  1  0
 19 20  1  0
 20 21  1  0
 19 22  2  0
  6 23  1  0
 23 24  1  0
 23 25  2  0
 25  3  1  0
 22 11  1  0
  1 26  1  0
  1 27  1  0
  1 28  1  0
  4 29  1  0
  5 30  1  0
  9 31  1  0
 10 32  1  0
 12 33  1  0
 15 34  1  0
 15 35  1  0
 15 36  1  0
 18 37  1  0
 18 38  1  0
 18 39  1  0
 21 40  1  0
 21 41  1  0
 21 42  1  0
 22 43  1  0
 24 44  1  0
 25 45  1  0
M  END
$$$$
