
     RDKit          3D

 55 60  0  0  0  0  0  0  0  0999 V2000
   -7.4722    2.0454    0.1427 C   0  0  0  0  0  0  0  0  0  0  0  0
   -7.0002    1.6979   -1.1238 C   0  0  0  0  0  0  0  0  0  0  0  0
   -5.8292    0.9498   -1.2504 C   0  0  0  0  0  0  0  0  0  0  0  0
   -5.1233    0.5619   -0.1064 C   0  0  0  0  0  0  0  0  0  0  0  0
   -3.8905   -0.2486   -0.2668 C   0  0  0  0  0  0  0  0  0  0  0  0
   -3.9448   -1.3112   -1.0134 N   0  0  0  0  0  0  0  0  0  0  0  0
   -2.8034   -2.1283   -1.1282 C   0  0  0  0  0  0  0  0  0  0  0  0
   -2.9276   -3.3138   -1.8589 C   0  0  0  0  0  0  0  0  0  0  0  0
   -1.8558   -4.2002   -1.9708 C   0  0  0  0  0  0  0  0  0  0  0  0
   -0.6500   -3.9131   -1.3356 C   0  0  0  0  0  0  0  0  0  0  0  0
   -0.5062   -2.7323   -0.6039 C   0  0  0  0  0  0  0  0  0  0  0  0
   -1.5704   -1.8297   -0.5229 C   0  0  0  0  0  0  0  0  0  0  0  0
   -1.5041   -0.6039    0.1863 N   0  0  0  0  0  0  0  0  0  0  0  0
   -0.4318    0.0654    0.7829 C   0  0  0  0  0  0  0  0  0  0  0  0
    0.8828   -0.2969    0.6278 N   0  0  0  0  0  0  0  0  0  0  0  0
    1.8012   -0.0843    1.7718 C   0  0  0  0  0  0  0  0  0  0  0  0
    3.2617   -0.4397    1.4140 C   0  0  0  0  0  0  0  0  0  0  0  0
    3.7527    0.3777    0.2870 N   0  0  0  0  0  0  0  0  0  0  0  0
    5.0865    0.7349    0.1855 C   0  0  0  0  0  0  0  0  0  0  0  0
    5.5032    1.8710   -0.5273 C   0  0  0  0  0  0  0  0  0  0  0  0
    6.8535    2.2295   -0.6321 C   0  0  0  0  0  0  0  0  0  0  0  0
    7.8309    1.4511   -0.0252 C   0  0  0  0  0  0  0  0  0  0  0  0
    7.4546    0.3170    0.6827 C   0  0  0  0  0  0  0  0  0  0  0  0
    6.1017   -0.0315    0.7826 C   0  0  0  0  0  0  0  0  0  0  0  0
    2.7219    0.9356   -0.6077 C   0  0  0  0  0  0  0  0  0  0  0  0
    1.4918    0.0037   -0.7013 C   0  0  0  0  0  0  0  0  0  0  0  0
   -0.9573    1.1429    1.4724 C   0  0  0  0  0  0  0  0  0  0  0  0
   -2.3352    1.2225    1.1809 C   0  0  0  0  0  0  0  0  0  0  0  0
   -2.6536    0.1505    0.3710 C   0  0  0  0  0  0  0  0  0  0  0  0
   -5.6091    0.8909    1.1638 C   0  0  0  0  0  0  0  0  0  0  0  0
   -6.7813    1.6390    1.2852 C   0  0  0  0  0  0  0  0  0  0  0  0
   -8.3876    2.6244    0.2395 H   0  0  0  0  0  0  0  0  0  0  0  0
   -7.5475    2.0034   -2.0120 H   0  0  0  0  0  0  0  0  0  0  0  0
   -5.4680    0.6685   -2.2369 H   0  0  0  0  0  0  0  0  0  0  0  0
   -3.8770   -3.5490   -2.3330 H   0  0  0  0  0  0  0  0  0  0  0  0
   -1.9700   -5.1203   -2.5375 H   0  0  0  0  0  0  0  0  0  0  0  0
    0.1787   -4.6139   -1.4001 H   0  0  0  0  0  0  0  0  0  0  0  0
    0.4307   -2.5606   -0.0867 H   0  0  0  0  0  0  0  0  0  0  0  0
    1.7700    0.9629    2.0983 H   0  0  0  0  0  0  0  0  0  0  0  0
    1.4774   -0.7089    2.6129 H   0  0  0  0  0  0  0  0  0  0  0  0
    3.3320   -1.4999    1.1427 H   0  0  0  0  0  0  0  0  0  0  0  0
    3.8666   -0.2741    2.3135 H   0  0  0  0  0  0  0  0  0  0  0  0
    4.7765    2.5227   -1.0034 H   0  0  0  0  0  0  0  0  0  0  0  0
    7.1339    3.1206   -1.1872 H   0  0  0  0  0  0  0  0  0  0  0  0
    8.8788    1.7251   -0.1057 H   0  0  0  0  0  0  0  0  0  0  0  0
    8.2091   -0.3062    1.1548 H   0  0  0  0  0  0  0  0  0  0  0  0
    5.8575   -0.9421    1.3227 H   0  0  0  0  0  0  0  0  0  0  0  0
    2.4145    1.9214   -0.2380 H   0  0  0  0  0  0  0  0  0  0  0  0
    3.1159    1.0573   -1.6238 H   0  0  0  0  0  0  0  0  0  0  0  0
    0.7586    0.4511   -1.3844 H   0  0  0  0  0  0  0  0  0  0  0  0
    1.8092   -0.9459   -1.1486 H   0  0  0  0  0  0  0  0  0  0  0  0
   -0.3913    1.8584    2.0531 H   0  0  0  0  0  0  0  0  0  0  0  0
   -3.0084    2.0023    1.5116 H   0  0  0  0  0  0  0  0  0  0  0  0
   -5.0935    0.5532    2.0588 H   0  0  0  0  0  0  0  0  0  0  0  0
   -7.1623    1.8964    2.2703 H   0  0  0  0  0  0  0  0  0  0  0  0
  1  2  2  0
  2  3  1  0
  3  4  2  0
  4  5  1  0
  5  6  2  0
  6  7  1  0
  7  8  2  0
  8  9  1  0
  9 10  2  0
 10 11  1  0
 11 12  2  0
 12 13  1  0
 13 14  1  0
 14 15  1  0
 15 16  1  0
 16 17  1  0
 17 18  1  0
 18 19  1  0
 19 20  2  0
 20 21  1  0
 21 22  2  0
 22 23  1  0
 23 24  2  0
 18 25  1  0
 25 26  1  0
 14 27  2  0
 27 28  1  0
 28 29  2  0
  4 30  1  0
 30 31  2  0
 31  1  1  0
 29  5  1  0
 12  7  1  0
 29 13  1  0
 26 15  1  0
 24 19  1  0
  1 32  1  0
  2 33  1  0
  3 34  1  0
  8 35  1  0
  9 36  1  0
 10 37  1  0
 11 38  1  0
 16 39  1  0
 16 40  1  0
 17 41  1  0
 17 42  1  0
 20 43  1  0
 21 44  1  0
 22 45  1  0
 23 46  1  0
 24 47  1  0
 25 48  1  0
 25 49  1  0
 26 50  1  0
 26 51  1  0
 27 52  1  0
 28 53  1  0
 30 54  1  0
 31 55  1  0
M  END
$$$$
