
     RDKit          3D

 55 60  0  0  0  0  0  0  0  0999 V2000
   -7.2994    1.9101    0.4253 C   0  0  0  0  0  0  0  0  0  0  0  0
   -6.6227    1.2722    1.4667 C   0  0  0  0  0  0  0  0  0  0  0  0
   -5.4349    0.5845    1.2111 C   0  0  0  0  0  0  0  0  0  0  0  0
   -4.9169    0.5498   -0.0884 C   0  0  0  0  0  0  0  0  0  0  0  0
   -3.6673   -0.1912   -0.3976 C   0  0  0  0  0  0  0  0  0  0  0  0
   -3.6821   -1.0324   -1.3885 N   0  0  0  0  0  0  0  0  0  0  0  0
   -2.5306   -1.7963   -1.6591 C   0  0  0  0  0  0  0  0  0  0  0  0
   -2.6156   -2.7567   -2.6717 C   0  0  0  0  0  0  0  0  0  0  0  0
   -1.5333   -3.5884   -2.9611 C   0  0  0  0  0  0  0  0  0  0  0  0
   -0.3572   -3.4761   -2.2245 C   0  0  0  0  0  0  0  0  0  0  0  0
   -0.2523   -2.5201   -1.2119 C   0  0  0  0  0  0  0  0  0  0  0  0
   -1.3260   -1.6642   -0.9478 C   0  0  0  0  0  0  0  0  0  0  0  0
   -1.2968   -0.6535    0.0473 N   0  0  0  0  0  0  0  0  0  0  0  0
   -0.2521   -0.1574    0.8350 C   0  0  0  0  0  0  0  0  0  0  0  0
    1.0660   -0.4916    0.6519 N   0  0  0  0  0  0  0  0  0  0  0  0
    1.9716   -0.5493    1.8271 C   0  0  0  0  0  0  0  0  0  0  0  0
    2.7154    0.7815    2.0967 C   0  0  0  0  0  0  0  0  0  0  0  0
    3.3677    1.3272    0.8846 N   0  0  0  0  0  0  0  0  0  0  0  0
    4.6742    0.9610    0.5493 C   0  0  0  0  0  0  0  0  0  0  0  0
    5.3740    1.6821   -0.4355 C   0  0  0  0  0  0  0  0  0  0  0  0
    6.6862    1.3617   -0.8033 C   0  0  0  0  0  0  0  0  0  0  0  0
    7.3431    0.3084   -0.1809 C   0  0  0  0  0  0  0  0  0  0  0  0
    6.6898   -0.4087    0.8143 C   0  0  0  0  0  0  0  0  0  0  0  0
    5.3773   -0.0775    1.1781 C   0  0  0  0  0  0  0  0  0  0  0  0
    2.4044    1.4452   -0.2424 C   0  0  0  0  0  0  0  0  0  0  0  0
    1.7400    0.0833   -0.5496 C   0  0  0  0  0  0  0  0  0  0  0  0
   -0.8156    0.7084    1.7536 C   0  0  0  0  0  0  0  0  0  0  0  0
   -2.1790    0.8700    1.4293 C   0  0  0  0  0  0  0  0  0  0  0  0
   -2.4585    0.0347    0.3671 C   0  0  0  0  0  0  0  0  0  0  0  0
   -5.6098    1.1694   -1.1353 C   0  0  0  0  0  0  0  0  0  0  0  0
   -6.7973    1.8548   -0.8755 C   0  0  0  0  0  0  0  0  0  0  0  0
   -8.2272    2.4409    0.6251 H   0  0  0  0  0  0  0  0  0  0  0  0
   -7.0271    1.3018    2.4756 H   0  0  0  0  0  0  0  0  0  0  0  0
   -4.9333    0.0640    2.0225 H   0  0  0  0  0  0  0  0  0  0  0  0
   -3.5427   -2.8605   -3.2294 H   0  0  0  0  0  0  0  0  0  0  0  0
   -1.6170   -4.3331   -3.7481 H   0  0  0  0  0  0  0  0  0  0  0  0
    0.4787   -4.1398   -2.4308 H   0  0  0  0  0  0  0  0  0  0  0  0
    0.6630   -2.4869   -0.6320 H   0  0  0  0  0  0  0  0  0  0  0  0
    1.4239   -0.8579    2.7261 H   0  0  0  0  0  0  0  0  0  0  0  0
    2.7021   -1.3432    1.6321 H   0  0  0  0  0  0  0  0  0  0  0  0
    3.4249    0.6687    2.9243 H   0  0  0  0  0  0  0  0  0  0  0  0
    1.9937    1.5315    2.4401 H   0  0  0  0  0  0  0  0  0  0  0  0
    4.9096    2.5416   -0.9124 H   0  0  0  0  0  0  0  0  0  0  0  0
    7.1919    1.9471   -1.5662 H   0  0  0  0  0  0  0  0  0  0  0  0
    8.3620    0.0560   -0.4594 H   0  0  0  0  0  0  0  0  0  0  0  0
    7.1983   -1.2281    1.3162 H   0  0  0  0  0  0  0  0  0  0  0  0
    4.9225   -0.6727    1.9626 H   0  0  0  0  0  0  0  0  0  0  0  0
    1.6319    2.1695    0.0461 H   0  0  0  0  0  0  0  0  0  0  0  0
    2.8613    1.8396   -1.1552 H   0  0  0  0  0  0  0  0  0  0  0  0
    2.5033   -0.6310   -0.8837 H   0  0  0  0  0  0  0  0  0  0  0  0
    1.0339    0.2057   -1.3805 H   0  0  0  0  0  0  0  0  0  0  0  0
   -0.2872    1.2459    2.5281 H   0  0  0  0  0  0  0  0  0  0  0  0
   -2.8692    1.5452    1.9174 H   0  0  0  0  0  0  0  0  0  0  0  0
   -5.2259    1.1162   -2.1517 H   0  0  0  0  0  0  0  0  0  0  0  0
   -7.3339    2.3388   -1.6884 H   0  0  0  0  0  0  0  0  0  0  0  0
  1  2  2  0
  2  3  1  0
  3  4  2  0
  4  5  1  0
  5  6  2  0
  6  7  1  0
  7  8  2  0
  8  9  1  0
  9 10  2  0
 10 11  1  0
 11 12  2  0
 12 13  1  0
 13 14  1  0
 14 15  1  0
 15 16  1  0
 16 17  1  0
 17 18  1  0
 18 19  1  0
 19 20  2  0
 20 21  1  0
 21 22  2  0
 22 23  1  0
 23 24  2  0
 18 25  1  0
 25 26  1  0
 14 27  2  0
 27 28  1  0
 28 29  2  0
  4 30  1  0
 30 31  2  0
 31  1  1  0
 29  5  1  0
 12  7  1  0
 29 13  1  0
 26 15  1  0
 24 19  1  0
  1 32  1  0
  2 33  1  0
  3 34  1  0
  8 35  1  0
  9 36  1  0
 10 37  1  0
 11 38  1  0
 16 39  1  0
 16 40  1  0
 17 41  1  0
 17 42  1  0
 20 43  1  0
 21 44  1  0
 22 45  1  0
 23 46  1  0
 24 47  1  0
 25 48  1  0
 25 49  1  0
 26 50  1  0
 26 51  1  0
 27 52  1  0
 28 53  1  0
 30 54  1  0
 31 55  1  0
M  END
$$$$
