
     RDKit          3D

 21 21  0  0  0  0  0  0  0  0999 V2000
   -3.2235    3.5248   -0.2772 C   0  0  0  0  0  3  0  0  0  0  0  0
   -2.6049    2.5511   -0.4762 N   0  0  0  0  0  4  0  0  0  0  0  0
   -1.8391    1.3379   -0.7292 C   0  0  0  0  0  0  0  0  0  0  0  0
   -0.9166    0.8542    0.1055 C   0  0  0  0  0  0  0  0  0  0  0  0
   -0.3402   -0.3532   -0.4269 C   0  0  0  0  0  0  0  0  0  0  0  0
    0.6182   -1.1189    0.1145 C   0  0  0  0  0  0  0  0  0  0  0  0
    1.3388   -0.9004    1.4171 C   0  0  0  0  0  0  0  0  0  0  0  0
    2.8292   -0.7306    1.1994 C   0  0  0  0  0  0  0  0  0  0  0  0
    3.4692   -0.9460    0.1835 O   0  0  0  0  0  0  0  0  0  0  0  0
    3.4576   -0.3223    2.3224 O   0  0  0  0  0  0  0  0  0  0  0  0
   -1.0089   -0.6329   -1.7540 C   0  0  0  0  0  0  0  0  0  0  0  0
   -2.0106    0.5104   -1.9555 C   0  0  0  0  0  0  0  0  0  0  0  0
   -0.6467    1.3119    1.0455 H   0  0  0  0  0  0  0  0  0  0  0  0
    0.9387   -2.0021   -0.4394 H   0  0  0  0  0  0  0  0  0  0  0  0
    0.9679   -0.0153    1.9416 H   0  0  0  0  0  0  0  0  0  0  0  0
    1.1864   -1.7743    2.0593 H   0  0  0  0  0  0  0  0  0  0  0  0
    4.3994   -0.2623    2.0560 H   0  0  0  0  0  0  0  0  0  0  0  0
   -0.2758   -0.6486   -2.5686 H   0  0  0  0  0  0  0  0  0  0  0  0
   -1.5281   -1.5980   -1.7358 H   0  0  0  0  0  0  0  0  0  0  0  0
   -1.7775    1.0854   -2.8577 H   0  0  0  0  0  0  0  0  0  0  0  0
   -3.0336    0.1292   -2.0378 H   0  0  0  0  0  0  0  0  0  0  0  0
  1  2  3  0
  2  3  1  0
  3  4  2  0
  4  5  1  0
  5  6  2  3
  6  7  1  0
  7  8  1  0
  8  9  2  0
  8 10  1  0
  5 11  1  0
 11 12  1  0
 12  3  1  0
  4 13  1  0
  6 14  1  0
  7 15  1  0
  7 16  1  0
 10 17  1  0
 11 18  1  0
 11 19  1  0
 12 20  1  0
 12 21  1  0
M  CHG  2   1  -1   2   1
M  END
$$$$
