
     RDKit          3D

 33 35  0  0  0  0  0  0  0  0999 V2000
   -3.4495    1.7842   -1.6056 O   0  0  0  0  0  0  0  0  0  0  0  0
   -3.9156    0.8511   -0.7193 C   0  0  0  0  0  0  0  0  0  0  0  0
   -5.2532    0.9656   -0.3461 C   0  0  0  0  0  0  0  0  0  0  0  0
   -5.7970    0.0700    0.5733 C   0  0  0  0  0  0  0  0  0  0  0  0
   -5.0024   -0.9399    1.1137 C   0  0  0  0  0  0  0  0  0  0  0  0
   -3.6636   -1.0589    0.7304 C   0  0  0  0  0  0  0  0  0  0  0  0
   -3.1042   -0.1640   -0.1930 C   0  0  0  0  0  0  0  0  0  0  0  0
   -1.7103   -0.3382   -0.6207 C   0  0  0  0  0  0  0  0  0  0  0  0
   -0.6832   -0.2170    0.2351 C   0  0  0  0  0  0  0  0  0  0  0  0
    0.7327   -0.3562   -0.1198 C   0  0  0  0  0  0  0  0  0  0  0  0
    1.1828   -1.2051   -1.1236 C   0  0  0  0  0  0  0  0  0  0  0  0
    2.5514   -1.2881   -1.3676 C   0  0  0  0  0  0  0  0  0  0  0  0
    3.4411   -0.5298   -0.5996 C   0  0  0  0  0  0  0  0  0  0  0  0
    4.8340   -0.5730   -0.8022 C   0  0  0  0  0  0  0  0  0  0  0  0
    5.6884    0.1974   -0.0115 C   0  0  0  0  0  0  0  0  0  0  0  0
    5.1598    1.0127    0.9837 C   0  0  0  0  0  0  0  0  0  0  0  0
    3.7815    1.0452    1.1732 C   0  0  0  0  0  0  0  0  0  0  0  0
    3.2849    1.8599    2.1630 O   0  0  0  0  0  0  0  0  0  0  0  0
    2.8976    0.2922    0.4051 C   0  0  0  0  0  0  0  0  0  0  0  0
    1.5717    0.3761    0.6486 N   0  0  0  0  0  0  0  0  0  0  0  0
   -2.4779    1.7625   -1.5830 H   0  0  0  0  0  0  0  0  0  0  0  0
   -5.8671    1.7574   -0.7663 H   0  0  0  0  0  0  0  0  0  0  0  0
   -6.8391    0.1614    0.8682 H   0  0  0  0  0  0  0  0  0  0  0  0
   -5.4261   -1.6397    1.8297 H   0  0  0  0  0  0  0  0  0  0  0  0
   -3.0643   -1.8633    1.1513 H   0  0  0  0  0  0  0  0  0  0  0  0
   -1.5695   -0.5470   -1.6775 H   0  0  0  0  0  0  0  0  0  0  0  0
   -0.8598    0.0398    1.2776 H   0  0  0  0  0  0  0  0  0  0  0  0
    0.4954   -1.8080   -1.7068 H   0  0  0  0  0  0  0  0  0  0  0  0
    2.9156   -1.9475   -2.1512 H   0  0  0  0  0  0  0  0  0  0  0  0
    5.2593   -1.2073   -1.5769 H   0  0  0  0  0  0  0  0  0  0  0  0
    6.7631    0.1612   -0.1713 H   0  0  0  0  0  0  0  0  0  0  0  0
    5.8092    1.6188    1.6084 H   0  0  0  0  0  0  0  0  0  0  0  0
    2.3142    1.7277    2.1138 H   0  0  0  0  0  0  0  0  0  0  0  0
  1  2  1  0
  2  3  2  0
  3  4  1  0
  4  5  2  0
  5  6  1  0
  6  7  2  0
  7  8  1  0
  8  9  2  0
  9 10  1  0
 10 11  2  0
 11 12  1  0
 12 13  2  0
 13 14  1  0
 14 15  2  0
 15 16  1  0
 16 17  2  0
 17 18  1  0
 17 19  1  0
 19 20  2  0
  7  2  1  0
 20 10  1  0
 19 13  1  0
  1 21  1  0
  3 22  1  0
  4 23  1  0
  5 24  1  0
  6 25  1  0
  8 26  1  0
  9 27  1  0
 11 28  1  0
 12 29  1  0
 14 30  1  0
 15 31  1  0
 16 32  1  0
 18 33  1  0
M  END
$$$$
