
     RDKit          3D

 56 58  0  0  0  0  0  0  0  0999 V2000
   -2.3179    1.3180    2.9359 C   0  0  0  0  0  0  0  0  0  0  0  0
   -2.6349    1.2608    1.5519 O   0  0  0  0  0  0  0  0  0  0  0  0
   -1.6415    0.8576    0.6980 C   0  0  0  0  0  0  0  0  0  0  0  0
   -0.3885    0.3760    1.0953 C   0  0  0  0  0  0  0  0  0  0  0  0
    0.5756    0.0000    0.1430 C   0  0  0  0  0  0  0  0  0  0  0  0
    1.8514   -0.5504    0.6222 C   0  0  0  0  0  0  0  0  0  0  0  0
    3.0375   -0.3414    0.0283 C   0  0  0  0  0  0  0  0  0  0  0  0
    4.2562   -0.9711    0.6091 C   0  0  0  0  0  0  0  0  0  0  0  0
    4.2027   -1.7600    1.5445 O   0  0  0  0  0  0  0  0  0  0  0  0
    5.5465   -0.6886   -0.0608 C   0  0  0  0  0  0  0  0  0  0  0  0
    6.0057    0.6348   -0.2456 C   0  0  0  0  0  0  0  0  0  0  0  0
    5.2064    1.6375    0.2388 O   0  0  0  0  0  0  0  0  0  0  0  0
    5.6595    2.9811    0.1027 C   0  0  0  0  0  0  0  0  0  0  0  0
    7.2383    0.8534   -0.8844 C   0  0  0  0  0  0  0  0  0  0  0  0
    8.0170   -0.2191   -1.3274 C   0  0  0  0  0  0  0  0  0  0  0  0
    7.5548   -1.5078   -1.1199 C   0  0  0  0  0  0  0  0  0  0  0  0
    8.3186   -2.5975   -1.5427 O   0  0  0  0  0  0  0  0  0  0  0  0
    7.6316   -3.7540   -1.1695 C   0  0  0  0  0  0  0  0  0  0  0  0
    8.0785   -4.8744   -1.3795 O   0  0  0  0  0  0  0  0  0  0  0  0
    6.0657   -3.4938   -0.4043 S   0  0  0  0  0  0  0  0  0  0  0  0
    6.3386   -1.7564   -0.4871 C   0  0  0  0  0  0  0  0  0  0  0  0
    0.2694    0.0995   -1.2199 C   0  0  0  0  0  0  0  0  0  0  0  0
   -0.9784    0.5699   -1.6272 C   0  0  0  0  0  0  0  0  0  0  0  0
   -1.9327    0.9228   -0.6713 C   0  0  0  0  0  0  0  0  0  0  0  0
   -3.1517    1.3876   -1.1013 O   0  0  0  0  0  0  0  0  0  0  0  0
   -4.0330    0.2958   -1.4144 C   0  0  0  0  0  0  0  0  0  0  0  0
   -5.2312    0.3389   -0.4678 C   0  0  0  0  0  0  0  0  0  0  0  0
   -6.2096   -0.8043   -0.7600 C   0  0  0  0  0  0  0  0  0  0  0  0
   -7.3411   -0.9557    0.1670 N   0  0  0  0  0  0  0  0  0  0  0  0
   -6.9160   -1.3447    1.5103 C   0  0  0  0  0  0  0  0  0  0  0  0
   -8.1964    0.2287    0.2152 C   0  0  0  0  0  0  0  0  0  0  0  0
   -3.1905    1.7168    3.4625 H   0  0  0  0  0  0  0  0  0  0  0  0
   -2.1196    0.3172    3.3343 H   0  0  0  0  0  0  0  0  0  0  0  0
   -1.4768    1.9950    3.1247 H   0  0  0  0  0  0  0  0  0  0  0  0
   -0.1363    0.2869    2.1482 H   0  0  0  0  0  0  0  0  0  0  0  0
    1.7957   -1.1562    1.5269 H   0  0  0  0  0  0  0  0  0  0  0  0
    3.1443    0.2682   -0.8600 H   0  0  0  0  0  0  0  0  0  0  0  0
    5.7328    3.2635   -0.9524 H   0  0  0  0  0  0  0  0  0  0  0  0
    4.9165    3.6325    0.5731 H   0  0  0  0  0  0  0  0  0  0  0  0
    6.6105    3.1354    0.6239 H   0  0  0  0  0  0  0  0  0  0  0  0
    7.6308    1.8540   -1.0401 H   0  0  0  0  0  0  0  0  0  0  0  0
    8.9728   -0.0472   -1.8147 H   0  0  0  0  0  0  0  0  0  0  0  0
    0.9879   -0.2018   -1.9778 H   0  0  0  0  0  0  0  0  0  0  0  0
   -1.2113    0.6556   -2.6842 H   0  0  0  0  0  0  0  0  0  0  0  0
   -4.3661    0.4352   -2.4496 H   0  0  0  0  0  0  0  0  0  0  0  0
   -3.5390   -0.6840   -1.3586 H   0  0  0  0  0  0  0  0  0  0  0  0
   -4.8705    0.2831    0.5631 H   0  0  0  0  0  0  0  0  0  0  0  0
   -5.7259    1.3131   -0.5661 H   0  0  0  0  0  0  0  0  0  0  0  0
   -5.6605   -1.7550   -0.7890 H   0  0  0  0  0  0  0  0  0  0  0  0
   -6.6116   -0.6773   -1.7740 H   0  0  0  0  0  0  0  0  0  0  0  0
   -6.2744   -2.2328    1.4747 H   0  0  0  0  0  0  0  0  0  0  0  0
   -6.3755   -0.5467    2.0326 H   0  0  0  0  0  0  0  0  0  0  0  0
   -7.7872   -1.6145    2.1196 H   0  0  0  0  0  0  0  0  0  0  0  0
   -7.6857    1.1031    0.6353 H   0  0  0  0  0  0  0  0  0  0  0  0
   -9.0820    0.0322    0.8303 H   0  0  0  0  0  0  0  0  0  0  0  0
   -8.5596    0.4808   -0.7867 H   0  0  0  0  0  0  0  0  0  0  0  0
  1  2  1  0
  2  3  1  0
  3  4  2  0
  4  5  1  0
  5  6  1  0
  6  7  2  0
  7  8  1  0
  8  9  2  0
  8 10  1  0
 10 11  2  0
 11 12  1  0
 12 13  1  0
 11 14  1  0
 14 15  2  0
 15 16  1  0
 16 17  1  0
 17 18  1  0
 18 19  2  0
 18 20  1  0
 20 21  1  0
  5 22  2  0
 22 23  1  0
 23 24  2  0
 24 25  1  0
 25 26  1  0
 26 27  1  0
 27 28  1  0
 28 29  1  0
 29 30  1  0
 29 31  1  0
 24  3  1  0
 21 10  1  0
 21 16  2  0
  1 32  1  0
  1 33  1  0
  1 34  1  0
  4 35  1  0
  6 36  1  0
  7 37  1  0
 13 38  1  0
 13 39  1  0
 13 40  1  0
 14 41  1  0
 15 42  1  0
 22 43  1  0
 23 44  1  0
 26 45  1  0
 26 46  1  0
 27 47  1  0
 27 48  1  0
 28 49  1  0
 28 50  1  0
 30 51  1  0
 30 52  1  0
 30 53  1  0
 31 54  1  0
 31 55  1  0
 31 56  1  0
M  END
$$$$
