
     RDKit          3D

 45 46  0  0  0  0  0  0  0  0999 V2000
    6.2591   -0.1180    2.7474 C   0  0  0  0  0  0  0  0  0  0  0  0
    6.3260    0.2769    1.3831 O   0  0  0  0  0  0  0  0  0  0  0  0
    5.2333    0.0167    0.6038 C   0  0  0  0  0  0  0  0  0  0  0  0
    4.0517   -0.5947    1.0268 C   0  0  0  0  0  0  0  0  0  0  0  0
    2.9996   -0.8001    0.1242 C   0  0  0  0  0  0  0  0  0  0  0  0
    3.1176   -0.3836   -1.2084 C   0  0  0  0  0  0  0  0  0  0  0  0
    2.0208   -0.5823   -2.1880 C   0  0  0  0  0  0  0  0  0  0  0  0
    2.2964   -0.7281   -3.3781 O   0  0  0  0  0  0  0  0  0  0  0  0
    0.5978   -0.5935   -1.7666 C   0  0  0  0  0  0  0  0  0  0  0  0
    0.0971    0.2360   -0.8382 C   0  0  0  0  0  0  0  0  0  0  0  0
   -1.3222    0.2574   -0.4527 C   0  0  0  0  0  0  0  0  0  0  0  0
   -1.6466    0.4290    0.9018 C   0  0  0  0  0  0  0  0  0  0  0  0
   -2.9804    0.4744    1.3152 C   0  0  0  0  0  0  0  0  0  0  0  0
   -3.3912    0.6234    2.6147 O   0  0  0  0  0  0  0  0  0  0  0  0
   -2.4158    1.0288    3.5649 C   0  0  0  0  0  0  0  0  0  0  0  0
   -3.9938    0.3356    0.3527 C   0  0  0  0  0  0  0  0  0  0  0  0
   -5.3117    0.4185    0.7472 O   0  0  0  0  0  0  0  0  0  0  0  0
   -5.8124   -0.8859    1.0342 C   0  0  0  0  0  0  0  0  0  0  0  0
   -3.6904    0.2049   -1.0126 C   0  0  0  0  0  0  0  0  0  0  0  0
   -4.7592    0.1132   -1.8664 O   0  0  0  0  0  0  0  0  0  0  0  0
   -4.4918    0.1749   -3.2606 C   0  0  0  0  0  0  0  0  0  0  0  0
   -2.3497    0.1636   -1.4045 C   0  0  0  0  0  0  0  0  0  0  0  0
    4.3204    0.1944   -1.6330 C   0  0  0  0  0  0  0  0  0  0  0  0
    4.5466    0.5763   -2.9292 O   0  0  0  0  0  0  0  0  0  0  0  0
    5.3616    0.4068   -0.7313 C   0  0  0  0  0  0  0  0  0  0  0  0
    5.4560    0.4102    3.2719 H   0  0  0  0  0  0  0  0  0  0  0  0
    6.1447   -1.2031    2.8388 H   0  0  0  0  0  0  0  0  0  0  0  0
    7.2053    0.1584    3.2225 H   0  0  0  0  0  0  0  0  0  0  0  0
    3.9192   -0.9300    2.0506 H   0  0  0  0  0  0  0  0  0  0  0  0
    2.1031   -1.3024    0.4785 H   0  0  0  0  0  0  0  0  0  0  0  0
   -0.0274   -1.2734   -2.3366 H   0  0  0  0  0  0  0  0  0  0  0  0
    0.7319    0.9495   -0.3170 H   0  0  0  0  0  0  0  0  0  0  0  0
   -0.8403    0.5122    1.6235 H   0  0  0  0  0  0  0  0  0  0  0  0
   -1.9172    1.9539    3.2566 H   0  0  0  0  0  0  0  0  0  0  0  0
   -2.9313    1.2273    4.5095 H   0  0  0  0  0  0  0  0  0  0  0  0
   -1.6900    0.2292    3.7445 H   0  0  0  0  0  0  0  0  0  0  0  0
   -5.2578   -1.3555    1.8539 H   0  0  0  0  0  0  0  0  0  0  0  0
   -5.7907   -1.5272    0.1463 H   0  0  0  0  0  0  0  0  0  0  0  0
   -6.8551   -0.7819    1.3491 H   0  0  0  0  0  0  0  0  0  0  0  0
   -3.9384   -0.7094   -3.5927 H   0  0  0  0  0  0  0  0  0  0  0  0
   -3.9620    1.0963   -3.5243 H   0  0  0  0  0  0  0  0  0  0  0  0
   -5.4521    0.1816   -3.7852 H   0  0  0  0  0  0  0  0  0  0  0  0
   -2.0847    0.0674   -2.4524 H   0  0  0  0  0  0  0  0  0  0  0  0
    3.8401    0.1833   -3.4892 H   0  0  0  0  0  0  0  0  0  0  0  0
    6.2839    0.8689   -1.0750 H   0  0  0  0  0  0  0  0  0  0  0  0
  1  2  1  0
  2  3  1  0
  3  4  2  0
  4  5  1  0
  5  6  2  0
  6  7  1  0
  7  8  2  0
  7  9  1  0
  9 10  2  0
 10 11  1  0
 11 12  2  0
 12 13  1  0
 13 14  1  0
 14 15  1  0
 13 16  2  0
 16 17  1  0
 17 18  1  0
 16 19  1  0
 19 20  1  0
 20 21  1  0
 19 22  2  0
  6 23  1  0
 23 24  1  0
 23 25  2  0
 25  3  1  0
 22 11  1  0
  1 26  1  0
  1 27  1  0
  1 28  1  0
  4 29  1  0
  5 30  1  0
  9 31  1  0
 10 32  1  0
 12 33  1  0
 15 34  1  0
 15 35  1  0
 15 36  1  0
 18 37  1  0
 18 38  1  0
 18 39  1  0
 21 40  1  0
 21 41  1  0
 21 42  1  0
 22 43  1  0
 24 44  1  0
 25 45  1  0
M  END
$$$$
