
     RDKit          3D

 42 44  0  0  0  0  0  0  0  0999 V2000
   -6.9478    1.6937   -0.5387 C   0  0  0  0  0  0  0  0  0  0  0  0
   -5.9397    0.9614   -1.2266 O   0  0  0  0  0  0  0  0  0  0  0  0
   -4.7915    0.6906   -0.5333 C   0  0  0  0  0  0  0  0  0  0  0  0
   -4.5279    1.0525    0.7830 C   0  0  0  0  0  0  0  0  0  0  0  0
   -3.3067    0.7089    1.3607 C   0  0  0  0  0  0  0  0  0  0  0  0
   -3.1434    1.0810    2.6722 O   0  0  0  0  0  0  0  0  0  0  0  0
   -2.3185    0.0245    0.6304 C   0  0  0  0  0  0  0  0  0  0  0  0
   -1.0280   -0.2533    1.3147 C   0  0  0  0  0  0  0  0  0  0  0  0
   -1.0349   -0.4573    2.5287 O   0  0  0  0  0  0  0  0  0  0  0  0
    0.2387   -0.1634    0.5425 C   0  0  0  0  0  0  0  0  0  0  0  0
    1.3958   -0.5361    1.1110 C   0  0  0  0  0  0  0  0  0  0  0  0
    2.6934   -0.4805    0.4496 C   0  0  0  0  0  0  0  0  0  0  0  0
    3.8076   -0.4433    1.2236 C   0  0  0  0  0  0  0  0  0  0  0  0
    5.1407   -0.5172    0.5533 C   0  0  2  0  0  0  0  0  0  0  0  0
    6.2544    0.0808    1.2015 O   0  0  0  0  0  0  0  0  0  0  0  0
    7.1691    0.2548    0.0900 C   0  0  0  0  0  0  0  0  0  0  0  0
    6.4617    0.1246   -1.1693 O   0  0  0  0  0  0  0  0  0  0  0  0
    5.1143    0.2678   -0.7457 C   0  0  1  0  0  0  0  0  0  0  0  0
    4.0362   -0.2767   -1.6199 C   0  0  0  0  0  0  0  0  0  0  0  0
    2.8790   -0.6209   -1.0161 C   0  0  0  0  0  0  0  0  0  0  0  0
   -2.5997   -0.3828   -0.6865 C   0  0  0  0  0  0  0  0  0  0  0  0
   -1.6521   -1.1305   -1.3361 O   0  0  0  0  0  0  0  0  0  0  0  0
   -1.9971   -1.6946   -2.5966 C   0  0  0  0  0  0  0  0  0  0  0  0
   -3.8318   -0.0294   -1.2564 C   0  0  0  0  0  0  0  0  0  0  0  0
   -7.7872    1.8330   -1.2267 H   0  0  0  0  0  0  0  0  0  0  0  0
   -6.5866    2.6858   -0.2485 H   0  0  0  0  0  0  0  0  0  0  0  0
   -7.3170    1.1365    0.3287 H   0  0  0  0  0  0  0  0  0  0  0  0
   -5.2464    1.5926    1.3901 H   0  0  0  0  0  0  0  0  0  0  0  0
   -2.3678    0.5920    3.0311 H   0  0  0  0  0  0  0  0  0  0  0  0
    0.1962    0.2302   -0.4649 H   0  0  0  0  0  0  0  0  0  0  0  0
    1.3911   -0.8972    2.1397 H   0  0  0  0  0  0  0  0  0  0  0  0
    3.7746   -0.4145    2.3068 H   0  0  0  0  0  0  0  0  0  0  0  0
    5.3978   -1.5769    0.4026 H   0  0  0  0  0  0  0  0  0  0  0  0
    7.9512   -0.5089    0.1381 H   0  0  0  0  0  0  0  0  0  0  0  0
    7.6198    1.2499    0.1538 H   0  0  0  0  0  0  0  0  0  0  0  0
    4.9414    1.3435   -0.5913 H   0  0  0  0  0  0  0  0  0  0  0  0
    4.1792   -0.3440   -2.6907 H   0  0  0  0  0  0  0  0  0  0  0  0
    2.0471   -1.0030   -1.6013 H   0  0  0  0  0  0  0  0  0  0  0  0
   -1.1577   -2.3157   -2.9237 H   0  0  0  0  0  0  0  0  0  0  0  0
   -2.8775   -2.3406   -2.5156 H   0  0  0  0  0  0  0  0  0  0  0  0
   -2.1439   -0.9125   -3.3484 H   0  0  0  0  0  0  0  0  0  0  0  0
   -4.0862   -0.3047   -2.2758 H   0  0  0  0  0  0  0  0  0  0  0  0
  1  2  1  0
  2  3  1  0
  3  4  2  0
  4  5  1  0
  5  6  1  0
  5  7  2  0
  7  8  1  0
  8  9  2  0
  8 10  1  0
 10 11  2  0
 11 12  1  0
 12 13  2  0
 13 14  1  0
 14 15  1  0
 15 16  1  0
 16 17  1  0
 17 18  1  0
 18 19  1  0
 19 20  2  0
  7 21  1  0
 21 22  1  0
 22 23  1  0
 21 24  2  0
 24  3  1  0
 20 12  1  0
 18 14  1  0
  1 25  1  0
  1 26  1  0
  1 27  1  0
  4 28  1  0
  6 29  1  0
 10 30  1  0
 11 31  1  0
 13 32  1  0
 14 33  1  6
 16 34  1  0
 16 35  1  0
 18 36  1  1
 19 37  1  0
 20 38  1  0
 23 39  1  0
 23 40  1  0
 23 41  1  0
 24 42  1  0
M  END
$$$$
