
     RDKit          3D

 56 58  0  0  0  0  0  0  0  0999 V2000
   -0.4774    3.5733   -0.5465 C   0  0  0  0  0  0  0  0  0  0  0  0
   -1.3513    2.4585   -0.4504 O   0  0  0  0  0  0  0  0  0  0  0  0
   -0.7888    1.2130   -0.3178 C   0  0  0  0  0  0  0  0  0  0  0  0
    0.5886    0.9711   -0.2310 C   0  0  0  0  0  0  0  0  0  0  0  0
    1.0808   -0.3329   -0.0817 C   0  0  0  0  0  0  0  0  0  0  0  0
    2.5344   -0.5419   -0.0171 C   0  0  0  0  0  0  0  0  0  0  0  0
    3.1098   -1.4091    0.8299 C   0  0  0  0  0  0  0  0  0  0  0  0
    4.5710   -1.6591    0.9448 C   0  0  0  0  0  0  0  0  0  0  0  0
    4.9938   -2.5565    1.6665 O   0  0  0  0  0  0  0  0  0  0  0  0
    5.5210   -0.8421    0.1749 C   0  0  0  0  0  0  0  0  0  0  0  0
    5.8349    0.4674    0.5887 C   0  0  0  0  0  0  0  0  0  0  0  0
    5.1685    0.9370    1.6885 O   0  0  0  0  0  0  0  0  0  0  0  0
    5.5975    2.1742    2.2438 C   0  0  0  0  0  0  0  0  0  0  0  0
    6.7789    1.2080   -0.1417 C   0  0  0  0  0  0  0  0  0  0  0  0
    7.4110    0.6535   -1.2593 C   0  0  0  0  0  0  0  0  0  0  0  0
    7.0860   -0.6403   -1.6383 C   0  0  0  0  0  0  0  0  0  0  0  0
    7.6962   -1.2186   -2.7488 O   0  0  0  0  0  0  0  0  0  0  0  0
    7.1724   -2.5006   -2.8906 C   0  0  0  0  0  0  0  0  0  0  0  0
    7.5196   -3.2563   -3.7877 O   0  0  0  0  0  0  0  0  0  0  0  0
    5.9601   -2.9655   -1.6947 S   0  0  0  0  0  0  0  0  0  0  0  0
    6.1520   -1.3923   -0.9358 C   0  0  0  0  0  0  0  0  0  0  0  0
    0.1778   -1.3991   -0.0496 C   0  0  0  0  0  0  0  0  0  0  0  0
   -1.1985   -1.1687   -0.1351 C   0  0  0  0  0  0  0  0  0  0  0  0
   -1.6910    0.1328   -0.2607 C   0  0  0  0  0  0  0  0  0  0  0  0
   -3.0228    0.4519   -0.3542 O   0  0  0  0  0  0  0  0  0  0  0  0
   -3.9721   -0.5804   -0.0942 C   0  0  0  0  0  0  0  0  0  0  0  0
   -5.3653    0.0457   -0.1120 C   0  0  0  0  0  0  0  0  0  0  0  0
   -6.4399   -0.9957    0.2131 C   0  0  0  0  0  0  0  0  0  0  0  0
   -7.8128   -0.4847    0.0621 N   0  0  0  0  0  0  0  0  0  0  0  0
   -8.7738   -1.5842    0.1867 C   0  0  0  0  0  0  0  0  0  0  0  0
   -8.1282    0.5585    1.0405 C   0  0  0  0  0  0  0  0  0  0  0  0
    0.1122    3.6930    0.3680 H   0  0  0  0  0  0  0  0  0  0  0  0
    0.1686    3.4962   -1.4278 H   0  0  0  0  0  0  0  0  0  0  0  0
   -1.0920    4.4709   -0.6635 H   0  0  0  0  0  0  0  0  0  0  0  0
    1.2993    1.7901   -0.2640 H   0  0  0  0  0  0  0  0  0  0  0  0
    3.1200    0.0761   -0.6910 H   0  0  0  0  0  0  0  0  0  0  0  0
    2.5205   -2.0125    1.5147 H   0  0  0  0  0  0  0  0  0  0  0  0
    6.6567    2.1405    2.5192 H   0  0  0  0  0  0  0  0  0  0  0  0
    5.3924    3.0023    1.5580 H   0  0  0  0  0  0  0  0  0  0  0  0
    5.0204    2.3481    3.1567 H   0  0  0  0  0  0  0  0  0  0  0  0
    7.0457    2.2237    0.1360 H   0  0  0  0  0  0  0  0  0  0  0  0
    8.1441    1.2268   -1.8203 H   0  0  0  0  0  0  0  0  0  0  0  0
    0.5315   -2.4249    0.0309 H   0  0  0  0  0  0  0  0  0  0  0  0
   -1.8574   -2.0295   -0.1119 H   0  0  0  0  0  0  0  0  0  0  0  0
   -3.9086   -1.3500   -0.8725 H   0  0  0  0  0  0  0  0  0  0  0  0
   -3.7858   -1.0259    0.8906 H   0  0  0  0  0  0  0  0  0  0  0  0
   -5.5479    0.4927   -1.0974 H   0  0  0  0  0  0  0  0  0  0  0  0
   -5.3853    0.8729    0.6072 H   0  0  0  0  0  0  0  0  0  0  0  0
   -6.3029   -1.8377   -0.4784 H   0  0  0  0  0  0  0  0  0  0  0  0
   -6.2822   -1.3887    1.2265 H   0  0  0  0  0  0  0  0  0  0  0  0
   -9.7959   -1.2238    0.0251 H   0  0  0  0  0  0  0  0  0  0  0  0
   -8.5893   -2.3466   -0.5783 H   0  0  0  0  0  0  0  0  0  0  0  0
   -8.7276   -2.0635    1.1713 H   0  0  0  0  0  0  0  0  0  0  0  0
   -9.1673    0.8889    0.9288 H   0  0  0  0  0  0  0  0  0  0  0  0
   -7.5134    1.4499    0.8831 H   0  0  0  0  0  0  0  0  0  0  0  0
   -7.9880    0.2140    2.0714 H   0  0  0  0  0  0  0  0  0  0  0  0
  1  2  1  0
  2  3  1  0
  3  4  2  0
  4  5  1  0
  5  6  1  0
  6  7  2  0
  7  8  1  0
  8  9  2  0
  8 10  1  0
 10 11  2  0
 11 12  1  0
 12 13  1  0
 11 14  1  0
 14 15  2  0
 15 16  1  0
 16 17  1  0
 17 18  1  0
 18 19  2  0
 18 20  1  0
 20 21  1  0
  5 22  2  0
 22 23  1  0
 23 24  2  0
 24 25  1  0
 25 26  1  0
 26 27  1  0
 27 28  1  0
 28 29  1  0
 29 30  1  0
 29 31  1  0
 24  3  1  0
 21 10  1  0
 21 16  2  0
  1 32  1  0
  1 33  1  0
  1 34  1  0
  4 35  1  0
  6 36  1  0
  7 37  1  0
 13 38  1  0
 13 39  1  0
 13 40  1  0
 14 41  1  0
 15 42  1  0
 22 43  1  0
 23 44  1  0
 26 45  1  0
 26 46  1  0
 27 47  1  0
 27 48  1  0
 28 49  1  0
 28 50  1  0
 30 51  1  0
 30 52  1  0
 30 53  1  0
 31 54  1  0
 31 55  1  0
 31 56  1  0
M  END
$$$$
