
     RDKit          3D

 57 59  0  0  0  0  0  0  0  0999 V2000
   -5.3409    2.7231    1.6269 C   0  0  0  0  0  0  0  0  0  0  0  0
   -4.3520    1.9071    0.8033 C   0  0  0  0  0  0  0  0  0  0  0  0
   -3.1095    1.6021    1.5311 N   0  0  0  0  0  0  0  0  0  0  0  0
   -3.3252    0.6068    2.5911 C   0  0  0  0  0  0  0  0  0  0  0  0
   -2.0929    0.3417    3.4481 C   0  0  0  0  0  0  0  0  0  0  0  0
   -2.0234    1.2521    0.5959 C   0  0  0  0  0  0  0  0  0  0  0  0
   -2.1936   -0.0323   -0.2333 C   0  0  0  0  0  0  0  0  0  0  0  0
   -1.0413   -0.1808   -1.0702 O   0  0  0  0  0  0  0  0  0  0  0  0
   -1.0010   -1.2528   -1.9249 C   0  0  0  0  0  0  0  0  0  0  0  0
   -1.9209   -2.2428   -2.0235 C   0  0  0  0  0  0  0  0  0  0  0  0
   -1.7253   -3.2958   -3.0821 C   0  0  2  0  0  0  0  0  0  0  0  0
   -2.3901   -4.5246   -2.8262 O   0  0  0  0  0  0  0  0  0  0  0  0
   -1.8214   -5.4441   -3.6832 C   0  0  0  0  0  0  0  0  0  0  0  0
   -2.2834   -6.5568   -3.8797 O   0  0  0  0  0  0  0  0  0  0  0  0
   -0.3047   -4.8987   -4.4429 S   0  0  0  0  0  0  0  0  0  0  0  0
   -0.2329   -3.6194   -3.2040 C   0  0  1  0  0  0  0  0  0  0  0  0
    0.5505   -2.3837   -3.4739 C   0  0  0  0  0  0  0  0  0  0  0  0
    0.1719   -1.2612   -2.8195 C   0  0  0  0  0  0  0  0  0  0  0  0
    0.9663   -0.0347   -3.0958 C   0  0  0  0  0  0  0  0  0  0  0  0
    0.8489    0.5629   -4.1657 O   0  0  0  0  0  0  0  0  0  0  0  0
    1.9601    0.4328   -2.0921 C   0  0  0  0  0  0  0  0  0  0  0  0
    2.1988   -0.1344   -0.8993 C   0  0  0  0  0  0  0  0  0  0  0  0
    3.2240    0.3516    0.0396 C   0  0  0  0  0  0  0  0  0  0  0  0
    3.9188   -0.5791    0.8203 C   0  0  0  0  0  0  0  0  0  0  0  0
    4.8973   -0.1573    1.7252 C   0  0  0  0  0  0  0  0  0  0  0  0
    5.1904    1.1983    1.8781 C   0  0  0  0  0  0  0  0  0  0  0  0
    6.1720    1.4715    2.7869 O   0  0  0  0  0  0  0  0  0  0  0  0
    6.5873    2.8285    2.8966 C   0  0  0  0  0  0  0  0  0  0  0  0
    4.4816    2.1342    1.1269 C   0  0  0  0  0  0  0  0  0  0  0  0
    3.5013    1.7128    0.2179 C   0  0  0  0  0  0  0  0  0  0  0  0
   -6.1740    3.0393    0.9918 H   0  0  0  0  0  0  0  0  0  0  0  0
   -4.8737    3.6270    2.0327 H   0  0  0  0  0  0  0  0  0  0  0  0
   -5.7634    2.1470    2.4532 H   0  0  0  0  0  0  0  0  0  0  0  0
   -4.8386    0.9917    0.4450 H   0  0  0  0  0  0  0  0  0  0  0  0
   -4.1148    2.5083   -0.0831 H   0  0  0  0  0  0  0  0  0  0  0  0
   -4.0974    0.9690    3.2763 H   0  0  0  0  0  0  0  0  0  0  0  0
   -3.6921   -0.3402    2.1787 H   0  0  0  0  0  0  0  0  0  0  0  0
   -1.3090   -0.1832    2.8923 H   0  0  0  0  0  0  0  0  0  0  0  0
   -1.6778    1.2744    3.8458 H   0  0  0  0  0  0  0  0  0  0  0  0
   -2.3641   -0.2905    4.2968 H   0  0  0  0  0  0  0  0  0  0  0  0
   -1.0688    1.2043    1.1341 H   0  0  0  0  0  0  0  0  0  0  0  0
   -1.8682    2.0922   -0.0956 H   0  0  0  0  0  0  0  0  0  0  0  0
   -2.2747   -0.9016    0.4296 H   0  0  0  0  0  0  0  0  0  0  0  0
   -3.0885    0.0450   -0.8606 H   0  0  0  0  0  0  0  0  0  0  0  0
   -2.8219   -2.2841   -1.4226 H   0  0  0  0  0  0  0  0  0  0  0  0
   -2.1558   -2.8772   -4.0080 H   0  0  0  0  0  0  0  0  0  0  0  0
    0.1532   -4.0923   -2.2905 H   0  0  0  0  0  0  0  0  0  0  0  0
    1.4122   -2.4023   -4.1377 H   0  0  0  0  0  0  0  0  0  0  0  0
    2.5196    1.3011   -2.4301 H   0  0  0  0  0  0  0  0  0  0  0  0
    1.6564   -1.0175   -0.5726 H   0  0  0  0  0  0  0  0  0  0  0  0
    3.7205   -1.6440    0.7238 H   0  0  0  0  0  0  0  0  0  0  0  0
    5.4442   -0.8946    2.3098 H   0  0  0  0  0  0  0  0  0  0  0  0
    6.9566    3.2065    1.9368 H   0  0  0  0  0  0  0  0  0  0  0  0
    7.4156    2.8684    3.6115 H   0  0  0  0  0  0  0  0  0  0  0  0
    5.7777    3.4576    3.2882 H   0  0  0  0  0  0  0  0  0  0  0  0
    4.6603    3.2003    1.2239 H   0  0  0  0  0  0  0  0  0  0  0  0
    2.9557    2.4687   -0.3414 H   0  0  0  0  0  0  0  0  0  0  0  0
  1  2  1  0
  2  3  1  0
  3  4  1  0
  4  5  1  0
  3  6  1  0
  6  7  1  0
  7  8  1  0
  8  9  1  0
  9 10  2  0
 10 11  1  0
 11 12  1  0
 12 13  1  0
 13 14  2  0
 13 15  1  0
 15 16  1  0
 16 17  1  0
 17 18  2  0
 18 19  1  0
 19 20  2  0
 19 21  1  0
 21 22  2  0
 22 23  1  0
 23 24  2  0
 24 25  1  0
 25 26  2  0
 26 27  1  0
 27 28  1  0
 26 29  1  0
 29 30  2  0
 18  9  1  0
 30 23  1  0
 16 11  1  0
  1 31  1  0
  1 32  1  0
  1 33  1  0
  2 34  1  0
  2 35  1  0
  4 36  1  0
  4 37  1  0
  5 38  1  0
  5 39  1  0
  5 40  1  0
  6 41  1  0
  6 42  1  0
  7 43  1  0
  7 44  1  0
 10 45  1  0
 11 46  1  6
 16 47  1  1
 17 48  1  0
 21 49  1  0
 22 50  1  0
 24 51  1  0
 25 52  1  0
 28 53  1  0
 28 54  1  0
 28 55  1  0
 29 56  1  0
 30 57  1  0
M  END
$$$$
