
     RDKit          3D

 43 45  0  0  0  0  0  0  0  0999 V2000
   -0.0783    3.7250    1.4740 C   0  0  0  0  0  0  0  0  0  0  0  0
   -1.3448    2.9707    1.1957 C   0  0  0  0  0  0  0  0  0  0  0  0
   -1.9820    2.3618    2.0454 O   0  0  0  0  0  0  0  0  0  0  0  0
   -1.6609    3.1154   -0.1501 O   0  0  0  0  0  0  0  0  0  0  0  0
   -2.7703    2.3580   -0.5436 C   0  0  0  0  0  0  0  0  0  0  0  0
   -3.9756    3.0314   -0.7460 C   0  0  0  0  0  0  0  0  0  0  0  0
   -5.0908    2.3186   -1.1843 C   0  0  0  0  0  0  0  0  0  0  0  0
   -4.9915    0.9480   -1.4324 C   0  0  0  0  0  0  0  0  0  0  0  0
   -3.7745    0.2844   -1.2496 C   0  0  0  0  0  0  0  0  0  0  0  0
   -2.6477    0.9854   -0.8072 C   0  0  0  0  0  0  0  0  0  0  0  0
   -1.3760    0.2812   -0.6397 C   0  0  0  0  0  0  0  0  0  0  0  0
   -0.5172    0.1128   -1.6575 C   0  0  0  0  0  0  0  0  0  0  0  0
    0.7847   -0.5515   -1.5098 C   0  0  0  0  0  0  0  0  0  0  0  0
    1.5640   -0.8237   -2.6243 C   0  0  0  0  0  0  0  0  0  0  0  0
    2.7962   -1.4446   -2.4396 C   0  0  0  0  0  0  0  0  0  0  0  0
    3.2231   -1.7811   -1.1493 C   0  0  0  0  0  0  0  0  0  0  0  0
    4.4674   -2.4014   -0.9209 C   0  0  0  0  0  0  0  0  0  0  0  0
    4.8799   -2.7165    0.3744 C   0  0  0  0  0  0  0  0  0  0  0  0
    4.0507   -2.4234    1.4506 C   0  0  0  0  0  0  0  0  0  0  0  0
    2.8119   -1.8253    1.2083 C   0  0  0  0  0  0  0  0  0  0  0  0
    2.0164   -1.5018    2.3184 O   0  0  0  0  0  0  0  0  0  0  0  0
    0.9477   -2.3763    2.4633 C   0  0  0  0  0  0  0  0  0  0  0  0
   -0.0126   -1.7992    3.4605 C   0  0  0  0  0  0  0  0  0  0  0  0
    0.8094   -3.4671    1.9241 O   0  0  0  0  0  0  0  0  0  0  0  0
    2.3698   -1.4739   -0.0710 C   0  0  0  0  0  0  0  0  0  0  0  0
    1.1801   -0.8591   -0.2539 N   0  0  0  0  0  0  0  0  0  0  0  0
    0.2568    3.5076    2.4930 H   0  0  0  0  0  0  0  0  0  0  0  0
    0.7046    3.4047    0.7807 H   0  0  0  0  0  0  0  0  0  0  0  0
   -0.2605    4.7990    1.3789 H   0  0  0  0  0  0  0  0  0  0  0  0
   -4.0470    4.1001   -0.5639 H   0  0  0  0  0  0  0  0  0  0  0  0
   -6.0376    2.8305   -1.3353 H   0  0  0  0  0  0  0  0  0  0  0  0
   -5.8627    0.3941   -1.7736 H   0  0  0  0  0  0  0  0  0  0  0  0
   -3.7122   -0.7836   -1.4497 H   0  0  0  0  0  0  0  0  0  0  0  0
   -1.1613   -0.0780    0.3642 H   0  0  0  0  0  0  0  0  0  0  0  0
   -0.7647    0.4826   -2.6485 H   0  0  0  0  0  0  0  0  0  0  0  0
    1.2304   -0.5630   -3.6230 H   0  0  0  0  0  0  0  0  0  0  0  0
    3.4178   -1.6614   -3.3050 H   0  0  0  0  0  0  0  0  0  0  0  0
    5.1254   -2.6373   -1.7552 H   0  0  0  0  0  0  0  0  0  0  0  0
    5.8440   -3.1903    0.5405 H   0  0  0  0  0  0  0  0  0  0  0  0
    4.3572   -2.6592    2.4649 H   0  0  0  0  0  0  0  0  0  0  0  0
    0.4567   -1.7597    4.4465 H   0  0  0  0  0  0  0  0  0  0  0  0
   -0.3246   -0.8005    3.1416 H   0  0  0  0  0  0  0  0  0  0  0  0
   -0.9012   -2.4335    3.5158 H   0  0  0  0  0  0  0  0  0  0  0  0
  1  2  1  0
  2  3  2  0
  2  4  1  0
  4  5  1  0
  5  6  2  0
  6  7  1  0
  7  8  2  0
  8  9  1  0
  9 10  2  0
 10 11  1  0
 11 12  2  0
 12 13  1  0
 13 14  2  0
 14 15  1  0
 15 16  2  0
 16 17  1  0
 17 18  2  0
 18 19  1  0
 19 20  2  0
 20 21  1  0
 21 22  1  0
 22 23  1  0
 22 24  2  0
 20 25  1  0
 25 26  2  0
 10  5  1  0
 26 13  1  0
 25 16  1  0
  1 27  1  0
  1 28  1  0
  1 29  1  0
  6 30  1  0
  7 31  1  0
  8 32  1  0
  9 33  1  0
 11 34  1  0
 12 35  1  0
 14 36  1  0
 15 37  1  0
 17 38  1  0
 18 39  1  0
 19 40  1  0
 23 41  1  0
 23 42  1  0
 23 43  1  0
M  END
$$$$
