
     RDKit          3D

 21 21  0  0  0  0  0  0  0  0999 V2000
   -3.6818    3.0293    0.1875 C   0  0  0  0  0  3  0  0  0  0  0  0
   -2.9179    2.2128   -0.1589 N   0  0  0  0  0  4  0  0  0  0  0  0
   -1.9711    1.1953   -0.5954 C   0  0  0  0  0  0  0  0  0  0  0  0
   -0.7690    1.0137   -0.0441 C   0  0  0  0  0  0  0  0  0  0  0  0
   -0.0743   -0.0657   -0.6965 C   0  0  0  0  0  0  0  0  0  0  0  0
    1.1459   -0.5484   -0.4204 C   0  0  0  0  0  0  0  0  0  0  0  0
    2.0941   -0.0838    0.6513 C   0  0  0  0  0  0  0  0  0  0  0  0
    2.3991   -1.1955    1.6354 C   0  0  0  0  0  0  0  0  0  0  0  0
    2.1401   -2.3829    1.5311 O   0  0  0  0  0  0  0  0  0  0  0  0
    3.0706   -0.7408    2.7148 O   0  0  0  0  0  0  0  0  0  0  0  0
   -0.9772   -0.5987   -1.7861 C   0  0  0  0  0  0  0  0  0  0  0  0
   -2.2534    0.2479   -1.7093 C   0  0  0  0  0  0  0  0  0  0  0  0
   -0.3813    1.5989    0.7764 H   0  0  0  0  0  0  0  0  0  0  0  0
    1.5119   -1.3824   -1.0206 H   0  0  0  0  0  0  0  0  0  0  0  0
    3.0355    0.2248    0.1845 H   0  0  0  0  0  0  0  0  0  0  0  0
    1.6893    0.7646    1.2103 H   0  0  0  0  0  0  0  0  0  0  0  0
    3.2137   -1.5443    3.2583 H   0  0  0  0  0  0  0  0  0  0  0  0
   -1.2089   -1.6574   -1.6227 H   0  0  0  0  0  0  0  0  0  0  0  0
   -0.5073   -0.4944   -2.7708 H   0  0  0  0  0  0  0  0  0  0  0  0
   -3.1273   -0.3739   -1.4891 H   0  0  0  0  0  0  0  0  0  0  0  0
   -2.4308    0.7810   -2.6491 H   0  0  0  0  0  0  0  0  0  0  0  0
  1  2  3  0
  2  3  1  0
  3  4  2  0
  4  5  1  0
  5  6  2  3
  6  7  1  0
  7  8  1  0
  8  9  2  0
  8 10  1  0
  5 11  1  0
 11 12  1  0
 12  3  1  0
  4 13  1  0
  6 14  1  0
  7 15  1  0
  7 16  1  0
 10 17  1  0
 11 18  1  0
 11 19  1  0
 12 20  1  0
 12 21  1  0
M  CHG  2   1  -1   2   1
M  END
$$$$
