
     RDKit          3D

 33 35  0  0  0  0  0  0  0  0999 V2000
    5.3434    1.1096   -2.2289 O   0  0  0  0  0  0  0  0  0  0  0  0
    4.8534    0.4189   -1.1595 C   0  0  0  0  0  0  0  0  0  0  0  0
    5.7530   -0.3226   -0.4038 C   0  0  0  0  0  0  0  0  0  0  0  0
    5.2979   -1.0337    0.7041 C   0  0  0  0  0  0  0  0  0  0  0  0
    3.9432   -1.0017    1.0453 C   0  0  0  0  0  0  0  0  0  0  0  0
    3.0301   -0.2680    0.2747 C   0  0  0  0  0  0  0  0  0  0  0  0
    1.6188   -0.2372    0.6854 C   0  0  0  0  0  0  0  0  0  0  0  0
    0.5948   -0.2899   -0.1826 C   0  0  0  0  0  0  0  0  0  0  0  0
   -0.8281   -0.2501    0.1739 C   0  0  0  0  0  0  0  0  0  0  0  0
   -1.3253   -0.7315    1.3789 C   0  0  0  0  0  0  0  0  0  0  0  0
   -2.6975   -0.6735    1.6100 C   0  0  0  0  0  0  0  0  0  0  0  0
   -3.5452   -0.1452    0.6311 C   0  0  0  0  0  0  0  0  0  0  0  0
   -4.9394   -0.0605    0.8101 C   0  0  0  0  0  0  0  0  0  0  0  0
   -5.7511    0.4707   -0.1939 C   0  0  0  0  0  0  0  0  0  0  0  0
   -5.1782    0.9188   -1.3794 C   0  0  0  0  0  0  0  0  0  0  0  0
   -3.7991    0.8285   -1.5428 C   0  0  0  0  0  0  0  0  0  0  0  0
   -3.2574    1.2786   -2.7235 O   0  0  0  0  0  0  0  0  0  0  0  0
   -2.9570    0.3057   -0.5651 C   0  0  0  0  0  0  0  0  0  0  0  0
   -1.6275    0.2505   -0.7974 N   0  0  0  0  0  0  0  0  0  0  0  0
    3.4999    0.4572   -0.8293 C   0  0  0  0  0  0  0  0  0  0  0  0
    4.6097    1.5804   -2.6573 H   0  0  0  0  0  0  0  0  0  0  0  0
    6.8047   -0.3419   -0.6747 H   0  0  0  0  0  0  0  0  0  0  0  0
    5.9972   -1.6117    1.3022 H   0  0  0  0  0  0  0  0  0  0  0  0
    3.6065   -1.5634    1.9138 H   0  0  0  0  0  0  0  0  0  0  0  0
    1.4501   -0.1711    1.7568 H   0  0  0  0  0  0  0  0  0  0  0  0
    0.7758   -0.3504   -1.2529 H   0  0  0  0  0  0  0  0  0  0  0  0
   -0.6722   -1.1588    2.1316 H   0  0  0  0  0  0  0  0  0  0  0  0
   -3.0972   -1.0454    2.5499 H   0  0  0  0  0  0  0  0  0  0  0  0
   -5.3990   -0.4085    1.7327 H   0  0  0  0  0  0  0  0  0  0  0  0
   -6.8269    0.5343   -0.0513 H   0  0  0  0  0  0  0  0  0  0  0  0
   -5.7937    1.3347   -2.1714 H   0  0  0  0  0  0  0  0  0  0  0  0
   -2.2954    1.1206   -2.6156 H   0  0  0  0  0  0  0  0  0  0  0  0
    2.8118    1.0564   -1.4178 H   0  0  0  0  0  0  0  0  0  0  0  0
  1  2  1  0
  2  3  2  0
  3  4  1  0
  4  5  2  0
  5  6  1  0
  6  7  1  0
  7  8  2  0
  8  9  1  0
  9 10  2  0
 10 11  1  0
 11 12  2  0
 12 13  1  0
 13 14  2  0
 14 15  1  0
 15 16  2  0
 16 17  1  0
 16 18  1  0
 18 19  2  0
  6 20  2  0
 20  2  1  0
 19  9  1  0
 18 12  1  0
  1 21  1  0
  3 22  1  0
  4 23  1  0
  5 24  1  0
  7 25  1  0
  8 26  1  0
 10 27  1  0
 11 28  1  0
 13 29  1  0
 14 30  1  0
 15 31  1  0
 17 32  1  0
 20 33  1  0
M  END
$$$$
