
     RDKit          3D

 33 35  0  0  0  0  0  0  0  0999 V2000
   -3.0779    2.3298    0.7422 O   0  0  0  0  0  0  0  0  0  0  0  0
   -3.7036    1.1795    0.3423 C   0  0  0  0  0  0  0  0  0  0  0  0
   -5.0959    1.1799    0.4041 C   0  0  0  0  0  0  0  0  0  0  0  0
   -5.8093    0.0430    0.0270 C   0  0  0  0  0  0  0  0  0  0  0  0
   -5.1283   -1.0912   -0.4129 C   0  0  0  0  0  0  0  0  0  0  0  0
   -3.7322   -1.0891   -0.4762 C   0  0  0  0  0  0  0  0  0  0  0  0
   -3.0031    0.0469   -0.0968 C   0  0  0  0  0  0  0  0  0  0  0  0
   -1.5396    0.0352   -0.1889 C   0  0  0  0  0  0  0  0  0  0  0  0
   -0.7787   -0.7750    0.5646 C   0  0  0  0  0  0  0  0  0  0  0  0
    0.6901   -0.7761    0.5190 C   0  0  0  0  0  0  0  0  0  0  0  0
    1.4109   -1.7064    1.2505 C   0  0  0  0  0  0  0  0  0  0  0  0
    2.7995   -1.6678    1.1872 C   0  0  0  0  0  0  0  0  0  0  0  0
    3.4370   -0.7019    0.3998 C   0  0  0  0  0  0  0  0  0  0  0  0
    4.8401   -0.6430    0.3199 C   0  0  0  0  0  0  0  0  0  0  0  0
    5.4653    0.3228   -0.4652 C   0  0  0  0  0  0  0  0  0  0  0  0
    4.6947    1.2362   -1.1749 C   0  0  0  0  0  0  0  0  0  0  0  0
    3.2997    1.1739   -1.0924 C   0  0  0  0  0  0  0  0  0  0  0  0
    2.5533    2.0882   -1.8008 O   0  0  0  0  0  0  0  0  0  0  0  0
    2.6356    0.2148   -0.3133 C   0  0  0  0  0  0  0  0  0  0  0  0
    1.2852    0.1671   -0.2446 N   0  0  0  0  0  0  0  0  0  0  0  0
   -2.1167    2.1808    0.7135 H   0  0  0  0  0  0  0  0  0  0  0  0
   -5.6215    2.0664    0.7476 H   0  0  0  0  0  0  0  0  0  0  0  0
   -6.8949    0.0438    0.0745 H   0  0  0  0  0  0  0  0  0  0  0  0
   -5.6835   -1.9763   -0.7126 H   0  0  0  0  0  0  0  0  0  0  0  0
   -3.2170   -1.9772   -0.8351 H   0  0  0  0  0  0  0  0  0  0  0  0
   -1.0975    0.7404   -0.8905 H   0  0  0  0  0  0  0  0  0  0  0  0
   -1.2406   -1.4669    1.2627 H   0  0  0  0  0  0  0  0  0  0  0  0
    0.9141   -2.4529    1.8603 H   0  0  0  0  0  0  0  0  0  0  0  0
    3.3771   -2.3931    1.7545 H   0  0  0  0  0  0  0  0  0  0  0  0
    5.4537   -1.3522    0.8716 H   0  0  0  0  0  0  0  0  0  0  0  0
    6.5503    0.3615   -0.5212 H   0  0  0  0  0  0  0  0  0  0  0  0
    5.1882    1.9873   -1.7839 H   0  0  0  0  0  0  0  0  0  0  0  0
    3.1454    2.6714   -2.2990 H   0  0  0  0  0  0  0  0  0  0  0  0
  1  2  1  0
  2  3  2  0
  3  4  1  0
  4  5  2  0
  5  6  1  0
  6  7  2  0
  7  8  1  0
  8  9  2  0
  9 10  1  0
 10 11  2  0
 11 12  1  0
 12 13  2  0
 13 14  1  0
 14 15  2  0
 15 16  1  0
 16 17  2  0
 17 18  1  0
 17 19  1  0
 19 20  2  0
  7  2  1  0
 20 10  1  0
 19 13  1  0
  1 21  1  0
  3 22  1  0
  4 23  1  0
  5 24  1  0
  6 25  1  0
  8 26  1  0
  9 27  1  0
 11 28  1  0
 12 29  1  0
 14 30  1  0
 15 31  1  0
 16 32  1  0
 18 33  1  0
M  END
$$$$
