
     RDKit          3D

 45 46  0  0  0  0  0  0  0  0999 V2000
    7.1919   -0.8683    1.7553 C   0  0  0  0  0  0  0  0  0  0  0  0
    5.9501   -0.2546    2.0815 O   0  0  0  0  0  0  0  0  0  0  0  0
    5.0686   -0.0634    1.0538 C   0  0  0  0  0  0  0  0  0  0  0  0
    3.8684    0.5511    1.4234 C   0  0  0  0  0  0  0  0  0  0  0  0
    2.8705    0.8041    0.4768 C   0  0  0  0  0  0  0  0  0  0  0  0
    3.0616    0.4276   -0.8574 C   0  0  0  0  0  0  0  0  0  0  0  0
    2.0267    0.6698   -1.8931 C   0  0  0  0  0  0  0  0  0  0  0  0
    2.3743    0.8339   -3.0620 O   0  0  0  0  0  0  0  0  0  0  0  0
    0.5819    0.7018   -1.5554 C   0  0  0  0  0  0  0  0  0  0  0  0
    0.0110   -0.1344   -0.6748 C   0  0  0  0  0  0  0  0  0  0  0  0
   -1.4285   -0.1316   -0.3734 C   0  0  0  0  0  0  0  0  0  0  0  0
   -1.8350   -0.3054    0.9585 C   0  0  0  0  0  0  0  0  0  0  0  0
   -3.1913   -0.3289    1.2925 C   0  0  0  0  0  0  0  0  0  0  0  0
   -3.6819   -0.4800    2.5638 O   0  0  0  0  0  0  0  0  0  0  0  0
   -2.7639   -0.8619    3.5786 C   0  0  0  0  0  0  0  0  0  0  0  0
   -4.1435   -0.1676    0.2724 C   0  0  0  0  0  0  0  0  0  0  0  0
   -5.4838   -0.2298    0.5869 O   0  0  0  0  0  0  0  0  0  0  0  0
   -5.9769    1.0807    0.8589 C   0  0  0  0  0  0  0  0  0  0  0  0
   -3.7577   -0.0330   -1.0717 C   0  0  0  0  0  0  0  0  0  0  0  0
   -4.7726    0.0831   -1.9863 O   0  0  0  0  0  0  0  0  0  0  0  0
   -4.4238    0.0336   -3.3628 C   0  0  0  0  0  0  0  0  0  0  0  0
   -2.3958   -0.0127   -1.3836 C   0  0  0  0  0  0  0  0  0  0  0  0
    4.2825   -0.1538   -1.2285 C   0  0  0  0  0  0  0  0  0  0  0  0
    4.5791   -0.4980   -2.5225 O   0  0  0  0  0  0  0  0  0  0  0  0
    5.2746   -0.4122   -0.2802 C   0  0  0  0  0  0  0  0  0  0  0  0
    7.7636   -0.2528    1.0529 H   0  0  0  0  0  0  0  0  0  0  0  0
    7.0414   -1.8802    1.3645 H   0  0  0  0  0  0  0  0  0  0  0  0
    7.7757   -0.9509    2.6771 H   0  0  0  0  0  0  0  0  0  0  0  0
    3.7141    0.8417    2.4607 H   0  0  0  0  0  0  0  0  0  0  0  0
    1.9637    1.3078    0.7999 H   0  0  0  0  0  0  0  0  0  0  0  0
    0.0042    1.4054   -2.1464 H   0  0  0  0  0  0  0  0  0  0  0  0
    0.5988   -0.8705   -0.1304 H   0  0  0  0  0  0  0  0  0  0  0  0
   -1.0737   -0.4088    1.7252 H   0  0  0  0  0  0  0  0  0  0  0  0
   -2.0523   -0.0562    3.7855 H   0  0  0  0  0  0  0  0  0  0  0  0
   -3.3344   -1.0441    4.4944 H   0  0  0  0  0  0  0  0  0  0  0  0
   -2.2456   -1.7910    3.3188 H   0  0  0  0  0  0  0  0  0  0  0  0
   -7.0388    0.9934    1.1076 H   0  0  0  0  0  0  0  0  0  0  0  0
   -5.8883    1.7316   -0.0177 H   0  0  0  0  0  0  0  0  0  0  0  0
   -5.4655    1.5301    1.7173 H   0  0  0  0  0  0  0  0  0  0  0  0
   -5.3511    0.0496   -3.9435 H   0  0  0  0  0  0  0  0  0  0  0  0
   -3.8370    0.9122   -3.6500 H   0  0  0  0  0  0  0  0  0  0  0  0
   -3.8945   -0.8936   -3.6065 H   0  0  0  0  0  0  0  0  0  0  0  0
   -2.0671    0.0858   -2.4130 H   0  0  0  0  0  0  0  0  0  0  0  0
    3.9049   -0.0843   -3.1078 H   0  0  0  0  0  0  0  0  0  0  0  0
    6.1951   -0.8752   -0.6194 H   0  0  0  0  0  0  0  0  0  0  0  0
  1  2  1  0
  2  3  1  0
  3  4  2  0
  4  5  1  0
  5  6  2  0
  6  7  1  0
  7  8  2  0
  7  9  1  0
  9 10  2  0
 10 11  1  0
 11 12  2  0
 12 13  1  0
 13 14  1  0
 14 15  1  0
 13 16  2  0
 16 17  1  0
 17 18  1  0
 16 19  1  0
 19 20  1  0
 20 21  1  0
 19 22  2  0
  6 23  1  0
 23 24  1  0
 23 25  2  0
 25  3  1  0
 22 11  1  0
  1 26  1  0
  1 27  1  0
  1 28  1  0
  4 29  1  0
  5 30  1  0
  9 31  1  0
 10 32  1  0
 12 33  1  0
 15 34  1  0
 15 35  1  0
 15 36  1  0
 18 37  1  0
 18 38  1  0
 18 39  1  0
 21 40  1  0
 21 41  1  0
 21 42  1  0
 22 43  1  0
 24 44  1  0
 25 45  1  0
M  END
$$$$
