
     RDKit          3D

 33 35  0  0  0  0  0  0  0  0999 V2000
   -3.1071   -0.6652   -1.9384 O   0  0  0  0  0  0  0  0  0  0  0  0
   -3.7496   -0.2847   -0.7907 C   0  0  0  0  0  0  0  0  0  0  0  0
   -5.1018    0.0614   -0.8431 C   0  0  0  0  0  0  0  0  0  0  0  0
   -5.7696    0.4266    0.3258 C   0  0  0  0  0  0  0  0  0  0  0  0
   -5.0892    0.4418    1.5418 C   0  0  0  0  0  0  0  0  0  0  0  0
   -3.7366    0.0955    1.5911 C   0  0  0  0  0  0  0  0  0  0  0  0
   -3.0474   -0.2625    0.4240 C   0  0  0  0  0  0  0  0  0  0  0  0
   -1.6288   -0.6284    0.5457 C   0  0  0  0  0  0  0  0  0  0  0  0
   -0.6624   -0.0107   -0.1528 C   0  0  0  0  0  0  0  0  0  0  0  0
    0.7682   -0.3137   -0.0617 C   0  0  0  0  0  0  0  0  0  0  0  0
    1.2533   -1.5956    0.1678 C   0  0  0  0  0  0  0  0  0  0  0  0
    2.6310   -1.7949    0.2087 C   0  0  0  0  0  0  0  0  0  0  0  0
    3.4946   -0.7127    0.0106 C   0  0  0  0  0  0  0  0  0  0  0  0
    4.8956   -0.8527    0.0417 C   0  0  0  0  0  0  0  0  0  0  0  0
    5.7223    0.2533   -0.1645 C   0  0  0  0  0  0  0  0  0  0  0  0
    5.1579    1.5020   -0.4029 C   0  0  0  0  0  0  0  0  0  0  0  0
    3.7721    1.6257   -0.4314 C   0  0  0  0  0  0  0  0  0  0  0  0
    3.2378    2.8703   -0.6681 O   0  0  0  0  0  0  0  0  0  0  0  0
    2.9154    0.5472   -0.2302 C   0  0  0  0  0  0  0  0  0  0  0  0
    1.5812    0.7478   -0.2739 N   0  0  0  0  0  0  0  0  0  0  0  0
   -3.7283   -0.6083   -2.6814 H   0  0  0  0  0  0  0  0  0  0  0  0
   -5.6493    0.0479   -1.7804 H   0  0  0  0  0  0  0  0  0  0  0  0
   -6.8219    0.6969    0.2897 H   0  0  0  0  0  0  0  0  0  0  0  0
   -5.6093    0.7250    2.4535 H   0  0  0  0  0  0  0  0  0  0  0  0
   -3.2197    0.1180    2.5481 H   0  0  0  0  0  0  0  0  0  0  0  0
   -1.4073   -1.4082    1.2675 H   0  0  0  0  0  0  0  0  0  0  0  0
   -0.9085    0.8006   -0.8335 H   0  0  0  0  0  0  0  0  0  0  0  0
    0.5813   -2.4367    0.2999 H   0  0  0  0  0  0  0  0  0  0  0  0
    3.0210   -2.7931    0.3885 H   0  0  0  0  0  0  0  0  0  0  0  0
    5.3482   -1.8245    0.2263 H   0  0  0  0  0  0  0  0  0  0  0  0
    6.8032    0.1405   -0.1396 H   0  0  0  0  0  0  0  0  0  0  0  0
    5.7849    2.3735   -0.5656 H   0  0  0  0  0  0  0  0  0  0  0  0
    2.2686    2.7179   -0.6397 H   0  0  0  0  0  0  0  0  0  0  0  0
  1  2  1  0
  2  3  2  0
  3  4  1  0
  4  5  2  0
  5  6  1  0
  6  7  2  0
  7  8  1  0
  8  9  2  0
  9 10  1  0
 10 11  2  0
 11 12  1  0
 12 13  2  0
 13 14  1  0
 14 15  2  0
 15 16  1  0
 16 17  2  0
 17 18  1  0
 17 19  1  0
 19 20  2  0
  7  2  1  0
 20 10  1  0
 19 13  1  0
  1 21  1  0
  3 22  1  0
  4 23  1  0
  5 24  1  0
  6 25  1  0
  8 26  1  0
  9 27  1  0
 11 28  1  0
 12 29  1  0
 14 30  1  0
 15 31  1  0
 16 32  1  0
 18 33  1  0
M  END
$$$$
