
     RDKit          3D

 21 21  0  0  0  0  0  0  0  0999 V2000
   -3.8285    2.8232    0.3212 C   0  0  0  0  0  3  0  0  0  0  0  0
   -3.0207    2.0692   -0.0649 N   0  0  0  0  0  4  0  0  0  0  0  0
   -2.0191    1.1296   -0.5510 C   0  0  0  0  0  0  0  0  0  0  0  0
   -0.8184    0.9678    0.0094 C   0  0  0  0  0  0  0  0  0  0  0  0
   -0.0622   -0.0306   -0.7010 C   0  0  0  0  0  0  0  0  0  0  0  0
    1.1754   -0.4729   -0.4350 C   0  0  0  0  0  0  0  0  0  0  0  0
    2.0831   -0.0382    0.6833 C   0  0  0  0  0  0  0  0  0  0  0  0
    2.4261   -1.1989    1.5959 C   0  0  0  0  0  0  0  0  0  0  0  0
    2.2264   -2.3873    1.4069 O   0  0  0  0  0  0  0  0  0  0  0  0
    3.0578   -0.7877    2.7159 O   0  0  0  0  0  0  0  0  0  0  0  0
   -0.9212   -0.5300   -1.8408 C   0  0  0  0  0  0  0  0  0  0  0  0
   -2.2378    0.2482   -1.7314 C   0  0  0  0  0  0  0  0  0  0  0  0
   -0.4723    1.5133    0.8747 H   0  0  0  0  0  0  0  0  0  0  0  0
    1.5906   -1.2459   -1.0829 H   0  0  0  0  0  0  0  0  0  0  0  0
    3.0157    0.3455    0.2562 H   0  0  0  0  0  0  0  0  0  0  0  0
    1.6291    0.7500    1.2904 H   0  0  0  0  0  0  0  0  0  0  0  0
    3.2310   -1.6187    3.2067 H   0  0  0  0  0  0  0  0  0  0  0  0
   -0.4414   -0.3368   -2.8072 H   0  0  0  0  0  0  0  0  0  0  0  0
   -1.1039   -1.6072   -1.7535 H   0  0  0  0  0  0  0  0  0  0  0  0
   -2.4260    0.8351   -2.6362 H   0  0  0  0  0  0  0  0  0  0  0  0
   -3.0839   -0.4278   -1.5701 H   0  0  0  0  0  0  0  0  0  0  0  0
  1  2  3  0
  2  3  1  0
  3  4  2  0
  4  5  1  0
  5  6  2  3
  6  7  1  0
  7  8  1  0
  8  9  2  0
  8 10  1  0
  5 11  1  0
 11 12  1  0
 12  3  1  0
  4 13  1  0
  6 14  1  0
  7 15  1  0
  7 16  1  0
 10 17  1  0
 11 18  1  0
 11 19  1  0
 12 20  1  0
 12 21  1  0
M  CHG  2   1  -1   2   1
M  END
$$$$
