
     RDKit          3D

 57 59  0  0  0  0  0  0  0  0999 V2000
   -3.8073    2.3048    3.4171 C   0  0  0  0  0  0  0  0  0  0  0  0
   -4.6336    1.0915    2.9970 C   0  0  0  0  0  0  0  0  0  0  0  0
   -4.4474    0.6210    1.6133 N   0  0  0  0  0  0  0  0  0  0  0  0
   -4.9210    1.6047    0.6273 C   0  0  0  0  0  0  0  0  0  0  0  0
   -5.8319    0.9382   -0.3974 C   0  0  0  0  0  0  0  0  0  0  0  0
   -3.0569    0.1882    1.3742 C   0  0  0  0  0  0  0  0  0  0  0  0
   -2.8429   -0.6180    0.0852 C   0  0  0  0  0  0  0  0  0  0  0  0
   -1.4761   -1.0648    0.0607 O   0  0  0  0  0  0  0  0  0  0  0  0
   -1.1059   -1.5334   -1.1765 C   0  0  0  0  0  0  0  0  0  0  0  0
   -1.6109   -2.6552   -1.7332 C   0  0  0  0  0  0  0  0  0  0  0  0
   -1.1068   -3.0476   -3.0920 C   0  0  2  0  0  0  0  0  0  0  0  0
   -1.2631   -4.4202   -3.4166 O   0  0  0  0  0  0  0  0  0  0  0  0
   -0.4473   -4.6440   -4.5046 C   0  0  0  0  0  0  0  0  0  0  0  0
   -0.4869   -5.6600   -5.1784 O   0  0  0  0  0  0  0  0  0  0  0  0
    0.7268   -3.3434   -4.8208 S   0  0  0  0  0  0  0  0  0  0  0  0
    0.3949   -2.7464   -3.1750 C   0  0  1  0  0  0  0  0  0  0  0  0
    0.6749   -1.3187   -2.8489 C   0  0  0  0  0  0  0  0  0  0  0  0
   -0.0536   -0.7638   -1.8523 C   0  0  0  0  0  0  0  0  0  0  0  0
    0.1818    0.6615   -1.4901 C   0  0  0  0  0  0  0  0  0  0  0  0
   -0.6707    1.5177   -1.7128 O   0  0  0  0  0  0  0  0  0  0  0  0
    1.4777    1.0471   -0.8696 C   0  0  0  0  0  0  0  0  0  0  0  0
    2.3547    0.1918   -0.3216 C   0  0  0  0  0  0  0  0  0  0  0  0
    3.6195    0.6152    0.2954 C   0  0  0  0  0  0  0  0  0  0  0  0
    3.7221    1.7708    1.0770 C   0  0  0  0  0  0  0  0  0  0  0  0
    4.9406    2.1195    1.6679 C   0  0  0  0  0  0  0  0  0  0  0  0
    6.0718    1.3195    1.4986 C   0  0  0  0  0  0  0  0  0  0  0  0
    7.1952    1.7762    2.1292 O   0  0  0  0  0  0  0  0  0  0  0  0
    8.3831    1.0128    1.9609 C   0  0  0  0  0  0  0  0  0  0  0  0
    5.9722    0.1576    0.7353 C   0  0  0  0  0  0  0  0  0  0  0  0
    4.7521   -0.1940    0.1433 C   0  0  0  0  0  0  0  0  0  0  0  0
   -2.7353    2.0856    3.4111 H   0  0  0  0  0  0  0  0  0  0  0  0
   -4.0748    2.5975    4.4380 H   0  0  0  0  0  0  0  0  0  0  0  0
   -3.9878    3.1670    2.7684 H   0  0  0  0  0  0  0  0  0  0  0  0
   -5.6968    1.3151    3.1533 H   0  0  0  0  0  0  0  0  0  0  0  0
   -4.4155    0.2636    3.6837 H   0  0  0  0  0  0  0  0  0  0  0  0
   -5.5165    2.3923    1.1070 H   0  0  0  0  0  0  0  0  0  0  0  0
   -4.0908    2.1181    0.1267 H   0  0  0  0  0  0  0  0  0  0  0  0
   -5.3198    0.1578   -0.9662 H   0  0  0  0  0  0  0  0  0  0  0  0
   -6.1979    1.6839   -1.1111 H   0  0  0  0  0  0  0  0  0  0  0  0
   -6.7032    0.4870    0.0899 H   0  0  0  0  0  0  0  0  0  0  0  0
   -2.3675    1.0427    1.3726 H   0  0  0  0  0  0  0  0  0  0  0  0
   -2.7306   -0.4508    2.2059 H   0  0  0  0  0  0  0  0  0  0  0  0
   -3.0392    0.0119   -0.7903 H   0  0  0  0  0  0  0  0  0  0  0  0
   -3.5113   -1.4868    0.0718 H   0  0  0  0  0  0  0  0  0  0  0  0
   -2.3804   -3.2448   -1.2498 H   0  0  0  0  0  0  0  0  0  0  0  0
   -1.7045   -2.4686   -3.8161 H   0  0  0  0  0  0  0  0  0  0  0  0
    0.9715   -3.3851   -2.4914 H   0  0  0  0  0  0  0  0  0  0  0  0
    1.4525   -0.7732   -3.3734 H   0  0  0  0  0  0  0  0  0  0  0  0
    1.6487    2.1194   -0.8689 H   0  0  0  0  0  0  0  0  0  0  0  0
    2.1725   -0.8794   -0.3087 H   0  0  0  0  0  0  0  0  0  0  0  0
    2.8596    2.4101    1.2486 H   0  0  0  0  0  0  0  0  0  0  0  0
    5.0062    3.0222    2.2707 H   0  0  0  0  0  0  0  0  0  0  0  0
    9.1847    1.5156    2.5105 H   0  0  0  0  0  0  0  0  0  0  0  0
    8.2697    0.0085    2.3825 H   0  0  0  0  0  0  0  0  0  0  0  0
    8.6784    0.9691    0.9073 H   0  0  0  0  0  0  0  0  0  0  0  0
    6.8212   -0.5001    0.5816 H   0  0  0  0  0  0  0  0  0  0  0  0
    4.7020   -1.1071   -0.4460 H   0  0  0  0  0  0  0  0  0  0  0  0
  1  2  1  0
  2  3  1  0
  3  4  1  0
  4  5  1  0
  3  6  1  0
  6  7  1  0
  7  8  1  0
  8  9  1  0
  9 10  2  0
 10 11  1  0
 11 12  1  0
 12 13  1  0
 13 14  2  0
 13 15  1  0
 15 16  1  0
 16 17  1  0
 17 18  2  0
 18 19  1  0
 19 20  2  0
 19 21  1  0
 21 22  2  0
 22 23  1  0
 23 24  2  0
 24 25  1  0
 25 26  2  0
 26 27  1  0
 27 28  1  0
 26 29  1  0
 29 30  2  0
 18  9  1  0
 30 23  1  0
 16 11  1  0
  1 31  1  0
  1 32  1  0
  1 33  1  0
  2 34  1  0
  2 35  1  0
  4 36  1  0
  4 37  1  0
  5 38  1  0
  5 39  1  0
  5 40  1  0
  6 41  1  0
  6 42  1  0
  7 43  1  0
  7 44  1  0
 10 45  1  0
 11 46  1  6
 16 47  1  1
 17 48  1  0
 21 49  1  0
 22 50  1  0
 24 51  1  0
 25 52  1  0
 28 53  1  0
 28 54  1  0
 28 55  1  0
 29 56  1  0
 30 57  1  0
M  END
$$$$
