
     RDKit          3D

 56 58  0  0  0  0  0  0  0  0999 V2000
   -2.1950   -2.8473   -2.4375 C   0  0  0  0  0  0  0  0  0  0  0  0
   -2.5505   -1.7094   -1.6665 O   0  0  0  0  0  0  0  0  0  0  0  0
   -1.5592   -1.0957   -0.9409 C   0  0  0  0  0  0  0  0  0  0  0  0
   -0.2282   -1.5283   -0.8899 C   0  0  0  0  0  0  0  0  0  0  0  0
    0.7235   -0.8362   -0.1278 C   0  0  0  0  0  0  0  0  0  0  0  0
    2.1007   -1.3421   -0.0853 C   0  0  0  0  0  0  0  0  0  0  0  0
    3.1828   -0.5518   -0.1422 C   0  0  0  0  0  0  0  0  0  0  0  0
    4.5377   -1.1646   -0.1111 C   0  0  0  0  0  0  0  0  0  0  0  0
    4.7299   -2.3721   -0.0408 O   0  0  0  0  0  0  0  0  0  0  0  0
    5.6817   -0.2376   -0.2036 C   0  0  0  0  0  0  0  0  0  0  0  0
    5.9358    0.7006    0.8184 C   0  0  0  0  0  0  0  0  0  0  0  0
    5.0490    0.7296    1.8625 O   0  0  0  0  0  0  0  0  0  0  0  0
    5.4171    1.4714    3.0204 C   0  0  0  0  0  0  0  0  0  0  0  0
    7.0549    1.5451    0.7140 C   0  0  0  0  0  0  0  0  0  0  0  0
    7.9187    1.4534   -0.3812 C   0  0  0  0  0  0  0  0  0  0  0  0
    7.6505    0.5161   -1.3667 C   0  0  0  0  0  0  0  0  0  0  0  0
    8.4908    0.4073   -2.4720 O   0  0  0  0  0  0  0  0  0  0  0  0
    7.9725   -0.5904   -3.2922 C   0  0  0  0  0  0  0  0  0  0  0  0
    8.5027   -0.9138   -4.3465 O   0  0  0  0  0  0  0  0  0  0  0  0
    6.4883   -1.3527   -2.7187 S   0  0  0  0  0  0  0  0  0  0  0  0
    6.5475   -0.3273   -1.2913 C   0  0  0  0  0  0  0  0  0  0  0  0
    0.3239    0.2859    0.6049 C   0  0  0  0  0  0  0  0  0  0  0  0
   -1.0025    0.7244    0.5638 C   0  0  0  0  0  0  0  0  0  0  0  0
   -1.9494    0.0354   -0.1991 C   0  0  0  0  0  0  0  0  0  0  0  0
   -3.2653    0.4097   -0.3051 O   0  0  0  0  0  0  0  0  0  0  0  0
   -3.8000    1.2047    0.7502 C   0  0  0  0  0  0  0  0  0  0  0  0
   -5.3234    1.2395    0.6176 C   0  0  0  0  0  0  0  0  0  0  0  0
   -5.9393   -0.1558    0.8119 C   0  0  0  0  0  0  0  0  0  0  0  0
   -7.4069   -0.2414    0.7369 N   0  0  0  0  0  0  0  0  0  0  0  0
   -7.9211    0.0936   -0.5882 C   0  0  0  0  0  0  0  0  0  0  0  0
   -8.0813    0.5301    1.7753 C   0  0  0  0  0  0  0  0  0  0  0  0
   -1.8360   -3.6613   -1.7992 H   0  0  0  0  0  0  0  0  0  0  0  0
   -1.4575   -2.5902   -3.2049 H   0  0  0  0  0  0  0  0  0  0  0  0
   -3.0965   -3.1993   -2.9480 H   0  0  0  0  0  0  0  0  0  0  0  0
    0.0948   -2.4033   -1.4455 H   0  0  0  0  0  0  0  0  0  0  0  0
    2.2114   -2.4240   -0.0279 H   0  0  0  0  0  0  0  0  0  0  0  0
    3.1131    0.5253   -0.2277 H   0  0  0  0  0  0  0  0  0  0  0  0
    6.3834    1.1400    3.4143 H   0  0  0  0  0  0  0  0  0  0  0  0
    5.4221    2.5456    2.8089 H   0  0  0  0  0  0  0  0  0  0  0  0
    4.6612    1.2862    3.7895 H   0  0  0  0  0  0  0  0  0  0  0  0
    7.2815    2.2891    1.4724 H   0  0  0  0  0  0  0  0  0  0  0  0
    8.7835    2.1064   -0.4593 H   0  0  0  0  0  0  0  0  0  0  0  0
    1.0364    0.8271    1.2232 H   0  0  0  0  0  0  0  0  0  0  0  0
   -1.2656    1.6112    1.1300 H   0  0  0  0  0  0  0  0  0  0  0  0
   -3.5264    0.7931    1.7299 H   0  0  0  0  0  0  0  0  0  0  0  0
   -3.4192    2.2289    0.6632 H   0  0  0  0  0  0  0  0  0  0  0  0
   -5.5808    1.6213   -0.3769 H   0  0  0  0  0  0  0  0  0  0  0  0
   -5.7181    1.9397    1.3615 H   0  0  0  0  0  0  0  0  0  0  0  0
   -5.6229   -0.5518    1.7862 H   0  0  0  0  0  0  0  0  0  0  0  0
   -5.5184   -0.8501    0.0732 H   0  0  0  0  0  0  0  0  0  0  0  0
   -7.7902    1.1520   -0.8353 H   0  0  0  0  0  0  0  0  0  0  0  0
   -8.9908   -0.1362   -0.6498 H   0  0  0  0  0  0  0  0  0  0  0  0
   -7.4278   -0.5071   -1.3600 H   0  0  0  0  0  0  0  0  0  0  0  0
   -7.6990    0.2650    2.7671 H   0  0  0  0  0  0  0  0  0  0  0  0
   -9.1528    0.3004    1.7828 H   0  0  0  0  0  0  0  0  0  0  0  0
   -7.9711    1.6112    1.6381 H   0  0  0  0  0  0  0  0  0  0  0  0
  1  2  1  0
  2  3  1  0
  3  4  2  0
  4  5  1  0
  5  6  1  0
  6  7  2  0
  7  8  1  0
  8  9  2  0
  8 10  1  0
 10 11  2  0
 11 12  1  0
 12 13  1  0
 11 14  1  0
 14 15  2  0
 15 16  1  0
 16 17  1  0
 17 18  1  0
 18 19  2  0
 18 20  1  0
 20 21  1  0
  5 22  2  0
 22 23  1  0
 23 24  2  0
 24 25  1  0
 25 26  1  0
 26 27  1  0
 27 28  1  0
 28 29  1  0
 29 30  1  0
 29 31  1  0
 24  3  1  0
 21 10  1  0
 21 16  2  0
  1 32  1  0
  1 33  1  0
  1 34  1  0
  4 35  1  0
  6 36  1  0
  7 37  1  0
 13 38  1  0
 13 39  1  0
 13 40  1  0
 14 41  1  0
 15 42  1  0
 22 43  1  0
 23 44  1  0
 26 45  1  0
 26 46  1  0
 27 47  1  0
 27 48  1  0
 28 49  1  0
 28 50  1  0
 30 51  1  0
 30 52  1  0
 30 53  1  0
 31 54  1  0
 31 55  1  0
 31 56  1  0
M  END
$$$$
