
     RDKit          3D

 42 44  0  0  0  0  0  0  0  0999 V2000
   -7.0081   -0.3516    0.8383 C   0  0  0  0  0  0  0  0  0  0  0  0
   -5.9749   -0.8191   -0.0218 O   0  0  0  0  0  0  0  0  0  0  0  0
   -4.7815   -0.1514    0.0270 C   0  0  0  0  0  0  0  0  0  0  0  0
   -4.4936    0.9488    0.8269 C   0  0  0  0  0  0  0  0  0  0  0  0
   -3.2268    1.5277    0.7721 C   0  0  0  0  0  0  0  0  0  0  0  0
   -3.0394    2.6270    1.5733 O   0  0  0  0  0  0  0  0  0  0  0  0
   -2.2187    1.0049   -0.0577 C   0  0  0  0  0  0  0  0  0  0  0  0
   -0.8834    1.6569   -0.0096 C   0  0  0  0  0  0  0  0  0  0  0  0
   -0.8260    2.8687    0.1999 O   0  0  0  0  0  0  0  0  0  0  0  0
    0.3411    0.8171   -0.0952 C   0  0  0  0  0  0  0  0  0  0  0  0
    1.5456    1.4047   -0.1743 C   0  0  0  0  0  0  0  0  0  0  0  0
    2.8373    0.7307   -0.2680 C   0  0  0  0  0  0  0  0  0  0  0  0
    3.0215   -0.5353    0.1865 C   0  0  0  0  0  0  0  0  0  0  0  0
    4.3653   -1.1623    0.0038 C   0  0  2  0  0  0  0  0  0  0  0  0
    4.7436   -2.2093    0.8868 O   0  0  0  0  0  0  0  0  0  0  0  0
    6.1871   -2.1870    0.7498 C   0  0  0  0  0  0  0  0  0  0  0  0
    6.6144   -0.9502    0.1254 O   0  0  0  0  0  0  0  0  0  0  0  0
    5.4556   -0.1455    0.2835 C   0  0  1  0  0  0  0  0  0  0  0  0
    5.2758    1.0230   -0.6238 C   0  0  0  0  0  0  0  0  0  0  0  0
    4.0094    1.4293   -0.8542 C   0  0  0  0  0  0  0  0  0  0  0  0
   -2.5204   -0.0797   -0.9010 C   0  0  0  0  0  0  0  0  0  0  0  0
   -1.5444   -0.4998   -1.7663 O   0  0  0  0  0  0  0  0  0  0  0  0
   -1.8817   -1.5026   -2.7184 C   0  0  0  0  0  0  0  0  0  0  0  0
   -3.7987   -0.6533   -0.8359 C   0  0  0  0  0  0  0  0  0  0  0  0
   -6.7137   -0.4336    1.8898 H   0  0  0  0  0  0  0  0  0  0  0  0
   -7.8832   -0.9909    0.6867 H   0  0  0  0  0  0  0  0  0  0  0  0
   -7.2970    0.6739    0.5860 H   0  0  0  0  0  0  0  0  0  0  0  0
   -5.2269    1.3862    1.4959 H   0  0  0  0  0  0  0  0  0  0  0  0
   -2.2153    3.0782    1.2794 H   0  0  0  0  0  0  0  0  0  0  0  0
    0.2220   -0.2579   -0.0858 H   0  0  0  0  0  0  0  0  0  0  0  0
    1.5989    2.4941   -0.1950 H   0  0  0  0  0  0  0  0  0  0  0  0
    2.2394   -1.1349    0.6340 H   0  0  0  0  0  0  0  0  0  0  0  0
    4.4229   -1.5766   -1.0145 H   0  0  0  0  0  0  0  0  0  0  0  0
    6.5073   -3.0280    0.1273 H   0  0  0  0  0  0  0  0  0  0  0  0
    6.6389   -2.2694    1.7430 H   0  0  0  0  0  0  0  0  0  0  0  0
    5.4523    0.2075    1.3258 H   0  0  0  0  0  0  0  0  0  0  0  0
    6.1362    1.5487   -1.0178 H   0  0  0  0  0  0  0  0  0  0  0  0
    3.8169    2.3072   -1.4660 H   0  0  0  0  0  0  0  0  0  0  0  0
   -2.7051   -1.1771   -3.3627 H   0  0  0  0  0  0  0  0  0  0  0  0
   -2.1135   -2.4510   -2.2233 H   0  0  0  0  0  0  0  0  0  0  0  0
   -1.0062   -1.6654   -3.3544 H   0  0  0  0  0  0  0  0  0  0  0  0
   -4.0727   -1.5025   -1.4552 H   0  0  0  0  0  0  0  0  0  0  0  0
  1  2  1  0
  2  3  1  0
  3  4  2  0
  4  5  1  0
  5  6  1  0
  5  7  2  0
  7  8  1  0
  8  9  2  0
  8 10  1  0
 10 11  2  0
 11 12  1  0
 12 13  2  0
 13 14  1  0
 14 15  1  0
 15 16  1  0
 16 17  1  0
 17 18  1  0
 18 19  1  0
 19 20  2  0
  7 21  1  0
 21 22  1  0
 22 23  1  0
 21 24  2  0
 24  3  1  0
 20 12  1  0
 18 14  1  0
  1 25  1  0
  1 26  1  0
  1 27  1  0
  4 28  1  0
  6 29  1  0
 10 30  1  0
 11 31  1  0
 13 32  1  0
 14 33  1  6
 16 34  1  0
 16 35  1  0
 18 36  1  1
 19 37  1  0
 20 38  1  0
 23 39  1  0
 23 40  1  0
 23 41  1  0
 24 42  1  0
M  END
$$$$
