
     RDKit          3D

 55 60  0  0  0  0  0  0  0  0999 V2000
   -7.1791    1.6214    1.2454 C   0  0  0  0  0  0  0  0  0  0  0  0
   -7.2483    0.7360    0.1690 C   0  0  0  0  0  0  0  0  0  0  0  0
   -6.0915    0.1045   -0.2899 C   0  0  0  0  0  0  0  0  0  0  0  0
   -4.8605    0.3705    0.3212 C   0  0  0  0  0  0  0  0  0  0  0  0
   -3.6466   -0.3252   -0.1795 C   0  0  0  0  0  0  0  0  0  0  0  0
   -3.7152   -1.6029   -0.4098 N   0  0  0  0  0  0  0  0  0  0  0  0
   -2.5742   -2.2785   -0.8861 C   0  0  0  0  0  0  0  0  0  0  0  0
   -2.7044   -3.6375   -1.1875 C   0  0  0  0  0  0  0  0  0  0  0  0
   -1.6257   -4.3640   -1.6936 C   0  0  0  0  0  0  0  0  0  0  0  0
   -0.4056   -3.7297   -1.9163 C   0  0  0  0  0  0  0  0  0  0  0  0
   -0.2549   -2.3734   -1.6190 C   0  0  0  0  0  0  0  0  0  0  0  0
   -1.3281   -1.6569   -1.0806 C   0  0  0  0  0  0  0  0  0  0  0  0
   -1.2620   -0.2781   -0.7571 N   0  0  0  0  0  0  0  0  0  0  0  0
   -0.1924    0.6228   -0.7373 C   0  0  0  0  0  0  0  0  0  0  0  0
    1.1261    0.2440   -0.7937 N   0  0  0  0  0  0  0  0  0  0  0  0
    1.6617   -0.5034    0.3837 C   0  0  0  0  0  0  0  0  0  0  0  0
    2.2474    0.4496    1.4518 C   0  0  0  0  0  0  0  0  0  0  0  0
    3.2994    1.3252    0.8689 N   0  0  0  0  0  0  0  0  0  0  0  0
    4.6029    0.8201    0.8593 C   0  0  0  0  0  0  0  0  0  0  0  0
    5.1649    0.2941    2.0366 C   0  0  0  0  0  0  0  0  0  0  0  0
    6.4686   -0.2143    2.0795 C   0  0  0  0  0  0  0  0  0  0  0  0
    7.2587   -0.1966    0.9384 C   0  0  0  0  0  0  0  0  0  0  0  0
    6.7451    0.3402   -0.2345 C   0  0  0  0  0  0  0  0  0  0  0  0
    5.4389    0.8481   -0.2669 C   0  0  0  0  0  0  0  0  0  0  0  0
    2.7762    2.0938   -0.2850 C   0  0  0  0  0  0  0  0  0  0  0  0
    2.1311    1.1818   -1.3572 C   0  0  0  0  0  0  0  0  0  0  0  0
   -0.7453    1.8891   -0.6618 C   0  0  0  0  0  0  0  0  0  0  0  0
   -2.1317    1.7534   -0.4343 C   0  0  0  0  0  0  0  0  0  0  0  0
   -2.4170    0.4027   -0.4082 C   0  0  0  0  0  0  0  0  0  0  0  0
   -4.7964    1.2430    1.4136 C   0  0  0  0  0  0  0  0  0  0  0  0
   -5.9566    1.8715    1.8703 C   0  0  0  0  0  0  0  0  0  0  0  0
   -8.0820    2.1097    1.6044 H   0  0  0  0  0  0  0  0  0  0  0  0
   -8.2030    0.5335   -0.3094 H   0  0  0  0  0  0  0  0  0  0  0  0
   -6.1483   -0.5921   -1.1230 H   0  0  0  0  0  0  0  0  0  0  0  0
   -3.6618   -4.1275   -1.0310 H   0  0  0  0  0  0  0  0  0  0  0  0
   -1.7445   -5.4188   -1.9269 H   0  0  0  0  0  0  0  0  0  0  0  0
    0.4290   -4.2881   -2.3327 H   0  0  0  0  0  0  0  0  0  0  0  0
    0.6947   -1.9001   -1.8433 H   0  0  0  0  0  0  0  0  0  0  0  0
    0.8885   -1.1271    0.8464 H   0  0  0  0  0  0  0  0  0  0  0  0
    2.4463   -1.1820    0.0271 H   0  0  0  0  0  0  0  0  0  0  0  0
    1.4476    1.0938    1.8390 H   0  0  0  0  0  0  0  0  0  0  0  0
    2.6013   -0.1363    2.3053 H   0  0  0  0  0  0  0  0  0  0  0  0
    4.5980    0.3060    2.9637 H   0  0  0  0  0  0  0  0  0  0  0  0
    6.8639   -0.6091    3.0105 H   0  0  0  0  0  0  0  0  0  0  0  0
    8.2723   -0.5861    0.9661 H   0  0  0  0  0  0  0  0  0  0  0  0
    7.3585    0.3714   -1.1308 H   0  0  0  0  0  0  0  0  0  0  0  0
    5.0979    1.2551   -1.2122 H   0  0  0  0  0  0  0  0  0  0  0  0
    2.0165    2.7831    0.1027 H   0  0  0  0  0  0  0  0  0  0  0  0
    3.5447    2.7368   -0.7296 H   0  0  0  0  0  0  0  0  0  0  0  0
    1.6905    1.7934   -2.1541 H   0  0  0  0  0  0  0  0  0  0  0  0
    2.9080    0.5750   -1.8371 H   0  0  0  0  0  0  0  0  0  0  0  0
   -0.2028    2.8228   -0.6898 H   0  0  0  0  0  0  0  0  0  0  0  0
   -2.8366    2.5615   -0.2864 H   0  0  0  0  0  0  0  0  0  0  0  0
   -3.8550    1.4236    1.9253 H   0  0  0  0  0  0  0  0  0  0  0  0
   -5.9093    2.5498    2.7190 H   0  0  0  0  0  0  0  0  0  0  0  0
  1  2  2  0
  2  3  1  0
  3  4  2  0
  4  5  1  0
  5  6  2  0
  6  7  1  0
  7  8  2  0
  8  9  1  0
  9 10  2  0
 10 11  1  0
 11 12  2  0
 12 13  1  0
 13 14  1  0
 14 15  1  0
 15 16  1  0
 16 17  1  0
 17 18  1  0
 18 19  1  0
 19 20  2  0
 20 21  1  0
 21 22  2  0
 22 23  1  0
 23 24  2  0
 18 25  1  0
 25 26  1  0
 14 27  2  0
 27 28  1  0
 28 29  2  0
  4 30  1  0
 30 31  2  0
 31  1  1  0
 29  5  1  0
 12  7  1  0
 29 13  1  0
 26 15  1  0
 24 19  1  0
  1 32  1  0
  2 33  1  0
  3 34  1  0
  8 35  1  0
  9 36  1  0
 10 37  1  0
 11 38  1  0
 16 39  1  0
 16 40  1  0
 17 41  1  0
 17 42  1  0
 20 43  1  0
 21 44  1  0
 22 45  1  0
 23 46  1  0
 24 47  1  0
 25 48  1  0
 25 49  1  0
 26 50  1  0
 26 51  1  0
 27 52  1  0
 28 53  1  0
 30 54  1  0
 31 55  1  0
M  END
$$$$
