
     RDKit          3D

 57 59  0  0  0  0  0  0  0  0999 V2000
   -3.3443    1.2877    3.9658 C   0  0  0  0  0  0  0  0  0  0  0  0
   -3.2762    1.8651    2.5558 C   0  0  0  0  0  0  0  0  0  0  0  0
   -3.1858    0.8470    1.4956 N   0  0  0  0  0  0  0  0  0  0  0  0
   -4.3118   -0.0967    1.4693 C   0  0  0  0  0  0  0  0  0  0  0  0
   -5.6783    0.4917    1.1310 C   0  0  0  0  0  0  0  0  0  0  0  0
   -2.9105    1.4999    0.1947 C   0  0  0  0  0  0  0  0  0  0  0  0
   -2.6495    0.5590   -0.9961 C   0  0  0  0  0  0  0  0  0  0  0  0
   -1.4784   -0.2283   -0.7376 O   0  0  0  0  0  0  0  0  0  0  0  0
   -1.1629   -1.0523   -1.7896 C   0  0  0  0  0  0  0  0  0  0  0  0
   -1.8799   -2.1504   -2.1105 C   0  0  0  0  0  0  0  0  0  0  0  0
   -1.4108   -2.9733   -3.2753 C   0  0  2  0  0  0  0  0  0  0  0  0
   -1.8641   -4.3177   -3.2813 O   0  0  0  0  0  0  0  0  0  0  0  0
   -1.0682   -4.9776   -4.1925 C   0  0  0  0  0  0  0  0  0  0  0  0
   -1.3080   -6.0991   -4.6082 O   0  0  0  0  0  0  0  0  0  0  0  0
    0.3877   -4.0783   -4.6809 S   0  0  0  0  0  0  0  0  0  0  0  0
    0.1220   -3.0270   -3.2672 C   0  0  1  0  0  0  0  0  0  0  0  0
    0.7074   -1.6557   -3.2583 C   0  0  0  0  0  0  0  0  0  0  0  0
    0.0740   -0.7254   -2.5072 C   0  0  0  0  0  0  0  0  0  0  0  0
    0.6364    0.6497   -2.4612 C   0  0  0  0  0  0  0  0  0  0  0  0
    0.1458    1.5522   -3.1346 O   0  0  0  0  0  0  0  0  0  0  0  0
    1.8297    0.9109   -1.6116 C   0  0  0  0  0  0  0  0  0  0  0  0
    2.3181    0.0690   -0.6877 C   0  0  0  0  0  0  0  0  0  0  0  0
    3.5019    0.3539    0.1370 C   0  0  0  0  0  0  0  0  0  0  0  0
    3.8156    1.6407    0.5922 C   0  0  0  0  0  0  0  0  0  0  0  0
    4.9395    1.8645    1.3991 C   0  0  0  0  0  0  0  0  0  0  0  0
    5.7598    0.8007    1.7712 C   0  0  0  0  0  0  0  0  0  0  0  0
    6.8794    0.8800    2.5517 O   0  0  0  0  0  0  0  0  0  0  0  0
    7.2580    2.1744    3.0027 C   0  0  0  0  0  0  0  0  0  0  0  0
    5.4410   -0.4860    1.3357 C   0  0  0  0  0  0  0  0  0  0  0  0
    4.3204   -0.7107    0.5305 C   0  0  0  0  0  0  0  0  0  0  0  0
   -4.2990    0.7889    4.1568 H   0  0  0  0  0  0  0  0  0  0  0  0
   -2.5333    0.5731    4.1395 H   0  0  0  0  0  0  0  0  0  0  0  0
   -3.2446    2.0924    4.7022 H   0  0  0  0  0  0  0  0  0  0  0  0
   -2.3752    2.4921    2.5194 H   0  0  0  0  0  0  0  0  0  0  0  0
   -4.1281    2.5359    2.3928 H   0  0  0  0  0  0  0  0  0  0  0  0
   -4.0919   -0.9054    0.7624 H   0  0  0  0  0  0  0  0  0  0  0  0
   -4.3826   -0.6140    2.4334 H   0  0  0  0  0  0  0  0  0  0  0  0
   -6.4347   -0.2995    1.1516 H   0  0  0  0  0  0  0  0  0  0  0  0
   -5.9833    1.2541    1.8538 H   0  0  0  0  0  0  0  0  0  0  0  0
   -5.6943    0.9331    0.1303 H   0  0  0  0  0  0  0  0  0  0  0  0
   -2.0059    2.1114    0.3132 H   0  0  0  0  0  0  0  0  0  0  0  0
   -3.7267    2.1838   -0.0683 H   0  0  0  0  0  0  0  0  0  0  0  0
   -2.4795    1.1738   -1.8890 H   0  0  0  0  0  0  0  0  0  0  0  0
   -3.5189   -0.0784   -1.1887 H   0  0  0  0  0  0  0  0  0  0  0  0
   -2.7850   -2.4229   -1.5807 H   0  0  0  0  0  0  0  0  0  0  0  0
   -1.8217   -2.4849   -4.1748 H   0  0  0  0  0  0  0  0  0  0  0  0
    0.4999   -3.5784   -2.3950 H   0  0  0  0  0  0  0  0  0  0  0  0
    1.6231   -1.4387   -3.7984 H   0  0  0  0  0  0  0  0  0  0  0  0
    2.2798    1.8812   -1.7980 H   0  0  0  0  0  0  0  0  0  0  0  0
    1.8518   -0.8953   -0.5010 H   0  0  0  0  0  0  0  0  0  0  0  0
    3.1857    2.4895    0.3378 H   0  0  0  0  0  0  0  0  0  0  0  0
    5.1388    2.8804    1.7229 H   0  0  0  0  0  0  0  0  0  0  0  0
    8.1672    2.0664    3.6030 H   0  0  0  0  0  0  0  0  0  0  0  0
    7.4906    2.8336    2.1602 H   0  0  0  0  0  0  0  0  0  0  0  0
    6.4862    2.6102    3.6455 H   0  0  0  0  0  0  0  0  0  0  0  0
    6.0711   -1.3231    1.6258 H   0  0  0  0  0  0  0  0  0  0  0  0
    4.1024   -1.7271    0.2111 H   0  0  0  0  0  0  0  0  0  0  0  0
  1  2  1  0
  2  3  1  0
  3  4  1  0
  4  5  1  0
  3  6  1  0
  6  7  1  0
  7  8  1  0
  8  9  1  0
  9 10  2  0
 10 11  1  0
 11 12  1  0
 12 13  1  0
 13 14  2  0
 13 15  1  0
 15 16  1  0
 16 17  1  0
 17 18  2  0
 18 19  1  0
 19 20  2  0
 19 21  1  0
 21 22  2  0
 22 23  1  0
 23 24  2  0
 24 25  1  0
 25 26  2  0
 26 27  1  0
 27 28  1  0
 26 29  1  0
 29 30  2  0
 18  9  1  0
 30 23  1  0
 16 11  1  0
  1 31  1  0
  1 32  1  0
  1 33  1  0
  2 34  1  0
  2 35  1  0
  4 36  1  0
  4 37  1  0
  5 38  1  0
  5 39  1  0
  5 40  1  0
  6 41  1  0
  6 42  1  0
  7 43  1  0
  7 44  1  0
 10 45  1  0
 11 46  1  6
 16 47  1  1
 17 48  1  0
 21 49  1  0
 22 50  1  0
 24 51  1  0
 25 52  1  0
 28 53  1  0
 28 54  1  0
 28 55  1  0
 29 56  1  0
 30 57  1  0
M  END
$$$$
