
     RDKit          3D

 38 40  0  0  0  0  0  0  0  0999 V2000
   -5.5890    0.4313    2.9567 C   0  0  0  0  0  0  0  0  0  0  0  0
   -4.8142    0.7424    1.7104 C   0  0  0  0  0  0  0  0  0  0  0  0
   -4.2657    1.8139    1.4919 O   0  0  0  0  0  0  0  0  0  0  0  0
   -4.8401   -0.3728    0.8812 O   0  0  0  0  0  0  0  0  0  0  0  0
   -4.1318   -0.1952   -0.3092 C   0  0  0  0  0  0  0  0  0  0  0  0
   -4.8487    0.0265   -1.4816 C   0  0  0  0  0  0  0  0  0  0  0  0
   -4.1576    0.1460   -2.6844 C   0  0  0  0  0  0  0  0  0  0  0  0
   -2.7630    0.0348   -2.7046 C   0  0  0  0  0  0  0  0  0  0  0  0
   -2.0415   -0.1905   -1.5222 C   0  0  0  0  0  0  0  0  0  0  0  0
   -0.5803   -0.3351   -1.5982 C   0  0  0  0  0  0  0  0  0  0  0  0
    0.2616    0.1397   -0.6650 C   0  0  0  0  0  0  0  0  0  0  0  0
    1.7224    0.0078   -0.6947 C   0  0  0  0  0  0  0  0  0  0  0  0
    2.4579   -0.0267   -1.8731 C   0  0  0  0  0  0  0  0  0  0  0  0
    3.8450   -0.1255   -1.7961 C   0  0  0  0  0  0  0  0  0  0  0  0
    4.4691   -0.1783   -0.5455 C   0  0  0  0  0  0  0  0  0  0  0  0
    5.8667   -0.2795   -0.4063 C   0  0  0  0  0  0  0  0  0  0  0  0
    6.4503   -0.3261    0.8612 C   0  0  0  0  0  0  0  0  0  0  0  0
    5.6452   -0.2713    1.9940 C   0  0  0  0  0  0  0  0  0  0  0  0
    4.2656   -0.1706    1.8415 C   0  0  0  0  0  0  0  0  0  0  0  0
    3.4917   -0.1181    2.9767 O   0  0  0  0  0  0  0  0  0  0  0  0
    3.6470   -0.1223    0.5952 C   0  0  0  0  0  0  0  0  0  0  0  0
    2.3018   -0.0243    0.5284 N   0  0  0  0  0  0  0  0  0  0  0  0
   -2.7423   -0.3271   -0.3182 C   0  0  0  0  0  0  0  0  0  0  0  0
   -6.6284    0.2103    2.7015 H   0  0  0  0  0  0  0  0  0  0  0  0
   -5.1310   -0.4138    3.4766 H   0  0  0  0  0  0  0  0  0  0  0  0
   -5.5701    1.3001    3.6210 H   0  0  0  0  0  0  0  0  0  0  0  0
   -5.9310    0.1054   -1.4608 H   0  0  0  0  0  0  0  0  0  0  0  0
   -4.7010    0.3247   -3.6086 H   0  0  0  0  0  0  0  0  0  0  0  0
   -2.2431    0.1342   -3.6552 H   0  0  0  0  0  0  0  0  0  0  0  0
   -0.2110   -0.8583   -2.4760 H   0  0  0  0  0  0  0  0  0  0  0  0
   -0.1146    0.6565    0.2147 H   0  0  0  0  0  0  0  0  0  0  0  0
    1.9764    0.0341   -2.8428 H   0  0  0  0  0  0  0  0  0  0  0  0
    4.4303   -0.1549   -2.7115 H   0  0  0  0  0  0  0  0  0  0  0  0
    6.5067   -0.3221   -1.2849 H   0  0  0  0  0  0  0  0  0  0  0  0
    7.5296   -0.4041    0.9640 H   0  0  0  0  0  0  0  0  0  0  0  0
    6.0813   -0.3057    2.9879 H   0  0  0  0  0  0  0  0  0  0  0  0
    2.5754   -0.0475    2.6331 H   0  0  0  0  0  0  0  0  0  0  0  0
   -2.2197   -0.5380    0.6100 H   0  0  0  0  0  0  0  0  0  0  0  0
  1  2  1  0
  2  3  2  0
  2  4  1  0
  4  5  1  0
  5  6  2  0
  6  7  1  0
  7  8  2  0
  8  9  1  0
  9 10  1  0
 10 11  2  0
 11 12  1  0
 12 13  2  0
 13 14  1  0
 14 15  2  0
 15 16  1  0
 16 17  2  0
 17 18  1  0
 18 19  2  0
 19 20  1  0
 19 21  1  0
 21 22  2  0
  9 23  2  0
 23  5  1  0
 22 12  1  0
 21 15  1  0
  1 24  1  0
  1 25  1  0
  1 26  1  0
  6 27  1  0
  7 28  1  0
  8 29  1  0
 10 30  1  0
 11 31  1  0
 13 32  1  0
 14 33  1  0
 16 34  1  0
 17 35  1  0
 18 36  1  0
 20 37  1  0
 23 38  1  0
M  END
$$$$
