
     RDKit          3D

 55 60  0  0  0  0  0  0  0  0999 V2000
   -7.3687    1.5558    1.4474 C   0  0  0  0  0  0  0  0  0  0  0  0
   -7.4320    0.9044    0.2152 C   0  0  0  0  0  0  0  0  0  0  0  0
   -6.2887    0.3072   -0.3174 C   0  0  0  0  0  0  0  0  0  0  0  0
   -5.0763    0.3740    0.3788 C   0  0  0  0  0  0  0  0  0  0  0  0
   -3.8785   -0.2846   -0.2043 C   0  0  0  0  0  0  0  0  0  0  0  0
   -4.0046   -1.4889   -0.6778 N   0  0  0  0  0  0  0  0  0  0  0  0
   -2.8795   -2.1350   -1.2264 C   0  0  0  0  0  0  0  0  0  0  0  0
   -3.0660   -3.4099   -1.7690 C   0  0  0  0  0  0  0  0  0  0  0  0
   -2.0031   -4.1017   -2.3514 C   0  0  0  0  0  0  0  0  0  0  0  0
   -0.7406   -3.5158   -2.4047 C   0  0  0  0  0  0  0  0  0  0  0  0
   -0.5336   -2.2441   -1.8656 C   0  0  0  0  0  0  0  0  0  0  0  0
   -1.5952   -1.5641   -1.2602 C   0  0  0  0  0  0  0  0  0  0  0  0
   -1.4749   -0.2678   -0.6992 N   0  0  0  0  0  0  0  0  0  0  0  0
   -0.3676    0.5603   -0.5093 C   0  0  0  0  0  0  0  0  0  0  0  0
    0.9306    0.1422   -0.6524 N   0  0  0  0  0  0  0  0  0  0  0  0
    1.9010    1.0742   -1.2801 C   0  0  0  0  0  0  0  0  0  0  0  0
    2.9842    1.5770   -0.3007 C   0  0  0  0  0  0  0  0  0  0  0  0
    3.7282    0.4562    0.3040 N   0  0  0  0  0  0  0  0  0  0  0  0
    5.0387    0.5933    0.7277 C   0  0  0  0  0  0  0  0  0  0  0  0
    5.8834   -0.5161    0.8990 C   0  0  0  0  0  0  0  0  0  0  0  0
    7.2108   -0.3823    1.3261 C   0  0  0  0  0  0  0  0  0  0  0  0
    7.7321    0.8761    1.5979 C   0  0  0  0  0  0  0  0  0  0  0  0
    6.9243    1.9950    1.4412 C   0  0  0  0  0  0  0  0  0  0  0  0
    5.5987    1.8501    1.0119 C   0  0  0  0  0  0  0  0  0  0  0  0
    3.0033   -0.8232    0.4154 C   0  0  0  0  0  0  0  0  0  0  0  0
    1.4788   -0.5980    0.5198 C   0  0  0  0  0  0  0  0  0  0  0  0
   -0.8454    1.8026   -0.1351 C   0  0  0  0  0  0  0  0  0  0  0  0
   -2.2431    1.7033    0.0293 C   0  0  0  0  0  0  0  0  0  0  0  0
   -2.6034    0.3987   -0.2474 C   0  0  0  0  0  0  0  0  0  0  0  0
   -5.0197    1.0092    1.6246 C   0  0  0  0  0  0  0  0  0  0  0  0
   -6.1662    1.6048    2.1538 C   0  0  0  0  0  0  0  0  0  0  0  0
   -8.2616    2.0168    1.8630 H   0  0  0  0  0  0  0  0  0  0  0  0
   -8.3722    0.8560   -0.3282 H   0  0  0  0  0  0  0  0  0  0  0  0
   -6.3421   -0.2090   -1.2734 H   0  0  0  0  0  0  0  0  0  0  0  0
   -4.0545   -3.8606   -1.7394 H   0  0  0  0  0  0  0  0  0  0  0  0
   -2.1657   -5.0901   -2.7726 H   0  0  0  0  0  0  0  0  0  0  0  0
    0.0842   -4.0447   -2.8757 H   0  0  0  0  0  0  0  0  0  0  0  0
    0.4529   -1.8043   -1.9550 H   0  0  0  0  0  0  0  0  0  0  0  0
    2.3900    0.5279   -2.0970 H   0  0  0  0  0  0  0  0  0  0  0  0
    1.3984    1.9306   -1.7462 H   0  0  0  0  0  0  0  0  0  0  0  0
    3.6573    2.2292   -0.8697 H   0  0  0  0  0  0  0  0  0  0  0  0
    2.5213    2.1723    0.4954 H   0  0  0  0  0  0  0  0  0  0  0  0
    5.5291   -1.5187    0.6772 H   0  0  0  0  0  0  0  0  0  0  0  0
    7.8331   -1.2659    1.4396 H   0  0  0  0  0  0  0  0  0  0  0  0
    8.7608    0.9840    1.9296 H   0  0  0  0  0  0  0  0  0  0  0  0
    7.3174    2.9851    1.6561 H   0  0  0  0  0  0  0  0  0  0  0  0
    4.9998    2.7524    0.9278 H   0  0  0  0  0  0  0  0  0  0  0  0
    3.2289   -1.4430   -0.4608 H   0  0  0  0  0  0  0  0  0  0  0  0
    3.3139   -1.3703    1.3135 H   0  0  0  0  0  0  0  0  0  0  0  0
    1.2687   -0.0344    1.4393 H   0  0  0  0  0  0  0  0  0  0  0  0
    0.9811   -1.5703    0.6086 H   0  0  0  0  0  0  0  0  0  0  0  0
   -0.2409    2.6779    0.0592 H   0  0  0  0  0  0  0  0  0  0  0  0
   -2.9059    2.4996    0.3421 H   0  0  0  0  0  0  0  0  0  0  0  0
   -4.0960    1.0281    2.1967 H   0  0  0  0  0  0  0  0  0  0  0  0
   -6.1249    2.0985    3.1216 H   0  0  0  0  0  0  0  0  0  0  0  0
  1  2  2  0
  2  3  1  0
  3  4  2  0
  4  5  1  0
  5  6  2  0
  6  7  1  0
  7  8  2  0
  8  9  1  0
  9 10  2  0
 10 11  1  0
 11 12  2  0
 12 13  1  0
 13 14  1  0
 14 15  1  0
 15 16  1  0
 16 17  1  0
 17 18  1  0
 18 19  1  0
 19 20  2  0
 20 21  1  0
 21 22  2  0
 22 23  1  0
 23 24  2  0
 18 25  1  0
 25 26  1  0
 14 27  2  0
 27 28  1  0
 28 29  2  0
  4 30  1  0
 30 31  2  0
 31  1  1  0
 29  5  1  0
 12  7  1  0
 29 13  1  0
 26 15  1  0
 24 19  1  0
  1 32  1  0
  2 33  1  0
  3 34  1  0
  8 35  1  0
  9 36  1  0
 10 37  1  0
 11 38  1  0
 16 39  1  0
 16 40  1  0
 17 41  1  0
 17 42  1  0
 20 43  1  0
 21 44  1  0
 22 45  1  0
 23 46  1  0
 24 47  1  0
 25 48  1  0
 25 49  1  0
 26 50  1  0
 26 51  1  0
 27 52  1  0
 28 53  1  0
 30 54  1  0
 31 55  1  0
M  END
$$$$
