
     RDKit          3D

 33 35  0  0  0  0  0  0  0  0999 V2000
    5.1517    0.6398   -2.5876 O   0  0  0  0  0  0  0  0  0  0  0  0
    4.7789    0.1812   -1.3580 C   0  0  0  0  0  0  0  0  0  0  0  0
    5.7234   -0.1199   -0.3827 C   0  0  0  0  0  0  0  0  0  0  0  0
    5.2959   -0.5961    0.8556 C   0  0  0  0  0  0  0  0  0  0  0  0
    3.9311   -0.7620    1.1101 C   0  0  0  0  0  0  0  0  0  0  0  0
    2.9772   -0.4428    0.1335 C   0  0  0  0  0  0  0  0  0  0  0  0
    1.5539   -0.6592    0.4337 C   0  0  0  0  0  0  0  0  0  0  0  0
    0.5730    0.1563    0.0119 C   0  0  0  0  0  0  0  0  0  0  0  0
   -0.8594   -0.0219    0.2778 C   0  0  0  0  0  0  0  0  0  0  0  0
   -1.3508   -0.6624    1.4089 C   0  0  0  0  0  0  0  0  0  0  0  0
   -2.7297   -0.7541    1.5836 C   0  0  0  0  0  0  0  0  0  0  0  0
   -3.5890   -0.1971    0.6312 C   0  0  0  0  0  0  0  0  0  0  0  0
   -4.9905   -0.2603    0.7545 C   0  0  0  0  0  0  0  0  0  0  0  0
   -5.8130    0.3119   -0.2176 C   0  0  0  0  0  0  0  0  0  0  0  0
   -5.2438    0.9489   -1.3152 C   0  0  0  0  0  0  0  0  0  0  0  0
   -3.8575    1.0039   -1.4241 C   0  0  0  0  0  0  0  0  0  0  0  0
   -3.3199    1.6381   -2.5190 O   0  0  0  0  0  0  0  0  0  0  0  0
   -3.0048    0.4455   -0.4758 C   0  0  0  0  0  0  0  0  0  0  0  0
   -1.6691    0.5406   -0.6501 N   0  0  0  0  0  0  0  0  0  0  0  0
    3.4176    0.0194   -1.1129 C   0  0  0  0  0  0  0  0  0  0  0  0
    6.1204    0.7020   -2.6157 H   0  0  0  0  0  0  0  0  0  0  0  0
    6.7854    0.0042   -0.5681 H   0  0  0  0  0  0  0  0  0  0  0  0
    6.0235   -0.8399    1.6255 H   0  0  0  0  0  0  0  0  0  0  0  0
    3.6193   -1.1345    2.0834 H   0  0  0  0  0  0  0  0  0  0  0  0
    1.3368   -1.5383    1.0341 H   0  0  0  0  0  0  0  0  0  0  0  0
    0.7994    1.0284   -0.5967 H   0  0  0  0  0  0  0  0  0  0  0  0
   -0.6868   -1.0785    2.1581 H   0  0  0  0  0  0  0  0  0  0  0  0
   -3.1246   -1.2549    2.4637 H   0  0  0  0  0  0  0  0  0  0  0  0
   -5.4470   -0.7553    1.6088 H   0  0  0  0  0  0  0  0  0  0  0  0
   -6.8943    0.2607   -0.1186 H   0  0  0  0  0  0  0  0  0  0  0  0
   -5.8676    1.3994   -2.0815 H   0  0  0  0  0  0  0  0  0  0  0  0
   -2.3512    1.5498   -2.3903 H   0  0  0  0  0  0  0  0  0  0  0  0
    2.7113    0.2473   -1.9067 H   0  0  0  0  0  0  0  0  0  0  0  0
  1  2  1  0
  2  3  2  0
  3  4  1  0
  4  5  2  0
  5  6  1  0
  6  7  1  0
  7  8  2  0
  8  9  1  0
  9 10  2  0
 10 11  1  0
 11 12  2  0
 12 13  1  0
 13 14  2  0
 14 15  1  0
 15 16  2  0
 16 17  1  0
 16 18  1  0
 18 19  2  0
  6 20  2  0
 20  2  1  0
 19  9  1  0
 18 12  1  0
  1 21  1  0
  3 22  1  0
  4 23  1  0
  5 24  1  0
  7 25  1  0
  8 26  1  0
 10 27  1  0
 11 28  1  0
 13 29  1  0
 14 30  1  0
 15 31  1  0
 17 32  1  0
 20 33  1  0
M  END
$$$$
