
     RDKit          3D

 43 45  0  0  0  0  0  0  0  0999 V2000
   -0.6509    4.5832   -2.8961 C   0  0  0  0  0  0  0  0  0  0  0  0
   -1.7148    3.6611   -2.3786 C   0  0  0  0  0  0  0  0  0  0  0  0
   -2.3297    2.8646   -3.0743 O   0  0  0  0  0  0  0  0  0  0  0  0
   -1.8672    3.8826   -1.0152 O   0  0  0  0  0  0  0  0  0  0  0  0
   -2.8080    3.0281   -0.4281 C   0  0  0  0  0  0  0  0  0  0  0  0
   -4.1526    3.4078   -0.4533 C   0  0  0  0  0  0  0  0  0  0  0  0
   -5.1045    2.5922    0.1539 C   0  0  0  0  0  0  0  0  0  0  0  0
   -4.7081    1.4178    0.7939 C   0  0  0  0  0  0  0  0  0  0  0  0
   -3.3573    1.0550    0.8308 C   0  0  0  0  0  0  0  0  0  0  0  0
   -2.3846    1.8553    0.2159 C   0  0  0  0  0  0  0  0  0  0  0  0
   -0.9576    1.5077    0.2957 C   0  0  0  0  0  0  0  0  0  0  0  0
   -0.4896    0.2776    0.0277 C   0  0  0  0  0  0  0  0  0  0  0  0
    0.9150   -0.1398    0.1006 C   0  0  0  0  0  0  0  0  0  0  0  0
    1.9811    0.7303   -0.0759 C   0  0  0  0  0  0  0  0  0  0  0  0
    3.2751    0.2218   -0.0150 C   0  0  0  0  0  0  0  0  0  0  0  0
    3.4791   -1.1428    0.2152 C   0  0  0  0  0  0  0  0  0  0  0  0
    4.7752   -1.6923    0.2750 C   0  0  0  0  0  0  0  0  0  0  0  0
    4.9616   -3.0579    0.4907 C   0  0  0  0  0  0  0  0  0  0  0  0
    3.8568   -3.8828    0.6555 C   0  0  0  0  0  0  0  0  0  0  0  0
    2.5778   -3.3207    0.6142 C   0  0  0  0  0  0  0  0  0  0  0  0
    1.4842   -4.1868    0.7599 O   0  0  0  0  0  0  0  0  0  0  0  0
    0.9438   -4.1221    2.0369 C   0  0  0  0  0  0  0  0  0  0  0  0
   -0.3500   -4.8805    2.0506 C   0  0  0  0  0  0  0  0  0  0  0  0
    1.4381   -3.5896    3.0227 O   0  0  0  0  0  0  0  0  0  0  0  0
    2.3445   -1.9615    0.3791 C   0  0  0  0  0  0  0  0  0  0  0  0
    1.0873   -1.4651    0.3066 N   0  0  0  0  0  0  0  0  0  0  0  0
   -0.9568    5.6219   -2.7489 H   0  0  0  0  0  0  0  0  0  0  0  0
    0.2939    4.3826   -2.3845 H   0  0  0  0  0  0  0  0  0  0  0  0
   -0.5100    4.4088   -3.9667 H   0  0  0  0  0  0  0  0  0  0  0  0
   -4.4571    4.3245   -0.9487 H   0  0  0  0  0  0  0  0  0  0  0  0
   -6.1548    2.8710    0.1307 H   0  0  0  0  0  0  0  0  0  0  0  0
   -5.4505    0.7837    1.2726 H   0  0  0  0  0  0  0  0  0  0  0  0
   -3.0721    0.1459    1.3563 H   0  0  0  0  0  0  0  0  0  0  0  0
   -0.2993    2.3205    0.5874 H   0  0  0  0  0  0  0  0  0  0  0  0
   -1.1697   -0.5231   -0.2548 H   0  0  0  0  0  0  0  0  0  0  0  0
    1.8272    1.7853   -0.2696 H   0  0  0  0  0  0  0  0  0  0  0  0
    4.1179    0.8944   -0.1521 H   0  0  0  0  0  0  0  0  0  0  0  0
    5.6485   -1.0554    0.1494 H   0  0  0  0  0  0  0  0  0  0  0  0
    5.9653   -3.4730    0.5316 H   0  0  0  0  0  0  0  0  0  0  0  0
    3.9837   -4.9475    0.8251 H   0  0  0  0  0  0  0  0  0  0  0  0
   -0.1575   -5.9438    1.8889 H   0  0  0  0  0  0  0  0  0  0  0  0
   -1.0187   -4.4880    1.2801 H   0  0  0  0  0  0  0  0  0  0  0  0
   -0.8348   -4.7511    3.0225 H   0  0  0  0  0  0  0  0  0  0  0  0
  1  2  1  0
  2  3  2  0
  2  4  1  0
  4  5  1  0
  5  6  2  0
  6  7  1  0
  7  8  2  0
  8  9  1  0
  9 10  2  0
 10 11  1  0
 11 12  2  0
 12 13  1  0
 13 14  2  0
 14 15  1  0
 15 16  2  0
 16 17  1  0
 17 18  2  0
 18 19  1  0
 19 20  2  0
 20 21  1  0
 21 22  1  0
 22 23  1  0
 22 24  2  0
 20 25  1  0
 25 26  2  0
 10  5  1  0
 26 13  1  0
 25 16  1  0
  1 27  1  0
  1 28  1  0
  1 29  1  0
  6 30  1  0
  7 31  1  0
  8 32  1  0
  9 33  1  0
 11 34  1  0
 12 35  1  0
 14 36  1  0
 15 37  1  0
 17 38  1  0
 18 39  1  0
 19 40  1  0
 23 41  1  0
 23 42  1  0
 23 43  1  0
M  END
$$$$
