
     RDKit          3D

 33 35  0  0  0  0  0  0  0  0999 V2000
    6.2443   -1.8971   -0.0715 O   0  0  0  0  0  0  0  0  0  0  0  0
    5.2930   -0.9261   -0.1860 C   0  0  0  0  0  0  0  0  0  0  0  0
    5.7031    0.3305   -0.6133 C   0  0  0  0  0  0  0  0  0  0  0  0
    4.7660    1.3532   -0.7396 C   0  0  0  0  0  0  0  0  0  0  0  0
    3.4225    1.1100   -0.4418 C   0  0  0  0  0  0  0  0  0  0  0  0
    3.0032   -0.1614   -0.0241 C   0  0  0  0  0  0  0  0  0  0  0  0
    1.6033   -0.4424    0.3269 C   0  0  0  0  0  0  0  0  0  0  0  0
    0.5588    0.0141   -0.3841 C   0  0  0  0  0  0  0  0  0  0  0  0
   -0.8560   -0.2231   -0.0744 C   0  0  0  0  0  0  0  0  0  0  0  0
   -1.3112   -1.3506    0.5981 C   0  0  0  0  0  0  0  0  0  0  0  0
   -2.6790   -1.4951    0.8182 C   0  0  0  0  0  0  0  0  0  0  0  0
   -3.5643   -0.5165    0.3551 C   0  0  0  0  0  0  0  0  0  0  0  0
   -4.9560   -0.6091    0.5495 C   0  0  0  0  0  0  0  0  0  0  0  0
   -5.8058    0.3885    0.0681 C   0  0  0  0  0  0  0  0  0  0  0  0
   -5.2737    1.4809   -0.6086 C   0  0  0  0  0  0  0  0  0  0  0  0
   -3.8967    1.5591   -0.7938 C   0  0  0  0  0  0  0  0  0  0  0  0
   -3.3958    2.6493   -1.4650 O   0  0  0  0  0  0  0  0  0  0  0  0
   -3.0174    0.5850   -0.3285 C   0  0  0  0  0  0  0  0  0  0  0  0
   -1.6927    0.7303   -0.5477 N   0  0  0  0  0  0  0  0  0  0  0  0
    3.9560   -1.1800    0.1152 C   0  0  0  0  0  0  0  0  0  0  0  0
    5.8174   -2.7196    0.2180 H   0  0  0  0  0  0  0  0  0  0  0  0
    6.7490    0.5133   -0.8428 H   0  0  0  0  0  0  0  0  0  0  0  0
    5.0809    2.3413   -1.0647 H   0  0  0  0  0  0  0  0  0  0  0  0
    2.7106    1.9277   -0.5293 H   0  0  0  0  0  0  0  0  0  0  0  0
    1.4612   -1.0544    1.2132 H   0  0  0  0  0  0  0  0  0  0  0  0
    0.7158    0.6331   -1.2643 H   0  0  0  0  0  0  0  0  0  0  0  0
   -0.6292   -2.1199    0.9421 H   0  0  0  0  0  0  0  0  0  0  0  0
   -3.0458   -2.3722    1.3450 H   0  0  0  0  0  0  0  0  0  0  0  0
   -5.3839   -1.4590    1.0767 H   0  0  0  0  0  0  0  0  0  0  0  0
   -6.8795    0.3132    0.2205 H   0  0  0  0  0  0  0  0  0  0  0  0
   -5.9192    2.2664   -0.9900 H   0  0  0  0  0  0  0  0  0  0  0  0
   -2.4268    2.4964   -1.4726 H   0  0  0  0  0  0  0  0  0  0  0  0
    3.6477   -2.1660    0.4490 H   0  0  0  0  0  0  0  0  0  0  0  0
  1  2  1  0
  2  3  2  0
  3  4  1  0
  4  5  2  0
  5  6  1  0
  6  7  1  0
  7  8  2  0
  8  9  1  0
  9 10  2  0
 10 11  1  0
 11 12  2  0
 12 13  1  0
 13 14  2  0
 14 15  1  0
 15 16  2  0
 16 17  1  0
 16 18  1  0
 18 19  2  0
  6 20  2  0
 20  2  1  0
 19  9  1  0
 18 12  1  0
  1 21  1  0
  3 22  1  0
  4 23  1  0
  5 24  1  0
  7 25  1  0
  8 26  1  0
 10 27  1  0
 11 28  1  0
 13 29  1  0
 14 30  1  0
 15 31  1  0
 17 32  1  0
 20 33  1  0
M  END
$$$$
