
     RDKit          3D

 38 40  0  0  0  0  0  0  0  0999 V2000
   -6.5763   -0.5830    2.4866 C   0  0  0  0  0  0  0  0  0  0  0  0
   -5.7588   -0.5070    1.2312 C   0  0  0  0  0  0  0  0  0  0  0  0
   -5.9070   -1.2470    0.2685 O   0  0  0  0  0  0  0  0  0  0  0  0
   -4.8351    0.5239    1.3647 O   0  0  0  0  0  0  0  0  0  0  0  0
   -4.0011    0.7138    0.2574 C   0  0  0  0  0  0  0  0  0  0  0  0
   -4.5115    1.1960   -0.9459 C   0  0  0  0  0  0  0  0  0  0  0  0
   -3.6398    1.4281   -2.0072 C   0  0  0  0  0  0  0  0  0  0  0  0
   -2.2703    1.1873   -1.8548 C   0  0  0  0  0  0  0  0  0  0  0  0
   -1.7574    0.7073   -0.6402 C   0  0  0  0  0  0  0  0  0  0  0  0
   -0.3211    0.4794   -0.4379 C   0  0  0  0  0  0  0  0  0  0  0  0
    0.4690   -0.1240   -1.3416 C   0  0  0  0  0  0  0  0  0  0  0  0
    1.9057   -0.3700   -1.1449 C   0  0  0  0  0  0  0  0  0  0  0  0
    2.6323   -1.0436   -2.1194 C   0  0  0  0  0  0  0  0  0  0  0  0
    3.9915   -1.2641   -1.9117 C   0  0  0  0  0  0  0  0  0  0  0  0
    4.5970   -0.8068   -0.7368 C   0  0  0  0  0  0  0  0  0  0  0  0
    5.9664   -1.0007   -0.4723 C   0  0  0  0  0  0  0  0  0  0  0  0
    6.5324   -0.5279    0.7131 C   0  0  0  0  0  0  0  0  0  0  0  0
    5.7377    0.1397    1.6390 C   0  0  0  0  0  0  0  0  0  0  0  0
    4.3860    0.3243    1.3646 C   0  0  0  0  0  0  0  0  0  0  0  0
    3.6217    0.9879    2.2950 O   0  0  0  0  0  0  0  0  0  0  0  0
    3.7854   -0.1330    0.1948 C   0  0  0  0  0  0  0  0  0  0  0  0
    2.4668    0.0840    0.0010 N   0  0  0  0  0  0  0  0  0  0  0  0
   -2.6348    0.4904    0.4279 C   0  0  0  0  0  0  0  0  0  0  0  0
   -7.3040   -1.3945    2.3958 H   0  0  0  0  0  0  0  0  0  0  0  0
   -7.1176    0.3549    2.6336 H   0  0  0  0  0  0  0  0  0  0  0  0
   -5.9267   -0.7920    3.3402 H   0  0  0  0  0  0  0  0  0  0  0  0
   -5.5739    1.3863   -1.0620 H   0  0  0  0  0  0  0  0  0  0  0  0
   -4.0232    1.8017   -2.9531 H   0  0  0  0  0  0  0  0  0  0  0  0
   -1.6063    1.3938   -2.6910 H   0  0  0  0  0  0  0  0  0  0  0  0
    0.0800    0.8088    0.5178 H   0  0  0  0  0  0  0  0  0  0  0  0
    0.0523   -0.4789   -2.2796 H   0  0  0  0  0  0  0  0  0  0  0  0
    2.1599   -1.3983   -3.0295 H   0  0  0  0  0  0  0  0  0  0  0  0
    4.5690   -1.7912   -2.6666 H   0  0  0  0  0  0  0  0  0  0  0  0
    6.5980   -1.5213   -1.1888 H   0  0  0  0  0  0  0  0  0  0  0  0
    7.5900   -0.6801    0.9132 H   0  0  0  0  0  0  0  0  0  0  0  0
    6.1605    0.5145    2.5664 H   0  0  0  0  0  0  0  0  0  0  0  0
    2.7268    1.0031    1.8935 H   0  0  0  0  0  0  0  0  0  0  0  0
   -2.2633    0.1381    1.3861 H   0  0  0  0  0  0  0  0  0  0  0  0
  1  2  1  0
  2  3  2  0
  2  4  1  0
  4  5  1  0
  5  6  2  0
  6  7  1  0
  7  8  2  0
  8  9  1  0
  9 10  1  0
 10 11  2  0
 11 12  1  0
 12 13  2  0
 13 14  1  0
 14 15  2  0
 15 16  1  0
 16 17  2  0
 17 18  1  0
 18 19  2  0
 19 20  1  0
 19 21  1  0
 21 22  2  0
  9 23  2  0
 23  5  1  0
 22 12  1  0
 21 15  1  0
  1 24  1  0
  1 25  1  0
  1 26  1  0
  6 27  1  0
  7 28  1  0
  8 29  1  0
 10 30  1  0
 11 31  1  0
 13 32  1  0
 14 33  1  0
 16 34  1  0
 17 35  1  0
 18 36  1  0
 20 37  1  0
 23 38  1  0
M  END
$$$$
