
     RDKit          3D

 42 44  0  0  0  0  0  0  0  0999 V2000
   -6.5660   -0.9812   -1.3638 C   0  0  0  0  0  0  0  0  0  0  0  0
   -5.5590   -0.1088   -1.8637 O   0  0  0  0  0  0  0  0  0  0  0  0
   -4.4453    0.0617   -1.0879 C   0  0  0  0  0  0  0  0  0  0  0  0
   -3.4881    0.9264   -1.6295 C   0  0  0  0  0  0  0  0  0  0  0  0
   -2.2962    1.1792   -0.9476 C   0  0  0  0  0  0  0  0  0  0  0  0
   -1.3742    2.0280   -1.4957 O   0  0  0  0  0  0  0  0  0  0  0  0
   -2.0491    0.5737    0.2884 C   0  0  0  0  0  0  0  0  0  0  0  0
   -0.8020    0.8432    1.0353 C   0  0  0  0  0  0  0  0  0  0  0  0
   -0.8391    1.3358    2.1576 O   0  0  0  0  0  0  0  0  0  0  0  0
    0.4681    0.4640    0.3588 C   0  0  0  0  0  0  0  0  0  0  0  0
    1.6409    0.6715    0.9774 C   0  0  0  0  0  0  0  0  0  0  0  0
    2.9568    0.3398    0.4428 C   0  0  0  0  0  0  0  0  0  0  0  0
    3.2154    0.4277   -0.8875 C   0  0  0  0  0  0  0  0  0  0  0  0
    4.6199    0.2199   -1.3526 C   0  0  2  0  0  0  0  0  0  0  0  0
    4.8259   -0.2642   -2.6728 O   0  0  0  0  0  0  0  0  0  0  0  0
    6.1723   -0.7934   -2.5719 C   0  0  0  0  0  0  0  0  0  0  0  0
    6.5487   -0.9517   -1.1807 O   0  0  0  0  0  0  0  0  0  0  0  0
    5.2832   -0.8778   -0.5414 C   0  0  1  0  0  0  0  0  0  0  0  0
    5.2381   -0.5096    0.9020 C   0  0  0  0  0  0  0  0  0  0  0  0
    4.1014    0.0663    1.3474 C   0  0  0  0  0  0  0  0  0  0  0  0
   -3.0192   -0.2722    0.8385 C   0  0  0  0  0  0  0  0  0  0  0  0
   -2.7856   -0.9396    2.0139 O   0  0  0  0  0  0  0  0  0  0  0  0
   -3.4608   -0.2947    3.0964 C   0  0  0  0  0  0  0  0  0  0  0  0
   -4.2051   -0.5443    0.1452 C   0  0  0  0  0  0  0  0  0  0  0  0
   -7.3816   -1.0023   -2.0929 H   0  0  0  0  0  0  0  0  0  0  0  0
   -6.1858   -2.0027   -1.2591 H   0  0  0  0  0  0  0  0  0  0  0  0
   -6.9742   -0.6112   -0.4174 H   0  0  0  0  0  0  0  0  0  0  0  0
   -3.6896    1.3893   -2.5920 H   0  0  0  0  0  0  0  0  0  0  0  0
   -1.7486    2.4403   -2.2932 H   0  0  0  0  0  0  0  0  0  0  0  0
    0.3989    0.0151   -0.6239 H   0  0  0  0  0  0  0  0  0  0  0  0
    1.6394    1.0995    1.9802 H   0  0  0  0  0  0  0  0  0  0  0  0
    2.4736    0.7198   -1.6205 H   0  0  0  0  0  0  0  0  0  0  0  0
    5.1555    1.1792   -1.2839 H   0  0  0  0  0  0  0  0  0  0  0  0
    6.2095   -1.7656   -3.0727 H   0  0  0  0  0  0  0  0  0  0  0  0
    6.8723   -0.1033   -3.0525 H   0  0  0  0  0  0  0  0  0  0  0  0
    4.8012   -1.8579   -0.6757 H   0  0  0  0  0  0  0  0  0  0  0  0
    6.0645   -0.7515    1.5578 H   0  0  0  0  0  0  0  0  0  0  0  0
    3.9869    0.3179    2.3987 H   0  0  0  0  0  0  0  0  0  0  0  0
   -3.0614   -0.7017    4.0301 H   0  0  0  0  0  0  0  0  0  0  0  0
   -4.5331   -0.5139    3.0611 H   0  0  0  0  0  0  0  0  0  0  0  0
   -3.2987    0.7888    3.0995 H   0  0  0  0  0  0  0  0  0  0  0  0
   -4.9100   -1.2395    0.5880 H   0  0  0  0  0  0  0  0  0  0  0  0
  1  2  1  0
  2  3  1  0
  3  4  2  0
  4  5  1  0
  5  6  1  0
  5  7  2  0
  7  8  1  0
  8  9  2  0
  8 10  1  0
 10 11  2  0
 11 12  1  0
 12 13  2  0
 13 14  1  0
 14 15  1  0
 15 16  1  0
 16 17  1  0
 17 18  1  0
 18 19  1  0
 19 20  2  0
  7 21  1  0
 21 22  1  0
 22 23  1  0
 21 24  2  0
 24  3  1  0
 20 12  1  0
 18 14  1  0
  1 25  1  0
  1 26  1  0
  1 27  1  0
  4 28  1  0
  6 29  1  0
 10 30  1  0
 11 31  1  0
 13 32  1  0
 14 33  1  6
 16 34  1  0
 16 35  1  0
 18 36  1  1
 19 37  1  0
 20 38  1  0
 23 39  1  0
 23 40  1  0
 23 41  1  0
 24 42  1  0
M  END
$$$$
