
     RDKit          3D

 43 45  0  0  0  0  0  0  0  0999 V2000
   -0.8430    4.1463   -3.2952 C   0  0  0  0  0  0  0  0  0  0  0  0
   -1.8771    3.3662   -2.5389 C   0  0  0  0  0  0  0  0  0  0  0  0
   -2.5929    2.5102   -3.0402 O   0  0  0  0  0  0  0  0  0  0  0  0
   -1.8728    3.7921   -1.2160 O   0  0  0  0  0  0  0  0  0  0  0  0
   -2.7720    3.0808   -0.4120 C   0  0  0  0  0  0  0  0  0  0  0  0
   -4.1082    3.4899   -0.3881 C   0  0  0  0  0  0  0  0  0  0  0  0
   -5.0140    2.8183    0.4294 C   0  0  0  0  0  0  0  0  0  0  0  0
   -4.5790    1.7596    1.2268 C   0  0  0  0  0  0  0  0  0  0  0  0
   -3.2354    1.3694    1.2114 C   0  0  0  0  0  0  0  0  0  0  0  0
   -2.3095    2.0239    0.3872 C   0  0  0  0  0  0  0  0  0  0  0  0
   -0.8852    1.6561    0.4061 C   0  0  0  0  0  0  0  0  0  0  0  0
   -0.4551    0.3855    0.3394 C   0  0  0  0  0  0  0  0  0  0  0  0
    0.9471   -0.0451    0.3699 C   0  0  0  0  0  0  0  0  0  0  0  0
    1.9974    0.7421   -0.0794 C   0  0  0  0  0  0  0  0  0  0  0  0
    3.2889    0.2268   -0.0240 C   0  0  0  0  0  0  0  0  0  0  0  0
    3.5047   -1.0658    0.4654 C   0  0  0  0  0  0  0  0  0  0  0  0
    4.7999   -1.6145    0.5452 C   0  0  0  0  0  0  0  0  0  0  0  0
    4.9995   -2.9024    1.0428 C   0  0  0  0  0  0  0  0  0  0  0  0
    3.9075   -3.6546    1.4551 C   0  0  0  0  0  0  0  0  0  0  0  0
    2.6264   -3.1054    1.3503 C   0  0  0  0  0  0  0  0  0  0  0  0
    1.5483   -3.8841    1.7958 O   0  0  0  0  0  0  0  0  0  0  0  0
    0.8706   -4.4735    0.7374 C   0  0  0  0  0  0  0  0  0  0  0  0
   -0.3948   -5.0873    1.2581 C   0  0  0  0  0  0  0  0  0  0  0  0
    1.2395   -4.5449   -0.4281 O   0  0  0  0  0  0  0  0  0  0  0  0
    2.3831   -1.8105    0.8801 C   0  0  0  0  0  0  0  0  0  0  0  0
    1.1294   -1.3023    0.8335 N   0  0  0  0  0  0  0  0  0  0  0  0
    0.1436    3.9750   -2.8573 H   0  0  0  0  0  0  0  0  0  0  0  0
   -0.8244    3.8093   -4.3356 H   0  0  0  0  0  0  0  0  0  0  0  0
   -1.0942    5.2097   -3.2771 H   0  0  0  0  0  0  0  0  0  0  0  0
   -4.4428    4.3161   -1.0077 H   0  0  0  0  0  0  0  0  0  0  0  0
   -6.0583    3.1191    0.4468 H   0  0  0  0  0  0  0  0  0  0  0  0
   -5.2852    1.2382    1.8685 H   0  0  0  0  0  0  0  0  0  0  0  0
   -2.9183    0.5556    1.8601 H   0  0  0  0  0  0  0  0  0  0  0  0
   -0.1937    2.4905    0.4776 H   0  0  0  0  0  0  0  0  0  0  0  0
   -1.1640   -0.4371    0.2750 H   0  0  0  0  0  0  0  0  0  0  0  0
    1.8319    1.7364   -0.4773 H   0  0  0  0  0  0  0  0  0  0  0  0
    4.1201    0.8365   -0.3687 H   0  0  0  0  0  0  0  0  0  0  0  0
    5.6628   -1.0363    0.2209 H   0  0  0  0  0  0  0  0  0  0  0  0
    6.0029   -3.3159    1.1035 H   0  0  0  0  0  0  0  0  0  0  0  0
    4.0444   -4.6596    1.8421 H   0  0  0  0  0  0  0  0  0  0  0  0
   -0.9858   -5.4648    0.4188 H   0  0  0  0  0  0  0  0  0  0  0  0
   -0.9867   -4.3312    1.7805 H   0  0  0  0  0  0  0  0  0  0  0  0
   -0.1555   -5.9185    1.9257 H   0  0  0  0  0  0  0  0  0  0  0  0
  1  2  1  0
  2  3  2  0
  2  4  1  0
  4  5  1  0
  5  6  2  0
  6  7  1  0
  7  8  2  0
  8  9  1  0
  9 10  2  0
 10 11  1  0
 11 12  2  0
 12 13  1  0
 13 14  2  0
 14 15  1  0
 15 16  2  0
 16 17  1  0
 17 18  2  0
 18 19  1  0
 19 20  2  0
 20 21  1  0
 21 22  1  0
 22 23  1  0
 22 24  2  0
 20 25  1  0
 25 26  2  0
 10  5  1  0
 26 13  1  0
 25 16  1  0
  1 27  1  0
  1 28  1  0
  1 29  1  0
  6 30  1  0
  7 31  1  0
  8 32  1  0
  9 33  1  0
 11 34  1  0
 12 35  1  0
 14 36  1  0
 15 37  1  0
 17 38  1  0
 18 39  1  0
 19 40  1  0
 23 41  1  0
 23 42  1  0
 23 43  1  0
M  END
$$$$
