
     RDKit          3D

 42 44  0  0  0  0  0  0  0  0999 V2000
   -6.4531   -1.2103   -0.8132 C   0  0  0  0  0  0  0  0  0  0  0  0
   -6.0474    0.1445   -0.9572 O   0  0  0  0  0  0  0  0  0  0  0  0
   -4.7702    0.4632   -0.5853 C   0  0  0  0  0  0  0  0  0  0  0  0
   -4.4346    1.8039   -0.7614 C   0  0  0  0  0  0  0  0  0  0  0  0
   -3.1632    2.2576   -0.4254 C   0  0  0  0  0  0  0  0  0  0  0  0
   -2.9343    3.5980   -0.6062 O   0  0  0  0  0  0  0  0  0  0  0  0
   -2.1898    1.3737    0.0675 C   0  0  0  0  0  0  0  0  0  0  0  0
   -0.8399    1.9282    0.3510 C   0  0  0  0  0  0  0  0  0  0  0  0
   -0.7498    3.0873    0.7555 O   0  0  0  0  0  0  0  0  0  0  0  0
    0.3620    1.1151    0.0268 C   0  0  0  0  0  0  0  0  0  0  0  0
    1.5785    1.5521    0.3895 C   0  0  0  0  0  0  0  0  0  0  0  0
    2.8414    0.8615    0.1495 C   0  0  0  0  0  0  0  0  0  0  0  0
    3.0269    0.0983   -0.9583 C   0  0  0  0  0  0  0  0  0  0  0  0
    4.3885   -0.4611   -1.2158 C   0  0  2  0  0  0  0  0  0  0  0  0
    4.4886   -1.6660   -1.9625 O   0  0  0  0  0  0  0  0  0  0  0  0
    5.8093   -2.1261   -1.5781 C   0  0  0  0  0  0  0  0  0  0  0  0
    6.2563   -1.4330   -0.3855 O   0  0  0  0  0  0  0  0  0  0  0  0
    5.0367   -0.8834    0.0895 C   0  0  1  0  0  0  0  0  0  0  0  0
    5.0962    0.2917    1.0040 C   0  0  0  0  0  0  0  0  0  0  0  0
    4.0209    1.1075    1.0169 C   0  0  0  0  0  0  0  0  0  0  0  0
   -2.5361    0.0271    0.2916 C   0  0  0  0  0  0  0  0  0  0  0  0
   -1.5850   -0.7776    0.8646 O   0  0  0  0  0  0  0  0  0  0  0  0
   -1.9642   -2.0880    1.2684 C   0  0  0  0  0  0  0  0  0  0  0  0
   -3.8244   -0.4189   -0.0526 C   0  0  0  0  0  0  0  0  0  0  0  0
   -5.8394   -1.8740   -1.4311 H   0  0  0  0  0  0  0  0  0  0  0  0
   -6.4340   -1.5176    0.2376 H   0  0  0  0  0  0  0  0  0  0  0  0
   -7.4865   -1.2894   -1.1644 H   0  0  0  0  0  0  0  0  0  0  0  0
   -5.1687    2.5019   -1.1563 H   0  0  0  0  0  0  0  0  0  0  0  0
   -2.1135    3.8339   -0.1175 H   0  0  0  0  0  0  0  0  0  0  0  0
    0.2203    0.1826   -0.5035 H   0  0  0  0  0  0  0  0  0  0  0  0
    1.6612    2.4888    0.9415 H   0  0  0  0  0  0  0  0  0  0  0  0
    2.2625   -0.0633   -1.7081 H   0  0  0  0  0  0  0  0  0  0  0  0
    4.9792    0.2935   -1.7575 H   0  0  0  0  0  0  0  0  0  0  0  0
    6.5155   -1.9270   -2.3899 H   0  0  0  0  0  0  0  0  0  0  0  0
    5.7666   -3.2015   -1.3807 H   0  0  0  0  0  0  0  0  0  0  0  0
    4.4942   -1.6992    0.5906 H   0  0  0  0  0  0  0  0  0  0  0  0
    5.9460    0.4367    1.6587 H   0  0  0  0  0  0  0  0  0  0  0  0
    3.9841    1.9574    1.6937 H   0  0  0  0  0  0  0  0  0  0  0  0
   -2.2049   -2.7103    0.4005 H   0  0  0  0  0  0  0  0  0  0  0  0
   -1.1066   -2.5417    1.7746 H   0  0  0  0  0  0  0  0  0  0  0  0
   -2.7949   -2.0596    1.9812 H   0  0  0  0  0  0  0  0  0  0  0  0
   -4.0946   -1.4563    0.0974 H   0  0  0  0  0  0  0  0  0  0  0  0
  1  2  1  0
  2  3  1  0
  3  4  2  0
  4  5  1  0
  5  6  1  0
  5  7  2  0
  7  8  1  0
  8  9  2  0
  8 10  1  0
 10 11  2  0
 11 12  1  0
 12 13  2  0
 13 14  1  0
 14 15  1  0
 15 16  1  0
 16 17  1  0
 17 18  1  0
 18 19  1  0
 19 20  2  0
  7 21  1  0
 21 22  1  0
 22 23  1  0
 21 24  2  0
 24  3  1  0
 20 12  1  0
 18 14  1  0
  1 25  1  0
  1 26  1  0
  1 27  1  0
  4 28  1  0
  6 29  1  0
 10 30  1  0
 11 31  1  0
 13 32  1  0
 14 33  1  6
 16 34  1  0
 16 35  1  0
 18 36  1  1
 19 37  1  0
 20 38  1  0
 23 39  1  0
 23 40  1  0
 23 41  1  0
 24 42  1  0
M  END
$$$$
