
     RDKit          3D

 43 45  0  0  0  0  0  0  0  0999 V2000
   -2.1249   -0.3389    2.7989 C   0  0  0  0  0  0  0  0  0  0  0  0
   -2.3100    0.8142    1.8583 C   0  0  0  0  0  0  0  0  0  0  0  0
   -1.8367    1.9293    2.0356 O   0  0  0  0  0  0  0  0  0  0  0  0
   -3.0992    0.3973    0.7918 O   0  0  0  0  0  0  0  0  0  0  0  0
   -3.2612    1.3595   -0.2151 C   0  0  0  0  0  0  0  0  0  0  0  0
   -4.4978    1.9992   -0.3037 C   0  0  0  0  0  0  0  0  0  0  0  0
   -4.7238    2.9078   -1.3366 C   0  0  0  0  0  0  0  0  0  0  0  0
   -3.7249    3.1572   -2.2800 C   0  0  0  0  0  0  0  0  0  0  0  0
   -2.4938    2.4993   -2.1953 C   0  0  0  0  0  0  0  0  0  0  0  0
   -2.2513    1.5896   -1.1614 C   0  0  0  0  0  0  0  0  0  0  0  0
   -0.9654    0.8986   -1.0766 C   0  0  0  0  0  0  0  0  0  0  0  0
   -0.7029   -0.2248   -1.7626 C   0  0  0  0  0  0  0  0  0  0  0  0
    0.5337   -0.9951   -1.5755 C   0  0  0  0  0  0  0  0  0  0  0  0
    0.7995   -2.1095   -2.3548 C   0  0  0  0  0  0  0  0  0  0  0  0
    1.9522   -2.8448   -2.0914 C   0  0  0  0  0  0  0  0  0  0  0  0
    2.8069   -2.4586   -1.0516 C   0  0  0  0  0  0  0  0  0  0  0  0
    3.9788   -3.1795   -0.7488 C   0  0  0  0  0  0  0  0  0  0  0  0
    4.8230   -2.7672    0.2838 C   0  0  0  0  0  0  0  0  0  0  0  0
    4.5006   -1.6379    1.0274 C   0  0  0  0  0  0  0  0  0  0  0  0
    3.3246   -0.9451    0.7310 C   0  0  0  0  0  0  0  0  0  0  0  0
    3.0574    0.2174    1.4735 O   0  0  0  0  0  0  0  0  0  0  0  0
    1.9739    0.0793    2.3326 C   0  0  0  0  0  0  0  0  0  0  0  0
    1.5957    1.4360    2.8501 C   0  0  0  0  0  0  0  0  0  0  0  0
    1.4214   -0.9627    2.6634 O   0  0  0  0  0  0  0  0  0  0  0  0
    2.4641   -1.3130   -0.3082 C   0  0  0  0  0  0  0  0  0  0  0  0
    1.3566   -0.5919   -0.5817 N   0  0  0  0  0  0  0  0  0  0  0  0
   -3.1002   -0.7049    3.1318 H   0  0  0  0  0  0  0  0  0  0  0  0
   -1.5654   -1.1347    2.3013 H   0  0  0  0  0  0  0  0  0  0  0  0
   -1.5603   -0.0060    3.6750 H   0  0  0  0  0  0  0  0  0  0  0  0
   -5.2774    1.7924    0.4232 H   0  0  0  0  0  0  0  0  0  0  0  0
   -5.6798    3.4206   -1.4089 H   0  0  0  0  0  0  0  0  0  0  0  0
   -3.9040    3.8669   -3.0842 H   0  0  0  0  0  0  0  0  0  0  0  0
   -1.7257    2.7040   -2.9374 H   0  0  0  0  0  0  0  0  0  0  0  0
   -0.2567    1.3175   -0.3658 H   0  0  0  0  0  0  0  0  0  0  0  0
   -1.4334   -0.6308   -2.4549 H   0  0  0  0  0  0  0  0  0  0  0  0
    0.1278   -2.4149   -3.1485 H   0  0  0  0  0  0  0  0  0  0  0  0
    2.1735   -3.7214   -2.6948 H   0  0  0  0  0  0  0  0  0  0  0  0
    4.2406   -4.0677   -1.3209 H   0  0  0  0  0  0  0  0  0  0  0  0
    5.7285   -3.3265    0.5047 H   0  0  0  0  0  0  0  0  0  0  0  0
    5.1500   -1.3010    1.8295 H   0  0  0  0  0  0  0  0  0  0  0  0
    0.8002    1.3320    3.5932 H   0  0  0  0  0  0  0  0  0  0  0  0
    2.4575    1.9032    3.3335 H   0  0  0  0  0  0  0  0  0  0  0  0
    1.2283    2.0557    2.0279 H   0  0  0  0  0  0  0  0  0  0  0  0
  1  2  1  0
  2  3  2  0
  2  4  1  0
  4  5  1  0
  5  6  2  0
  6  7  1  0
  7  8  2  0
  8  9  1  0
  9 10  2  0
 10 11  1  0
 11 12  2  0
 12 13  1  0
 13 14  2  0
 14 15  1  0
 15 16  2  0
 16 17  1  0
 17 18  2  0
 18 19  1  0
 19 20  2  0
 20 21  1  0
 21 22  1  0
 22 23  1  0
 22 24  2  0
 20 25  1  0
 25 26  2  0
 10  5  1  0
 26 13  1  0
 25 16  1  0
  1 27  1  0
  1 28  1  0
  1 29  1  0
  6 30  1  0
  7 31  1  0
  8 32  1  0
  9 33  1  0
 11 34  1  0
 12 35  1  0
 14 36  1  0
 15 37  1  0
 17 38  1  0
 18 39  1  0
 19 40  1  0
 23 41  1  0
 23 42  1  0
 23 43  1  0
M  END
$$$$
