
     RDKit          3D

 57 59  0  0  0  0  0  0  0  0999 V2000
   -2.5193   -0.0304    3.4463 C   0  0  0  0  0  0  0  0  0  0  0  0
   -3.6043    0.5145    2.5222 C   0  0  0  0  0  0  0  0  0  0  0  0
   -3.1326    1.5742    1.6188 N   0  0  0  0  0  0  0  0  0  0  0  0
   -4.2271    2.1683    0.8362 C   0  0  0  0  0  0  0  0  0  0  0  0
   -5.1839    2.9897    1.6880 C   0  0  0  0  0  0  0  0  0  0  0  0
   -2.0155    1.1694    0.7449 C   0  0  0  0  0  0  0  0  0  0  0  0
   -2.2440   -0.0308   -0.1907 C   0  0  0  0  0  0  0  0  0  0  0  0
   -1.0791   -0.1765   -1.0041 O   0  0  0  0  0  0  0  0  0  0  0  0
   -1.0377   -1.2131   -1.8981 C   0  0  0  0  0  0  0  0  0  0  0  0
   -1.9576   -2.1956   -2.0447 C   0  0  0  0  0  0  0  0  0  0  0  0
   -1.7248   -3.2306   -3.1128 C   0  0  2  0  0  0  0  0  0  0  0  0
   -2.4022   -4.4615   -2.9025 O   0  0  0  0  0  0  0  0  0  0  0  0
   -1.8028   -5.3682   -3.7496 C   0  0  0  0  0  0  0  0  0  0  0  0
   -2.2723   -6.4681   -3.9951 O   0  0  0  0  0  0  0  0  0  0  0  0
   -0.2469   -4.8266   -4.4267 S   0  0  0  0  0  0  0  0  0  0  0  0
   -0.2270   -3.5543   -3.1781 C   0  0  1  0  0  0  0  0  0  0  0  0
    0.5585   -2.3135   -3.4174 C   0  0  0  0  0  0  0  0  0  0  0  0
    0.1499   -1.1989   -2.7692 C   0  0  0  0  0  0  0  0  0  0  0  0
    0.9104    0.0497   -3.0278 C   0  0  0  0  0  0  0  0  0  0  0  0
    0.7099    0.7038   -4.0474 O   0  0  0  0  0  0  0  0  0  0  0  0
    1.9536    0.4811   -2.0605 C   0  0  0  0  0  0  0  0  0  0  0  0
    2.2888   -0.1638   -0.9355 C   0  0  0  0  0  0  0  0  0  0  0  0
    3.3458    0.3014   -0.0306 C   0  0  0  0  0  0  0  0  0  0  0  0
    3.5356    1.6571    0.2641 C   0  0  0  0  0  0  0  0  0  0  0  0
    4.5452    2.0632    1.1458 C   0  0  0  0  0  0  0  0  0  0  0  0
    5.3713    1.1172    1.7532 C   0  0  0  0  0  0  0  0  0  0  0  0
    6.3904    1.3776    2.6245 O   0  0  0  0  0  0  0  0  0  0  0  0
    6.6302    2.7415    2.9417 C   0  0  0  0  0  0  0  0  0  0  0  0
    5.1724   -0.2355    1.4758 C   0  0  0  0  0  0  0  0  0  0  0  0
    4.1652   -0.6430    0.5949 C   0  0  0  0  0  0  0  0  0  0  0  0
   -1.7602   -0.6002    2.8968 H   0  0  0  0  0  0  0  0  0  0  0  0
   -2.0180    0.7775    3.9953 H   0  0  0  0  0  0  0  0  0  0  0  0
   -2.9689   -0.7059    4.1808 H   0  0  0  0  0  0  0  0  0  0  0  0
   -4.3863    0.9140    3.1757 H   0  0  0  0  0  0  0  0  0  0  0  0
   -4.0554   -0.3121    1.9624 H   0  0  0  0  0  0  0  0  0  0  0  0
   -4.7853    1.4037    0.2882 H   0  0  0  0  0  0  0  0  0  0  0  0
   -3.8081    2.8561    0.0903 H   0  0  0  0  0  0  0  0  0  0  0  0
   -5.8116    2.3569    2.3229 H   0  0  0  0  0  0  0  0  0  0  0  0
   -4.6411    3.6907    2.3247 H   0  0  0  0  0  0  0  0  0  0  0  0
   -5.8481    3.5730    1.0444 H   0  0  0  0  0  0  0  0  0  0  0  0
   -1.7038    2.0326    0.1397 H   0  0  0  0  0  0  0  0  0  0  0  0
   -1.1271    0.9706    1.3584 H   0  0  0  0  0  0  0  0  0  0  0  0
   -3.1103    0.1447   -0.8357 H   0  0  0  0  0  0  0  0  0  0  0  0
   -2.3960   -0.9417    0.3992 H   0  0  0  0  0  0  0  0  0  0  0  0
   -2.8684   -2.2554   -1.4639 H   0  0  0  0  0  0  0  0  0  0  0  0
   -2.1128   -2.7980   -4.0510 H   0  0  0  0  0  0  0  0  0  0  0  0
    0.1244   -4.0302   -2.2519 H   0  0  0  0  0  0  0  0  0  0  0  0
    1.4250   -2.3182   -4.0703 H   0  0  0  0  0  0  0  0  0  0  0  0
    2.4555    1.3964   -2.3614 H   0  0  0  0  0  0  0  0  0  0  0  0
    1.8044   -1.0921   -0.6449 H   0  0  0  0  0  0  0  0  0  0  0  0
    2.8984    2.4176   -0.1811 H   0  0  0  0  0  0  0  0  0  0  0  0
    4.6544    3.1252    1.3375 H   0  0  0  0  0  0  0  0  0  0  0  0
    7.4696    2.7816    3.6438 H   0  0  0  0  0  0  0  0  0  0  0  0
    5.7617    3.1905    3.4362 H   0  0  0  0  0  0  0  0  0  0  0  0
    6.9109    3.3090    2.0492 H   0  0  0  0  0  0  0  0  0  0  0  0
    5.8064   -0.9803    1.9501 H   0  0  0  0  0  0  0  0  0  0  0  0
    4.0409   -1.7047    0.3987 H   0  0  0  0  0  0  0  0  0  0  0  0
  1  2  1  0
  2  3  1  0
  3  4  1  0
  4  5  1  0
  3  6  1  0
  6  7  1  0
  7  8  1  0
  8  9  1  0
  9 10  2  0
 10 11  1  0
 11 12  1  0
 12 13  1  0
 13 14  2  0
 13 15  1  0
 15 16  1  0
 16 17  1  0
 17 18  2  0
 18 19  1  0
 19 20  2  0
 19 21  1  0
 21 22  2  0
 22 23  1  0
 23 24  2  0
 24 25  1  0
 25 26  2  0
 26 27  1  0
 27 28  1  0
 26 29  1  0
 29 30  2  0
 18  9  1  0
 30 23  1  0
 16 11  1  0
  1 31  1  0
  1 32  1  0
  1 33  1  0
  2 34  1  0
  2 35  1  0
  4 36  1  0
  4 37  1  0
  5 38  1  0
  5 39  1  0
  5 40  1  0
  6 41  1  0
  6 42  1  0
  7 43  1  0
  7 44  1  0
 10 45  1  0
 11 46  1  6
 16 47  1  1
 17 48  1  0
 21 49  1  0
 22 50  1  0
 24 51  1  0
 25 52  1  0
 28 53  1  0
 28 54  1  0
 28 55  1  0
 29 56  1  0
 30 57  1  0
M  END
$$$$
