
     RDKit          3D

 57 59  0  0  0  0  0  0  0  0999 V2000
   -0.4069    1.9152    2.6213 C   0  0  0  0  0  0  0  0  0  0  0  0
   -1.2271    0.6537    2.3699 C   0  0  0  0  0  0  0  0  0  0  0  0
   -2.3592    0.8625    1.4429 N   0  0  0  0  0  0  0  0  0  0  0  0
   -3.3873    1.7457    2.0334 C   0  0  0  0  0  0  0  0  0  0  0  0
   -4.3491    2.3162    0.9931 C   0  0  0  0  0  0  0  0  0  0  0  0
   -2.9565   -0.4384    1.0482 C   0  0  0  0  0  0  0  0  0  0  0  0
   -2.1061   -1.3164    0.1077 C   0  0  0  0  0  0  0  0  0  0  0  0
   -1.8963   -0.6305   -1.1336 O   0  0  0  0  0  0  0  0  0  0  0  0
   -1.4553   -1.4035   -2.1800 C   0  0  0  0  0  0  0  0  0  0  0  0
   -2.0216   -2.5691   -2.5682 C   0  0  0  0  0  0  0  0  0  0  0  0
   -1.5365   -3.2131   -3.8357 C   0  0  2  0  0  0  0  0  0  0  0  0
   -1.7437   -4.6155   -3.9051 O   0  0  0  0  0  0  0  0  0  0  0  0
   -0.9495   -5.0604   -4.9388 C   0  0  0  0  0  0  0  0  0  0  0  0
   -1.0246   -6.1839   -5.4074 O   0  0  0  0  0  0  0  0  0  0  0  0
    0.2581   -3.8755   -5.4962 S   0  0  0  0  0  0  0  0  0  0  0  0
   -0.0299   -2.9881   -3.9799 C   0  0  1  0  0  0  0  0  0  0  0  0
    0.3073   -1.5416   -3.8920 C   0  0  0  0  0  0  0  0  0  0  0  0
   -0.3768   -0.8078   -2.9847 C   0  0  0  0  0  0  0  0  0  0  0  0
    0.0238    0.6169   -2.8368 C   0  0  0  0  0  0  0  0  0  0  0  0
   -0.3333    1.4621   -3.6514 O   0  0  0  0  0  0  0  0  0  0  0  0
    0.9348    0.9935   -1.7189 C   0  0  0  0  0  0  0  0  0  0  0  0
    1.4970    0.1358   -0.8513 C   0  0  0  0  0  0  0  0  0  0  0  0
    2.4384    0.4970    0.2267 C   0  0  0  0  0  0  0  0  0  0  0  0
    3.1570   -0.5285    0.8579 C   0  0  0  0  0  0  0  0  0  0  0  0
    4.0552   -0.2449    1.8935 C   0  0  0  0  0  0  0  0  0  0  0  0
    4.2539    1.0678    2.3227 C   0  0  0  0  0  0  0  0  0  0  0  0
    5.1530    1.2059    3.3411 O   0  0  0  0  0  0  0  0  0  0  0  0
    5.3609    2.5224    3.8391 C   0  0  0  0  0  0  0  0  0  0  0  0
    3.5469    2.0950    1.7031 C   0  0  0  0  0  0  0  0  0  0  0  0
    2.6419    1.8096    0.6700 C   0  0  0  0  0  0  0  0  0  0  0  0
    0.5194    1.6599    3.1445 H   0  0  0  0  0  0  0  0  0  0  0  0
   -0.9377    2.6364    3.2507 H   0  0  0  0  0  0  0  0  0  0  0  0
   -0.1373    2.4059    1.6811 H   0  0  0  0  0  0  0  0  0  0  0  0
   -0.5291   -0.0748    1.9439 H   0  0  0  0  0  0  0  0  0  0  0  0
   -1.5732    0.2434    3.3251 H   0  0  0  0  0  0  0  0  0  0  0  0
   -2.9227    2.6164    2.5056 H   0  0  0  0  0  0  0  0  0  0  0  0
   -3.9486    1.2239    2.8196 H   0  0  0  0  0  0  0  0  0  0  0  0
   -4.9957    1.5485    0.5588 H   0  0  0  0  0  0  0  0  0  0  0  0
   -5.0014    3.0642    1.4608 H   0  0  0  0  0  0  0  0  0  0  0  0
   -3.8022    2.8105    0.1817 H   0  0  0  0  0  0  0  0  0  0  0  0
   -3.2128   -1.0195    1.9445 H   0  0  0  0  0  0  0  0  0  0  0  0
   -3.8921   -0.2607    0.5107 H   0  0  0  0  0  0  0  0  0  0  0  0
   -1.1355   -1.5655    0.5484 H   0  0  0  0  0  0  0  0  0  0  0  0
   -2.6545   -2.2549   -0.0394 H   0  0  0  0  0  0  0  0  0  0  0  0
   -2.8981   -2.9864   -2.0809 H   0  0  0  0  0  0  0  0  0  0  0  0
   -2.1233   -2.7543   -4.6479 H   0  0  0  0  0  0  0  0  0  0  0  0
    0.5334   -3.5233   -3.2016 H   0  0  0  0  0  0  0  0  0  0  0  0
    1.1114   -1.1157   -4.4884 H   0  0  0  0  0  0  0  0  0  0  0  0
    1.1324    2.0597   -1.6907 H   0  0  0  0  0  0  0  0  0  0  0  0
    1.2878   -0.9282   -0.9278 H   0  0  0  0  0  0  0  0  0  0  0  0
    3.0360   -1.5654    0.5517 H   0  0  0  0  0  0  0  0  0  0  0  0
    4.6090   -1.0558    2.3638 H   0  0  0  0  0  0  0  0  0  0  0  0
    4.4446    2.9194    4.2892 H   0  0  0  0  0  0  0  0  0  0  0  0
    6.1252    2.4669    4.6233 H   0  0  0  0  0  0  0  0  0  0  0  0
    5.7321    3.1916    3.0551 H   0  0  0  0  0  0  0  0  0  0  0  0
    3.6653    3.1348    1.9971 H   0  0  0  0  0  0  0  0  0  0  0  0
    2.0995    2.6412    0.2302 H   0  0  0  0  0  0  0  0  0  0  0  0
  1  2  1  0
  2  3  1  0
  3  4  1  0
  4  5  1  0
  3  6  1  0
  6  7  1  0
  7  8  1  0
  8  9  1  0
  9 10  2  0
 10 11  1  0
 11 12  1  0
 12 13  1  0
 13 14  2  0
 13 15  1  0
 15 16  1  0
 16 17  1  0
 17 18  2  0
 18 19  1  0
 19 20  2  0
 19 21  1  0
 21 22  2  0
 22 23  1  0
 23 24  2  0
 24 25  1  0
 25 26  2  0
 26 27  1  0
 27 28  1  0
 26 29  1  0
 29 30  2  0
 18  9  1  0
 30 23  1  0
 16 11  1  0
  1 31  1  0
  1 32  1  0
  1 33  1  0
  2 34  1  0
  2 35  1  0
  4 36  1  0
  4 37  1  0
  5 38  1  0
  5 39  1  0
  5 40  1  0
  6 41  1  0
  6 42  1  0
  7 43  1  0
  7 44  1  0
 10 45  1  0
 11 46  1  6
 16 47  1  1
 17 48  1  0
 21 49  1  0
 22 50  1  0
 24 51  1  0
 25 52  1  0
 28 53  1  0
 28 54  1  0
 28 55  1  0
 29 56  1  0
 30 57  1  0
M  END
$$$$
