
     RDKit          3D

 45 46  0  0  0  0  0  0  0  0999 V2000
    7.9321    1.0961   -0.1465 C   0  0  0  0  0  0  0  0  0  0  0  0
    6.7952    1.0304   -0.9995 O   0  0  0  0  0  0  0  0  0  0  0  0
    5.6698    0.4462   -0.4872 C   0  0  0  0  0  0  0  0  0  0  0  0
    5.5326   -0.0851    0.7939 C   0  0  0  0  0  0  0  0  0  0  0  0
    4.3166   -0.6539    1.1885 C   0  0  0  0  0  0  0  0  0  0  0  0
    3.2215   -0.6893    0.3121 C   0  0  0  0  0  0  0  0  0  0  0  0
    1.9753   -1.3188    0.8204 C   0  0  0  0  0  0  0  0  0  0  0  0
    2.0467   -2.2704    1.5937 O   0  0  0  0  0  0  0  0  0  0  0  0
    0.6703   -0.7191    0.4332 C   0  0  0  0  0  0  0  0  0  0  0  0
   -0.4721   -1.3213    0.7977 C   0  0  0  0  0  0  0  0  0  0  0  0
   -1.8062   -0.7953    0.4775 C   0  0  0  0  0  0  0  0  0  0  0  0
   -2.8120   -0.8764    1.4522 C   0  0  0  0  0  0  0  0  0  0  0  0
   -4.1005   -0.4050    1.1887 C   0  0  0  0  0  0  0  0  0  0  0  0
   -5.1420   -0.4313    2.0803 O   0  0  0  0  0  0  0  0  0  0  0  0
   -4.9496   -1.1551    3.2878 C   0  0  0  0  0  0  0  0  0  0  0  0
   -4.3711    0.1583   -0.0696 C   0  0  0  0  0  0  0  0  0  0  0  0
   -5.6482    0.5917   -0.3547 O   0  0  0  0  0  0  0  0  0  0  0  0
   -5.7766    1.9697   -0.0098 C   0  0  0  0  0  0  0  0  0  0  0  0
   -3.3891    0.2098   -1.0729 C   0  0  0  0  0  0  0  0  0  0  0  0
   -3.7728    0.7512   -2.2732 O   0  0  0  0  0  0  0  0  0  0  0  0
   -2.8859    0.5920   -3.3716 C   0  0  0  0  0  0  0  0  0  0  0  0
   -2.1068   -0.2655   -0.7868 C   0  0  0  0  0  0  0  0  0  0  0  0
    3.3726   -0.1752   -0.9797 C   0  0  0  0  0  0  0  0  0  0  0  0
    2.3534   -0.2467   -1.8893 O   0  0  0  0  0  0  0  0  0  0  0  0
    4.5874    0.3956   -1.3715 C   0  0  0  0  0  0  0  0  0  0  0  0
    7.7243    1.7020    0.7416 H   0  0  0  0  0  0  0  0  0  0  0  0
    8.7385    1.5847   -0.7018 H   0  0  0  0  0  0  0  0  0  0  0  0
    8.2768    0.0940    0.1292 H   0  0  0  0  0  0  0  0  0  0  0  0
    6.3476   -0.0783    1.5106 H   0  0  0  0  0  0  0  0  0  0  0  0
    4.2242   -1.0725    2.1899 H   0  0  0  0  0  0  0  0  0  0  0  0
    0.6802    0.2123   -0.1181 H   0  0  0  0  0  0  0  0  0  0  0  0
   -0.4471   -2.2407    1.3808 H   0  0  0  0  0  0  0  0  0  0  0  0
   -2.5606   -1.3021    2.4188 H   0  0  0  0  0  0  0  0  0  0  0  0
   -4.6837   -2.1987    3.0890 H   0  0  0  0  0  0  0  0  0  0  0  0
   -4.2004   -0.6687    3.9209 H   0  0  0  0  0  0  0  0  0  0  0  0
   -5.8978   -1.1520    3.8340 H   0  0  0  0  0  0  0  0  0  0  0  0
   -5.6207    2.1302    1.0626 H   0  0  0  0  0  0  0  0  0  0  0  0
   -5.0874    2.5931   -0.5899 H   0  0  0  0  0  0  0  0  0  0  0  0
   -6.7971    2.2811   -0.2518 H   0  0  0  0  0  0  0  0  0  0  0  0
   -1.9761    1.1838   -3.2286 H   0  0  0  0  0  0  0  0  0  0  0  0
   -2.6491   -0.4632   -3.5445 H   0  0  0  0  0  0  0  0  0  0  0  0
   -3.3903    0.9703   -4.2660 H   0  0  0  0  0  0  0  0  0  0  0  0
   -1.3254   -0.2395   -1.5391 H   0  0  0  0  0  0  0  0  0  0  0  0
    2.6880    0.0265   -2.7613 H   0  0  0  0  0  0  0  0  0  0  0  0
    4.7156    0.8049   -2.3701 H   0  0  0  0  0  0  0  0  0  0  0  0
  1  2  1  0
  2  3  1  0
  3  4  2  0
  4  5  1  0
  5  6  2  0
  6  7  1  0
  7  8  2  0
  7  9  1  0
  9 10  2  0
 10 11  1  0
 11 12  2  0
 12 13  1  0
 13 14  1  0
 14 15  1  0
 13 16  2  0
 16 17  1  0
 17 18  1  0
 16 19  1  0
 19 20  1  0
 20 21  1  0
 19 22  2  0
  6 23  1  0
 23 24  1  0
 23 25  2  0
 25  3  1  0
 22 11  1  0
  1 26  1  0
  1 27  1  0
  1 28  1  0
  4 29  1  0
  5 30  1  0
  9 31  1  0
 10 32  1  0
 12 33  1  0
 15 34  1  0
 15 35  1  0
 15 36  1  0
 18 37  1  0
 18 38  1  0
 18 39  1  0
 21 40  1  0
 21 41  1  0
 21 42  1  0
 22 43  1  0
 24 44  1  0
 25 45  1  0
M  END
$$$$
